MODEL 1
REMARK VINA RESULT:     -12.0      0.000      0.000
REMARK SMILES O=C(NCCCNC(=O)[C@@H]1CC=CC[C@@H]1C(=O)Nc1ccc(Br)cc1Cl)c1ccc(-c2c3nc(c(-c4c(F)cccc4F)c4ccc([nH]4)c(-c4c(F)cccc4F)c4nc(c(-c5c(F)cccc5F)c5ccc2[nH]5)C=C4)C=C3)cc1
REMARK SMILES IDX 5 1 4 2 3 3 1 4 2 5 27 7 28 8 80 9 29 10 79 11 30 12 31 13
REMARK SMILES IDX 32 14 73 15 33 16 78 17 72 18 74 19 34 20 77 21 71 22 70 23
REMARK SMILES IDX 35 25 61 26 44 27 60 28 45 29 48 30 59 31 75 32 46 33 47 34
REMARK SMILES IDX 58 36 76 37 49 38 36 39 37 40 42 41 38 42 39 43 41 44 43 45
REMARK SMILES IDX 40 46 62 47 63 48 68 49 64 50 65 51 67 52 69 53 66 54 50 55
REMARK SMILES IDX 51 56 56 57 52 58 53 59 55 60 57 61 54 62 6 63 7 64 8 65
REMARK SMILES IDX 9 67 10 68 11 69 15 70 12 71 14 72 13 73 16 74 17 75 18 76
REMARK SMILES IDX 19 78 20 79 25 80 21 81 24 82 26 83 22 84 23 85
REMARK H PARENT 3 6 74 24 48 35 7 66 18 77
REMARK Flexibility Score: inf
ROOT
ATOM      1  C   UNL A   1      37.766  19.240  24.960  1.00  0.00     0.042 C 
ENDROOT
BRANCH   1   2
ATOM      2  C   UNL A   1      38.982  19.893  25.610  1.00  0.00     0.118 C 
BRANCH   2   3
ATOM      3  N   UNL A   1      40.095  18.963  25.759  1.00  0.00    -0.352 N 
ATOM      4  O   UNL A   1      42.247  18.307  25.824  1.00  0.00    -0.269 OA
ATOM      5  C   UNL A   1      41.430  19.209  25.966  1.00  0.00     0.251 C 
ATOM      6  H   UNL A   1      39.852  18.011  25.702  1.00  0.00     0.163 HD
BRANCH   5   7
ATOM      7  C   UNL A   1      41.877  20.561  26.354  1.00  0.00     0.039 A 
ATOM      8  C   UNL A   1      42.172  21.514  25.377  1.00  0.00     0.014 A 
ATOM      9  C   UNL A   1      41.962  20.894  27.709  1.00  0.00     0.014 A 
ATOM     10  C   UNL A   1      42.690  22.746  25.749  1.00  0.00     0.010 A 
ATOM     11  C   UNL A   1      42.388  22.171  28.082  1.00  0.00     0.010 A 
ATOM     12  C   UNL A   1      42.776  23.099  27.105  1.00  0.00    -0.014 A 
BRANCH  12  13
ATOM     13  C   UNL A   1      43.188  24.479  27.463  1.00  0.00     0.031 A 
ATOM     14  C   UNL A   1      44.625  24.905  27.394  1.00  0.00     0.074 A 
ATOM     15  C   UNL A   1      42.234  25.355  27.832  1.00  0.00     0.049 A 
ATOM     16  N   UNL A   1      45.148  26.077  27.659  1.00  0.00    -0.248 NA
ATOM     17  C   UNL A   1      45.606  23.890  26.980  1.00  0.00     0.031 C 
ATOM     18  C   UNL A   1      40.806  25.044  27.946  1.00  0.00     0.029 A 
ATOM     19  N   UNL A   1      42.311  26.682  28.162  1.00  0.00    -0.354 N 
ATOM     20  C   UNL A   1      46.515  25.937  27.461  1.00  0.00     0.074 A 
ATOM     21  C   UNL A   1      46.747  24.559  27.081  1.00  0.00     0.031 C 
ATOM     22  C   UNL A   1      40.138  26.159  28.274  1.00  0.00     0.029 A 
ATOM     23  C   UNL A   1      41.093  27.243  28.463  1.00  0.00     0.049 A 
ATOM     24  H   UNL A   1      43.157  27.186  28.181  1.00  0.00     0.167 HD
ATOM     25  C   UNL A   1      47.483  26.879  27.579  1.00  0.00     0.037 A 
ATOM     26  C   UNL A   1      40.781  28.485  28.870  1.00  0.00     0.037 A 
ATOM     27  C   UNL A   1      47.239  28.249  27.954  1.00  0.00     0.049 A 
ATOM     28  C   UNL A   1      41.880  29.492  29.031  1.00  0.00     0.074 A 
ATOM     29  C   UNL A   1      48.149  29.286  28.069  1.00  0.00     0.029 A 
ATOM     30  N   UNL A   1      45.997  28.771  28.285  1.00  0.00    -0.354 N 
ATOM     31  N   UNL A   1      43.163  29.358  28.801  1.00  0.00    -0.248 NA
ATOM     32  C   UNL A   1      41.488  30.824  29.511  1.00  0.00     0.031 C 
ATOM     33  C   UNL A   1      47.467  30.419  28.523  1.00  0.00     0.029 A 
ATOM     34  C   UNL A   1      46.121  30.107  28.633  1.00  0.00     0.049 A 
ATOM     35  H   UNL A   1      45.151  28.266  28.275  1.00  0.00     0.167 HD
ATOM     36  C   UNL A   1      43.730  30.591  29.088  1.00  0.00     0.074 A 
ATOM     37  C   UNL A   1      42.647  31.467  29.487  1.00  0.00     0.031 C 
ATOM     38  C   UNL A   1      45.032  30.965  29.027  1.00  0.00     0.037 A 
BRANCH  25  39
ATOM     39  C   UNL A   1      48.902  26.455  27.321  1.00  0.00     0.057 A 
ATOM     40  C   UNL A   1      49.739  25.996  28.347  1.00  0.00     0.134 A 
ATOM     41  C   UNL A   1      49.422  26.458  26.020  1.00  0.00     0.134 A 
ATOM     42  F   UNL A   1      49.310  25.977  29.618  1.00  0.00    -0.206 F 
ATOM     43  C   UNL A   1      51.048  25.578  28.092  1.00  0.00     0.040 A 
ATOM     44  C   UNL A   1      50.719  26.016  25.749  1.00  0.00     0.040 A 
ATOM     45  F   UNL A   1      48.674  26.876  24.988  1.00  0.00    -0.206 F 
ATOM     46  C   UNL A   1      51.537  25.580  26.787  1.00  0.00     0.006 A 
ENDBRANCH  25  39
BRANCH  26  47
ATOM     47  C   UNL A   1      39.368  28.833  29.166  1.00  0.00     0.057 A 
ATOM     48  C   UNL A   1      38.822  28.634  30.438  1.00  0.00     0.134 A 
ATOM     49  C   UNL A   1      38.533  29.380  28.183  1.00  0.00     0.134 A 
ATOM     50  F   UNL A   1      39.567  28.100  31.417  1.00  0.00    -0.206 F 
ATOM     51  C   UNL A   1      37.491  28.947  30.719  1.00  0.00     0.040 A 
ATOM     52  C   UNL A   1      37.211  29.727  28.458  1.00  0.00     0.040 A 
ATOM     53  F   UNL A   1      39.000  29.607  26.946  1.00  0.00    -0.206 F 
ATOM     54  C   UNL A   1      36.684  29.501  29.727  1.00  0.00     0.006 A 
ENDBRANCH  26  47
BRANCH  38  55
ATOM     55  C   UNL A   1      45.347  32.393  29.368  1.00  0.00     0.057 A 
ATOM     56  C   UNL A   1      45.707  32.784  30.663  1.00  0.00     0.134 A 
ATOM     57  C   UNL A   1      45.311  33.384  28.378  1.00  0.00     0.134 A 
ATOM     58  F   UNL A   1      45.744  31.887  31.660  1.00  0.00    -0.206 F 
ATOM     59  C   UNL A   1      45.992  34.115  30.970  1.00  0.00     0.040 A 
ATOM     60  C   UNL A   1      45.624  34.713  28.666  1.00  0.00     0.040 A 
ATOM     61  F   UNL A   1      44.981  33.075  27.116  1.00  0.00    -0.206 F 
ATOM     62  C   UNL A   1      45.958  35.083  29.967  1.00  0.00     0.006 A 
ENDBRANCH  38  55
ENDBRANCH  12  13
ENDBRANCH   5   7
ENDBRANCH   2   3
ENDBRANCH   1   2
BRANCH   1  63
ATOM     63  C   UNL A   1      36.523  20.121  25.005  1.00  0.00     0.117 C 
BRANCH  63  64
ATOM     64  N   UNL A   1      36.872  21.527  24.938  1.00  0.00    -0.356 N 
ATOM     65  C   UNL A   1      36.187  22.594  24.454  1.00  0.00     0.224 C 
ATOM     66  H   UNL A   1      37.758  21.744  25.308  1.00  0.00     0.163 HD
ATOM     67  O   UNL A   1      36.705  23.697  24.635  1.00  0.00    -0.275 OA
BRANCH  65  68
ATOM     68  C   UNL A   1      34.816  22.419  23.805  1.00  0.00     0.095 C 
ATOM     69  C   UNL A   1      34.308  23.639  23.022  1.00  0.00     0.041 C 
ATOM     70  C   UNL A   1      33.780  21.828  24.788  1.00  0.00     0.095 C 
ATOM     71  C   UNL A   1      32.833  23.658  22.762  1.00  0.00    -0.030 C 
ATOM     72  C   UNL A   1      32.410  21.618  24.132  1.00  0.00     0.041 C 
ATOM     73  C   UNL A   1      31.986  22.737  23.237  1.00  0.00    -0.030 C 
BRANCH  70  74
ATOM     74  C   UNL A   1      33.631  22.262  26.262  1.00  0.00     0.228 C 
ATOM     75  O   UNL A   1      33.811  21.395  27.135  1.00  0.00    -0.274 OA
ATOM     76  N   UNL A   1      33.315  23.496  26.731  1.00  0.00    -0.324 N 
ATOM     77  H   UNL A   1      33.360  23.581  27.711  1.00  0.00     0.169 HD
BRANCH  76  78
ATOM     78  C   UNL A   1      32.937  24.664  26.072  1.00  0.00     0.060 A 
ATOM     79  C   UNL A   1      33.943  25.578  25.743  1.00  0.00     0.029 A 
ATOM     80  C   UNL A   1      31.597  25.007  25.846  1.00  0.00     0.065 A 
ATOM     81  C   UNL A   1      33.635  26.733  25.023  1.00  0.00     0.018 A 
ATOM     82  C   UNL A   1      31.283  26.163  25.125  1.00  0.00     0.038 A 
ATOM     83  Cl  UNL A   1      30.297  24.078  26.504  1.00  0.00    -0.082 Cl
ATOM     84  C   UNL A   1      32.309  26.999  24.685  1.00  0.00     0.019 A 
ATOM     85  Br  UNL A   1      31.907  28.493  23.600  1.00  0.00    -0.051 Br
ENDBRANCH  76  78
ENDBRANCH  70  74
ENDBRANCH  65  68
ENDBRANCH  63  64
ENDBRANCH   1  63
TORSDOF 12
ENDMDL
MODEL 2
REMARK VINA RESULT:     -11.9      5.161      9.962
REMARK SMILES O=C(NCCCNC(=O)[C@@H]1CC=CC[C@@H]1C(=O)Nc1ccc(Br)cc1Cl)c1ccc(-c2c3nc(c(-c4c(F)cccc4F)c4ccc([nH]4)c(-c4c(F)cccc4F)c4nc(c(-c5c(F)cccc5F)c5ccc2[nH]5)C=C4)C=C3)cc1
REMARK SMILES IDX 5 1 4 2 3 3 1 4 2 5 27 7 28 8 80 9 29 10 79 11 30 12 31 13
REMARK SMILES IDX 32 14 73 15 33 16 78 17 72 18 74 19 34 20 77 21 71 22 70 23
REMARK SMILES IDX 35 25 61 26 44 27 60 28 45 29 48 30 59 31 75 32 46 33 47 34
REMARK SMILES IDX 58 36 76 37 49 38 36 39 37 40 42 41 38 42 39 43 41 44 43 45
REMARK SMILES IDX 40 46 62 47 63 48 68 49 64 50 65 51 67 52 69 53 66 54 50 55
REMARK SMILES IDX 51 56 56 57 52 58 53 59 55 60 57 61 54 62 6 63 7 64 8 65
REMARK SMILES IDX 9 67 10 68 11 69 15 70 12 71 14 72 13 73 16 74 17 75 18 76
REMARK SMILES IDX 19 78 20 79 25 80 21 81 24 82 26 83 22 84 23 85
REMARK H PARENT 3 6 74 24 48 35 7 66 18 77
REMARK Flexibility Score: inf
ROOT
ATOM      1  C   UNL A   1      31.239  32.159  26.501  1.00  0.00     0.042 C 
ENDROOT
BRANCH   1   2
ATOM      2  C   UNL A   1      32.522  32.575  27.213  1.00  0.00     0.118 C 
BRANCH   2   3
ATOM      3  N   UNL A   1      32.490  33.967  27.643  1.00  0.00    -0.352 N 
ATOM      4  O   UNL A   1      32.876  35.724  28.996  1.00  0.00    -0.269 OA
ATOM      5  C   UNL A   1      33.213  34.608  28.618  1.00  0.00     0.251 C 
ATOM      6  H   UNL A   1      31.850  34.537  27.158  1.00  0.00     0.163 HD
BRANCH   5   7
ATOM      7  C   UNL A   1      34.394  33.950  29.211  1.00  0.00     0.039 A 
ATOM      8  C   UNL A   1      34.235  32.871  30.083  1.00  0.00     0.014 A 
ATOM      9  C   UNL A   1      35.674  34.387  28.858  1.00  0.00     0.014 A 
ATOM     10  C   UNL A   1      35.344  32.326  30.714  1.00  0.00     0.010 A 
ATOM     11  C   UNL A   1      36.795  33.769  29.418  1.00  0.00     0.010 A 
ATOM     12  C   UNL A   1      36.637  32.749  30.368  1.00  0.00    -0.014 A 
BRANCH  12  13
ATOM     13  C   UNL A   1      37.804  32.039  30.948  1.00  0.00     0.031 A 
ATOM     14  C   UNL A   1      38.291  32.344  32.334  1.00  0.00     0.074 A 
ATOM     15  C   UNL A   1      38.408  31.090  30.207  1.00  0.00     0.049 A 
ATOM     16  N   UNL A   1      39.287  31.805  32.992  1.00  0.00    -0.248 NA
ATOM     17  C   UNL A   1      37.578  33.393  33.079  1.00  0.00     0.031 C 
ATOM     18  C   UNL A   1      38.024  30.720  28.841  1.00  0.00     0.029 A 
ATOM     19  N   UNL A   1      39.453  30.253  30.495  1.00  0.00    -0.354 N 
ATOM     20  C   UNL A   1      39.330  32.455  34.218  1.00  0.00     0.074 A 
ATOM     21  C   UNL A   1      38.280  33.451  34.203  1.00  0.00     0.031 C 
ATOM     22  C   UNL A   1      38.792  29.702  28.429  1.00  0.00     0.029 A 
ATOM     23  C   UNL A   1      39.766  29.395  29.469  1.00  0.00     0.049 A 
ATOM     24  H   UNL A   1      39.934  30.266  31.354  1.00  0.00     0.167 HD
ATOM     25  C   UNL A   1      40.168  32.232  35.260  1.00  0.00     0.037 A 
ATOM     26  C   UNL A   1      40.743  28.478  29.365  1.00  0.00     0.037 A 
ATOM     27  C   UNL A   1      41.208  31.234  35.264  1.00  0.00     0.049 A 
ATOM     28  C   UNL A   1      41.680  28.284  30.520  1.00  0.00     0.074 A 
ATOM     29  C   UNL A   1      42.087  30.909  36.283  1.00  0.00     0.029 A 
ATOM     30  N   UNL A   1      41.517  30.407  34.193  1.00  0.00    -0.354 N 
ATOM     31  N   UNL A   1      41.684  28.877  31.689  1.00  0.00    -0.248 NA
ATOM     32  C   UNL A   1      42.750  27.294  30.342  1.00  0.00     0.031 C 
ATOM     33  C   UNL A   1      42.963  29.926  35.811  1.00  0.00     0.029 A 
ATOM     34  C   UNL A   1      42.591  29.593  34.517  1.00  0.00     0.049 A 
ATOM     35  H   UNL A   1      41.043  30.399  33.331  1.00  0.00     0.167 HD
ATOM     36  C   UNL A   1      42.741  28.320  32.393  1.00  0.00     0.074 A 
ATOM     37  C   UNL A   1      43.341  27.325  31.527  1.00  0.00     0.031 C 
ATOM     38  C   UNL A   1      43.177  28.608  33.644  1.00  0.00     0.037 A 
BRANCH  25  39
ATOM     39  C   UNL A   1      40.010  33.098  36.479  1.00  0.00     0.057 A 
ATOM     40  C   UNL A   1      40.773  34.257  36.671  1.00  0.00     0.134 A 
ATOM     41  C   UNL A   1      39.045  32.795  37.448  1.00  0.00     0.134 A 
ATOM     42  F   UNL A   1      41.722  34.601  35.787  1.00  0.00    -0.206 F 
ATOM     43  C   UNL A   1      40.598  35.070  37.794  1.00  0.00     0.040 A 
ATOM     44  C   UNL A   1      38.842  33.615  38.560  1.00  0.00     0.040 A 
ATOM     45  F   UNL A   1      38.273  31.705  37.324  1.00  0.00    -0.206 F 
ATOM     46  C   UNL A   1      39.624  34.753  38.738  1.00  0.00     0.006 A 
ENDBRANCH  25  39
BRANCH  26  47
ATOM     47  C   UNL A   1      40.888  27.690  28.115  1.00  0.00     0.057 A 
ATOM     48  C   UNL A   1      41.648  28.165  27.041  1.00  0.00     0.134 A 
ATOM     49  C   UNL A   1      40.276  26.439  27.969  1.00  0.00     0.134 A 
ATOM     50  F   UNL A   1      42.247  29.363  27.115  1.00  0.00    -0.206 F 
ATOM     51  C   UNL A   1      41.778  27.436  25.859  1.00  0.00     0.040 A 
ATOM     52  C   UNL A   1      40.423  25.684  26.806  1.00  0.00     0.040 A 
ATOM     53  F   UNL A   1      39.544  25.921  28.967  1.00  0.00    -0.206 F 
ATOM     54  C   UNL A   1      41.168  26.187  25.742  1.00  0.00     0.006 A 
ENDBRANCH  26  47
BRANCH  38  55
ATOM     55  C   UNL A   1      44.338  27.808  34.161  1.00  0.00     0.057 A 
ATOM     56  C   UNL A   1      45.659  28.260  34.048  1.00  0.00     0.134 A 
ATOM     57  C   UNL A   1      44.127  26.579  34.799  1.00  0.00     0.134 A 
ATOM     58  F   UNL A   1      45.930  29.421  33.432  1.00  0.00    -0.206 F 
ATOM     59  C   UNL A   1      46.731  27.506  34.527  1.00  0.00     0.040 A 
ATOM     60  C   UNL A   1      45.189  25.831  35.310  1.00  0.00     0.040 A 
ATOM     61  F   UNL A   1      42.886  26.091  34.947  1.00  0.00    -0.206 F 
ATOM     62  C   UNL A   1      46.496  26.291  35.167  1.00  0.00     0.006 A 
ENDBRANCH  38  55
ENDBRANCH  12  13
ENDBRANCH   5   7
ENDBRANCH   2   3
ENDBRANCH   1   2
BRANCH   1  63
ATOM     63  C   UNL A   1      31.366  30.823  25.778  1.00  0.00     0.117 C 
BRANCH  63  64
ATOM     64  N   UNL A   1      32.190  29.895  26.527  1.00  0.00    -0.356 N 
ATOM     65  C   UNL A   1      32.197  28.538  26.566  1.00  0.00     0.224 C 
ATOM     66  H   UNL A   1      32.861  30.324  27.107  1.00  0.00     0.163 HD
ATOM     67  O   UNL A   1      33.098  28.020  27.228  1.00  0.00    -0.275 OA
BRANCH  65  68
ATOM     68  C   UNL A   1      31.189  27.724  25.759  1.00  0.00     0.095 C 
ATOM     69  C   UNL A   1      31.041  26.259  26.193  1.00  0.00     0.041 C 
ATOM     70  C   UNL A   1      31.378  27.913  24.237  1.00  0.00     0.095 C 
ATOM     71  C   UNL A   1      30.416  25.355  25.176  1.00  0.00    -0.030 C 
ATOM     72  C   UNL A   1      30.346  27.124  23.420  1.00  0.00     0.041 C 
ATOM     73  C   UNL A   1      30.080  25.749  23.942  1.00  0.00    -0.030 C 
BRANCH  70  74
ATOM     74  C   UNL A   1      32.747  27.939  23.526  1.00  0.00     0.228 C 
ATOM     75  O   UNL A   1      33.035  28.958  22.874  1.00  0.00    -0.274 OA
ATOM     76  N   UNL A   1      33.692  26.964  23.517  1.00  0.00    -0.324 N 
ATOM     77  H   UNL A   1      34.534  27.219  23.076  1.00  0.00     0.169 HD
BRANCH  76  78
ATOM     78  C   UNL A   1      33.681  25.665  24.021  1.00  0.00     0.060 A 
ATOM     79  C   UNL A   1      34.225  25.458  25.293  1.00  0.00     0.029 A 
ATOM     80  C   UNL A   1      33.267  24.561  23.263  1.00  0.00     0.065 A 
ATOM     81  C   UNL A   1      34.181  24.192  25.879  1.00  0.00     0.018 A 
ATOM     82  C   UNL A   1      33.222  23.290  23.845  1.00  0.00     0.038 A 
ATOM     83  Cl  UNL A   1      32.882  24.703  21.585  1.00  0.00    -0.082 Cl
ATOM     84  C   UNL A   1      33.643  23.123  25.164  1.00  0.00     0.019 A 
ATOM     85  Br  UNL A   1      33.465  21.440  26.003  1.00  0.00    -0.051 Br
ENDBRANCH  76  78
ENDBRANCH  70  74
ENDBRANCH  65  68
ENDBRANCH  63  64
ENDBRANCH   1  63
TORSDOF 12
ENDMDL
MODEL 3
REMARK VINA RESULT:     -11.9      0.380      6.153
REMARK SMILES O=C(NCCCNC(=O)[C@@H]1CC=CC[C@@H]1C(=O)Nc1ccc(Br)cc1Cl)c1ccc(-c2c3nc(c(-c4c(F)cccc4F)c4ccc([nH]4)c(-c4c(F)cccc4F)c4nc(c(-c5c(F)cccc5F)c5ccc2[nH]5)C=C4)C=C3)cc1
REMARK SMILES IDX 5 1 4 2 3 3 1 4 2 5 27 7 28 8 80 9 29 10 79 11 30 12 31 13
REMARK SMILES IDX 32 14 73 15 33 16 78 17 72 18 74 19 34 20 77 21 71 22 70 23
REMARK SMILES IDX 35 25 61 26 44 27 60 28 45 29 48 30 59 31 75 32 46 33 47 34
REMARK SMILES IDX 58 36 76 37 49 38 36 39 37 40 42 41 38 42 39 43 41 44 43 45
REMARK SMILES IDX 40 46 62 47 63 48 68 49 64 50 65 51 67 52 69 53 66 54 50 55
REMARK SMILES IDX 51 56 56 57 52 58 53 59 55 60 57 61 54 62 6 63 7 64 8 65
REMARK SMILES IDX 9 67 10 68 11 69 15 70 12 71 14 72 13 73 16 74 17 75 18 76
REMARK SMILES IDX 19 78 20 79 25 80 21 81 24 82 26 83 22 84 23 85
REMARK H PARENT 3 6 74 24 48 35 7 66 18 77
REMARK Flexibility Score: inf
ROOT
ATOM      1  C   UNL A   1      38.100  19.203  24.933  1.00  0.00     0.042 C 
ENDROOT
BRANCH   1   2
ATOM      2  C   UNL A   1      39.235  19.810  25.751  1.00  0.00     0.118 C 
BRANCH   2   3
ATOM      3  N   UNL A   1      40.362  18.898  25.897  1.00  0.00    -0.352 N 
ATOM      4  O   UNL A   1      42.523  18.267  25.921  1.00  0.00    -0.269 OA
ATOM      5  C   UNL A   1      41.699  19.164  26.058  1.00  0.00     0.251 C 
ATOM      6  H   UNL A   1      40.129  17.942  25.877  1.00  0.00     0.163 HD
BRANCH   5   7
ATOM      7  C   UNL A   1      42.143  20.532  26.391  1.00  0.00     0.039 A 
ATOM      8  C   UNL A   1      42.426  21.449  25.377  1.00  0.00     0.014 A 
ATOM      9  C   UNL A   1      42.235  20.917  27.732  1.00  0.00     0.014 A 
ATOM     10  C   UNL A   1      42.939  22.697  25.698  1.00  0.00     0.010 A 
ATOM     11  C   UNL A   1      42.656  22.209  28.054  1.00  0.00     0.010 A 
ATOM     12  C   UNL A   1      43.032  23.102  27.039  1.00  0.00    -0.014 A 
BRANCH  12  13
ATOM     13  C   UNL A   1      43.440  24.496  27.341  1.00  0.00     0.031 A 
ATOM     14  C   UNL A   1      42.440  25.520  27.793  1.00  0.00     0.074 A 
ATOM     15  C   UNL A   1      44.742  24.820  27.224  1.00  0.00     0.049 A 
ATOM     16  N   UNL A   1      42.637  26.776  28.110  1.00  0.00    -0.248 NA
ATOM     17  C   UNL A   1      41.039  25.088  27.898  1.00  0.00     0.031 C 
ATOM     18  C   UNL A   1      45.799  23.906  26.780  1.00  0.00     0.029 A 
ATOM     19  N   UNL A   1      45.404  25.991  27.480  1.00  0.00    -0.354 N 
ATOM     20  C   UNL A   1      41.388  27.287  28.436  1.00  0.00     0.074 A 
ATOM     21  C   UNL A   1      40.433  26.214  28.251  1.00  0.00     0.031 C 
ATOM     22  C   UNL A   1      46.980  24.537  26.840  1.00  0.00     0.029 A 
ATOM     23  C   UNL A   1      46.757  25.916  27.255  1.00  0.00     0.049 A 
ATOM     24  H   UNL A   1      44.954  26.809  27.794  1.00  0.00     0.167 HD
ATOM     25  C   UNL A   1      41.073  28.535  28.859  1.00  0.00     0.037 A 
ATOM     26  C   UNL A   1      47.712  26.858  27.348  1.00  0.00     0.037 A 
ATOM     27  C   UNL A   1      42.034  29.594  29.044  1.00  0.00     0.049 A 
ATOM     28  C   UNL A   1      47.325  28.241  27.779  1.00  0.00     0.074 A 
ATOM     29  C   UNL A   1      41.818  30.883  29.499  1.00  0.00     0.029 A 
ATOM     30  N   UNL A   1      43.391  29.490  28.772  1.00  0.00    -0.354 N 
ATOM     31  N   UNL A   1      46.146  28.699  28.123  1.00  0.00    -0.248 NA
ATOM     32  C   UNL A   1      48.400  29.240  27.832  1.00  0.00     0.031 C 
ATOM     33  C   UNL A   1      43.033  31.575  29.451  1.00  0.00     0.029 A 
ATOM     34  C   UNL A   1      44.019  30.699  29.023  1.00  0.00     0.049 A 
ATOM     35  H   UNL A   1      43.840  28.676  28.449  1.00  0.00     0.167 HD
ATOM     36  C   UNL A   1      46.340  30.033  28.453  1.00  0.00     0.074 A 
ATOM     37  C   UNL A   1      47.753  30.303  28.289  1.00  0.00     0.031 C 
ATOM     38  C   UNL A   1      45.428  30.951  28.855  1.00  0.00     0.037 A 
BRANCH  25  39
ATOM     39  C   UNL A   1      39.625  28.835  29.131  1.00  0.00     0.057 A 
ATOM     40  C   UNL A   1      39.062  28.689  30.405  1.00  0.00     0.134 A 
ATOM     41  C   UNL A   1      38.796  29.325  28.113  1.00  0.00     0.134 A 
ATOM     42  F   UNL A   1      39.796  28.214  31.423  1.00  0.00    -0.206 F 
ATOM     43  C   UNL A   1      37.722  28.997  30.652  1.00  0.00     0.040 A 
ATOM     44  C   UNL A   1      37.462  29.663  28.355  1.00  0.00     0.040 A 
ATOM     45  F   UNL A   1      39.271  29.497  26.870  1.00  0.00    -0.206 F 
ATOM     46  C   UNL A   1      36.921  29.494  29.626  1.00  0.00     0.006 A 
ENDBRANCH  25  39
BRANCH  26  47
ATOM     47  C   UNL A   1      49.118  26.521  27.013  1.00  0.00     0.057 A 
ATOM     48  C   UNL A   1      50.021  26.109  27.999  1.00  0.00     0.134 A 
ATOM     49  C   UNL A   1      49.590  26.596  25.696  1.00  0.00     0.134 A 
ATOM     50  F   UNL A   1      49.632  26.031  29.280  1.00  0.00    -0.206 F 
ATOM     51  C   UNL A   1      51.348  25.803  27.693  1.00  0.00     0.040 A 
ATOM     52  C   UNL A   1      50.905  26.262  25.371  1.00  0.00     0.040 A 
ATOM     53  F   UNL A   1      48.772  26.972  24.703  1.00  0.00    -0.206 F 
ATOM     54  C   UNL A   1      51.790  25.873  26.373  1.00  0.00     0.006 A 
ENDBRANCH  26  47
BRANCH  38  55
ATOM     55  C   UNL A   1      45.942  32.325  29.178  1.00  0.00     0.057 A 
ATOM     56  C   UNL A   1      46.405  32.661  30.457  1.00  0.00     0.134 A 
ATOM     57  C   UNL A   1      45.995  33.315  28.189  1.00  0.00     0.134 A 
ATOM     58  F   UNL A   1      46.366  31.763  31.453  1.00  0.00    -0.206 F 
ATOM     59  C   UNL A   1      46.876  33.941  30.748  1.00  0.00     0.040 A 
ATOM     60  C   UNL A   1      46.493  34.590  28.461  1.00  0.00     0.040 A 
ATOM     61  F   UNL A   1      45.574  33.057  26.942  1.00  0.00    -0.206 F 
ATOM     62  C   UNL A   1      46.928  34.908  29.745  1.00  0.00     0.006 A 
ENDBRANCH  38  55
ENDBRANCH  12  13
ENDBRANCH   5   7
ENDBRANCH   2   3
ENDBRANCH   1   2
BRANCH   1  63
ATOM     63  C   UNL A   1      36.815  20.019  25.001  1.00  0.00     0.117 C 
BRANCH  63  64
ATOM     64  N   UNL A   1      37.093  21.441  24.987  1.00  0.00    -0.356 N 
ATOM     65  C   UNL A   1      36.357  22.491  24.540  1.00  0.00     0.224 C 
ATOM     66  H   UNL A   1      37.966  21.688  25.370  1.00  0.00     0.163 HD
ATOM     67  O   UNL A   1      36.819  23.610  24.764  1.00  0.00    -0.275 OA
BRANCH  65  68
ATOM     68  C   UNL A   1      34.998  22.272  23.879  1.00  0.00     0.095 C 
ATOM     69  C   UNL A   1      34.470  23.466  23.071  1.00  0.00     0.041 C 
ATOM     70  C   UNL A   1      33.966  21.672  24.860  1.00  0.00     0.095 C 
ATOM     71  C   UNL A   1      32.998  23.445  22.794  1.00  0.00    -0.030 C 
ATOM     72  C   UNL A   1      32.608  21.418  24.192  1.00  0.00     0.041 C 
ATOM     73  C   UNL A   1      32.168  22.512  23.274  1.00  0.00    -0.030 C 
BRANCH  70  74
ATOM     74  C   UNL A   1      33.790  22.125  26.325  1.00  0.00     0.228 C 
ATOM     75  O   UNL A   1      33.990  21.280  27.214  1.00  0.00    -0.274 OA
ATOM     76  N   UNL A   1      33.428  23.355  26.770  1.00  0.00    -0.324 N 
ATOM     77  H   UNL A   1      33.461  23.458  27.749  1.00  0.00     0.169 HD
BRANCH  76  78
ATOM     78  C   UNL A   1      33.016  24.499  26.088  1.00  0.00     0.060 A 
ATOM     79  C   UNL A   1      33.993  25.439  25.749  1.00  0.00     0.029 A 
ATOM     80  C   UNL A   1      31.666  24.792  25.847  1.00  0.00     0.065 A 
ATOM     81  C   UNL A   1      33.653  26.571  25.007  1.00  0.00     0.018 A 
ATOM     82  C   UNL A   1      31.320  25.925  25.103  1.00  0.00     0.038 A 
ATOM     83  Cl  UNL A   1      30.394  23.833  26.512  1.00  0.00    -0.082 Cl
ATOM     84  C   UNL A   1      32.321  26.786  24.655  1.00  0.00     0.019 A 
ATOM     85  Br  UNL A   1      31.878  28.247  23.542  1.00  0.00    -0.051 Br
ENDBRANCH  76  78
ENDBRANCH  70  74
ENDBRANCH  65  68
ENDBRANCH  63  64
ENDBRANCH   1  63
TORSDOF 12
ENDMDL
