MODEL 1
REMARK VINA RESULT:     -11.5      0.000      0.000
REMARK SMILES C[C@@H](C(=O)NCCCNC(=O)c1ccc(-c2c3nc(c(-c4c(F)cccc4F)c4ccc([nH]4)c(-c4c(F)cccc4F)c4nc(c(-c5c(F)cccc5F)c5ccc2[nH]5)C=C4)C=C3)cc1)c1ccc(OC2CCCC2)cc1F
REMARK SMILES IDX 6 1 5 2 3 3 4 4 2 6 1 7 66 8 67 9 77 10 68 11 76 12 78 13
REMARK SMILES IDX 69 14 70 15 71 16 72 17 75 18 73 19 74 20 7 21 8 22 9 23
REMARK SMILES IDX 10 24 11 26 12 27 13 28 65 29 14 30 64 31 15 32 16 33 17 34
REMARK SMILES IDX 58 35 18 36 63 37 57 38 59 39 19 40 62 41 56 42 55 43 20 45
REMARK SMILES IDX 46 46 29 47 45 48 30 49 33 50 44 51 60 52 31 53 32 54 43 56
REMARK SMILES IDX 61 57 34 58 21 59 22 60 27 61 23 62 24 63 26 64 28 65 25 66
REMARK SMILES IDX 47 67 48 68 53 69 49 70 50 71 52 72 54 73 51 74 35 75 36 76
REMARK SMILES IDX 41 77 37 78 38 79 40 80 42 81 39 82
REMARK H PARENT 5 5 9 25 59 44 33 55
REMARK Flexibility Score: inf
ROOT
ATOM      1  C   UNL A   1      37.064  20.222  24.480  1.00  0.00     0.117 C 
ENDROOT
BRANCH   1   2
ATOM      2  N   UNL A   1      35.966  20.549  25.369  1.00  0.00    -0.356 N 
ATOM      3  C   UNL A   1      35.546  21.757  25.848  1.00  0.00     0.227 C 
ATOM      4  O   UNL A   1      34.799  21.715  26.825  1.00  0.00    -0.274 OA
ATOM      5  H   UNL A   1      35.440  19.777  25.678  1.00  0.00     0.163 HD
BRANCH   3   6
ATOM      6  C   UNL A   1      36.048  23.051  25.191  1.00  0.00     0.108 C 
ATOM      7  C   UNL A   1      37.084  23.695  26.124  1.00  0.00     0.023 C 
BRANCH   6   8
ATOM      8  C   UNL A   1      35.003  24.088  24.788  1.00  0.00     0.000 A 
ATOM      9  C   UNL A   1      34.590  25.171  25.572  1.00  0.00     0.011 A 
ATOM     10  C   UNL A   1      34.425  23.978  23.513  1.00  0.00     0.130 A 
ATOM     11  C   UNL A   1      33.705  26.130  25.063  1.00  0.00     0.047 A 
ATOM     12  C   UNL A   1      33.555  24.936  22.998  1.00  0.00     0.086 A 
ATOM     13  F   UNL A   1      34.730  22.927  22.736  1.00  0.00    -0.207 F 
ATOM     14  C   UNL A   1      33.214  26.043  23.760  1.00  0.00     0.122 A 
BRANCH  14  15
ATOM     15  O   UNL A   1      32.419  27.081  23.384  1.00  0.00    -0.490 OA
BRANCH  15  16
ATOM     16  C   UNL A   1      31.026  26.925  23.143  1.00  0.00     0.173 C 
ATOM     17  C   UNL A   1      30.180  26.332  24.268  1.00  0.00     0.045 C 
ATOM     18  C   UNL A   1      30.306  28.183  22.665  1.00  0.00     0.045 C 
ATOM     19  C   UNL A   1      28.758  26.704  23.876  1.00  0.00     0.004 C 
ATOM     20  C   UNL A   1      28.861  28.035  23.136  1.00  0.00     0.004 C 
ENDBRANCH  15  16
ENDBRANCH  14  15
ENDBRANCH   6   8
ENDBRANCH   3   6
ENDBRANCH   1   2
BRANCH   1  21
ATOM     21  C   UNL A   1      38.012  19.203  25.111  1.00  0.00     0.042 C 
BRANCH  21  22
ATOM     22  C   UNL A   1      39.246  19.811  25.768  1.00  0.00     0.118 C 
BRANCH  22  23
ATOM     23  N   UNL A   1      40.351  18.871  25.861  1.00  0.00    -0.352 N 
ATOM     24  C   UNL A   1      41.688  19.109  26.049  1.00  0.00     0.251 C 
ATOM     25  H   UNL A   1      40.102  17.921  25.778  1.00  0.00     0.163 HD
ATOM     26  O   UNL A   1      42.496  18.191  25.907  1.00  0.00    -0.269 OA
BRANCH  24  27
ATOM     27  C   UNL A   1      42.168  20.464  26.394  1.00  0.00     0.039 A 
ATOM     28  C   UNL A   1      42.539  21.329  25.361  1.00  0.00     0.014 A 
ATOM     29  C   UNL A   1      42.272  20.877  27.725  1.00  0.00     0.014 A 
ATOM     30  C   UNL A   1      42.955  22.628  25.661  1.00  0.00     0.010 A 
ATOM     31  C   UNL A   1      42.611  22.196  28.018  1.00  0.00     0.010 A 
ATOM     32  C   UNL A   1      42.959  23.084  26.990  1.00  0.00    -0.014 A 
BRANCH  32  33
ATOM     33  C   UNL A   1      43.324  24.486  27.320  1.00  0.00     0.031 A 
ATOM     34  C   UNL A   1      44.760  24.927  27.278  1.00  0.00     0.074 A 
ATOM     35  C   UNL A   1      42.365  25.347  27.714  1.00  0.00     0.049 A 
ATOM     36  N   UNL A   1      45.278  26.087  27.595  1.00  0.00    -0.248 NA
ATOM     37  C   UNL A   1      45.748  23.926  26.845  1.00  0.00     0.031 C 
ATOM     38  C   UNL A   1      40.940  25.031  27.833  1.00  0.00     0.029 A 
ATOM     39  N   UNL A   1      42.446  26.663  28.093  1.00  0.00    -0.354 N 
ATOM     40  C   UNL A   1      46.649  25.951  27.409  1.00  0.00     0.074 A 
ATOM     41  C   UNL A   1      46.887  24.582  27.008  1.00  0.00     0.031 C 
ATOM     42  C   UNL A   1      40.279  26.129  28.234  1.00  0.00     0.029 A 
ATOM     43  C   UNL A   1      41.235  27.213  28.439  1.00  0.00     0.049 A 
ATOM     44  H   UNL A   1      43.292  27.167  28.116  1.00  0.00     0.167 HD
ATOM     45  C   UNL A   1      47.617  26.889  27.538  1.00  0.00     0.037 A 
ATOM     46  C   UNL A   1      40.930  28.447  28.881  1.00  0.00     0.037 A 
ATOM     47  C   UNL A   1      47.376  28.255  27.925  1.00  0.00     0.049 A 
ATOM     48  C   UNL A   1      42.027  29.463  29.041  1.00  0.00     0.074 A 
ATOM     49  C   UNL A   1      48.286  29.292  28.041  1.00  0.00     0.029 A 
ATOM     50  N   UNL A   1      46.135  28.773  28.263  1.00  0.00    -0.354 N 
ATOM     51  N   UNL A   1      43.310  29.338  28.806  1.00  0.00    -0.248 NA
ATOM     52  C   UNL A   1      41.631  30.794  29.521  1.00  0.00     0.031 C 
ATOM     53  C   UNL A   1      47.602  30.425  28.494  1.00  0.00     0.029 A 
ATOM     54  C   UNL A   1      46.259  30.109  28.608  1.00  0.00     0.049 A 
ATOM     55  H   UNL A   1      45.291  28.266  28.258  1.00  0.00     0.167 HD
ATOM     56  C   UNL A   1      43.871  30.578  29.083  1.00  0.00     0.074 A 
ATOM     57  C   UNL A   1      42.785  31.446  29.489  1.00  0.00     0.031 C 
ATOM     58  C   UNL A   1      45.168  30.963  29.005  1.00  0.00     0.037 A 
BRANCH  45  59
ATOM     59  C   UNL A   1      49.030  26.467  27.255  1.00  0.00     0.057 A 
ATOM     60  C   UNL A   1      49.596  26.591  25.978  1.00  0.00     0.134 A 
ATOM     61  C   UNL A   1      49.848  25.963  28.274  1.00  0.00     0.134 A 
ATOM     62  F   UNL A   1      48.864  27.056  24.952  1.00  0.00    -0.206 F 
ATOM     63  C   UNL A   1      50.911  26.202  25.719  1.00  0.00     0.040 A 
ATOM     64  C   UNL A   1      51.175  25.598  28.035  1.00  0.00     0.040 A 
ATOM     65  F   UNL A   1      49.375  25.824  29.522  1.00  0.00    -0.206 F 
ATOM     66  C   UNL A   1      51.707  25.711  26.752  1.00  0.00     0.006 A 
ENDBRANCH  45  59
BRANCH  46  67
ATOM     67  C   UNL A   1      39.520  28.799  29.186  1.00  0.00     0.057 A 
ATOM     68  C   UNL A   1      38.679  29.325  28.199  1.00  0.00     0.134 A 
ATOM     69  C   UNL A   1      38.980  28.624  30.466  1.00  0.00     0.134 A 
ATOM     70  F   UNL A   1      39.142  29.534  26.957  1.00  0.00    -0.206 F 
ATOM     71  C   UNL A   1      37.357  29.681  28.475  1.00  0.00     0.040 A 
ATOM     72  C   UNL A   1      37.653  28.952  30.751  1.00  0.00     0.040 A 
ATOM     73  F   UNL A   1      39.732  28.117  31.454  1.00  0.00    -0.206 F 
ATOM     74  C   UNL A   1      36.841  29.489  29.755  1.00  0.00     0.006 A 
ENDBRANCH  46  67
BRANCH  58  75
ATOM     75  C   UNL A   1      45.481  32.395  29.330  1.00  0.00     0.057 A 
ATOM     76  C   UNL A   1      45.418  33.406  28.363  1.00  0.00     0.134 A 
ATOM     77  C   UNL A   1      45.810  32.773  30.639  1.00  0.00     0.134 A 
ATOM     78  F   UNL A   1      45.123  33.110  27.088  1.00  0.00    -0.206 F 
ATOM     79  C   UNL A   1      45.694  34.737  28.681  1.00  0.00     0.040 A 
ATOM     80  C   UNL A   1      46.058  34.104  30.975  1.00  0.00     0.040 A 
ATOM     81  F   UNL A   1      45.878  31.855  31.616  1.00  0.00    -0.206 F 
ATOM     82  C   UNL A   1      46.008  35.090  29.992  1.00  0.00     0.006 A 
ENDBRANCH  58  75
ENDBRANCH  32  33
ENDBRANCH  24  27
ENDBRANCH  22  23
ENDBRANCH  21  22
ENDBRANCH   1  21
TORSDOF 13
ENDMDL
MODEL 2
REMARK VINA RESULT:     -11.5      4.854      9.853
REMARK SMILES C[C@@H](C(=O)NCCCNC(=O)c1ccc(-c2c3nc(c(-c4c(F)cccc4F)c4ccc([nH]4)c(-c4c(F)cccc4F)c4nc(c(-c5c(F)cccc5F)c5ccc2[nH]5)C=C4)C=C3)cc1)c1ccc(OC2CCCC2)cc1F
REMARK SMILES IDX 6 1 5 2 3 3 4 4 2 6 1 7 66 8 67 9 77 10 68 11 76 12 78 13
REMARK SMILES IDX 69 14 70 15 71 16 72 17 75 18 73 19 74 20 7 21 8 22 9 23
REMARK SMILES IDX 10 24 11 26 12 27 13 28 65 29 14 30 64 31 15 32 16 33 17 34
REMARK SMILES IDX 58 35 18 36 63 37 57 38 59 39 19 40 62 41 56 42 55 43 20 45
REMARK SMILES IDX 46 46 29 47 45 48 30 49 33 50 44 51 60 52 31 53 32 54 43 56
REMARK SMILES IDX 61 57 34 58 21 59 22 60 27 61 23 62 24 63 26 64 28 65 25 66
REMARK SMILES IDX 47 67 48 68 53 69 49 70 50 71 52 72 54 73 51 74 35 75 36 76
REMARK SMILES IDX 41 77 37 78 38 79 40 80 42 81 39 82
REMARK H PARENT 5 5 9 25 59 44 33 55
REMARK Flexibility Score: inf
ROOT
ATOM      1  C   UNL A   1      31.287  30.819  26.488  1.00  0.00     0.117 C 
ENDROOT
BRANCH   1   2
ATOM      2  N   UNL A   1      31.839  30.270  25.265  1.00  0.00    -0.356 N 
ATOM      3  C   UNL A   1      32.753  29.272  25.078  1.00  0.00     0.227 C 
ATOM      4  O   UNL A   1      33.275  29.228  23.963  1.00  0.00    -0.274 OA
ATOM      5  H   UNL A   1      31.502  30.682  24.437  1.00  0.00     0.163 HD
BRANCH   3   6
ATOM      6  C   UNL A   1      33.097  28.329  26.237  1.00  0.00     0.108 C 
ATOM      7  C   UNL A   1      34.427  28.786  26.854  1.00  0.00     0.023 C 
BRANCH   6   8
ATOM      8  C   UNL A   1      33.156  26.833  25.937  1.00  0.00     0.000 A 
ATOM      9  C   UNL A   1      34.291  26.137  25.506  1.00  0.00     0.011 A 
ATOM     10  C   UNL A   1      31.992  26.075  26.138  1.00  0.00     0.130 A 
ATOM     11  C   UNL A   1      34.268  24.743  25.364  1.00  0.00     0.047 A 
ATOM     12  C   UNL A   1      31.967  24.689  26.011  1.00  0.00     0.086 A 
ATOM     13  F   UNL A   1      30.853  26.692  26.489  1.00  0.00    -0.207 F 
ATOM     14  C   UNL A   1      33.120  24.005  25.656  1.00  0.00     0.122 A 
BRANCH  14  15
ATOM     15  O   UNL A   1      33.269  22.658  25.537  1.00  0.00    -0.490 OA
BRANCH  15  16
ATOM     16  C   UNL A   1      32.476  21.880  24.649  1.00  0.00     0.173 C 
ATOM     17  C   UNL A   1      32.596  22.176  23.156  1.00  0.00     0.045 C 
ATOM     18  C   UNL A   1      32.613  20.369  24.812  1.00  0.00     0.045 C 
ATOM     19  C   UNL A   1      32.000  20.941  22.499  1.00  0.00     0.004 C 
ATOM     20  C   UNL A   1      32.309  19.777  23.438  1.00  0.00     0.004 C 
ENDBRANCH  15  16
ENDBRANCH  14  15
ENDBRANCH   6   8
ENDBRANCH   3   6
ENDBRANCH   1   2
BRANCH   1  21
ATOM     21  C   UNL A   1      31.399  32.343  26.519  1.00  0.00     0.042 C 
BRANCH  21  22
ATOM     22  C   UNL A   1      32.654  32.868  27.206  1.00  0.00     0.118 C 
BRANCH  22  23
ATOM     23  N   UNL A   1      32.467  34.193  27.777  1.00  0.00    -0.352 N 
ATOM     24  C   UNL A   1      33.158  34.817  28.783  1.00  0.00     0.251 C 
ATOM     25  H   UNL A   1      31.735  34.720  27.382  1.00  0.00     0.163 HD
ATOM     26  O   UNL A   1      32.726  35.867  29.259  1.00  0.00    -0.269 OA
BRANCH  24  27
ATOM     27  C   UNL A   1      34.402  34.225  29.319  1.00  0.00     0.039 A 
ATOM     28  C   UNL A   1      34.322  33.379  30.428  1.00  0.00     0.014 A 
ATOM     29  C   UNL A   1      35.645  34.514  28.748  1.00  0.00     0.014 A 
ATOM     30  C   UNL A   1      35.478  32.775  30.925  1.00  0.00     0.010 A 
ATOM     31  C   UNL A   1      36.785  33.851  29.194  1.00  0.00     0.010 A 
ATOM     32  C   UNL A   1      36.715  32.977  30.289  1.00  0.00    -0.014 A 
BRANCH  32  33
ATOM     33  C   UNL A   1      37.942  32.282  30.755  1.00  0.00     0.031 A 
ATOM     34  C   UNL A   1      38.762  32.859  31.875  1.00  0.00     0.074 A 
ATOM     35  C   UNL A   1      38.348  31.159  30.131  1.00  0.00     0.049 A 
ATOM     36  N   UNL A   1      39.895  32.432  32.375  1.00  0.00    -0.248 NA
ATOM     37  C   UNL A   1      38.256  34.090  32.501  1.00  0.00     0.031 C 
ATOM     38  C   UNL A   1      37.662  30.521  29.006  1.00  0.00     0.029 A 
ATOM     39  N   UNL A   1      39.442  30.360  30.349  1.00  0.00    -0.354 N 
ATOM     40  C   UNL A   1      40.239  33.346  33.364  1.00  0.00     0.074 A 
ATOM     41  C   UNL A   1      39.226  34.379  33.354  1.00  0.00     0.031 C 
ATOM     42  C   UNL A   1      38.337  29.416  28.649  1.00  0.00     0.029 A 
ATOM     43  C   UNL A   1      39.524  29.291  29.490  1.00  0.00     0.049 A 
ATOM     44  H   UNL A   1      40.106  30.535  31.055  1.00  0.00     0.167 HD
ATOM     45  C   UNL A   1      41.289  33.314  34.217  1.00  0.00     0.037 A 
ATOM     46  C   UNL A   1      40.455  28.324  29.385  1.00  0.00     0.037 A 
ATOM     47  C   UNL A   1      42.288  32.277  34.234  1.00  0.00     0.049 A 
ATOM     48  C   UNL A   1      41.626  28.325  30.327  1.00  0.00     0.074 A 
ATOM     49  C   UNL A   1      43.367  32.132  35.090  1.00  0.00     0.029 A 
ATOM     50  N   UNL A   1      42.333  31.209  33.351  1.00  0.00    -0.354 N 
ATOM     51  N   UNL A   1      41.908  29.163  31.295  1.00  0.00    -0.248 NA
ATOM     52  C   UNL A   1      42.606  27.241  30.167  1.00  0.00     0.031 C 
ATOM     53  C   UNL A   1      44.090  31.003  34.694  1.00  0.00     0.029 A 
ATOM     54  C   UNL A   1      43.434  30.414  33.627  1.00  0.00     0.049 A 
ATOM     55  H   UNL A   1      41.681  31.042  32.633  1.00  0.00     0.167 HD
ATOM     56  C   UNL A   1      43.079  28.694  31.876  1.00  0.00     0.074 A 
ATOM     57  C   UNL A   1      43.447  27.489  31.161  1.00  0.00     0.031 C 
ATOM     58  C   UNL A   1      43.785  29.213  32.910  1.00  0.00     0.037 A 
BRANCH  45  59
ATOM     59  C   UNL A   1      41.409  34.435  35.209  1.00  0.00     0.057 A 
ATOM     60  C   UNL A   1      40.835  34.357  36.486  1.00  0.00     0.134 A 
ATOM     61  C   UNL A   1      42.134  35.593  34.900  1.00  0.00     0.134 A 
ATOM     62  F   UNL A   1      40.117  33.280  36.843  1.00  0.00    -0.206 F 
ATOM     63  C   UNL A   1      40.953  35.399  37.406  1.00  0.00     0.040 A 
ATOM     64  C   UNL A   1      42.284  36.630  35.823  1.00  0.00     0.040 A 
ATOM     65  F   UNL A   1      42.717  35.733  33.700  1.00  0.00    -0.206 F 
ATOM     66  C   UNL A   1      41.686  36.537  37.078  1.00  0.00     0.006 A 
ENDBRANCH  45  59
BRANCH  46  67
ATOM     67  C   UNL A   1      40.308  27.261  28.358  1.00  0.00     0.057 A 
ATOM     68  C   UNL A   1      39.542  26.118  28.610  1.00  0.00     0.134 A 
ATOM     69  C   UNL A   1      40.930  27.358  27.107  1.00  0.00     0.134 A 
ATOM     70  F   UNL A   1      38.936  25.958  29.796  1.00  0.00    -0.206 F 
ATOM     71  C   UNL A   1      39.412  25.099  27.663  1.00  0.00     0.040 A 
ATOM     72  C   UNL A   1      40.789  26.359  26.142  1.00  0.00     0.040 A 
ATOM     73  F   UNL A   1      41.672  28.432  26.801  1.00  0.00    -0.206 F 
ATOM     74  C   UNL A   1      40.034  25.223  26.422  1.00  0.00     0.006 A 
ENDBRANCH  46  67
BRANCH  58  75
ATOM     75  C   UNL A   1      45.006  28.462  33.356  1.00  0.00     0.057 A 
ATOM     76  C   UNL A   1      46.281  28.757  32.857  1.00  0.00     0.134 A 
ATOM     77  C   UNL A   1      44.908  27.458  34.328  1.00  0.00     0.134 A 
ATOM     78  F   UNL A   1      46.442  29.698  31.915  1.00  0.00    -0.206 F 
ATOM     79  C   UNL A   1      47.412  28.063  33.293  1.00  0.00     0.040 A 
ATOM     80  C   UNL A   1      46.035  26.779  34.792  1.00  0.00     0.040 A 
ATOM     81  F   UNL A   1      43.718  27.132  34.854  1.00  0.00    -0.206 F 
ATOM     82  C   UNL A   1      47.291  27.077  34.269  1.00  0.00     0.006 A 
ENDBRANCH  58  75
ENDBRANCH  32  33
ENDBRANCH  24  27
ENDBRANCH  22  23
ENDBRANCH  21  22
ENDBRANCH   1  21
TORSDOF 13
ENDMDL
MODEL 3
REMARK VINA RESULT:     -11.5      1.539      2.237
REMARK SMILES C[C@@H](C(=O)NCCCNC(=O)c1ccc(-c2c3nc(c(-c4c(F)cccc4F)c4ccc([nH]4)c(-c4c(F)cccc4F)c4nc(c(-c5c(F)cccc5F)c5ccc2[nH]5)C=C4)C=C3)cc1)c1ccc(OC2CCCC2)cc1F
REMARK SMILES IDX 6 1 5 2 3 3 4 4 2 6 1 7 66 8 67 9 77 10 68 11 76 12 78 13
REMARK SMILES IDX 69 14 70 15 71 16 72 17 75 18 73 19 74 20 7 21 8 22 9 23
REMARK SMILES IDX 10 24 11 26 12 27 13 28 65 29 14 30 64 31 15 32 16 33 17 34
REMARK SMILES IDX 58 35 18 36 63 37 57 38 59 39 19 40 62 41 56 42 55 43 20 45
REMARK SMILES IDX 46 46 29 47 45 48 30 49 33 50 44 51 60 52 31 53 32 54 43 56
REMARK SMILES IDX 61 57 34 58 21 59 22 60 27 61 23 62 24 63 26 64 28 65 25 66
REMARK SMILES IDX 47 67 48 68 53 69 49 70 50 71 52 72 54 73 51 74 35 75 36 76
REMARK SMILES IDX 41 77 37 78 38 79 40 80 42 81 39 82
REMARK H PARENT 5 5 9 25 59 44 33 55
REMARK Flexibility Score: inf
ROOT
ATOM      1  C   UNL A   1      36.484  20.379  25.085  1.00  0.00     0.117 C 
ENDROOT
BRANCH   1   2
ATOM      2  N   UNL A   1      36.698  21.604  25.832  1.00  0.00    -0.356 N 
ATOM      3  C   UNL A   1      36.253  22.873  25.595  1.00  0.00     0.227 C 
ATOM      4  O   UNL A   1      36.839  23.768  26.205  1.00  0.00    -0.274 OA
ATOM      5  H   UNL A   1      37.253  21.505  26.639  1.00  0.00     0.163 HD
BRANCH   3   6
ATOM      6  C   UNL A   1      35.119  23.105  24.587  1.00  0.00     0.108 C 
ATOM      7  C   UNL A   1      35.733  23.194  23.183  1.00  0.00     0.023 C 
BRANCH   6   8
ATOM      8  C   UNL A   1      34.199  24.301  24.823  1.00  0.00     0.000 A 
ATOM      9  C   UNL A   1      34.097  25.421  23.992  1.00  0.00     0.011 A 
ATOM     10  C   UNL A   1      33.355  24.269  25.944  1.00  0.00     0.130 A 
ATOM     11  C   UNL A   1      33.139  26.414  24.240  1.00  0.00     0.047 A 
ATOM     12  C   UNL A   1      32.393  25.247  26.187  1.00  0.00     0.086 A 
ATOM     13  F   UNL A   1      33.448  23.253  26.816  1.00  0.00    -0.207 F 
ATOM     14  C   UNL A   1      32.253  26.314  25.313  1.00  0.00     0.122 A 
BRANCH  14  15
ATOM     15  O   UNL A   1      31.337  27.317  25.386  1.00  0.00    -0.490 OA
BRANCH  15  16
ATOM     16  C   UNL A   1      30.881  28.016  24.234  1.00  0.00     0.173 C 
ATOM     17  C   UNL A   1      29.564  27.561  23.611  1.00  0.00     0.045 C 
ATOM     18  C   UNL A   1      30.797  29.532  24.388  1.00  0.00     0.045 C 
ATOM     19  C   UNL A   1      29.163  28.735  22.731  1.00  0.00     0.004 C 
ATOM     20  C   UNL A   1      29.700  29.983  23.427  1.00  0.00     0.004 C 
ENDBRANCH  15  16
ENDBRANCH  14  15
ENDBRANCH   6   8
ENDBRANCH   3   6
ENDBRANCH   1   2
BRANCH   1  21
ATOM     21  C   UNL A   1      37.775  19.572  24.952  1.00  0.00     0.042 C 
BRANCH  21  22
ATOM     22  C   UNL A   1      38.972  20.173  25.680  1.00  0.00     0.118 C 
BRANCH  22  23
ATOM     23  N   UNL A   1      40.086  19.244  25.788  1.00  0.00    -0.352 N 
ATOM     24  C   UNL A   1      41.394  19.482  26.124  1.00  0.00     0.251 C 
ATOM     25  H   UNL A   1      39.869  18.304  25.589  1.00  0.00     0.163 HD
ATOM     26  O   UNL A   1      42.233  18.594  25.972  1.00  0.00    -0.269 OA
BRANCH  24  27
ATOM     27  C   UNL A   1      41.807  20.803  26.643  1.00  0.00     0.039 A 
ATOM     28  C   UNL A   1      42.285  21.759  25.743  1.00  0.00     0.014 A 
ATOM     29  C   UNL A   1      41.745  21.096  28.008  1.00  0.00     0.014 A 
ATOM     30  C   UNL A   1      42.640  23.029  26.204  1.00  0.00     0.010 A 
ATOM     31  C   UNL A   1      42.025  22.385  28.455  1.00  0.00     0.010 A 
ATOM     32  C   UNL A   1      42.479  23.363  27.559  1.00  0.00    -0.014 A 
BRANCH  32  33
ATOM     33  C   UNL A   1      42.778  24.732  28.053  1.00  0.00     0.031 A 
ATOM     34  C   UNL A   1      44.185  25.116  28.419  1.00  0.00     0.074 A 
ATOM     35  C   UNL A   1      41.772  25.612  28.227  1.00  0.00     0.049 A 
ATOM     36  N   UNL A   1      44.630  26.238  28.927  1.00  0.00    -0.248 NA
ATOM     37  C   UNL A   1      45.226  24.098  28.207  1.00  0.00     0.031 C 
ATOM     38  C   UNL A   1      40.360  25.348  27.946  1.00  0.00     0.029 A 
ATOM     39  N   UNL A   1      41.784  26.904  28.689  1.00  0.00    -0.354 N 
ATOM     40  C   UNL A   1      45.996  26.056  29.104  1.00  0.00     0.074 A 
ATOM     41  C   UNL A   1      46.297  24.699  28.703  1.00  0.00     0.031 C 
ATOM     42  C   UNL A   1      39.644  26.451  28.219  1.00  0.00     0.029 A 
ATOM     43  C   UNL A   1      40.539  27.484  28.732  1.00  0.00     0.049 A 
ATOM     44  H   UNL A   1      42.605  27.371  28.963  1.00  0.00     0.167 HD
ATOM     45  C   UNL A   1      46.919  26.946  29.539  1.00  0.00     0.037 A 
ATOM     46  C   UNL A   1      40.159  28.708  29.147  1.00  0.00     0.037 A 
ATOM     47  C   UNL A   1      46.620  28.301  29.924  1.00  0.00     0.049 A 
ATOM     48  C   UNL A   1      41.200  29.669  29.649  1.00  0.00     0.074 A 
ATOM     49  C   UNL A   1      47.493  29.294  30.336  1.00  0.00     0.029 A 
ATOM     50  N   UNL A   1      45.348  28.852  29.950  1.00  0.00    -0.354 N 
ATOM     51  N   UNL A   1      42.496  29.504  29.756  1.00  0.00    -0.248 NA
ATOM     52  C   UNL A   1      40.725  30.991  30.082  1.00  0.00     0.031 C 
ATOM     53  C   UNL A   1      46.742  30.430  30.656  1.00  0.00     0.029 A 
ATOM     54  C   UNL A   1      45.410  30.164  30.391  1.00  0.00     0.049 A 
ATOM     55  H   UNL A   1      44.522  28.380  29.693  1.00  0.00     0.167 HD
ATOM     56  C   UNL A   1      42.994  30.706  30.242  1.00  0.00     0.074 A 
ATOM     57  C   UNL A   1      41.863  31.596  30.394  1.00  0.00     0.031 C 
ATOM     58  C   UNL A   1      44.274  31.042  30.533  1.00  0.00     0.037 A 
BRANCH  45  59
ATOM     59  C   UNL A   1      48.345  26.482  29.616  1.00  0.00     0.057 A 
ATOM     60  C   UNL A   1      49.247  26.686  28.562  1.00  0.00     0.134 A 
ATOM     61  C   UNL A   1      48.835  25.854  30.769  1.00  0.00     0.134 A 
ATOM     62  F   UNL A   1      48.841  27.271  27.424  1.00  0.00    -0.206 F 
ATOM     63  C   UNL A   1      50.573  26.257  28.640  1.00  0.00     0.040 A 
ATOM     64  C   UNL A   1      50.167  25.448  30.870  1.00  0.00     0.040 A 
ATOM     65  F   UNL A   1      48.030  25.634  31.819  1.00  0.00    -0.206 F 
ATOM     66  C   UNL A   1      51.038  25.642  29.800  1.00  0.00     0.006 A 
ENDBRANCH  45  59
BRANCH  46  67
ATOM     67  C   UNL A   1      38.729  29.101  29.086  1.00  0.00     0.057 A 
ATOM     68  C   UNL A   1      37.902  28.990  30.210  1.00  0.00     0.134 A 
ATOM     69  C   UNL A   1      38.152  29.589  27.907  1.00  0.00     0.134 A 
ATOM     70  F   UNL A   1      38.392  28.511  31.364  1.00  0.00    -0.206 F 
ATOM     71  C   UNL A   1      36.550  29.334  30.162  1.00  0.00     0.040 A 
ATOM     72  C   UNL A   1      36.807  29.961  27.852  1.00  0.00     0.040 A 
ATOM     73  F   UNL A   1      38.891  29.726  26.797  1.00  0.00    -0.206 F 
ATOM     74  C   UNL A   1      36.001  29.826  28.979  1.00  0.00     0.006 A 
ENDBRANCH  46  67
BRANCH  58  75
ATOM     75  C   UNL A   1      44.527  32.442  31.010  1.00  0.00     0.057 A 
ATOM     76  C   UNL A   1      44.566  32.766  32.372  1.00  0.00     0.134 A 
ATOM     77  C   UNL A   1      44.775  33.473  30.094  1.00  0.00     0.134 A 
ATOM     78  F   UNL A   1      44.324  31.829  33.301  1.00  0.00    -0.206 F 
ATOM     79  C   UNL A   1      44.819  34.069  32.805  1.00  0.00     0.040 A 
ATOM     80  C   UNL A   1      45.058  34.772  30.515  1.00  0.00     0.040 A 
ATOM     81  F   UNL A   1      44.761  33.229  28.775  1.00  0.00    -0.206 F 
ATOM     82  C   UNL A   1      45.074  35.075  31.875  1.00  0.00     0.006 A 
ENDBRANCH  58  75
ENDBRANCH  32  33
ENDBRANCH  24  27
ENDBRANCH  22  23
ENDBRANCH  21  22
ENDBRANCH   1  21
TORSDOF 13
ENDMDL
