MODEL 1
REMARK VINA RESULT:     -11.6      0.000      0.000
REMARK SMILES CCCc1cc(OC(F)(F)F)cc2c1O[C@@H](C(F)(F)F)C(C(=O)NCCCNC(=O)c1ccc(-c3c4nc(c(-c5c(F)cccc5F)c5ccc([nH]5)c(-c5c(F)cccc5F)c5nc(c(-c6c(F)cccc6F)c6ccc3[nH]6)C=C5)C=C4)cc1)=C2
REMARK SMILES IDX 26 1 25 2 24 3 22 4 23 5 21 7 4 8 5 9 14 10 6 11 13 12 15 13
REMARK SMILES IDX 12 14 85 15 16 16 3 17 2 18 1 19 7 20 8 21 9 22 10 23 11 24
REMARK SMILES IDX 17 25 18 26 19 27 20 28 27 29 28 30 29 31 30 33 31 34 32 35
REMARK SMILES IDX 84 36 33 37 83 38 34 39 35 40 36 41 77 42 37 43 82 44 76 45
REMARK SMILES IDX 78 46 38 47 81 48 75 49 74 50 39 52 65 53 48 54 64 55 49 56
REMARK SMILES IDX 52 57 63 58 79 59 50 60 51 61 62 63 80 64 53 65 40 66 41 67
REMARK SMILES IDX 46 68 42 69 43 70 45 71 47 72 44 73 66 74 67 75 72 76 68 77
REMARK SMILES IDX 69 78 71 79 73 80 70 81 54 82 55 83 60 84 56 85 57 86 59 87
REMARK SMILES IDX 61 88 58 89
REMARK H PARENT 24 6 28 32 78 51 52 62
REMARK Flexibility Score: inf
ROOT
ATOM      1  C   UNL A   1      35.240  23.196  26.473  1.00  0.00     0.042 C 
ENDROOT
BRANCH   1   2
ATOM      2  C   UNL A   1      34.050  23.145  25.510  1.00  0.00     0.118 C 
BRANCH   2   3
ATOM      3  N   UNL A   1      32.812  22.891  26.232  1.00  0.00    -0.352 N 
ATOM      4  C   UNL A   1      31.788  23.695  26.621  1.00  0.00     0.251 C 
ATOM      5  O   UNL A   1      30.911  23.209  27.331  1.00  0.00    -0.270 OA
ATOM      6  H   UNL A   1      32.693  21.947  26.489  1.00  0.00     0.163 HD
BRANCH   4   7
ATOM      7  C   UNL A   1      31.660  25.106  26.179  1.00  0.00     0.067 C 
ATOM      8  C   UNL A   1      31.328  29.008  24.622  1.00  0.00    -0.002 A 
ATOM      9  C   UNL A   1      31.777  30.079  25.416  1.00  0.00     0.054 A 
ATOM     10  C   UNL A   1      31.439  27.704  25.139  1.00  0.00     0.131 A 
ATOM     11  C   UNL A   1      32.376  29.861  26.658  1.00  0.00     0.130 A 
ATOM     12  C   UNL A   1      31.994  27.482  26.399  1.00  0.00     0.021 A 
ATOM     13  O   UNL A   1      31.051  26.666  24.336  1.00  0.00    -0.475 OA
ATOM     14  C   UNL A   1      32.465  28.561  27.152  1.00  0.00     0.058 A 
ATOM     15  C   UNL A   1      32.157  26.124  26.892  1.00  0.00     0.025 C 
ATOM     16  C   UNL A   1      30.777  25.379  24.966  1.00  0.00     0.314 C 
BRANCH   8  17
ATOM     17  C   UNL A   1      30.727  29.203  23.241  1.00  0.00     0.039 C 
BRANCH  17  18
ATOM     18  C   UNL A   1      29.215  29.446  23.120  1.00  0.00     0.001 C 
ATOM     19  C   UNL A   1      28.812  30.901  23.330  1.00  0.00     0.004 C 
ENDBRANCH  17  18
ENDBRANCH   8  17
BRANCH  11  20
ATOM     20  O   UNL A   1      32.913  30.814  27.477  1.00  0.00    -0.406 OA
BRANCH  20  21
ATOM     21  C   UNL A   1      34.325  30.852  27.605  1.00  0.00     0.573 C 
ATOM     22  F   UNL A   1      34.712  30.621  28.878  1.00  0.00    -0.132 F 
ATOM     23  F   UNL A   1      34.904  29.950  26.785  1.00  0.00    -0.132 F 
ATOM     24  F   UNL A   1      34.757  32.082  27.251  1.00  0.00    -0.132 F 
ENDBRANCH  20  21
ENDBRANCH  11  20
BRANCH  16  25
ATOM     25  C   UNL A   1      30.795  24.315  23.845  1.00  0.00     0.429 C 
ATOM     26  F   UNL A   1      30.440  23.087  24.280  1.00  0.00    -0.167 F 
ATOM     27  F   UNL A   1      29.899  24.626  22.869  1.00  0.00    -0.167 F 
ATOM     28  F   UNL A   1      32.004  24.219  23.245  1.00  0.00    -0.167 F 
ENDBRANCH  16  25
ENDBRANCH   4   7
ENDBRANCH   2   3
ENDBRANCH   1   2
BRANCH   1  29
ATOM     29  C   UNL A   1      36.559  23.559  25.795  1.00  0.00     0.118 C 
BRANCH  29  30
ATOM     30  N   UNL A   1      37.603  22.589  26.087  1.00  0.00    -0.352 N 
ATOM     31  C   UNL A   1      38.895  22.786  26.504  1.00  0.00     0.251 C 
ATOM     32  H   UNL A   1      37.342  21.647  25.968  1.00  0.00     0.163 HD
ATOM     33  O   UNL A   1      39.686  21.847  26.476  1.00  0.00    -0.269 OA
BRANCH  31  34
ATOM     34  C   UNL A   1      39.350  24.113  26.977  1.00  0.00     0.039 A 
ATOM     35  C   UNL A   1      39.938  24.986  26.055  1.00  0.00     0.014 A 
ATOM     36  C   UNL A   1      39.265  24.476  28.324  1.00  0.00     0.014 A 
ATOM     37  C   UNL A   1      40.402  26.236  26.476  1.00  0.00     0.010 A 
ATOM     38  C   UNL A   1      39.670  25.747  28.730  1.00  0.00     0.010 A 
ATOM     39  C   UNL A   1      40.252  26.635  27.812  1.00  0.00    -0.014 A 
BRANCH  39  40
ATOM     40  C   UNL A   1      40.716  27.968  28.273  1.00  0.00     0.031 A 
ATOM     41  C   UNL A   1      42.183  28.301  28.272  1.00  0.00     0.074 A 
ATOM     42  C   UNL A   1      39.822  28.861  28.741  1.00  0.00     0.049 A 
ATOM     43  N   UNL A   1      42.788  29.377  28.707  1.00  0.00    -0.248 NA
ATOM     44  C   UNL A   1      43.092  27.278  27.733  1.00  0.00     0.031 C 
ATOM     45  C   UNL A   1      38.376  28.646  28.823  1.00  0.00     0.029 A 
ATOM     46  N   UNL A   1      40.000  30.124  29.247  1.00  0.00    -0.354 N 
ATOM     47  C   UNL A   1      44.145  29.155  28.507  1.00  0.00     0.074 A 
ATOM     48  C   UNL A   1      44.278  27.823  27.956  1.00  0.00     0.031 C 
ATOM     49  C   UNL A   1      37.798  29.748  29.329  1.00  0.00     0.029 A 
ATOM     50  C   UNL A   1      38.831  30.728  29.642  1.00  0.00     0.049 A 
ATOM     51  H   UNL A   1      40.882  30.556  29.319  1.00  0.00     0.167 HD
ATOM     52  C   UNL A   1      45.184  29.992  28.740  1.00  0.00     0.037 A 
ATOM     53  C   UNL A   1      38.620  31.935  30.199  1.00  0.00     0.037 A 
ATOM     54  C   UNL A   1      45.048  31.325  29.265  1.00  0.00     0.049 A 
ATOM     55  C   UNL A   1      39.792  32.842  30.458  1.00  0.00     0.074 A 
ATOM     56  C   UNL A   1      46.036  32.267  29.497  1.00  0.00     0.029 A 
ATOM     57  N   UNL A   1      43.846  31.907  29.638  1.00  0.00    -0.354 N 
ATOM     58  N   UNL A   1      41.064  32.636  30.218  1.00  0.00    -0.248 NA
ATOM     59  C   UNL A   1      39.497  34.149  31.060  1.00  0.00     0.031 C 
ATOM     60  C   UNL A   1      45.435  33.406  30.043  1.00  0.00     0.029 A 
ATOM     61  C   UNL A   1      44.068  33.190  30.111  1.00  0.00     0.049 A 
ATOM     62  H   UNL A   1      42.965  31.472  29.575  1.00  0.00     0.167 HD
ATOM     63  C   UNL A   1      41.717  33.798  30.612  1.00  0.00     0.074 A 
ATOM     64  C   UNL A   1      40.699  34.707  31.095  1.00  0.00     0.031 C 
ATOM     65  C   UNL A   1      43.041  34.085  30.575  1.00  0.00     0.037 A 
BRANCH  52  66
ATOM     66  C   UNL A   1      46.562  29.488  28.420  1.00  0.00     0.057 A 
ATOM     67  C   UNL A   1      47.147  29.691  27.163  1.00  0.00     0.134 A 
ATOM     68  C   UNL A   1      47.325  28.823  29.387  1.00  0.00     0.134 A 
ATOM     69  F   UNL A   1      46.464  30.310  26.188  1.00  0.00    -0.206 F 
ATOM     70  C   UNL A   1      48.429  29.225  26.870  1.00  0.00     0.040 A 
ATOM     71  C   UNL A   1      48.619  28.375  29.114  1.00  0.00     0.040 A 
ATOM     72  F   UNL A   1      46.829  28.602  30.615  1.00  0.00    -0.206 F 
ATOM     73  C   UNL A   1      49.172  28.570  27.850  1.00  0.00     0.006 A 
ENDBRANCH  52  66
BRANCH  53  74
ATOM     74  C   UNL A   1      37.241  32.371  30.529  1.00  0.00     0.057 A 
ATOM     75  C   UNL A   1      36.591  31.900  31.676  1.00  0.00     0.134 A 
ATOM     76  C   UNL A   1      36.535  33.255  29.705  1.00  0.00     0.134 A 
ATOM     77  F   UNL A   1      37.210  31.037  32.494  1.00  0.00    -0.206 F 
ATOM     78  C   UNL A   1      35.283  32.276  31.982  1.00  0.00     0.040 A 
ATOM     79  C   UNL A   1      35.234  33.658  30.010  1.00  0.00     0.040 A 
ATOM     80  F   UNL A   1      37.104  33.748  28.594  1.00  0.00    -0.206 F 
ATOM     81  C   UNL A   1      34.602  33.161  31.149  1.00  0.00     0.006 A 
ENDBRANCH  53  74
BRANCH  65  82
ATOM     82  C   UNL A   1      43.456  35.453  31.031  1.00  0.00     0.057 A 
ATOM     83  C   UNL A   1      43.573  36.525  30.139  1.00  0.00     0.134 A 
ATOM     84  C   UNL A   1      43.706  35.706  32.385  1.00  0.00     0.134 A 
ATOM     85  F   UNL A   1      43.359  36.345  28.827  1.00  0.00    -0.206 F 
ATOM     86  C   UNL A   1      43.946  37.798  30.575  1.00  0.00     0.040 A 
ATOM     87  C   UNL A   1      44.057  36.977  32.837  1.00  0.00     0.040 A 
ATOM     88  F   UNL A   1      43.605  34.721  33.292  1.00  0.00    -0.206 F 
ATOM     89  C   UNL A   1      44.183  38.028  31.930  1.00  0.00     0.006 A 
ENDBRANCH  65  82
ENDBRANCH  39  40
ENDBRANCH  31  34
ENDBRANCH  29  30
ENDBRANCH   1  29
TORSDOF 15
ENDMDL
MODEL 2
REMARK VINA RESULT:     -11.3      3.140      8.223
REMARK SMILES CCCc1cc(OC(F)(F)F)cc2c1O[C@@H](C(F)(F)F)C(C(=O)NCCCNC(=O)c1ccc(-c3c4nc(c(-c5c(F)cccc5F)c5ccc([nH]5)c(-c5c(F)cccc5F)c5nc(c(-c6c(F)cccc6F)c6ccc3[nH]6)C=C5)C=C4)cc1)=C2
REMARK SMILES IDX 26 1 25 2 24 3 22 4 23 5 21 7 4 8 5 9 14 10 6 11 13 12 15 13
REMARK SMILES IDX 12 14 85 15 16 16 3 17 2 18 1 19 7 20 8 21 9 22 10 23 11 24
REMARK SMILES IDX 17 25 18 26 19 27 20 28 27 29 28 30 29 31 30 33 31 34 32 35
REMARK SMILES IDX 84 36 33 37 83 38 34 39 35 40 36 41 77 42 37 43 82 44 76 45
REMARK SMILES IDX 78 46 38 47 81 48 75 49 74 50 39 52 65 53 48 54 64 55 49 56
REMARK SMILES IDX 52 57 63 58 79 59 50 60 51 61 62 63 80 64 53 65 40 66 41 67
REMARK SMILES IDX 46 68 42 69 43 70 45 71 47 72 44 73 66 74 67 75 72 76 68 77
REMARK SMILES IDX 69 78 71 79 73 80 70 81 54 82 55 83 60 84 56 85 57 86 59 87
REMARK SMILES IDX 61 88 58 89
REMARK H PARENT 24 6 28 32 78 51 52 62
REMARK Flexibility Score: inf
ROOT
ATOM      1  C   UNL A   1      33.012  27.618  26.926  1.00  0.00     0.042 C 
ENDROOT
BRANCH   1   2
ATOM      2  C   UNL A   1      31.847  27.543  25.934  1.00  0.00     0.118 C 
BRANCH   2   3
ATOM      3  N   UNL A   1      32.314  27.744  24.572  1.00  0.00    -0.352 N 
ATOM      4  C   UNL A   1      32.979  26.944  23.696  1.00  0.00     0.251 C 
ATOM      5  O   UNL A   1      33.348  27.436  22.632  1.00  0.00    -0.270 OA
ATOM      6  H   UNL A   1      32.108  28.637  24.212  1.00  0.00     0.163 HD
BRANCH   4   7
ATOM      7  C   UNL A   1      33.222  25.502  23.948  1.00  0.00     0.067 C 
ATOM      8  C   UNL A   1      33.600  21.376  24.716  1.00  0.00    -0.002 A 
ATOM      9  C   UNL A   1      34.809  20.911  25.267  1.00  0.00     0.054 A 
ATOM     10  C   UNL A   1      33.471  22.754  24.460  1.00  0.00     0.131 A 
ATOM     11  C   UNL A   1      35.835  21.793  25.613  1.00  0.00     0.130 A 
ATOM     12  C   UNL A   1      34.510  23.634  24.760  1.00  0.00     0.021 A 
ATOM     13  O   UNL A   1      32.271  23.201  23.977  1.00  0.00    -0.475 OA
ATOM     14  C   UNL A   1      35.686  23.152  25.340  1.00  0.00     0.058 A 
ATOM     15  C   UNL A   1      34.337  25.061  24.545  1.00  0.00     0.025 C 
ATOM     16  C   UNL A   1      32.238  24.511  23.336  1.00  0.00     0.314 C 
BRANCH   8  17
ATOM     17  C   UNL A   1      32.440  20.454  24.384  1.00  0.00     0.039 C 
BRANCH  17  18
ATOM     18  C   UNL A   1      32.580  18.954  24.678  1.00  0.00     0.001 C 
ATOM     19  C   UNL A   1      32.893  18.117  23.443  1.00  0.00     0.004 C 
ENDBRANCH  17  18
ENDBRANCH   8  17
BRANCH  11  20
ATOM     20  O   UNL A   1      37.015  21.465  26.218  1.00  0.00    -0.406 OA
BRANCH  20  21
ATOM     21  C   UNL A   1      38.193  21.510  25.430  1.00  0.00     0.573 C 
ATOM     22  F   UNL A   1      38.981  22.549  25.778  1.00  0.00    -0.132 F 
ATOM     23  F   UNL A   1      38.887  20.358  25.541  1.00  0.00    -0.132 F 
ATOM     24  F   UNL A   1      37.839  21.666  24.135  1.00  0.00    -0.132 F 
ENDBRANCH  20  21
ENDBRANCH  11  20
BRANCH  16  25
ATOM     25  C   UNL A   1      30.757  24.951  23.286  1.00  0.00     0.429 C 
ATOM     26  F   UNL A   1      30.540  25.968  22.424  1.00  0.00    -0.167 F 
ATOM     27  F   UNL A   1      29.965  23.933  22.851  1.00  0.00    -0.167 F 
ATOM     28  F   UNL A   1      30.287  25.317  24.501  1.00  0.00    -0.167 F 
ENDBRANCH  16  25
ENDBRANCH   4   7
ENDBRANCH   2   3
ENDBRANCH   1   2
BRANCH   1  29
ATOM     29  C   UNL A   1      34.084  28.632  26.533  1.00  0.00     0.118 C 
BRANCH  29  30
ATOM     30  N   UNL A   1      33.894  29.908  27.205  1.00  0.00    -0.352 N 
ATOM     31  C   UNL A   1      34.703  30.559  28.101  1.00  0.00     0.251 C 
ATOM     32  H   UNL A   1      33.057  30.375  26.982  1.00  0.00     0.163 HD
ATOM     33  O   UNL A   1      34.259  31.518  28.726  1.00  0.00    -0.269 OA
BRANCH  31  34
ATOM     34  C   UNL A   1      36.098  30.117  28.330  1.00  0.00     0.039 A 
ATOM     35  C   UNL A   1      36.441  29.611  29.588  1.00  0.00     0.014 A 
ATOM     36  C   UNL A   1      37.080  30.259  27.345  1.00  0.00     0.014 A 
ATOM     37  C   UNL A   1      37.755  29.210  29.844  1.00  0.00     0.010 A 
ATOM     38  C   UNL A   1      38.375  29.801  27.581  1.00  0.00     0.010 A 
ATOM     39  C   UNL A   1      38.728  29.282  28.836  1.00  0.00    -0.014 A 
BRANCH  39  40
ATOM     40  C   UNL A   1      40.124  28.838  29.081  1.00  0.00     0.031 A 
ATOM     41  C   UNL A   1      41.108  29.764  29.743  1.00  0.00     0.074 A 
ATOM     42  C   UNL A   1      40.520  27.621  28.662  1.00  0.00     0.049 A 
ATOM     43  N   UNL A   1      42.384  29.590  29.972  1.00  0.00    -0.248 NA
ATOM     44  C   UNL A   1      40.591  31.070  30.183  1.00  0.00     0.031 C 
ATOM     45  C   UNL A   1      39.671  26.643  27.980  1.00  0.00     0.029 A 
ATOM     46  N   UNL A   1      41.743  27.004  28.737  1.00  0.00    -0.354 N 
ATOM     47  C   UNL A   1      42.825  30.764  30.569  1.00  0.00     0.074 A 
ATOM     48  C   UNL A   1      41.692  31.662  30.622  1.00  0.00     0.031 C 
ATOM     49  C   UNL A   1      40.394  25.542  27.718  1.00  0.00     0.029 A 
ATOM     50  C   UNL A   1      41.763  25.749  28.177  1.00  0.00     0.049 A 
ATOM     51  H   UNL A   1      42.533  27.420  29.154  1.00  0.00     0.167 HD
ATOM     52  C   UNL A   1      44.057  31.060  31.047  1.00  0.00     0.037 A 
ATOM     53  C   UNL A   1      42.773  24.870  28.045  1.00  0.00     0.037 A 
ATOM     54  C   UNL A   1      45.177  30.157  31.015  1.00  0.00     0.049 A 
ATOM     55  C   UNL A   1      44.134  25.227  28.575  1.00  0.00     0.074 A 
ATOM     56  C   UNL A   1      46.455  30.348  31.513  1.00  0.00     0.029 A 
ATOM     57  N   UNL A   1      45.153  28.890  30.454  1.00  0.00    -0.354 N 
ATOM     58  N   UNL A   1      44.524  26.322  29.181  1.00  0.00    -0.248 NA
ATOM     59  C   UNL A   1      45.194  24.223  28.409  1.00  0.00     0.031 C 
ATOM     60  C   UNL A   1      47.213  29.208  31.223  1.00  0.00     0.029 A 
ATOM     61  C   UNL A   1      46.395  28.291  30.582  1.00  0.00     0.049 A 
ATOM     62  H   UNL A   1      44.367  28.476  30.028  1.00  0.00     0.167 HD
ATOM     63  C   UNL A   1      45.863  26.128  29.494  1.00  0.00     0.074 A 
ATOM     64  C   UNL A   1      46.215  24.805  29.021  1.00  0.00     0.031 C 
ATOM     65  C   UNL A   1      46.723  26.969  30.117  1.00  0.00     0.037 A 
BRANCH  52  66
ATOM     66  C   UNL A   1      44.253  32.419  31.656  1.00  0.00     0.057 A 
ATOM     67  C   UNL A   1      44.043  32.652  33.022  1.00  0.00     0.134 A 
ATOM     68  C   UNL A   1      44.688  33.498  30.877  1.00  0.00     0.134 A 
ATOM     69  F   UNL A   1      43.614  31.663  33.822  1.00  0.00    -0.206 F 
ATOM     70  C   UNL A   1      44.231  33.915  33.586  1.00  0.00     0.040 A 
ATOM     71  C   UNL A   1      44.904  34.760  31.434  1.00  0.00     0.040 A 
ATOM     72  F   UNL A   1      44.916  33.343  29.564  1.00  0.00    -0.206 F 
ATOM     73  C   UNL A   1      44.668  34.973  32.791  1.00  0.00     0.006 A 
ENDBRANCH  52  66
BRANCH  53  74
ATOM     74  C   UNL A   1      42.534  23.553  27.404  1.00  0.00     0.057 A 
ATOM     75  C   UNL A   1      42.622  23.402  26.014  1.00  0.00     0.134 A 
ATOM     76  C   UNL A   1      42.201  22.421  28.156  1.00  0.00     0.134 A 
ATOM     77  F   UNL A   1      42.918  24.455  25.239  1.00  0.00    -0.206 F 
ATOM     78  C   UNL A   1      42.367  22.178  25.394  1.00  0.00     0.040 A 
ATOM     79  C   UNL A   1      41.968  21.185  27.552  1.00  0.00     0.040 A 
ATOM     80  F   UNL A   1      42.108  22.498  29.492  1.00  0.00    -0.206 F 
ATOM     81  C   UNL A   1      42.043  21.064  26.165  1.00  0.00     0.006 A 
ENDBRANCH  53  74
BRANCH  65  82
ATOM     82  C   UNL A   1      48.116  26.465  30.360  1.00  0.00     0.057 A 
ATOM     83  C   UNL A   1      48.452  25.755  31.518  1.00  0.00     0.134 A 
ATOM     84  C   UNL A   1      49.121  26.665  29.406  1.00  0.00     0.134 A 
ATOM     85  F   UNL A   1      47.537  25.542  32.476  1.00  0.00    -0.206 F 
ATOM     86  C   UNL A   1      49.748  25.278  31.728  1.00  0.00     0.040 A 
ATOM     87  C   UNL A   1      50.412  26.173  29.593  1.00  0.00     0.040 A 
ATOM     88  F   UNL A   1      48.860  27.332  28.271  1.00  0.00    -0.206 F 
ATOM     89  C   UNL A   1      50.731  25.482  30.761  1.00  0.00     0.006 A 
ENDBRANCH  65  82
ENDBRANCH  39  40
ENDBRANCH  31  34
ENDBRANCH  29  30
ENDBRANCH   1  29
TORSDOF 15
ENDMDL
MODEL 3
REMARK VINA RESULT:     -11.2      3.866      8.434
REMARK SMILES CCCc1cc(OC(F)(F)F)cc2c1O[C@@H](C(F)(F)F)C(C(=O)NCCCNC(=O)c1ccc(-c3c4nc(c(-c5c(F)cccc5F)c5ccc([nH]5)c(-c5c(F)cccc5F)c5nc(c(-c6c(F)cccc6F)c6ccc3[nH]6)C=C5)C=C4)cc1)=C2
REMARK SMILES IDX 26 1 25 2 24 3 22 4 23 5 21 7 4 8 5 9 14 10 6 11 13 12 15 13
REMARK SMILES IDX 12 14 85 15 16 16 3 17 2 18 1 19 7 20 8 21 9 22 10 23 11 24
REMARK SMILES IDX 17 25 18 26 19 27 20 28 27 29 28 30 29 31 30 33 31 34 32 35
REMARK SMILES IDX 84 36 33 37 83 38 34 39 35 40 36 41 77 42 37 43 82 44 76 45
REMARK SMILES IDX 78 46 38 47 81 48 75 49 74 50 39 52 65 53 48 54 64 55 49 56
REMARK SMILES IDX 52 57 63 58 79 59 50 60 51 61 62 63 80 64 53 65 40 66 41 67
REMARK SMILES IDX 46 68 42 69 43 70 45 71 47 72 44 73 66 74 67 75 72 76 68 77
REMARK SMILES IDX 69 78 71 79 73 80 70 81 54 82 55 83 60 84 56 85 57 86 59 87
REMARK SMILES IDX 61 88 58 89
REMARK H PARENT 24 6 28 32 78 51 52 62
REMARK Flexibility Score: inf
ROOT
ATOM      1  C   UNL A   1      32.988  28.284  27.236  1.00  0.00     0.042 C 
ENDROOT
BRANCH   1   2
ATOM      2  C   UNL A   1      31.843  27.877  26.303  1.00  0.00     0.118 C 
BRANCH   2   3
ATOM      3  N   UNL A   1      32.200  28.115  24.913  1.00  0.00    -0.352 N 
ATOM      4  C   UNL A   1      32.799  27.342  23.968  1.00  0.00     0.251 C 
ATOM      5  O   UNL A   1      33.080  27.862  22.891  1.00  0.00    -0.270 OA
ATOM      6  H   UNL A   1      31.960  29.015  24.592  1.00  0.00     0.163 HD
BRANCH   4   7
ATOM      7  C   UNL A   1      33.072  25.897  24.164  1.00  0.00     0.067 C 
ATOM      8  C   UNL A   1      33.532  21.753  24.774  1.00  0.00    -0.002 A 
ATOM      9  C   UNL A   1      34.751  21.291  25.306  1.00  0.00     0.054 A 
ATOM     10  C   UNL A   1      33.376  23.136  24.571  1.00  0.00     0.131 A 
ATOM     11  C   UNL A   1      35.760  22.179  25.685  1.00  0.00     0.130 A 
ATOM     12  C   UNL A   1      34.397  24.025  24.904  1.00  0.00     0.021 A 
ATOM     13  O   UNL A   1      32.166  23.577  24.107  1.00  0.00    -0.475 OA
ATOM     14  C   UNL A   1      35.583  23.544  25.464  1.00  0.00     0.058 A 
ATOM     15  C   UNL A   1      34.196  25.456  24.744  1.00  0.00     0.025 C 
ATOM     16  C   UNL A   1      32.106  24.911  23.516  1.00  0.00     0.314 C 
BRANCH   8  17
ATOM     17  C   UNL A   1      32.390  20.821  24.408  1.00  0.00     0.039 C 
BRANCH  17  18
ATOM     18  C   UNL A   1      32.720  19.413  23.893  1.00  0.00     0.001 C 
ATOM     19  C   UNL A   1      32.631  18.334  24.966  1.00  0.00     0.004 C 
ENDBRANCH  17  18
ENDBRANCH   8  17
BRANCH  11  20
ATOM     20  O   UNL A   1      36.947  21.852  26.276  1.00  0.00    -0.406 OA
BRANCH  20  21
ATOM     21  C   UNL A   1      38.103  21.820  25.456  1.00  0.00     0.573 C 
ATOM     22  F   UNL A   1      38.842  20.713  25.687  1.00  0.00    -0.132 F 
ATOM     23  F   UNL A   1      37.766  21.875  24.151  1.00  0.00    -0.132 F 
ATOM     24  F   UNL A   1      38.864  22.899  25.741  1.00  0.00    -0.132 F 
ENDBRANCH  20  21
ENDBRANCH  11  20
BRANCH  16  25
ATOM     25  C   UNL A   1      30.616  25.322  23.484  1.00  0.00     0.429 C 
ATOM     26  F   UNL A   1      30.380  26.374  22.670  1.00  0.00    -0.167 F 
ATOM     27  F   UNL A   1      29.845  24.310  23.001  1.00  0.00    -0.167 F 
ATOM     28  F   UNL A   1      30.138  25.622  24.714  1.00  0.00    -0.167 F 
ENDBRANCH  16  25
ENDBRANCH   4   7
ENDBRANCH   2   3
ENDBRANCH   1   2
BRANCH   1  29
ATOM     29  C   UNL A   1      33.987  29.244  26.595  1.00  0.00     0.118 C 
BRANCH  29  30
ATOM     30  N   UNL A   1      33.871  30.588  27.137  1.00  0.00    -0.352 N 
ATOM     31  C   UNL A   1      34.602  31.207  28.120  1.00  0.00     0.251 C 
ATOM     32  H   UNL A   1      33.158  31.138  26.739  1.00  0.00     0.163 HD
ATOM     33  O   UNL A   1      34.200  32.266  28.593  1.00  0.00    -0.269 OA
BRANCH  31  34
ATOM     34  C   UNL A   1      35.861  30.611  28.622  1.00  0.00     0.039 A 
ATOM     35  C   UNL A   1      37.045  30.858  27.919  1.00  0.00     0.014 A 
ATOM     36  C   UNL A   1      35.874  29.762  29.733  1.00  0.00     0.014 A 
ATOM     37  C   UNL A   1      38.245  30.288  28.352  1.00  0.00     0.010 A 
ATOM     38  C   UNL A   1      37.082  29.246  30.201  1.00  0.00     0.010 A 
ATOM     39  C   UNL A   1      38.277  29.495  29.509  1.00  0.00    -0.014 A 
BRANCH  39  40
ATOM     40  C   UNL A   1      39.547  28.901  30.000  1.00  0.00     0.031 A 
ATOM     41  C   UNL A   1      40.244  29.488  31.197  1.00  0.00     0.074 A 
ATOM     42  C   UNL A   1      40.099  27.866  29.338  1.00  0.00     0.049 A 
ATOM     43  N   UNL A   1      41.395  29.162  31.728  1.00  0.00    -0.248 NA
ATOM     44  C   UNL A   1      39.567  30.608  31.871  1.00  0.00     0.031 C 
ATOM     45  C   UNL A   1      39.538  27.227  28.146  1.00  0.00     0.029 A 
ATOM     46  N   UNL A   1      41.263  27.177  29.568  1.00  0.00    -0.354 N 
ATOM     47  C   UNL A   1      41.586  30.041  32.786  1.00  0.00     0.074 A 
ATOM     48  C   UNL A   1      40.457  30.946  32.793  1.00  0.00     0.031 C 
ATOM     49  C   UNL A   1      40.349  26.227  27.762  1.00  0.00     0.029 A 
ATOM     50  C   UNL A   1      41.502  26.179  28.655  1.00  0.00     0.049 A 
ATOM     51  H   UNL A   1      41.870  27.378  30.318  1.00  0.00     0.167 HD
ATOM     52  C   UNL A   1      42.599  30.078  33.684  1.00  0.00     0.037 A 
ATOM     53  C   UNL A   1      42.537  25.326  28.547  1.00  0.00     0.037 A 
ATOM     54  C   UNL A   1      43.710  29.162  33.691  1.00  0.00     0.049 A 
ATOM     55  C   UNL A   1      43.655  25.394  29.550  1.00  0.00     0.074 A 
ATOM     56  C   UNL A   1      44.765  29.091  34.584  1.00  0.00     0.029 A 
ATOM     57  N   UNL A   1      43.907  28.155  32.758  1.00  0.00    -0.354 N 
ATOM     58  N   UNL A   1      43.798  26.200  30.574  1.00  0.00    -0.248 NA
ATOM     59  C   UNL A   1      44.753  24.432  29.385  1.00  0.00     0.031 C 
ATOM     60  C   UNL A   1      45.618  28.062  34.172  1.00  0.00     0.029 A 
ATOM     61  C   UNL A   1      45.073  27.466  33.047  1.00  0.00     0.049 A 
ATOM     62  H   UNL A   1      43.306  27.960  32.003  1.00  0.00     0.167 HD
ATOM     63  C   UNL A   1      44.984  25.823  31.192  1.00  0.00     0.074 A 
ATOM     64  C   UNL A   1      45.514  24.708  30.434  1.00  0.00     0.031 C 
ATOM     65  C   UNL A   1      45.578  26.351  32.289  1.00  0.00     0.037 A 
BRANCH  52  66
ATOM     66  C   UNL A   1      42.547  31.144  34.741  1.00  0.00     0.057 A 
ATOM     67  C   UNL A   1      43.105  32.413  34.537  1.00  0.00     0.134 A 
ATOM     68  C   UNL A   1      41.904  30.911  35.963  1.00  0.00     0.134 A 
ATOM     69  F   UNL A   1      43.746  32.697  33.393  1.00  0.00    -0.206 F 
ATOM     70  C   UNL A   1      43.050  33.402  35.520  1.00  0.00     0.040 A 
ATOM     71  C   UNL A   1      41.819  31.901  36.944  1.00  0.00     0.040 A 
ATOM     72  F   UNL A   1      41.340  29.720  36.221  1.00  0.00    -0.206 F 
ATOM     73  C   UNL A   1      42.400  33.149  36.726  1.00  0.00     0.006 A 
ENDBRANCH  52  66
BRANCH  53  74
ATOM     74  C   UNL A   1      42.557  24.313  27.462  1.00  0.00     0.057 A 
ATOM     75  C   UNL A   1      43.079  24.620  26.199  1.00  0.00     0.134 A 
ATOM     76  C   UNL A   1      42.047  23.024  27.653  1.00  0.00     0.134 A 
ATOM     77  F   UNL A   1      43.564  25.845  25.951  1.00  0.00    -0.206 F 
ATOM     78  C   UNL A   1      43.074  23.690  25.160  1.00  0.00     0.040 A 
ATOM     79  C   UNL A   1      42.058  22.075  26.630  1.00  0.00     0.040 A 
ATOM     80  F   UNL A   1      41.540  22.664  28.842  1.00  0.00    -0.206 F 
ATOM     81  C   UNL A   1      42.566  22.410  25.376  1.00  0.00     0.006 A 
ENDBRANCH  53  74
BRANCH  65  82
ATOM     82  C   UNL A   1      46.847  25.702  32.757  1.00  0.00     0.057 A 
ATOM     83  C   UNL A   1      48.096  26.057  32.235  1.00  0.00     0.134 A 
ATOM     84  C   UNL A   1      46.819  24.735  33.770  1.00  0.00     0.134 A 
ATOM     85  F   UNL A   1      48.188  26.967  31.253  1.00  0.00    -0.206 F 
ATOM     86  C   UNL A   1      49.273  25.458  32.688  1.00  0.00     0.040 A 
ATOM     87  C   UNL A   1      47.990  24.146  34.248  1.00  0.00     0.040 A 
ATOM     88  F   UNL A   1      45.654  24.355  34.318  1.00  0.00    -0.206 F 
ATOM     89  C   UNL A   1      49.221  24.503  33.702  1.00  0.00     0.006 A 
ENDBRANCH  65  82
ENDBRANCH  39  40
ENDBRANCH  31  34
ENDBRANCH  29  30
ENDBRANCH   1  29
TORSDOF 15
ENDMDL
