MODEL 1
REMARK VINA RESULT:     -12.8      0.000      0.000
REMARK SMILES CC1=C(C#N)C(=O)N(C)C(=O)/C1=C\Nc1ccc(C(=O)NCCCNC(=O)c2ccc(-c3c4nc(c(-c5c(F)cccc5F)c5ccc([nH]5)c(-c5c(F)cccc5F)c5nc(c(-c6c(F)cccc6F)c6ccc3[nH]6)C=C5)C=C4)cc2)c(O)c1
REMARK SMILES IDX 22 1 21 2 19 3 20 4 18 6 15 7 16 8 84 9 17 10 82 11 14 12
REMARK SMILES IDX 13 14 1 15 2 16 3 17 12 18 6 19 10 20 7 21 8 22 11 23 9 24
REMARK SMILES IDX 4 25 5 26 83 27 23 29 24 30 25 31 26 32 27 34 28 35 29 36
REMARK SMILES IDX 81 37 30 38 80 39 31 40 32 41 33 42 74 43 34 44 79 45 73 46
REMARK SMILES IDX 75 47 35 48 78 49 72 50 71 51 36 53 62 54 45 55 61 56 46 57
REMARK SMILES IDX 49 58 60 59 76 60 47 61 48 62 59 64 77 65 50 66 37 67 38 68
REMARK SMILES IDX 43 69 39 70 40 71 42 72 44 73 41 74 63 75 64 76 69 77 65 78
REMARK SMILES IDX 66 79 68 80 70 81 67 82 51 83 52 84 57 85 53 86 54 87 56 88
REMARK SMILES IDX 58 89 55 90
REMARK H PARENT 21 5 14 13 83 28 25 33 75 52 49 63
REMARK Flexibility Score: inf
ROOT
ATOM      1  C   UNL A   1      31.507  30.839  26.210  1.00  0.00     0.118 C 
ENDROOT
BRANCH   1   2
ATOM      2  N   UNL A   1      30.994  30.441  24.905  1.00  0.00    -0.352 N 
ATOM      3  C   UNL A   1      31.089  29.246  24.238  1.00  0.00     0.255 C 
ATOM      4  O   UNL A   1      30.605  29.153  23.113  1.00  0.00    -0.269 OA
ATOM      5  H   UNL A   1      30.501  31.144  24.424  1.00  0.00     0.163 HD
BRANCH   3   6
ATOM      6  C   UNL A   1      31.803  28.091  24.823  1.00  0.00     0.081 A 
ATOM      7  C   UNL A   1      32.978  25.714  25.762  1.00  0.00     0.042 A 
ATOM      8  C   UNL A   1      31.595  25.899  25.838  1.00  0.00     0.027 A 
ATOM      9  C   UNL A   1      33.767  26.757  25.266  1.00  0.00     0.073 A 
ATOM     10  C   UNL A   1      31.008  27.076  25.368  1.00  0.00     0.020 A 
ATOM     11  C   UNL A   1      33.190  27.955  24.857  1.00  0.00     0.130 A 
BRANCH   7  12
ATOM     12  N   UNL A   1      33.620  24.527  26.123  1.00  0.00    -0.361 N 
ATOM     13  H   UNL A   1      34.384  24.632  26.735  1.00  0.00     0.166 HD
BRANCH  12  14
ATOM     14  C   UNL A   1      33.344  23.239  25.751  1.00  0.00     0.097 C 
ATOM     15  C   UNL A   1      32.355  20.531  24.996  1.00  0.00     0.047 C 
ATOM     16  C   UNL A   1      33.821  20.899  25.108  1.00  0.00    -0.013 C 
ATOM     17  C   UNL A   1      34.776  19.985  24.863  1.00  0.00     0.121 C 
ATOM     18  C   UNL A   1      34.219  22.248  25.489  1.00  0.00     0.060 C 
ATOM     19  C   UNL A   1      36.224  20.266  25.004  1.00  0.00     0.271 C 
ATOM     20  C   UNL A   1      35.691  22.586  25.619  1.00  0.00     0.262 C 
ATOM     21  O   UNL A   1      37.048  19.384  24.771  1.00  0.00    -0.268 OA
ATOM     22  N   UNL A   1      36.577  21.542  25.406  1.00  0.00    -0.277 N 
ATOM     23  O   UNL A   1      36.066  23.728  25.886  1.00  0.00    -0.269 OA
ATOM     24  C   UNL A   1      37.999  21.797  25.568  1.00  0.00     0.157 C 
BRANCH  17  25
ATOM     25  C   UNL A   1      34.406  18.577  24.423  1.00  0.00     0.105 C 
ATOM     26  N   UNL A   1      34.100  17.410  24.058  1.00  0.00    -0.192 NA
ENDBRANCH  17  25
ENDBRANCH  12  14
ENDBRANCH   7  12
BRANCH  11  27
ATOM     27  O   UNL A   1      34.070  28.950  24.534  1.00  0.00    -0.507 OA
ATOM     28  H   UNL A   1      34.928  28.736  24.224  1.00  0.00     0.293 HD
ENDBRANCH  11  27
ENDBRANCH   3   6
ENDBRANCH   1   2
BRANCH   1  29
ATOM     29  C   UNL A   1      31.401  32.326  26.495  1.00  0.00     0.042 C 
BRANCH  29  30
ATOM     30  C   UNL A   1      32.579  32.916  27.254  1.00  0.00     0.118 C 
BRANCH  30  31
ATOM     31  N   UNL A   1      32.361  34.282  27.715  1.00  0.00    -0.352 N 
ATOM     32  C   UNL A   1      33.001  35.028  28.677  1.00  0.00     0.251 C 
ATOM     33  H   UNL A   1      31.627  34.753  27.258  1.00  0.00     0.163 HD
ATOM     34  O   UNL A   1      32.557  36.133  28.981  1.00  0.00    -0.269 OA
BRANCH  32  35
ATOM     35  C   UNL A   1      34.188  34.497  29.381  1.00  0.00     0.039 A 
ATOM     36  C   UNL A   1      34.024  33.882  30.626  1.00  0.00     0.014 A 
ATOM     37  C   UNL A   1      35.460  34.588  28.822  1.00  0.00     0.014 A 
ATOM     38  C   UNL A   1      35.116  33.270  31.249  1.00  0.00     0.010 A 
ATOM     39  C   UNL A   1      36.513  33.866  29.372  1.00  0.00     0.010 A 
ATOM     40  C   UNL A   1      36.358  33.205  30.598  1.00  0.00    -0.014 A 
BRANCH  40  41
ATOM     41  C   UNL A   1      37.514  32.471  31.177  1.00  0.00     0.031 A 
ATOM     42  C   UNL A   1      38.142  32.950  32.459  1.00  0.00     0.074 A 
ATOM     43  C   UNL A   1      38.049  31.428  30.512  1.00  0.00     0.049 A 
ATOM     44  N   UNL A   1      39.218  32.516  33.067  1.00  0.00    -0.248 NA
ATOM     45  C   UNL A   1      37.499  34.093  33.128  1.00  0.00     0.031 C 
ATOM     46  C   UNL A   1      37.571  30.896  29.234  1.00  0.00     0.029 A 
ATOM     47  N   UNL A   1      39.124  30.630  30.818  1.00  0.00    -0.354 N 
ATOM     48  C   UNL A   1      39.389  33.345  34.169  1.00  0.00     0.074 A 
ATOM     49  C   UNL A   1      38.350  34.349  34.109  1.00  0.00     0.031 C 
ATOM     50  C   UNL A   1      38.325  29.842  28.884  1.00  0.00     0.029 A 
ATOM     51  C   UNL A   1      39.369  29.650  29.885  1.00  0.00     0.049 A 
ATOM     52  H   UNL A   1      39.669  30.748  31.629  1.00  0.00     0.167 HD
ATOM     53  C   UNL A   1      40.303  33.259  35.164  1.00  0.00     0.037 A 
ATOM     54  C   UNL A   1      40.331  28.709  29.839  1.00  0.00     0.037 A 
ATOM     55  C   UNL A   1      41.315  32.238  35.241  1.00  0.00     0.049 A 
ATOM     56  C   UNL A   1      41.343  28.641  30.948  1.00  0.00     0.074 A 
ATOM     57  C   UNL A   1      42.254  32.030  36.235  1.00  0.00     0.029 A 
ATOM     58  N   UNL A   1      41.515  31.253  34.286  1.00  0.00    -0.354 N 
ATOM     59  N   UNL A   1      41.451  29.391  32.018  1.00  0.00    -0.248 NA
ATOM     60  C   UNL A   1      42.366  27.591  30.847  1.00  0.00     0.031 C 
ATOM     61  C   UNL A   1      43.052  30.945  35.859  1.00  0.00     0.029 A 
ATOM     62  C   UNL A   1      42.576  30.445  34.658  1.00  0.00     0.049 A 
ATOM     63  H   UNL A   1      40.982  31.145  33.466  1.00  0.00     0.167 HD
ATOM     64  C   UNL A   1      42.529  28.884  32.733  1.00  0.00     0.074 A 
ATOM     65  C   UNL A   1      43.033  27.754  31.981  1.00  0.00     0.031 C 
ATOM     66  C   UNL A   1      43.055  29.315  33.905  1.00  0.00     0.037 A 
BRANCH  53  67
ATOM     67  C   UNL A   1      40.240  34.290  36.254  1.00  0.00     0.057 A 
ATOM     68  C   UNL A   1      40.959  35.491  36.178  1.00  0.00     0.134 A 
ATOM     69  C   UNL A   1      39.431  34.095  37.381  1.00  0.00     0.134 A 
ATOM     70  F   UNL A   1      41.764  35.736  35.132  1.00  0.00    -0.206 F 
ATOM     71  C   UNL A   1      40.901  36.445  37.195  1.00  0.00     0.040 A 
ATOM     72  C   UNL A   1      39.340  35.055  38.389  1.00  0.00     0.040 A 
ATOM     73  F   UNL A   1      38.710  32.972  37.516  1.00  0.00    -0.206 F 
ATOM     74  C   UNL A   1      40.083  36.231  38.302  1.00  0.00     0.006 A 
ENDBRANCH  53  67
BRANCH  54  75
ATOM     75  C   UNL A   1      40.372  27.735  28.716  1.00  0.00     0.057 A 
ATOM     76  C   UNL A   1      41.117  28.002  27.560  1.00  0.00     0.134 A 
ATOM     77  C   UNL A   1      39.658  26.532  28.758  1.00  0.00     0.134 A 
ATOM     78  F   UNL A   1      41.809  29.146  27.453  1.00  0.00    -0.206 F 
ATOM     79  C   UNL A   1      41.130  27.122  26.477  1.00  0.00     0.040 A 
ATOM     80  C   UNL A   1      39.684  25.629  27.693  1.00  0.00     0.040 A 
ATOM     81  F   UNL A   1      38.931  26.212  29.838  1.00  0.00    -0.206 F 
ATOM     82  C   UNL A   1      40.413  25.928  26.544  1.00  0.00     0.006 A 
ENDBRANCH  54  75
BRANCH  66  83
ATOM     83  C   UNL A   1      44.206  28.536  34.471  1.00  0.00     0.057 A 
ATOM     84  C   UNL A   1      45.537  28.884  34.213  1.00  0.00     0.134 A 
ATOM     85  C   UNL A   1      43.975  27.446  35.321  1.00  0.00     0.134 A 
ATOM     86  F   UNL A   1      45.826  29.910  33.398  1.00  0.00    -0.206 F 
ATOM     87  C   UNL A   1      46.599  28.163  34.762  1.00  0.00     0.040 A 
ATOM     88  C   UNL A   1      45.028  26.735  35.898  1.00  0.00     0.040 A 
ATOM     89  F   UNL A   1      42.723  27.065  35.617  1.00  0.00    -0.206 F 
ATOM     90  C   UNL A   1      46.345  27.089  35.613  1.00  0.00     0.006 A 
ENDBRANCH  66  83
ENDBRANCH  40  41
ENDBRANCH  32  35
ENDBRANCH  30  31
ENDBRANCH  29  30
ENDBRANCH   1  29
TORSDOF 14
ENDMDL
MODEL 2
REMARK VINA RESULT:     -12.7      0.511      6.210
REMARK SMILES CC1=C(C#N)C(=O)N(C)C(=O)/C1=C\Nc1ccc(C(=O)NCCCNC(=O)c2ccc(-c3c4nc(c(-c5c(F)cccc5F)c5ccc([nH]5)c(-c5c(F)cccc5F)c5nc(c(-c6c(F)cccc6F)c6ccc3[nH]6)C=C5)C=C4)cc2)c(O)c1
REMARK SMILES IDX 22 1 21 2 19 3 20 4 18 6 15 7 16 8 84 9 17 10 82 11 14 12
REMARK SMILES IDX 13 14 1 15 2 16 3 17 12 18 6 19 10 20 7 21 8 22 11 23 9 24
REMARK SMILES IDX 4 25 5 26 83 27 23 29 24 30 25 31 26 32 27 34 28 35 29 36
REMARK SMILES IDX 81 37 30 38 80 39 31 40 32 41 33 42 74 43 34 44 79 45 73 46
REMARK SMILES IDX 75 47 35 48 78 49 72 50 71 51 36 53 62 54 45 55 61 56 46 57
REMARK SMILES IDX 49 58 60 59 76 60 47 61 48 62 59 64 77 65 50 66 37 67 38 68
REMARK SMILES IDX 43 69 39 70 40 71 42 72 44 73 41 74 63 75 64 76 69 77 65 78
REMARK SMILES IDX 66 79 68 80 70 81 67 82 51 83 52 84 57 85 53 86 54 87 56 88
REMARK SMILES IDX 58 89 55 90
REMARK H PARENT 21 5 14 13 83 28 25 33 75 52 49 63
REMARK Flexibility Score: inf
ROOT
ATOM      1  C   UNL A   1      31.769  30.669  26.231  1.00  0.00     0.118 C 
ENDROOT
BRANCH   1   2
ATOM      2  N   UNL A   1      31.148  30.207  24.996  1.00  0.00    -0.352 N 
ATOM      3  C   UNL A   1      31.155  28.968  24.406  1.00  0.00     0.255 C 
ATOM      4  O   UNL A   1      30.585  28.821  23.327  1.00  0.00    -0.269 OA
ATOM      5  H   UNL A   1      30.642  30.895  24.507  1.00  0.00     0.163 HD
BRANCH   3   6
ATOM      6  C   UNL A   1      31.874  27.829  25.013  1.00  0.00     0.081 A 
ATOM      7  C   UNL A   1      33.043  25.476  26.020  1.00  0.00     0.042 A 
ATOM      8  C   UNL A   1      31.673  25.709  26.174  1.00  0.00     0.027 A 
ATOM      9  C   UNL A   1      33.826  26.462  25.410  1.00  0.00     0.073 A 
ATOM     10  C   UNL A   1      31.090  26.874  25.670  1.00  0.00     0.020 A 
ATOM     11  C   UNL A   1      33.256  27.651  24.967  1.00  0.00     0.130 A 
BRANCH   7  12
ATOM     12  N   UNL A   1      33.674  24.293  26.412  1.00  0.00    -0.361 N 
ATOM     13  H   UNL A   1      34.384  24.399  27.086  1.00  0.00     0.166 HD
BRANCH  12  14
ATOM     14  C   UNL A   1      33.452  23.008  25.996  1.00  0.00     0.097 C 
ATOM     15  C   UNL A   1      32.578  20.284  25.162  1.00  0.00     0.047 C 
ATOM     16  C   UNL A   1      34.027  20.723  25.244  1.00  0.00    -0.013 C 
ATOM     17  C   UNL A   1      35.019  19.870  24.934  1.00  0.00     0.121 C 
ATOM     18  C   UNL A   1      34.368  22.076  25.668  1.00  0.00     0.060 C 
ATOM     19  C   UNL A   1      36.455  20.221  25.043  1.00  0.00     0.271 C 
ATOM     20  C   UNL A   1      35.824  22.484  25.767  1.00  0.00     0.262 C 
ATOM     21  O   UNL A   1      37.315  19.393  24.749  1.00  0.00    -0.268 OA
ATOM     22  N   UNL A   1      36.755  21.497  25.485  1.00  0.00    -0.277 N 
ATOM     23  O   UNL A   1      36.149  23.633  26.068  1.00  0.00    -0.269 OA
ATOM     24  C   UNL A   1      38.166  21.820  25.615  1.00  0.00     0.157 C 
BRANCH  17  25
ATOM     25  C   UNL A   1      34.707  18.464  24.449  1.00  0.00     0.105 C 
ATOM     26  N   UNL A   1      34.449  17.297  24.046  1.00  0.00    -0.192 NA
ENDBRANCH  17  25
ENDBRANCH  12  14
ENDBRANCH   7  12
BRANCH  11  27
ATOM     27  O   UNL A   1      34.140  28.597  24.526  1.00  0.00    -0.507 OA
ATOM     28  H   UNL A   1      34.263  28.732  23.608  1.00  0.00     0.293 HD
ENDBRANCH  11  27
ENDBRANCH   3   6
ENDBRANCH   1   2
BRANCH   1  29
ATOM     29  C   UNL A   1      31.521  32.134  26.544  1.00  0.00     0.042 C 
BRANCH  29  30
ATOM     30  C   UNL A   1      32.648  32.827  27.292  1.00  0.00     0.118 C 
BRANCH  30  31
ATOM     31  N   UNL A   1      32.357  34.210  27.651  1.00  0.00    -0.352 N 
ATOM     32  C   UNL A   1      32.942  35.051  28.569  1.00  0.00     0.251 C 
ATOM     33  H   UNL A   1      31.612  34.612  27.148  1.00  0.00     0.163 HD
ATOM     34  O   UNL A   1      32.441  36.153  28.785  1.00  0.00    -0.269 OA
BRANCH  32  35
ATOM     35  C   UNL A   1      34.136  34.628  29.330  1.00  0.00     0.039 A 
ATOM     36  C   UNL A   1      33.984  34.184  30.647  1.00  0.00     0.014 A 
ATOM     37  C   UNL A   1      35.405  34.655  28.756  1.00  0.00     0.014 A 
ATOM     38  C   UNL A   1      35.084  33.669  31.339  1.00  0.00     0.010 A 
ATOM     39  C   UNL A   1      36.467  34.021  29.391  1.00  0.00     0.010 A 
ATOM     40  C   UNL A   1      36.323  33.528  30.695  1.00  0.00    -0.014 A 
BRANCH  40  41
ATOM     41  C   UNL A   1      37.488  32.886  31.360  1.00  0.00     0.031 A 
ATOM     42  C   UNL A   1      38.146  31.687  30.731  1.00  0.00     0.074 A 
ATOM     43  C   UNL A   1      37.903  33.328  32.564  1.00  0.00     0.049 A 
ATOM     44  N   UNL A   1      39.099  30.922  31.202  1.00  0.00    -0.248 NA
ATOM     45  C   UNL A   1      37.640  31.265  29.413  1.00  0.00     0.031 C 
ATOM     46  C   UNL A   1      37.319  34.446  33.308  1.00  0.00     0.029 A 
ATOM     47  N   UNL A   1      38.912  32.882  33.381  1.00  0.00    -0.354 N 
ATOM     48  C   UNL A   1      39.287  29.925  30.252  1.00  0.00     0.074 A 
ATOM     49  C   UNL A   1      38.304  30.138  29.214  1.00  0.00     0.031 C 
ATOM     50  C   UNL A   1      37.999  34.619  34.452  1.00  0.00     0.029 A 
ATOM     51  C   UNL A   1      39.038  33.598  34.547  1.00  0.00     0.049 A 
ATOM     52  H   UNL A   1      39.492  32.120  33.153  1.00  0.00     0.167 HD
ATOM     53  C   UNL A   1      40.217  28.941  30.225  1.00  0.00     0.037 A 
ATOM     54  C   UNL A   1      39.888  33.445  35.580  1.00  0.00     0.037 A 
ATOM     55  C   UNL A   1      41.217  28.751  31.242  1.00  0.00     0.049 A 
ATOM     56  C   UNL A   1      40.904  32.337  35.534  1.00  0.00     0.074 A 
ATOM     57  C   UNL A   1      42.239  27.820  31.282  1.00  0.00     0.029 A 
ATOM     58  N   UNL A   1      41.321  29.512  32.397  1.00  0.00    -0.354 N 
ATOM     59  N   UNL A   1      41.111  31.441  34.598  1.00  0.00    -0.248 NA
ATOM     60  C   UNL A   1      41.808  32.220  36.686  1.00  0.00     0.031 C 
ATOM     61  C   UNL A   1      42.934  27.987  32.483  1.00  0.00     0.029 A 
ATOM     62  C   UNL A   1      42.379  29.057  33.166  1.00  0.00     0.049 A 
ATOM     63  H   UNL A   1      40.731  30.262  32.634  1.00  0.00     0.167 HD
ATOM     64  C   UNL A   1      42.188  30.680  35.031  1.00  0.00     0.074 A 
ATOM     65  C   UNL A   1      42.600  31.225  36.308  1.00  0.00     0.031 C 
ATOM     66  C   UNL A   1      42.784  29.622  34.427  1.00  0.00     0.037 A 
BRANCH  53  67
ATOM     67  C   UNL A   1      40.201  28.005  29.051  1.00  0.00     0.057 A 
ATOM     68  C   UNL A   1      39.471  26.808  29.071  1.00  0.00     0.134 A 
ATOM     69  C   UNL A   1      40.900  28.313  27.877  1.00  0.00     0.134 A 
ATOM     70  F   UNL A   1      38.789  26.445  30.168  1.00  0.00    -0.206 F 
ATOM     71  C   UNL A   1      39.461  25.939  27.979  1.00  0.00     0.040 A 
ATOM     72  C   UNL A   1      40.873  27.467  26.768  1.00  0.00     0.040 A 
ATOM     73  F   UNL A   1      41.614  29.444  27.787  1.00  0.00    -0.206 F 
ATOM     74  C   UNL A   1      40.159  26.271  26.820  1.00  0.00     0.006 A 
ENDBRANCH  53  67
BRANCH  54  75
ATOM     75  C   UNL A   1      39.837  34.376  36.738  1.00  0.00     0.057 A 
ATOM     76  C   UNL A   1      39.072  34.072  37.871  1.00  0.00     0.134 A 
ATOM     77  C   UNL A   1      40.527  35.593  36.734  1.00  0.00     0.134 A 
ATOM     78  F   UNL A   1      38.373  32.929  37.927  1.00  0.00    -0.206 F 
ATOM     79  C   UNL A   1      38.974  34.956  38.947  1.00  0.00     0.040 A 
ATOM     80  C   UNL A   1      40.461  36.474  37.815  1.00  0.00     0.040 A 
ATOM     81  F   UNL A   1      41.284  35.941  35.684  1.00  0.00    -0.206 F 
ATOM     82  C   UNL A   1      39.674  36.161  38.922  1.00  0.00     0.006 A 
ENDBRANCH  54  75
BRANCH  66  83
ATOM     83  C   UNL A   1      43.971  29.015  35.116  1.00  0.00     0.057 A 
ATOM     84  C   UNL A   1      43.844  27.949  36.015  1.00  0.00     0.134 A 
ATOM     85  C   UNL A   1      45.264  29.479  34.841  1.00  0.00     0.134 A 
ATOM     86  F   UNL A   1      42.632  27.467  36.331  1.00  0.00    -0.206 F 
ATOM     87  C   UNL A   1      44.958  27.381  36.634  1.00  0.00     0.040 A 
ATOM     88  C   UNL A   1      46.388  28.900  35.432  1.00  0.00     0.040 A 
ATOM     89  F   UNL A   1      45.458  30.491  33.981  1.00  0.00    -0.206 F 
ATOM     90  C   UNL A   1      46.236  27.852  36.337  1.00  0.00     0.006 A 
ENDBRANCH  66  83
ENDBRANCH  40  41
ENDBRANCH  32  35
ENDBRANCH  30  31
ENDBRANCH  29  30
ENDBRANCH   1  29
TORSDOF 14
ENDMDL
MODEL 3
REMARK VINA RESULT:     -12.6      4.042      9.756
REMARK SMILES CC1=C(C#N)C(=O)N(C)C(=O)/C1=C\Nc1ccc(C(=O)NCCCNC(=O)c2ccc(-c3c4nc(c(-c5c(F)cccc5F)c5ccc([nH]5)c(-c5c(F)cccc5F)c5nc(c(-c6c(F)cccc6F)c6ccc3[nH]6)C=C5)C=C4)cc2)c(O)c1
REMARK SMILES IDX 22 1 21 2 19 3 20 4 18 6 15 7 16 8 84 9 17 10 82 11 14 12
REMARK SMILES IDX 13 14 1 15 2 16 3 17 12 18 6 19 10 20 7 21 8 22 11 23 9 24
REMARK SMILES IDX 4 25 5 26 83 27 23 29 24 30 25 31 26 32 27 34 28 35 29 36
REMARK SMILES IDX 81 37 30 38 80 39 31 40 32 41 33 42 74 43 34 44 79 45 73 46
REMARK SMILES IDX 75 47 35 48 78 49 72 50 71 51 36 53 62 54 45 55 61 56 46 57
REMARK SMILES IDX 49 58 60 59 76 60 47 61 48 62 59 64 77 65 50 66 37 67 38 68
REMARK SMILES IDX 43 69 39 70 40 71 42 72 44 73 41 74 63 75 64 76 69 77 65 78
REMARK SMILES IDX 66 79 68 80 70 81 67 82 51 83 52 84 57 85 53 86 54 87 56 88
REMARK SMILES IDX 58 89 55 90
REMARK H PARENT 21 5 14 13 83 28 25 33 75 52 49 63
REMARK Flexibility Score: inf
ROOT
ATOM      1  C   UNL A   1      36.404  20.493  25.019  1.00  0.00     0.118 C 
ENDROOT
BRANCH   1   2
ATOM      2  N   UNL A   1      35.338  19.498  24.997  1.00  0.00    -0.352 N 
ATOM      3  C   UNL A   1      33.987  19.637  25.193  1.00  0.00     0.255 C 
ATOM      4  O   UNL A   1      33.277  18.635  25.165  1.00  0.00    -0.269 OA
ATOM      5  H   UNL A   1      35.636  18.579  24.811  1.00  0.00     0.163 HD
BRANCH   3   6
ATOM      6  C   UNL A   1      33.382  20.953  25.486  1.00  0.00     0.081 A 
ATOM      7  C   UNL A   1      31.957  23.332  25.965  1.00  0.00     0.042 A 
ATOM      8  C   UNL A   1      31.854  22.679  24.733  1.00  0.00     0.027 A 
ATOM      9  C   UNL A   1      32.827  22.809  26.928  1.00  0.00     0.073 A 
ATOM     10  C   UNL A   1      32.556  21.496  24.495  1.00  0.00     0.020 A 
ATOM     11  C   UNL A   1      33.576  21.667  26.668  1.00  0.00     0.130 A 
BRANCH   7  12
ATOM     12  N   UNL A   1      31.212  24.462  26.306  1.00  0.00    -0.361 N 
ATOM     13  H   UNL A   1      31.291  24.751  27.244  1.00  0.00     0.166 HD
BRANCH  12  14
ATOM     14  C   UNL A   1      30.385  25.228  25.528  1.00  0.00     0.097 C 
ATOM     15  C   UNL A   1      28.296  26.631  23.932  1.00  0.00     0.047 C 
ATOM     16  C   UNL A   1      29.757  27.034  23.960  1.00  0.00    -0.013 C 
ATOM     17  C   UNL A   1      30.191  28.082  23.238  1.00  0.00     0.121 C 
ATOM     18  C   UNL A   1      30.716  26.288  24.765  1.00  0.00     0.060 C 
ATOM     19  C   UNL A   1      31.613  28.495  23.181  1.00  0.00     0.271 C 
ATOM     20  C   UNL A   1      32.176  26.694  24.757  1.00  0.00     0.262 C 
ATOM     21  O   UNL A   1      31.947  29.460  22.496  1.00  0.00    -0.268 OA
ATOM     22  N   UNL A   1      32.512  27.748  23.922  1.00  0.00    -0.277 N 
ATOM     23  O   UNL A   1      33.005  26.122  25.467  1.00  0.00    -0.269 OA
ATOM     24  C   UNL A   1      33.907  28.145  23.836  1.00  0.00     0.157 C 
BRANCH  17  25
ATOM     25  C   UNL A   1      29.219  28.912  22.416  1.00  0.00     0.105 C 
ATOM     26  N   UNL A   1      28.412  29.600  21.734  1.00  0.00    -0.192 NA
ENDBRANCH  17  25
ENDBRANCH  12  14
ENDBRANCH   7  12
BRANCH  11  27
ATOM     27  O   UNL A   1      34.499  21.338  27.623  1.00  0.00    -0.507 OA
ATOM     28  H   UNL A   1      35.231  21.900  27.780  1.00  0.00     0.293 HD
ENDBRANCH  11  27
ENDBRANCH   3   6
ENDBRANCH   1   2
BRANCH   1  29
ATOM     29  C   UNL A   1      37.784  19.935  24.721  1.00  0.00     0.042 C 
BRANCH  29  30
ATOM     30  C   UNL A   1      38.844  20.267  25.758  1.00  0.00     0.118 C 
BRANCH  30  31
ATOM     31  N   UNL A   1      39.945  19.312  25.806  1.00  0.00    -0.352 N 
ATOM     32  C   UNL A   1      41.271  19.472  26.134  1.00  0.00     0.251 C 
ATOM     33  H   UNL A   1      39.695  18.392  25.561  1.00  0.00     0.163 HD
ATOM     34  O   UNL A   1      42.050  18.533  25.984  1.00  0.00    -0.269 OA
BRANCH  32  35
ATOM     35  C   UNL A   1      41.779  20.773  26.621  1.00  0.00     0.039 A 
ATOM     36  C   UNL A   1      42.203  21.730  25.695  1.00  0.00     0.014 A 
ATOM     37  C   UNL A   1      41.831  21.063  27.983  1.00  0.00     0.014 A 
ATOM     38  C   UNL A   1      42.573  23.005  26.132  1.00  0.00     0.010 A 
ATOM     39  C   UNL A   1      42.067  22.367  28.405  1.00  0.00     0.010 A 
ATOM     40  C   UNL A   1      42.450  23.353  27.486  1.00  0.00    -0.014 A 
BRANCH  40  41
ATOM     41  C   UNL A   1      42.730  24.729  27.975  1.00  0.00     0.031 A 
ATOM     42  C   UNL A   1      44.134  25.121  28.354  1.00  0.00     0.074 A 
ATOM     43  C   UNL A   1      41.716  25.598  28.156  1.00  0.00     0.049 A 
ATOM     44  N   UNL A   1      44.566  26.230  28.901  1.00  0.00    -0.248 NA
ATOM     45  C   UNL A   1      45.189  24.119  28.126  1.00  0.00     0.031 C 
ATOM     46  C   UNL A   1      40.303  25.327  27.880  1.00  0.00     0.029 A 
ATOM     47  N   UNL A   1      41.717  26.888  28.626  1.00  0.00    -0.354 N 
ATOM     48  C   UNL A   1      45.929  26.048  29.098  1.00  0.00     0.074 A 
ATOM     49  C   UNL A   1      46.241  24.700  28.680  1.00  0.00     0.031 C 
ATOM     50  C   UNL A   1      39.581  26.425  28.151  1.00  0.00     0.029 A 
ATOM     51  C   UNL A   1      40.469  27.463  28.665  1.00  0.00     0.049 A 
ATOM     52  H   UNL A   1      42.534  27.358  28.909  1.00  0.00     0.167 HD
ATOM     53  C   UNL A   1      46.848  26.933  29.551  1.00  0.00     0.037 A 
ATOM     54  C   UNL A   1      40.083  28.686  29.076  1.00  0.00     0.037 A 
ATOM     55  C   UNL A   1      46.542  28.286  29.933  1.00  0.00     0.049 A 
ATOM     56  C   UNL A   1      41.120  29.648  29.587  1.00  0.00     0.074 A 
ATOM     57  C   UNL A   1      47.408  29.279  30.353  1.00  0.00     0.029 A 
ATOM     58  N   UNL A   1      45.268  28.835  29.939  1.00  0.00    -0.354 N 
ATOM     59  N   UNL A   1      42.416  29.483  29.707  1.00  0.00    -0.248 NA
ATOM     60  C   UNL A   1      40.642  30.969  30.018  1.00  0.00     0.031 C 
ATOM     61  C   UNL A   1      46.653  30.416  30.656  1.00  0.00     0.029 A 
ATOM     62  C   UNL A   1      45.324  30.148  30.374  1.00  0.00     0.049 A 
ATOM     63  H   UNL A   1      44.448  28.361  29.673  1.00  0.00     0.167 HD
ATOM     64  C   UNL A   1      42.911  30.687  30.191  1.00  0.00     0.074 A 
ATOM     65  C   UNL A   1      41.778  31.578  30.332  1.00  0.00     0.031 C 
ATOM     66  C   UNL A   1      44.188  31.025  30.493  1.00  0.00     0.037 A 
BRANCH  53  67
ATOM     67  C   UNL A   1      48.272  26.466  29.643  1.00  0.00     0.057 A 
ATOM     68  C   UNL A   1      49.175  26.633  28.584  1.00  0.00     0.134 A 
ATOM     69  C   UNL A   1      48.757  25.867  30.813  1.00  0.00     0.134 A 
ATOM     70  F   UNL A   1      48.773  27.187  27.430  1.00  0.00    -0.206 F 
ATOM     71  C   UNL A   1      50.497  26.195  28.672  1.00  0.00     0.040 A 
ATOM     72  C   UNL A   1      50.085  25.452  30.925  1.00  0.00     0.040 A 
ATOM     73  F   UNL A   1      47.950  25.681  31.868  1.00  0.00    -0.206 F 
ATOM     74  C   UNL A   1      50.957  25.608  29.849  1.00  0.00     0.006 A 
ENDBRANCH  53  67
BRANCH  54  75
ATOM     75  C   UNL A   1      38.653  29.086  29.000  1.00  0.00     0.057 A 
ATOM     76  C   UNL A   1      38.113  29.600  27.815  1.00  0.00     0.134 A 
ATOM     77  C   UNL A   1      37.802  28.988  30.107  1.00  0.00     0.134 A 
ATOM     78  F   UNL A   1      38.882  29.736  26.726  1.00  0.00    -0.206 F 
ATOM     79  C   UNL A   1      36.785  30.024  27.739  1.00  0.00     0.040 A 
ATOM     80  C   UNL A   1      36.464  29.383  30.037  1.00  0.00     0.040 A 
ATOM     81  F   UNL A   1      38.254  28.498  31.270  1.00  0.00    -0.206 F 
ATOM     82  C   UNL A   1      35.955  29.913  28.853  1.00  0.00     0.006 A 
ENDBRANCH  54  75
BRANCH  66  83
ATOM     83  C   UNL A   1      44.435  32.429  30.961  1.00  0.00     0.057 A 
ATOM     84  C   UNL A   1      44.446  32.769  32.320  1.00  0.00     0.134 A 
ATOM     85  C   UNL A   1      44.709  33.447  30.038  1.00  0.00     0.134 A 
ATOM     86  F   UNL A   1      44.180  31.843  33.254  1.00  0.00    -0.206 F 
ATOM     87  C   UNL A   1      44.697  34.075  32.743  1.00  0.00     0.040 A 
ATOM     88  C   UNL A   1      44.990  34.751  30.450  1.00  0.00     0.040 A 
ATOM     89  F   UNL A   1      44.724  33.188  28.722  1.00  0.00    -0.206 F 
ATOM     90  C   UNL A   1      44.977  35.069  31.807  1.00  0.00     0.006 A 
ENDBRANCH  66  83
ENDBRANCH  40  41
ENDBRANCH  32  35
ENDBRANCH  30  31
ENDBRANCH  29  30
ENDBRANCH   1  29
TORSDOF 14
ENDMDL
