MODEL 1
REMARK VINA RESULT:     -12.2      0.000      0.000
REMARK SMILES Cn1ncc(C(=O)NCCCNC(=O)c2ccc(-c3c4nc(c(-c5c(F)cccc5F)c5ccc([nH]5)c(-c5c(F)cccc5F)c5nc(c(-c6c(F)cccc6F)c6ccc3[nH]6)C=C5)C=C4)cc2)c1C(=O)Nc1ccccn1
REMARK SMILES IDX 10 1 9 2 8 3 6 4 7 5 5 7 1 8 2 9 3 10 69 11 4 12 70 13 71 14
REMARK SMILES IDX 72 15 73 17 74 18 78 19 75 20 77 21 76 22 11 23 12 24 13 25
REMARK SMILES IDX 14 27 15 28 16 29 68 30 17 31 67 32 18 33 19 34 20 35 61 36
REMARK SMILES IDX 21 37 66 38 60 39 62 40 22 41 65 42 59 43 58 44 23 46 49 47
REMARK SMILES IDX 32 48 48 49 33 50 36 51 47 52 63 53 34 54 35 55 46 57 64 58
REMARK SMILES IDX 37 59 24 60 25 61 30 62 26 63 27 64 29 65 31 66 28 67 50 68
REMARK SMILES IDX 51 69 56 70 52 71 53 72 55 73 57 74 54 75 38 76 39 77 44 78
REMARK SMILES IDX 40 79 41 80 43 81 45 82 42 83
REMARK H PARENT 8 6 72 16 12 26 62 45 36 56
REMARK Flexibility Score: inf
ROOT
ATOM      1  C   UNL A   1      30.956  31.997  26.063  1.00  0.00     0.042 C 
ENDROOT
BRANCH   1   2
ATOM      2  C   UNL A   1      31.018  30.650  25.371  1.00  0.00     0.118 C 
BRANCH   2   3
ATOM      3  N   UNL A   1      32.342  30.083  25.317  1.00  0.00    -0.352 N 
ATOM      4  C   UNL A   1      32.810  28.798  25.315  1.00  0.00     0.255 C 
ATOM      5  O   UNL A   1      34.042  28.703  25.333  1.00  0.00    -0.269 OA
ATOM      6  H   UNL A   1      33.056  30.760  25.274  1.00  0.00     0.163 HD
BRANCH   4   7
ATOM      7  C   UNL A   1      31.997  27.585  25.334  1.00  0.00     0.090 A 
ATOM      8  C   UNL A   1      30.653  24.316  24.603  1.00  0.00     0.174 C 
ATOM      9  N   UNL A   1      30.992  25.635  25.087  1.00  0.00    -0.262 N 
ATOM     10  N   UNL A   1      31.009  25.810  26.417  1.00  0.00    -0.180 NA
ATOM     11  C   UNL A   1      31.435  26.730  24.374  1.00  0.00     0.139 A 
ATOM     12  C   UNL A   1      31.685  26.945  26.566  1.00  0.00     0.149 A 
BRANCH  11  13
ATOM     13  C   UNL A   1      31.496  26.785  22.937  1.00  0.00     0.275 C 
ATOM     14  O   UNL A   1      31.954  25.856  22.271  1.00  0.00    -0.267 OA
ATOM     15  N   UNL A   1      31.209  27.966  22.272  1.00  0.00    -0.305 N 
ATOM     16  H   UNL A   1      31.901  28.349  21.687  1.00  0.00     0.171 HD
BRANCH  15  17
ATOM     17  C   UNL A   1      29.997  28.641  22.383  1.00  0.00     0.132 A 
ATOM     18  C   UNL A   1      28.927  28.168  23.126  1.00  0.00     0.047 A 
ATOM     19  N   UNL A   1      29.963  29.790  21.682  1.00  0.00    -0.239 NA
ATOM     20  C   UNL A   1      27.731  28.888  23.071  1.00  0.00     0.005 A 
ATOM     21  C   UNL A   1      28.792  30.453  21.626  1.00  0.00     0.113 A 
ATOM     22  C   UNL A   1      27.653  30.037  22.287  1.00  0.00     0.020 A 
ENDBRANCH  15  17
ENDBRANCH  11  13
ENDBRANCH   4   7
ENDBRANCH   2   3
ENDBRANCH   1   2
BRANCH   1  23
ATOM     23  C   UNL A   1      32.188  32.340  26.876  1.00  0.00     0.118 C 
BRANCH  23  24
ATOM     24  N   UNL A   1      32.166  33.701  27.401  1.00  0.00    -0.352 N 
ATOM     25  C   UNL A   1      32.991  34.326  28.307  1.00  0.00     0.251 C 
ATOM     26  H   UNL A   1      31.440  34.266  27.051  1.00  0.00     0.163 HD
ATOM     27  O   UNL A   1      32.692  35.432  28.751  1.00  0.00    -0.269 OA
BRANCH  25  28
ATOM     28  C   UNL A   1      34.224  33.658  28.776  1.00  0.00     0.039 A 
ATOM     29  C   UNL A   1      35.461  34.280  28.580  1.00  0.00     0.014 A 
ATOM     30  C   UNL A   1      34.159  32.425  29.423  1.00  0.00     0.014 A 
ATOM     31  C   UNL A   1      36.614  33.711  29.127  1.00  0.00     0.010 A 
ATOM     32  C   UNL A   1      35.280  31.928  30.070  1.00  0.00     0.010 A 
ATOM     33  C   UNL A   1      36.523  32.560  29.925  1.00  0.00    -0.014 A 
BRANCH  33  34
ATOM     34  C   UNL A   1      37.701  31.973  30.612  1.00  0.00     0.031 A 
ATOM     35  C   UNL A   1      38.500  30.899  29.923  1.00  0.00     0.074 A 
ATOM     36  C   UNL A   1      37.982  32.319  31.884  1.00  0.00     0.049 A 
ATOM     37  N   UNL A   1      39.449  30.136  30.402  1.00  0.00    -0.248 NA
ATOM     38  C   UNL A   1      38.155  30.618  28.520  1.00  0.00     0.031 C 
ATOM     39  C   UNL A   1      37.252  33.310  32.677  1.00  0.00     0.029 A 
ATOM     40  N   UNL A   1      38.945  31.853  32.744  1.00  0.00    -0.354 N 
ATOM     41  C   UNL A   1      39.787  29.268  29.372  1.00  0.00     0.074 A 
ATOM     42  C   UNL A   1      38.904  29.556  28.265  1.00  0.00     0.031 C 
ATOM     43  C   UNL A   1      37.806  33.394  33.897  1.00  0.00     0.029 A 
ATOM     44  C   UNL A   1      38.896  32.428  33.991  1.00  0.00     0.049 A 
ATOM     45  H   UNL A   1      39.610  31.172  32.490  1.00  0.00     0.167 HD
ATOM     46  C   UNL A   1      40.763  28.330  29.344  1.00  0.00     0.037 A 
ATOM     47  C   UNL A   1      39.635  32.189  35.091  1.00  0.00     0.037 A 
ATOM     48  C   UNL A   1      41.665  28.078  30.434  1.00  0.00     0.049 A 
ATOM     49  C   UNL A   1      40.715  31.143  35.034  1.00  0.00     0.074 A 
ATOM     50  C   UNL A   1      42.732  27.198  30.483  1.00  0.00     0.029 A 
ATOM     51  N   UNL A   1      41.606  28.708  31.668  1.00  0.00    -0.354 N 
ATOM     52  N   UNL A   1      41.064  30.370  34.034  1.00  0.00    -0.248 NA
ATOM     53  C   UNL A   1      41.506  30.938  36.256  1.00  0.00     0.031 C 
ATOM     54  C   UNL A   1      43.292  27.267  31.762  1.00  0.00     0.029 A 
ATOM     55  C   UNL A   1      42.606  28.224  32.492  1.00  0.00     0.049 A 
ATOM     56  H   UNL A   1      40.950  29.397  31.919  1.00  0.00     0.167 HD
ATOM     57  C   UNL A   1      42.134  29.612  34.494  1.00  0.00     0.074 A 
ATOM     58  C   UNL A   1      42.381  30.024  35.860  1.00  0.00     0.031 C 
ATOM     59  C   UNL A   1      42.848  28.662  33.844  1.00  0.00     0.037 A 
BRANCH  46  60
ATOM     60  C   UNL A   1      40.906  27.517  28.089  1.00  0.00     0.057 A 
ATOM     61  C   UNL A   1      41.718  27.932  27.026  1.00  0.00     0.134 A 
ATOM     62  C   UNL A   1      40.244  26.290  27.953  1.00  0.00     0.134 A 
ATOM     63  F   UNL A   1      42.370  29.103  27.085  1.00  0.00    -0.206 F 
ATOM     64  C   UNL A   1      41.842  27.174  25.860  1.00  0.00     0.040 A 
ATOM     65  C   UNL A   1      40.384  25.508  26.806  1.00  0.00     0.040 A 
ATOM     66  F   UNL A   1      39.455  25.828  28.935  1.00  0.00    -0.206 F 
ATOM     67  C   UNL A   1      41.180  25.953  25.751  1.00  0.00     0.006 A 
ENDBRANCH  46  60
BRANCH  47  68
ATOM     68  C   UNL A   1      39.394  32.965  36.334  1.00  0.00     0.057 A 
ATOM     69  C   UNL A   1      38.470  32.526  37.289  1.00  0.00     0.134 A 
ATOM     70  C   UNL A   1      40.071  34.163  36.596  1.00  0.00     0.134 A 
ATOM     71  F   UNL A   1      37.778  31.395  37.088  1.00  0.00    -0.206 F 
ATOM     72  C   UNL A   1      38.213  33.257  38.450  1.00  0.00     0.040 A 
ATOM     73  C   UNL A   1      39.842  34.892  37.765  1.00  0.00     0.040 A 
ATOM     74  F   UNL A   1      40.976  34.634  35.726  1.00  0.00    -0.206 F 
ATOM     75  C   UNL A   1      38.905  34.443  38.692  1.00  0.00     0.006 A 
ENDBRANCH  47  68
BRANCH  59  76
ATOM     76  C   UNL A   1      43.995  28.036  34.579  1.00  0.00     0.057 A 
ATOM     77  C   UNL A   1      43.855  26.838  35.289  1.00  0.00     0.134 A 
ATOM     78  C   UNL A   1      45.272  28.610  34.519  1.00  0.00     0.134 A 
ATOM     79  F   UNL A   1      42.656  26.245  35.394  1.00  0.00    -0.206 F 
ATOM     80  C   UNL A   1      44.943  26.241  35.928  1.00  0.00     0.040 A 
ATOM     81  C   UNL A   1      46.371  28.009  35.130  1.00  0.00     0.040 A 
ATOM     82  F   UNL A   1      45.474  29.753  33.846  1.00  0.00    -0.206 F 
ATOM     83  C   UNL A   1      46.207  26.822  35.841  1.00  0.00     0.006 A 
ENDBRANCH  59  76
ENDBRANCH  33  34
ENDBRANCH  25  28
ENDBRANCH  23  24
ENDBRANCH   1  23
TORSDOF 12
ENDMDL
MODEL 2
REMARK VINA RESULT:     -12.1      5.818      9.983
REMARK SMILES Cn1ncc(C(=O)NCCCNC(=O)c2ccc(-c3c4nc(c(-c5c(F)cccc5F)c5ccc([nH]5)c(-c5c(F)cccc5F)c5nc(c(-c6c(F)cccc6F)c6ccc3[nH]6)C=C5)C=C4)cc2)c1C(=O)Nc1ccccn1
REMARK SMILES IDX 10 1 9 2 8 3 6 4 7 5 5 7 1 8 2 9 3 10 69 11 4 12 70 13 71 14
REMARK SMILES IDX 72 15 73 17 74 18 78 19 75 20 77 21 76 22 11 23 12 24 13 25
REMARK SMILES IDX 14 27 15 28 16 29 68 30 17 31 67 32 18 33 19 34 20 35 61 36
REMARK SMILES IDX 21 37 66 38 60 39 62 40 22 41 65 42 59 43 58 44 23 46 49 47
REMARK SMILES IDX 32 48 48 49 33 50 36 51 47 52 63 53 34 54 35 55 46 57 64 58
REMARK SMILES IDX 37 59 24 60 25 61 30 62 26 63 27 64 29 65 31 66 28 67 50 68
REMARK SMILES IDX 51 69 56 70 52 71 53 72 55 73 57 74 54 75 38 76 39 77 44 78
REMARK SMILES IDX 40 79 41 80 43 81 45 82 42 83
REMARK H PARENT 8 6 72 16 12 26 62 45 36 56
REMARK Flexibility Score: inf
ROOT
ATOM      1  C   UNL A   1      38.351  19.154  25.353  1.00  0.00     0.042 C 
ENDROOT
BRANCH   1   2
ATOM      2  C   UNL A   1      37.423  20.120  24.643  1.00  0.00     0.118 C 
BRANCH   2   3
ATOM      3  N   UNL A   1      37.475  21.464  25.160  1.00  0.00    -0.352 N 
ATOM      4  C   UNL A   1      36.659  22.552  25.018  1.00  0.00     0.255 C 
ATOM      5  O   UNL A   1      37.077  23.578  25.566  1.00  0.00    -0.269 OA
ATOM      6  H   UNL A   1      38.258  21.634  25.732  1.00  0.00     0.163 HD
BRANCH   4   7
ATOM      7  C   UNL A   1      35.407  22.599  24.265  1.00  0.00     0.090 A 
ATOM      8  C   UNL A   1      31.922  22.884  23.374  1.00  0.00     0.174 C 
ATOM      9  N   UNL A   1      33.357  22.732  23.460  1.00  0.00    -0.262 N 
ATOM     10  N   UNL A   1      34.094  23.375  22.542  1.00  0.00    -0.180 NA
ATOM     11  C   UNL A   1      34.103  22.114  24.442  1.00  0.00     0.139 A 
ATOM     12  C   UNL A   1      35.314  23.363  23.069  1.00  0.00     0.149 A 
BRANCH  11  13
ATOM     13  C   UNL A   1      33.537  21.354  25.526  1.00  0.00     0.275 C 
ATOM     14  O   UNL A   1      32.900  21.891  26.433  1.00  0.00    -0.267 OA
ATOM     15  N   UNL A   1      33.854  20.013  25.675  1.00  0.00    -0.305 N 
ATOM     16  H   UNL A   1      34.264  19.725  26.522  1.00  0.00     0.171 HD
BRANCH  15  17
ATOM     17  C   UNL A   1      33.622  19.051  24.697  1.00  0.00     0.132 A 
ATOM     18  C   UNL A   1      34.481  17.991  24.451  1.00  0.00     0.047 A 
ATOM     19  N   UNL A   1      32.489  19.265  24.001  1.00  0.00    -0.239 NA
ATOM     20  C   UNL A   1      34.186  17.155  23.372  1.00  0.00     0.005 A 
ATOM     21  C   UNL A   1      32.240  18.459  22.951  1.00  0.00     0.113 A 
ATOM     22  C   UNL A   1      33.060  17.408  22.591  1.00  0.00     0.020 A 
ENDBRANCH  15  17
ENDBRANCH  11  13
ENDBRANCH   4   7
ENDBRANCH   2   3
ENDBRANCH   1   2
BRANCH   1  23
ATOM     23  C   UNL A   1      39.626  19.784  25.877  1.00  0.00     0.118 C 
BRANCH  23  24
ATOM     24  N   UNL A   1      40.720  18.828  26.018  1.00  0.00    -0.352 N 
ATOM     25  C   UNL A   1      42.069  19.029  26.192  1.00  0.00     0.251 C 
ATOM     26  H   UNL A   1      40.448  17.882  25.982  1.00  0.00     0.163 HD
ATOM     27  O   UNL A   1      42.848  18.082  26.111  1.00  0.00    -0.269 OA
BRANCH  25  28
ATOM     28  C   UNL A   1      42.594  20.388  26.444  1.00  0.00     0.039 A 
ATOM     29  C   UNL A   1      43.082  21.147  25.376  1.00  0.00     0.014 A 
ATOM     30  C   UNL A   1      42.590  20.921  27.733  1.00  0.00     0.014 A 
ATOM     31  C   UNL A   1      43.466  22.474  25.589  1.00  0.00     0.010 A 
ATOM     32  C   UNL A   1      42.852  22.270  27.920  1.00  0.00     0.010 A 
ATOM     33  C   UNL A   1      43.300  23.062  26.853  1.00  0.00    -0.014 A 
BRANCH  33  34
ATOM     34  C   UNL A   1      43.597  24.493  27.109  1.00  0.00     0.031 A 
ATOM     35  C   UNL A   1      45.018  24.982  27.023  1.00  0.00     0.074 A 
ATOM     36  C   UNL A   1      42.619  25.321  27.525  1.00  0.00     0.049 A 
ATOM     37  N   UNL A   1      45.520  26.138  27.373  1.00  0.00    -0.248 NA
ATOM     38  C   UNL A   1      46.015  24.024  26.516  1.00  0.00     0.031 C 
ATOM     39  C   UNL A   1      41.211  24.957  27.696  1.00  0.00     0.029 A 
ATOM     40  N   UNL A   1      42.666  26.640  27.905  1.00  0.00    -0.354 N 
ATOM     41  C   UNL A   1      46.889  26.032  27.160  1.00  0.00     0.074 A 
ATOM     42  C   UNL A   1      47.147  24.684  26.708  1.00  0.00     0.031 C 
ATOM     43  C   UNL A   1      40.526  26.029  28.125  1.00  0.00     0.029 A 
ATOM     44  C   UNL A   1      41.452  27.142  28.309  1.00  0.00     0.049 A 
ATOM     45  H   UNL A   1      43.492  27.175  27.889  1.00  0.00     0.167 HD
ATOM     46  C   UNL A   1      47.843  26.982  27.303  1.00  0.00     0.037 A 
ATOM     47  C   UNL A   1      41.127  28.356  28.790  1.00  0.00     0.037 A 
ATOM     48  C   UNL A   1      47.573  28.333  27.713  1.00  0.00     0.049 A 
ATOM     49  C   UNL A   1      42.205  29.396  28.940  1.00  0.00     0.074 A 
ATOM     50  C   UNL A   1      48.457  29.392  27.824  1.00  0.00     0.029 A 
ATOM     51  N   UNL A   1      46.324  28.812  28.077  1.00  0.00    -0.354 N 
ATOM     52  N   UNL A   1      43.486  29.302  28.677  1.00  0.00    -0.248 NA
ATOM     53  C   UNL A   1      41.791  30.712  29.449  1.00  0.00     0.031 C 
ATOM     54  C   UNL A   1      47.749  30.501  28.296  1.00  0.00     0.029 A 
ATOM     55  C   UNL A   1      46.416  30.147  28.430  1.00  0.00     0.049 A 
ATOM     56  H   UNL A   1      45.495  28.282  28.082  1.00  0.00     0.167 HD
ATOM     57  C   UNL A   1      44.024  30.552  28.957  1.00  0.00     0.074 A 
ATOM     58  C   UNL A   1      42.930  31.388  29.401  1.00  0.00     0.031 C 
ATOM     59  C   UNL A   1      45.310  30.969  28.852  1.00  0.00     0.037 A 
BRANCH  46  60
ATOM     60  C   UNL A   1      49.262  26.590  27.007  1.00  0.00     0.057 A 
ATOM     61  C   UNL A   1      50.109  26.075  27.997  1.00  0.00     0.134 A 
ATOM     62  C   UNL A   1      49.779  26.701  25.711  1.00  0.00     0.134 A 
ATOM     63  F   UNL A   1      49.683  25.955  29.263  1.00  0.00    -0.206 F 
ATOM     64  C   UNL A   1      51.430  25.717  27.717  1.00  0.00     0.040 A 
ATOM     65  C   UNL A   1      51.087  26.318  25.411  1.00  0.00     0.040 A 
ATOM     66  F   UNL A   1      49.020  27.179  24.713  1.00  0.00    -0.206 F 
ATOM     67  C   UNL A   1      51.919  25.831  26.417  1.00  0.00     0.006 A 
ENDBRANCH  46  60
BRANCH  47  68
ATOM     68  C   UNL A   1      39.719  28.664  29.148  1.00  0.00     0.057 A 
ATOM     69  C   UNL A   1      38.826  29.160  28.192  1.00  0.00     0.134 A 
ATOM     70  C   UNL A   1      39.233  28.480  30.449  1.00  0.00     0.134 A 
ATOM     71  F   UNL A   1      39.236  29.375  26.933  1.00  0.00    -0.206 F 
ATOM     72  C   UNL A   1      37.507  29.480  28.518  1.00  0.00     0.040 A 
ATOM     73  C   UNL A   1      37.909  28.771  30.783  1.00  0.00     0.040 A 
ATOM     74  F   UNL A   1      40.035  27.998  31.410  1.00  0.00    -0.206 F 
ATOM     75  C   UNL A   1      37.044  29.281  29.817  1.00  0.00     0.006 A 
ENDBRANCH  47  68
BRANCH  59  76
ATOM     76  C   UNL A   1      45.598  32.404  29.177  1.00  0.00     0.057 A 
ATOM     77  C   UNL A   1      45.501  33.415  28.214  1.00  0.00     0.134 A 
ATOM     78  C   UNL A   1      45.916  32.783  30.487  1.00  0.00     0.134 A 
ATOM     79  F   UNL A   1      45.212  33.116  26.938  1.00  0.00    -0.206 F 
ATOM     80  C   UNL A   1      45.724  34.754  28.541  1.00  0.00     0.040 A 
ATOM     81  C   UNL A   1      46.115  34.120  30.831  1.00  0.00     0.040 A 
ATOM     82  F   UNL A   1      46.015  31.862  31.458  1.00  0.00    -0.206 F 
ATOM     83  C   UNL A   1      46.024  35.109  29.855  1.00  0.00     0.006 A 
ENDBRANCH  59  76
ENDBRANCH  33  34
ENDBRANCH  25  28
ENDBRANCH  23  24
ENDBRANCH   1  23
TORSDOF 12
ENDMDL
MODEL 3
REMARK VINA RESULT:     -12.1      4.173      8.227
REMARK SMILES Cn1ncc(C(=O)NCCCNC(=O)c2ccc(-c3c4nc(c(-c5c(F)cccc5F)c5ccc([nH]5)c(-c5c(F)cccc5F)c5nc(c(-c6c(F)cccc6F)c6ccc3[nH]6)C=C5)C=C4)cc2)c1C(=O)Nc1ccccn1
REMARK SMILES IDX 10 1 9 2 8 3 6 4 7 5 5 7 1 8 2 9 3 10 69 11 4 12 70 13 71 14
REMARK SMILES IDX 72 15 73 17 74 18 78 19 75 20 77 21 76 22 11 23 12 24 13 25
REMARK SMILES IDX 14 27 15 28 16 29 68 30 17 31 67 32 18 33 19 34 20 35 61 36
REMARK SMILES IDX 21 37 66 38 60 39 62 40 22 41 65 42 59 43 58 44 23 46 49 47
REMARK SMILES IDX 32 48 48 49 33 50 36 51 47 52 63 53 34 54 35 55 46 57 64 58
REMARK SMILES IDX 37 59 24 60 25 61 30 62 26 63 27 64 29 65 31 66 28 67 50 68
REMARK SMILES IDX 51 69 56 70 52 71 53 72 55 73 57 74 54 75 38 76 39 77 44 78
REMARK SMILES IDX 40 79 41 80 43 81 45 82 42 83
REMARK H PARENT 8 6 72 16 12 26 62 45 36 56
REMARK Flexibility Score: inf
ROOT
ATOM      1  C   UNL A   1      33.922  28.371  25.746  1.00  0.00     0.042 C 
ENDROOT
BRANCH   1   2
ATOM      2  C   UNL A   1      32.804  27.787  24.905  1.00  0.00     0.118 C 
BRANCH   2   3
ATOM      3  N   UNL A   1      31.701  27.273  25.678  1.00  0.00    -0.352 N 
ATOM      4  C   UNL A   1      31.119  26.040  25.771  1.00  0.00     0.255 C 
ATOM      5  O   UNL A   1      30.124  25.998  26.504  1.00  0.00    -0.269 OA
ATOM      6  H   UNL A   1      31.281  27.950  26.257  1.00  0.00     0.163 HD
BRANCH   4   7
ATOM      7  C   UNL A   1      31.542  24.831  25.067  1.00  0.00     0.090 A 
ATOM      8  C   UNL A   1      32.287  21.399  24.238  1.00  0.00     0.174 C 
ATOM      9  N   UNL A   1      32.080  22.827  24.316  1.00  0.00    -0.262 N 
ATOM     10  N   UNL A   1      31.522  23.420  23.249  1.00  0.00    -0.180 NA
ATOM     11  C   UNL A   1      32.257  23.669  25.393  1.00  0.00     0.139 A 
ATOM     12  C   UNL A   1      31.128  24.596  23.726  1.00  0.00     0.149 A 
BRANCH  11  13
ATOM     13  C   UNL A   1      32.846  23.266  26.643  1.00  0.00     0.275 C 
ATOM     14  O   UNL A   1      32.160  22.864  27.584  1.00  0.00    -0.267 OA
ATOM     15  N   UNL A   1      34.191  23.494  26.886  1.00  0.00    -0.305 N 
ATOM     16  H   UNL A   1      34.436  24.037  27.669  1.00  0.00     0.171 HD
BRANCH  15  17
ATOM     17  C   UNL A   1      35.216  22.998  26.084  1.00  0.00     0.132 A 
ATOM     18  C   UNL A   1      36.031  23.803  25.305  1.00  0.00     0.047 A 
ATOM     19  N   UNL A   1      35.321  21.656  26.130  1.00  0.00    -0.239 NA
ATOM     20  C   UNL A   1      36.953  23.172  24.467  1.00  0.00     0.005 A 
ATOM     21  C   UNL A   1      36.201  21.071  25.295  1.00  0.00     0.113 A 
ATOM     22  C   UNL A   1      37.023  21.780  24.440  1.00  0.00     0.020 A 
ENDBRANCH  15  17
ENDBRANCH  11  13
ENDBRANCH   4   7
ENDBRANCH   2   3
ENDBRANCH   1   2
BRANCH   1  23
ATOM     23  C   UNL A   1      33.565  28.578  27.204  1.00  0.00     0.118 C 
BRANCH  23  24
ATOM     24  N   UNL A   1      33.664  29.971  27.626  1.00  0.00    -0.352 N 
ATOM     25  C   UNL A   1      34.701  30.660  28.211  1.00  0.00     0.251 C 
ATOM     26  H   UNL A   1      32.854  30.509  27.465  1.00  0.00     0.163 HD
ATOM     27  O   UNL A   1      34.516  31.792  28.652  1.00  0.00    -0.269 OA
BRANCH  25  28
ATOM     28  C   UNL A   1      36.031  30.030  28.345  1.00  0.00     0.039 A 
ATOM     29  C   UNL A   1      36.931  30.088  27.277  1.00  0.00     0.014 A 
ATOM     30  C   UNL A   1      36.398  29.394  29.531  1.00  0.00     0.014 A 
ATOM     31  C   UNL A   1      38.231  29.601  27.441  1.00  0.00     0.010 A 
ATOM     32  C   UNL A   1      37.719  29.025  29.733  1.00  0.00     0.010 A 
ATOM     33  C   UNL A   1      38.651  29.117  28.689  1.00  0.00    -0.014 A 
BRANCH  33  34
ATOM     34  C   UNL A   1      40.047  28.682  28.945  1.00  0.00     0.031 A 
ATOM     35  C   UNL A   1      41.035  29.662  29.519  1.00  0.00     0.074 A 
ATOM     36  C   UNL A   1      40.452  27.455  28.561  1.00  0.00     0.049 A 
ATOM     37  N   UNL A   1      42.331  29.548  29.658  1.00  0.00    -0.248 NA
ATOM     38  C   UNL A   1      40.498  30.961  29.954  1.00  0.00     0.031 C 
ATOM     39  C   UNL A   1      39.603  26.432  27.948  1.00  0.00     0.029 A 
ATOM     40  N   UNL A   1      41.693  26.869  28.608  1.00  0.00    -0.354 N 
ATOM     41  C   UNL A   1      42.762  30.767  30.163  1.00  0.00     0.074 A 
ATOM     42  C   UNL A   1      41.603  31.627  30.249  1.00  0.00     0.031 C 
ATOM     43  C   UNL A   1      40.341  25.339  27.696  1.00  0.00     0.029 A 
ATOM     44  C   UNL A   1      41.724  25.600  28.081  1.00  0.00     0.049 A 
ATOM     45  H   UNL A   1      42.485  27.317  28.984  1.00  0.00     0.167 HD
ATOM     46  C   UNL A   1      44.010  31.131  30.545  1.00  0.00     0.037 A 
ATOM     47  C   UNL A   1      42.755  24.752  27.911  1.00  0.00     0.037 A 
ATOM     48  C   UNL A   1      45.150  30.257  30.495  1.00  0.00     0.049 A 
ATOM     49  C   UNL A   1      44.132  25.178  28.345  1.00  0.00     0.074 A 
ATOM     50  C   UNL A   1      46.442  30.503  30.922  1.00  0.00     0.029 A 
ATOM     51  N   UNL A   1      45.131  28.965  29.990  1.00  0.00    -0.354 N 
ATOM     52  N   UNL A   1      44.516  26.313  28.877  1.00  0.00    -0.248 NA
ATOM     53  C   UNL A   1      45.217  24.204  28.157  1.00  0.00     0.031 C 
ATOM     54  C   UNL A   1      47.217  29.374  30.635  1.00  0.00     0.029 A 
ATOM     55  C   UNL A   1      46.395  28.408  30.077  1.00  0.00     0.049 A 
ATOM     56  H   UNL A   1      44.337  28.512  29.625  1.00  0.00     0.167 HD
ATOM     57  C   UNL A   1      45.878  26.178  29.117  1.00  0.00     0.074 A 
ATOM     58  C   UNL A   1      46.251  24.849  28.681  1.00  0.00     0.031 C 
ATOM     59  C   UNL A   1      46.742  27.074  29.654  1.00  0.00     0.037 A 
BRANCH  46  60
ATOM     60  C   UNL A   1      44.198  32.531  31.054  1.00  0.00     0.057 A 
ATOM     61  C   UNL A   1      44.509  33.595  30.198  1.00  0.00     0.134 A 
ATOM     62  C   UNL A   1      44.040  32.823  32.415  1.00  0.00     0.134 A 
ATOM     63  F   UNL A   1      44.687  33.382  28.885  1.00  0.00    -0.206 F 
ATOM     64  C   UNL A   1      44.688  34.894  30.679  1.00  0.00     0.040 A 
ATOM     65  C   UNL A   1      44.185  34.122  32.904  1.00  0.00     0.040 A 
ATOM     66  F   UNL A   1      43.735  31.854  33.290  1.00  0.00    -0.206 F 
ATOM     67  C   UNL A   1      44.518  35.161  32.035  1.00  0.00     0.006 A 
ENDBRANCH  46  60
BRANCH  47  68
ATOM     68  C   UNL A   1      42.526  23.408  27.322  1.00  0.00     0.057 A 
ATOM     69  C   UNL A   1      42.697  23.184  25.951  1.00  0.00     0.134 A 
ATOM     70  C   UNL A   1      42.125  22.319  28.108  1.00  0.00     0.134 A 
ATOM     71  F   UNL A   1      43.064  24.190  25.145  1.00  0.00    -0.206 F 
ATOM     72  C   UNL A   1      42.460  21.933  25.378  1.00  0.00     0.040 A 
ATOM     73  C   UNL A   1      41.909  21.057  27.551  1.00  0.00     0.040 A 
ATOM     74  F   UNL A   1      41.953  22.464  29.429  1.00  0.00    -0.206 F 
ATOM     75  C   UNL A   1      42.069  20.864  26.181  1.00  0.00     0.006 A 
ENDBRANCH  47  68
BRANCH  59  76
ATOM     76  C   UNL A   1      48.162  26.635  29.846  1.00  0.00     0.057 A 
ATOM     77  C   UNL A   1      48.578  25.953  30.995  1.00  0.00     0.134 A 
ATOM     78  C   UNL A   1      49.110  26.843  28.836  1.00  0.00     0.134 A 
ATOM     79  F   UNL A   1      47.722  25.734  32.005  1.00  0.00    -0.206 F 
ATOM     80  C   UNL A   1      49.893  25.506  31.140  1.00  0.00     0.040 A 
ATOM     81  C   UNL A   1      50.419  26.378  28.957  1.00  0.00     0.040 A 
ATOM     82  F   UNL A   1      48.772  27.482  27.705  1.00  0.00    -0.206 F 
ATOM     83  C   UNL A   1      50.814  25.711  30.114  1.00  0.00     0.006 A 
ENDBRANCH  59  76
ENDBRANCH  33  34
ENDBRANCH  25  28
ENDBRANCH  23  24
ENDBRANCH   1  23
TORSDOF 12
ENDMDL
