MODEL 1
REMARK VINA RESULT:     -10.5      0.000      0.000
REMARK SMILES CC1(C)CC[C@@]2(C(=O)NCCCNC(=O)c3ccc(-c4c5nc(c(-c6c(F)cccc6F)c6ccc([nH]6)c(-c6c(F)cccc6F)c6nc(c(-c7c(F)cccc7F)c7ccc4[nH]7)C=C6)C=C5)cc3)CC[C@@]3(C)C(=CC[C@H]4[C@@]5(C)CC[C@H](O)C(C)(C)[C@@H]5CC[C@]43C)[C@@H]2C1
REMARK SMILES IDX 11 1 10 2 9 3 7 4 8 5 6 7 1 8 2 9 3 10 4 11 93 12 5 13 92 14
REMARK SMILES IDX 74 15 70 16 72 17 75 18 71 19 73 20 90 21 76 22 77 23 89 24
REMARK SMILES IDX 91 25 78 26 88 27 79 28 80 29 87 30 81 31 84 32 82 33 85 34
REMARK SMILES IDX 86 35 83 36 12 38 13 39 14 40 15 42 16 43 17 44 69 45 18 46
REMARK SMILES IDX 68 47 19 48 20 49 21 50 62 51 22 52 67 53 61 54 63 55 23 56
REMARK SMILES IDX 66 57 60 58 59 59 24 61 50 62 33 63 49 64 34 65 37 66 48 67
REMARK SMILES IDX 64 68 35 69 36 70 47 72 65 73 38 74 25 75 26 76 31 77 27 78
REMARK SMILES IDX 28 79 30 80 32 81 29 82 51 83 52 84 57 85 53 86 54 87 56 88
REMARK SMILES IDX 58 89 55 90 39 91 40 92 45 93 41 94 42 95 44 96 46 97 43 98
REMARK H PARENT 9 6 83 37 13 41 63 60 37 71
REMARK Flexibility Score: inf
ROOT
ATOM      1  C   UNL A   1      46.698  25.617  32.261  1.00  0.00     0.042 C 
ENDROOT
BRANCH   1   2
ATOM      2  C   UNL A   1      45.760  26.285  31.282  1.00  0.00     0.117 C 
BRANCH   2   3
ATOM      3  N   UNL A   1      44.870  25.441  30.535  1.00  0.00    -0.356 N 
ATOM      4  C   UNL A   1      44.620  25.475  29.186  1.00  0.00     0.226 C 
ATOM      5  O   UNL A   1      43.988  26.403  28.684  1.00  0.00    -0.274 OA
ATOM      6  H   UNL A   1      44.383  24.758  31.050  1.00  0.00     0.163 HD
BRANCH   4   7
ATOM      7  C   UNL A   1      45.246  24.326  28.329  1.00  0.00     0.056 C 
ATOM      8  C   UNL A   1      42.457  21.370  27.685  1.00  0.00     0.011 C 
ATOM      9  C   UNL A   1      42.592  22.884  27.978  1.00  0.00    -0.035 C 
ATOM     10  C   UNL A   1      41.120  23.366  28.184  1.00  0.00     0.011 C 
ATOM     11  C   UNL A   1      43.368  22.959  29.312  1.00  0.00     0.007 C 
ATOM     12  C   UNL A   1      43.281  23.649  26.752  1.00  0.00     0.015 C 
ATOM     13  C   UNL A   1      44.872  23.041  29.101  1.00  0.00     0.018 C 
ATOM     14  C   UNL A   1      44.758  24.232  26.857  1.00  0.00     0.031 C 
ATOM     15  C   UNL A   1      45.206  25.579  26.120  1.00  0.00    -0.064 C 
ATOM     16  C   UNL A   1      46.785  24.402  28.281  1.00  0.00     0.018 C 
ATOM     17  C   UNL A   1      46.733  25.953  26.152  1.00  0.00    -0.006 C 
ATOM     18  C   UNL A   1      44.313  26.460  25.627  1.00  0.00    -0.027 C 
ATOM     19  C   UNL A   1      47.316  25.639  27.557  1.00  0.00     0.013 C 
ATOM     20  C   UNL A   1      47.415  24.974  25.145  1.00  0.00     0.017 C 
ATOM     21  C   UNL A   1      47.081  27.528  25.701  1.00  0.00    -0.020 C 
ATOM     22  C   UNL A   1      44.568  27.932  25.437  1.00  0.00     0.032 C 
ATOM     23  C   UNL A   1      45.893  28.506  26.015  1.00  0.00     0.006 C 
ATOM     24  C   UNL A   1      48.437  28.133  26.247  1.00  0.00     0.008 C 
ATOM     25  C   UNL A   1      47.251  27.597  24.132  1.00  0.00     0.012 C 
ATOM     26  C   UNL A   1      45.866  29.340  27.413  1.00  0.00    -0.025 C 
ATOM     27  C   UNL A   1      48.345  29.507  26.970  1.00  0.00     0.005 C 
ATOM     28  C   UNL A   1      45.264  30.723  27.026  1.00  0.00     0.012 C 
ATOM     29  C   UNL A   1      45.010  28.766  28.537  1.00  0.00     0.010 C 
ATOM     30  C   UNL A   1      47.287  29.409  28.062  1.00  0.00     0.003 C 
ATOM     31  C   UNL A   1      45.022  29.480  29.890  1.00  0.00     0.033 C 
ATOM     32  C   UNL A   1      47.420  30.247  29.400  1.00  0.00    -0.006 C 
ATOM     33  C   UNL A   1      46.440  29.603  30.437  1.00  0.00     0.120 C 
ATOM     34  C   UNL A   1      47.149  31.757  29.274  1.00  0.00     0.014 C 
ATOM     35  C   UNL A   1      48.848  30.114  29.982  1.00  0.00     0.014 C 
BRANCH  33  36
ATOM     36  O   UNL A   1      46.402  30.335  31.659  1.00  0.00    -0.393 OA
ATOM     37  H   UNL A   1      46.787  29.798  32.369  1.00  0.00     0.210 HD
ENDBRANCH  33  36
ENDBRANCH   4   7
ENDBRANCH   2   3
ENDBRANCH   1   2
BRANCH   1  38
ATOM     38  C   UNL A   1      46.072  25.024  33.515  1.00  0.00     0.118 C 
BRANCH  38  39
ATOM     39  N   UNL A   1      46.816  25.152  34.759  1.00  0.00    -0.352 N 
ATOM     40  C   UNL A   1      46.523  26.037  35.780  1.00  0.00     0.251 C 
ATOM     41  H   UNL A   1      47.593  24.561  34.885  1.00  0.00     0.163 HD
ATOM     42  O   UNL A   1      47.138  26.037  36.840  1.00  0.00    -0.269 OA
BRANCH  40  43
ATOM     43  C   UNL A   1      45.464  27.029  35.517  1.00  0.00     0.039 A 
ATOM     44  C   UNL A   1      45.799  28.167  34.782  1.00  0.00     0.014 A 
ATOM     45  C   UNL A   1      44.129  26.692  35.765  1.00  0.00     0.014 A 
ATOM     46  C   UNL A   1      44.780  28.946  34.234  1.00  0.00     0.010 A 
ATOM     47  C   UNL A   1      43.123  27.422  35.140  1.00  0.00     0.010 A 
ATOM     48  C   UNL A   1      43.437  28.559  34.374  1.00  0.00    -0.014 A 
BRANCH  48  49
ATOM     49  C   UNL A   1      42.350  29.362  33.757  1.00  0.00     0.031 A 
ATOM     50  C   UNL A   1      41.827  28.974  32.401  1.00  0.00     0.074 A 
ATOM     51  C   UNL A   1      41.859  30.451  34.385  1.00  0.00     0.049 A 
ATOM     52  N   UNL A   1      40.902  29.547  31.675  1.00  0.00    -0.248 NA
ATOM     53  C   UNL A   1      42.453  27.806  31.759  1.00  0.00     0.031 C 
ATOM     54  C   UNL A   1      42.327  30.978  35.669  1.00  0.00     0.029 A 
ATOM     55  N   UNL A   1      40.855  31.315  34.022  1.00  0.00    -0.354 N 
ATOM     56  C   UNL A   1      40.860  28.831  30.487  1.00  0.00     0.074 A 
ATOM     57  C   UNL A   1      41.889  27.818  30.562  1.00  0.00     0.031 C 
ATOM     58  C   UNL A   1      41.594  32.056  35.997  1.00  0.00     0.029 A 
ATOM     59  C   UNL A   1      40.620  32.311  34.940  1.00  0.00     0.049 A 
ATOM     60  H   UNL A   1      40.350  31.229  33.181  1.00  0.00     0.167 HD
ATOM     61  C   UNL A   1      40.020  28.978  29.437  1.00  0.00     0.037 A 
ATOM     62  C   UNL A   1      39.716  33.311  34.930  1.00  0.00     0.037 A 
ATOM     63  C   UNL A   1      38.953  29.939  29.392  1.00  0.00     0.049 A 
ATOM     64  C   UNL A   1      38.755  33.419  33.775  1.00  0.00     0.074 A 
ATOM     65  C   UNL A   1      37.981  30.100  28.421  1.00  0.00     0.029 A 
ATOM     66  N   UNL A   1      38.717  30.898  30.364  1.00  0.00    -0.354 N 
ATOM     67  N   UNL A   1      38.661  32.667  32.705  1.00  0.00    -0.248 NA
ATOM     68  C   UNL A   1      37.768  34.507  33.831  1.00  0.00     0.031 C 
ATOM     69  C   UNL A   1      37.175  31.181  28.789  1.00  0.00     0.029 A 
ATOM     70  C   UNL A   1      37.622  31.667  30.008  1.00  0.00     0.049 A 
ATOM     71  H   UNL A   1      39.247  31.014  31.185  1.00  0.00     0.167 HD
ATOM     72  C   UNL A   1      37.591  33.172  31.977  1.00  0.00     0.074 A 
ATOM     73  C   UNL A   1      37.055  34.284  32.735  1.00  0.00     0.031 C 
ATOM     74  C   UNL A   1      37.094  32.756  30.787  1.00  0.00     0.037 A 
BRANCH  61  75
ATOM     75  C   UNL A   1      40.211  28.067  28.263  1.00  0.00     0.057 A 
ATOM     76  C   UNL A   1      41.009  28.428  27.169  1.00  0.00     0.134 A 
ATOM     77  C   UNL A   1      39.616  26.800  28.241  1.00  0.00     0.134 A 
ATOM     78  F   UNL A   1      41.592  29.634  27.122  1.00  0.00    -0.206 F 
ATOM     79  C   UNL A   1      41.187  27.570  26.083  1.00  0.00     0.040 A 
ATOM     80  C   UNL A   1      39.808  25.923  27.173  1.00  0.00     0.040 A 
ATOM     81  F   UNL A   1      38.842  26.393  29.259  1.00  0.00    -0.206 F 
ATOM     82  C   UNL A   1      40.591  26.309  26.087  1.00  0.00     0.006 A 
ENDBRANCH  61  75
BRANCH  62  83
ATOM     83  C   UNL A   1      39.648  34.279  36.055  1.00  0.00     0.057 A 
ATOM     84  C   UNL A   1      40.338  35.498  36.007  1.00  0.00     0.134 A 
ATOM     85  C   UNL A   1      38.925  33.997  37.219  1.00  0.00     0.134 A 
ATOM     86  F   UNL A   1      41.067  35.818  34.927  1.00  0.00    -0.206 F 
ATOM     87  C   UNL A   1      40.337  36.385  37.085  1.00  0.00     0.040 A 
ATOM     88  C   UNL A   1      38.893  34.887  38.296  1.00  0.00     0.040 A 
ATOM     89  F   UNL A   1      38.238  32.851  37.328  1.00  0.00    -0.206 F 
ATOM     90  C   UNL A   1      39.610  36.081  38.234  1.00  0.00     0.006 A 
ENDBRANCH  62  83
BRANCH  74  91
ATOM     91  C   UNL A   1      35.898  33.478  30.247  1.00  0.00     0.057 A 
ATOM     92  C   UNL A   1      34.637  33.367  30.846  1.00  0.00     0.134 A 
ATOM     93  C   UNL A   1      36.022  34.340  29.150  1.00  0.00     0.134 A 
ATOM     94  F   UNL A   1      34.452  32.550  31.893  1.00  0.00    -0.206 F 
ATOM     95  C   UNL A   1      33.536  34.074  30.360  1.00  0.00     0.040 A 
ATOM     96  C   UNL A   1      34.935  35.071  28.671  1.00  0.00     0.040 A 
ATOM     97  F   UNL A   1      37.206  34.499  28.539  1.00  0.00    -0.206 F 
ATOM     98  C   UNL A   1      33.687  34.935  29.275  1.00  0.00     0.006 A 
ENDBRANCH  74  91
ENDBRANCH  48  49
ENDBRANCH  40  43
ENDBRANCH  38  39
ENDBRANCH   1  38
TORSDOF 11
ENDMDL
MODEL 2
REMARK VINA RESULT:     -10.3      2.985     11.235
REMARK SMILES CC1(C)CC[C@@]2(C(=O)NCCCNC(=O)c3ccc(-c4c5nc(c(-c6c(F)cccc6F)c6ccc([nH]6)c(-c6c(F)cccc6F)c6nc(c(-c7c(F)cccc7F)c7ccc4[nH]7)C=C6)C=C5)cc3)CC[C@@]3(C)C(=CC[C@H]4[C@@]5(C)CC[C@H](O)C(C)(C)[C@@H]5CC[C@]43C)[C@@H]2C1
REMARK SMILES IDX 11 1 10 2 9 3 7 4 8 5 6 7 1 8 2 9 3 10 4 11 93 12 5 13 92 14
REMARK SMILES IDX 74 15 70 16 72 17 75 18 71 19 73 20 90 21 76 22 77 23 89 24
REMARK SMILES IDX 91 25 78 26 88 27 79 28 80 29 87 30 81 31 84 32 82 33 85 34
REMARK SMILES IDX 86 35 83 36 12 38 13 39 14 40 15 42 16 43 17 44 69 45 18 46
REMARK SMILES IDX 68 47 19 48 20 49 21 50 62 51 22 52 67 53 61 54 63 55 23 56
REMARK SMILES IDX 66 57 60 58 59 59 24 61 50 62 33 63 49 64 34 65 37 66 48 67
REMARK SMILES IDX 64 68 35 69 36 70 47 72 65 73 38 74 25 75 26 76 31 77 27 78
REMARK SMILES IDX 28 79 30 80 32 81 29 82 51 83 52 84 57 85 53 86 54 87 56 88
REMARK SMILES IDX 58 89 55 90 39 91 40 92 45 93 41 94 42 95 44 96 46 97 43 98
REMARK H PARENT 9 6 83 37 13 41 63 60 37 71
REMARK Flexibility Score: inf
ROOT
ATOM      1  C   UNL A   1      42.932  35.294  31.360  1.00  0.00     0.042 C 
ENDROOT
BRANCH   1   2
ATOM      2  C   UNL A   1      42.334  33.908  31.411  1.00  0.00     0.117 C 
BRANCH   2   3
ATOM      3  N   UNL A   1      41.023  33.730  30.849  1.00  0.00    -0.356 N 
ATOM      4  C   UNL A   1      39.944  33.109  31.425  1.00  0.00     0.226 C 
ATOM      5  O   UNL A   1      39.925  31.890  31.581  1.00  0.00    -0.274 OA
ATOM      6  H   UNL A   1      40.884  34.096  29.946  1.00  0.00     0.163 HD
BRANCH   4   7
ATOM      7  C   UNL A   1      38.794  34.038  31.938  1.00  0.00     0.056 C 
ATOM      8  C   UNL A   1      35.796  34.250  29.127  1.00  0.00     0.011 C 
ATOM      9  C   UNL A   1      36.942  33.338  29.630  1.00  0.00    -0.035 C 
ATOM     10  C   UNL A   1      36.970  32.159  28.605  1.00  0.00     0.011 C 
ATOM     11  C   UNL A   1      38.219  34.197  29.487  1.00  0.00     0.007 C 
ATOM     12  C   UNL A   1      36.648  32.807  31.111  1.00  0.00     0.015 C 
ATOM     13  C   UNL A   1      38.527  34.988  30.749  1.00  0.00     0.018 C 
ATOM     14  C   UNL A   1      37.482  33.325  32.364  1.00  0.00     0.031 C 
ATOM     15  C   UNL A   1      37.833  32.386  33.611  1.00  0.00    -0.064 C 
ATOM     16  C   UNL A   1      39.233  34.909  33.132  1.00  0.00     0.018 C 
ATOM     17  C   UNL A   1      38.503  33.062  34.863  1.00  0.00    -0.006 C 
ATOM     18  C   UNL A   1      37.723  31.044  33.555  1.00  0.00    -0.027 C 
ATOM     19  C   UNL A   1      39.552  34.105  34.393  1.00  0.00     0.013 C 
ATOM     20  C   UNL A   1      37.354  33.854  35.565  1.00  0.00     0.017 C 
ATOM     21  C   UNL A   1      39.177  31.992  35.962  1.00  0.00    -0.020 C 
ATOM     22  C   UNL A   1      38.509  30.078  34.401  1.00  0.00     0.032 C 
ATOM     23  C   UNL A   1      39.655  30.665  35.273  1.00  0.00     0.006 C 
ATOM     24  C   UNL A   1      40.326  32.565  36.887  1.00  0.00     0.008 C 
ATOM     25  C   UNL A   1      38.070  31.533  36.991  1.00  0.00     0.012 C 
ATOM     26  C   UNL A   1      41.200  30.507  34.785  1.00  0.00    -0.025 C 
ATOM     27  C   UNL A   1      41.653  31.758  36.929  1.00  0.00     0.005 C 
ATOM     28  C   UNL A   1      41.546  29.016  35.072  1.00  0.00     0.012 C 
ATOM     29  C   UNL A   1      41.482  30.765  33.308  1.00  0.00     0.010 C 
ATOM     30  C   UNL A   1      42.132  31.540  35.500  1.00  0.00     0.003 C 
ATOM     31  C   UNL A   1      42.933  30.703  32.829  1.00  0.00     0.033 C 
ATOM     32  C   UNL A   1      43.679  31.456  35.164  1.00  0.00    -0.006 C 
ATOM     33  C   UNL A   1      43.818  31.661  33.618  1.00  0.00     0.120 C 
ATOM     34  C   UNL A   1      44.389  30.162  35.599  1.00  0.00     0.014 C 
ATOM     35  C   UNL A   1      44.443  32.616  35.846  1.00  0.00     0.014 C 
BRANCH  33  36
ATOM     36  O   UNL A   1      45.166  31.512  33.182  1.00  0.00    -0.393 OA
ATOM     37  H   UNL A   1      45.252  30.690  32.674  1.00  0.00     0.210 HD
ENDBRANCH  33  36
ENDBRANCH   4   7
ENDBRANCH   2   3
ENDBRANCH   1   2
BRANCH   1  38
ATOM     38  C   UNL A   1      43.381  35.799  29.996  1.00  0.00     0.118 C 
BRANCH  38  39
ATOM     39  N   UNL A   1      44.625  36.553  29.938  1.00  0.00    -0.352 N 
ATOM     40  C   UNL A   1      45.830  36.072  29.462  1.00  0.00     0.251 C 
ATOM     41  H   UNL A   1      44.607  37.481  30.265  1.00  0.00     0.163 HD
ATOM     42  O   UNL A   1      46.822  36.786  29.360  1.00  0.00    -0.269 OA
BRANCH  40  43
ATOM     43  C   UNL A   1      45.890  34.637  29.131  1.00  0.00     0.039 A 
ATOM     44  C   UNL A   1      46.115  33.732  30.169  1.00  0.00     0.014 A 
ATOM     45  C   UNL A   1      45.465  34.204  27.870  1.00  0.00     0.014 A 
ATOM     46  C   UNL A   1      45.848  32.379  29.960  1.00  0.00     0.010 A 
ATOM     47  C   UNL A   1      45.117  32.868  27.698  1.00  0.00     0.010 A 
ATOM     48  C   UNL A   1      45.310  31.942  28.739  1.00  0.00    -0.014 A 
BRANCH  48  49
ATOM     49  C   UNL A   1      44.986  30.507  28.525  1.00  0.00     0.031 A 
ATOM     50  C   UNL A   1      43.573  30.034  28.731  1.00  0.00     0.074 A 
ATOM     51  C   UNL A   1      45.952  29.627  28.187  1.00  0.00     0.049 A 
ATOM     52  N   UNL A   1      43.080  28.828  28.621  1.00  0.00    -0.248 NA
ATOM     53  C   UNL A   1      42.590  31.045  29.153  1.00  0.00     0.031 C 
ATOM     54  C   UNL A   1      47.373  29.942  28.026  1.00  0.00     0.029 A 
ATOM     55  N   UNL A   1      45.881  28.282  27.920  1.00  0.00    -0.354 N 
ATOM     56  C   UNL A   1      41.745  28.933  28.988  1.00  0.00     0.074 A 
ATOM     57  C   UNL A   1      41.517  30.305  29.380  1.00  0.00     0.031 C 
ATOM     58  C   UNL A   1      48.033  28.828  27.663  1.00  0.00     0.029 A 
ATOM     59  C   UNL A   1      47.089  27.718  27.586  1.00  0.00     0.049 A 
ATOM     60  H   UNL A   1      45.042  27.769  27.963  1.00  0.00     0.167 HD
ATOM     61  C   UNL A   1      40.784  27.981  28.971  1.00  0.00     0.037 A 
ATOM     62  C   UNL A   1      47.396  26.449  27.249  1.00  0.00     0.037 A 
ATOM     63  C   UNL A   1      40.994  26.635  28.517  1.00  0.00     0.049 A 
ATOM     64  C   UNL A   1      46.296  25.421  27.184  1.00  0.00     0.074 A 
ATOM     65  C   UNL A   1      40.063  25.625  28.361  1.00  0.00     0.029 A 
ATOM     66  N   UNL A   1      42.222  26.116  28.139  1.00  0.00    -0.354 N 
ATOM     67  N   UNL A   1      45.017  25.562  27.434  1.00  0.00    -0.248 NA
ATOM     68  C   UNL A   1      46.680  24.061  26.779  1.00  0.00     0.031 C 
ATOM     69  C   UNL A   1      40.735  24.480  27.921  1.00  0.00     0.029 A 
ATOM     70  C   UNL A   1      42.076  24.791  27.766  1.00  0.00     0.049 A 
ATOM     71  H   UNL A   1      43.071  26.615  28.136  1.00  0.00     0.167 HD
ATOM     72  C   UNL A   1      44.442  24.322  27.191  1.00  0.00     0.074 A 
ATOM     73  C   UNL A   1      45.507  23.443  26.755  1.00  0.00     0.031 C 
ATOM     74  C   UNL A   1      43.148  23.940  27.317  1.00  0.00     0.037 A 
BRANCH  61  75
ATOM     75  C   UNL A   1      39.415  28.371  29.441  1.00  0.00     0.057 A 
ATOM     76  C   UNL A   1      38.430  28.826  28.555  1.00  0.00     0.134 A 
ATOM     77  C   UNL A   1      39.068  28.258  30.793  1.00  0.00     0.134 A 
ATOM     78  F   UNL A   1      38.705  28.973  27.251  1.00  0.00    -0.206 F 
ATOM     79  C   UNL A   1      37.156  29.180  29.001  1.00  0.00     0.040 A 
ATOM     80  C   UNL A   1      37.789  28.583  31.247  1.00  0.00     0.040 A 
ATOM     81  F   UNL A   1      39.964  27.825  31.693  1.00  0.00    -0.206 F 
ATOM     82  C   UNL A   1      36.831  29.051  30.350  1.00  0.00     0.006 A 
ENDBRANCH  61  75
BRANCH  62  83
ATOM     83  C   UNL A   1      48.795  26.071  26.920  1.00  0.00     0.057 A 
ATOM     84  C   UNL A   1      49.650  25.535  27.892  1.00  0.00     0.134 A 
ATOM     85  C   UNL A   1      49.324  26.272  25.640  1.00  0.00     0.134 A 
ATOM     86  F   UNL A   1      49.209  25.339  29.143  1.00  0.00    -0.206 F 
ATOM     87  C   UNL A   1      50.986  25.240  27.612  1.00  0.00     0.040 A 
ATOM     88  C   UNL A   1      50.652  25.958  25.339  1.00  0.00     0.040 A 
ATOM     89  F   UNL A   1      48.558  26.777  24.663  1.00  0.00    -0.206 F 
ATOM     90  C   UNL A   1      51.490  25.450  26.330  1.00  0.00     0.006 A 
ENDBRANCH  62  83
BRANCH  74  91
ATOM     91  C   UNL A   1      42.804  22.529  26.950  1.00  0.00     0.057 A 
ATOM     92  C   UNL A   1      42.795  22.095  25.619  1.00  0.00     0.134 A 
ATOM     93  C   UNL A   1      42.537  21.580  27.945  1.00  0.00     0.134 A 
ATOM     94  F   UNL A   1      43.033  22.958  24.621  1.00  0.00    -0.206 F 
ATOM     95  C   UNL A   1      42.513  20.769  25.289  1.00  0.00     0.040 A 
ATOM     96  C   UNL A   1      42.278  20.247  27.629  1.00  0.00     0.040 A 
ATOM     97  F   UNL A   1      42.541  21.931  29.240  1.00  0.00    -0.206 F 
ATOM     98  C   UNL A   1      42.262  19.839  26.297  1.00  0.00     0.006 A 
ENDBRANCH  74  91
ENDBRANCH  48  49
ENDBRANCH  40  43
ENDBRANCH  38  39
ENDBRANCH   1  38
TORSDOF 11
ENDMDL
MODEL 3
REMARK VINA RESULT:      -9.8      2.602      7.382
REMARK SMILES CC1(C)CC[C@@]2(C(=O)NCCCNC(=O)c3ccc(-c4c5nc(c(-c6c(F)cccc6F)c6ccc([nH]6)c(-c6c(F)cccc6F)c6nc(c(-c7c(F)cccc7F)c7ccc4[nH]7)C=C6)C=C5)cc3)CC[C@@]3(C)C(=CC[C@H]4[C@@]5(C)CC[C@H](O)C(C)(C)[C@@H]5CC[C@]43C)[C@@H]2C1
REMARK SMILES IDX 11 1 10 2 9 3 7 4 8 5 6 7 1 8 2 9 3 10 4 11 93 12 5 13 92 14
REMARK SMILES IDX 74 15 70 16 72 17 75 18 71 19 73 20 90 21 76 22 77 23 89 24
REMARK SMILES IDX 91 25 78 26 88 27 79 28 80 29 87 30 81 31 84 32 82 33 85 34
REMARK SMILES IDX 86 35 83 36 12 38 13 39 14 40 15 42 16 43 17 44 69 45 18 46
REMARK SMILES IDX 68 47 19 48 20 49 21 50 62 51 22 52 67 53 61 54 63 55 23 56
REMARK SMILES IDX 66 57 60 58 59 59 24 61 50 62 33 63 49 64 34 65 37 66 48 67
REMARK SMILES IDX 64 68 35 69 36 70 47 72 65 73 38 74 25 75 26 76 31 77 27 78
REMARK SMILES IDX 28 79 30 80 32 81 29 82 51 83 52 84 57 85 53 86 54 87 56 88
REMARK SMILES IDX 58 89 55 90 39 91 40 92 45 93 41 94 42 95 44 96 46 97 43 98
REMARK H PARENT 9 6 83 37 13 41 63 60 37 71
REMARK Flexibility Score: inf
ROOT
ATOM      1  C   UNL A   1      46.138  27.187  24.766  1.00  0.00     0.042 C 
ENDROOT
BRANCH   1   2
ATOM      2  C   UNL A   1      47.137  28.182  25.310  1.00  0.00     0.117 C 
BRANCH   2   3
ATOM      3  N   UNL A   1      48.506  27.757  25.417  1.00  0.00    -0.356 N 
ATOM      4  C   UNL A   1      49.335  27.873  26.504  1.00  0.00     0.226 C 
ATOM      5  O   UNL A   1      49.760  28.971  26.859  1.00  0.00    -0.274 OA
ATOM      6  H   UNL A   1      48.893  27.333  24.618  1.00  0.00     0.163 HD
BRANCH   4   7
ATOM      7  C   UNL A   1      49.635  26.559  27.299  1.00  0.00     0.056 C 
ATOM      8  C   UNL A   1      53.267  25.010  26.141  1.00  0.00     0.011 C 
ATOM      9  C   UNL A   1      52.474  26.337  26.234  1.00  0.00    -0.035 C 
ATOM     10  C   UNL A   1      53.400  27.386  25.538  1.00  0.00     0.011 C 
ATOM     11  C   UNL A   1      51.208  26.098  25.382  1.00  0.00     0.007 C 
ATOM     12  C   UNL A   1      52.196  26.738  27.759  1.00  0.00     0.015 C 
ATOM     13  C   UNL A   1      50.052  25.551  26.206  1.00  0.00     0.018 C 
ATOM     14  C   UNL A   1      50.737  26.661  28.389  1.00  0.00     0.031 C 
ATOM     15  C   UNL A   1      50.221  27.697  29.494  1.00  0.00    -0.064 C 
ATOM     16  C   UNL A   1      48.378  25.994  27.992  1.00  0.00     0.018 C 
ATOM     17  C   UNL A   1      48.830  27.407  30.168  1.00  0.00    -0.006 C 
ATOM     18  C   UNL A   1      50.852  28.863  29.737  1.00  0.00    -0.027 C 
ATOM     19  C   UNL A   1      47.829  26.895  29.097  1.00  0.00     0.013 C 
ATOM     20  C   UNL A   1      49.091  26.224  31.153  1.00  0.00     0.017 C 
ATOM     21  C   UNL A   1      48.182  28.695  31.022  1.00  0.00    -0.020 C 
ATOM     22  C   UNL A   1      50.198  30.096  30.300  1.00  0.00     0.032 C 
ATOM     23  C   UNL A   1      48.649  30.078  30.445  1.00  0.00     0.006 C 
ATOM     24  C   UNL A   1      46.612  28.692  31.214  1.00  0.00     0.008 C 
ATOM     25  C   UNL A   1      48.735  28.671  32.502  1.00  0.00     0.012 C 
ATOM     26  C   UNL A   1      47.730  30.863  29.354  1.00  0.00    -0.025 C 
ATOM     27  C   UNL A   1      45.858  29.988  30.803  1.00  0.00     0.005 C 
ATOM     28  C   UNL A   1      47.894  32.367  29.721  1.00  0.00     0.012 C 
ATOM     29  C   UNL A   1      48.120  30.704  27.889  1.00  0.00     0.010 C 
ATOM     30  C   UNL A   1      46.254  30.345  29.376  1.00  0.00     0.003 C 
ATOM     31  C   UNL A   1      47.233  31.362  26.830  1.00  0.00     0.033 C 
ATOM     32  C   UNL A   1      45.231  31.068  28.405  1.00  0.00    -0.006 C 
ATOM     33  C   UNL A   1      45.788  30.895  26.952  1.00  0.00     0.120 C 
ATOM     34  C   UNL A   1      44.961  32.554  28.702  1.00  0.00     0.014 C 
ATOM     35  C   UNL A   1      43.854  30.363  28.450  1.00  0.00     0.014 C 
BRANCH  33  36
ATOM     36  O   UNL A   1      44.994  31.589  25.993  1.00  0.00    -0.393 OA
ATOM     37  H   UNL A   1      45.561  31.901  25.270  1.00  0.00     0.210 HD
ENDBRANCH  33  36
ENDBRANCH   4   7
ENDBRANCH   2   3
ENDBRANCH   1   2
BRANCH   1  38
ATOM     38  C   UNL A   1      45.893  25.936  25.598  1.00  0.00     0.118 C 
BRANCH  38  39
ATOM     39  N   UNL A   1      45.276  24.799  24.931  1.00  0.00    -0.352 N 
ATOM     40  C   UNL A   1      43.938  24.461  24.997  1.00  0.00     0.251 C 
ATOM     41  H   UNL A   1      45.861  24.222  24.387  1.00  0.00     0.163 HD
ATOM     42  O   UNL A   1      43.465  23.540  24.341  1.00  0.00    -0.269 OA
BRANCH  40  43
ATOM     43  C   UNL A   1      43.104  25.227  25.941  1.00  0.00     0.039 A 
ATOM     44  C   UNL A   1      42.714  24.605  27.127  1.00  0.00     0.014 A 
ATOM     45  C   UNL A   1      42.952  26.606  25.761  1.00  0.00     0.014 A 
ATOM     46  C   UNL A   1      42.223  25.385  28.173  1.00  0.00     0.010 A 
ATOM     47  C   UNL A   1      42.547  27.386  26.839  1.00  0.00     0.010 A 
ATOM     48  C   UNL A   1      42.173  26.783  28.054  1.00  0.00    -0.014 A 
BRANCH  48  49
ATOM     49  C   UNL A   1      41.689  27.623  29.181  1.00  0.00     0.031 A 
ATOM     50  C   UNL A   1      42.400  27.558  30.505  1.00  0.00     0.074 A 
ATOM     51  C   UNL A   1      40.601  28.407  29.036  1.00  0.00     0.049 A 
ATOM     52  N   UNL A   1      42.133  28.186  31.620  1.00  0.00    -0.248 NA
ATOM     53  C   UNL A   1      43.545  26.636  30.598  1.00  0.00     0.031 C 
ATOM     54  C   UNL A   1      39.777  28.507  27.829  1.00  0.00     0.029 A 
ATOM     55  N   UNL A   1      39.998  29.270  29.917  1.00  0.00    -0.354 N 
ATOM     56  C   UNL A   1      43.051  27.713  32.547  1.00  0.00     0.074 A 
ATOM     57  C   UNL A   1      43.847  26.705  31.884  1.00  0.00     0.031 C 
ATOM     58  C   UNL A   1      38.795  29.401  28.038  1.00  0.00     0.029 A 
ATOM     59  C   UNL A   1      38.904  29.921  29.397  1.00  0.00     0.049 A 
ATOM     60  H   UNL A   1      40.319  29.411  30.837  1.00  0.00     0.167 HD
ATOM     61  C   UNL A   1      43.241  28.103  33.828  1.00  0.00     0.037 A 
ATOM     62  C   UNL A   1      38.088  30.838  29.955  1.00  0.00     0.037 A 
ATOM     63  C   UNL A   1      42.496  29.153  34.466  1.00  0.00     0.049 A 
ATOM     64  C   UNL A   1      38.355  31.297  31.365  1.00  0.00     0.074 A 
ATOM     65  C   UNL A   1      42.681  29.696  35.725  1.00  0.00     0.029 A 
ATOM     66  N   UNL A   1      41.429  29.823  33.889  1.00  0.00    -0.354 N 
ATOM     67  N   UNL A   1      39.295  30.913  32.195  1.00  0.00    -0.248 NA
ATOM     68  C   UNL A   1      37.455  32.323  31.912  1.00  0.00     0.031 C 
ATOM     69  C   UNL A   1      41.700  30.672  35.924  1.00  0.00     0.029 A 
ATOM     70  C   UNL A   1      40.932  30.763  34.774  1.00  0.00     0.049 A 
ATOM     71  H   UNL A   1      41.077  29.654  32.985  1.00  0.00     0.167 HD
ATOM     72  C   UNL A   1      39.118  31.668  33.347  1.00  0.00     0.074 A 
ATOM     73  C   UNL A   1      37.991  32.545  33.104  1.00  0.00     0.031 C 
ATOM     74  C   UNL A   1      39.822  31.640  34.504  1.00  0.00     0.037 A 
BRANCH  61  75
ATOM     75  C   UNL A   1      44.306  27.404  34.616  1.00  0.00     0.057 A 
ATOM     76  C   UNL A   1      44.087  26.155  35.212  1.00  0.00     0.134 A 
ATOM     77  C   UNL A   1      45.579  27.972  34.752  1.00  0.00     0.134 A 
ATOM     78  F   UNL A   1      42.884  25.567  35.133  1.00  0.00    -0.206 F 
ATOM     79  C   UNL A   1      45.087  25.508  35.938  1.00  0.00     0.040 A 
ATOM     80  C   UNL A   1      46.596  27.321  35.453  1.00  0.00     0.040 A 
ATOM     81  F   UNL A   1      45.856  29.164  34.202  1.00  0.00    -0.206 F 
ATOM     82  C   UNL A   1      46.350  26.088  36.052  1.00  0.00     0.006 A 
ENDBRANCH  61  75
BRANCH  62  83
ATOM     83  C   UNL A   1      36.955  31.411  29.182  1.00  0.00     0.057 A 
ATOM     84  C   UNL A   1      37.020  32.706  28.652  1.00  0.00     0.134 A 
ATOM     85  C   UNL A   1      35.768  30.696  28.987  1.00  0.00     0.134 A 
ATOM     86  F   UNL A   1      38.122  33.451  28.823  1.00  0.00    -0.206 F 
ATOM     87  C   UNL A   1      35.936  33.281  27.984  1.00  0.00     0.040 A 
ATOM     88  C   UNL A   1      34.685  31.249  28.299  1.00  0.00     0.040 A 
ATOM     89  F   UNL A   1      35.642  29.449  29.464  1.00  0.00    -0.206 F 
ATOM     90  C   UNL A   1      34.765  32.549  27.803  1.00  0.00     0.006 A 
ENDBRANCH  62  83
BRANCH  74  91
ATOM     91  C   UNL A   1      39.420  32.601  35.581  1.00  0.00     0.057 A 
ATOM     92  C   UNL A   1      38.504  32.250  36.579  1.00  0.00     0.134 A 
ATOM     93  C   UNL A   1      40.003  33.874  35.651  1.00  0.00     0.134 A 
ATOM     94  F   UNL A   1      37.905  31.051  36.560  1.00  0.00    -0.206 F 
ATOM     95  C   UNL A   1      38.166  33.139  37.601  1.00  0.00     0.040 A 
ATOM     96  C   UNL A   1      39.691  34.761  36.681  1.00  0.00     0.040 A 
ATOM     97  F   UNL A   1      40.897  34.266  34.730  1.00  0.00    -0.206 F 
ATOM     98  C   UNL A   1      38.767  34.395  37.658  1.00  0.00     0.006 A 
ENDBRANCH  74  91
ENDBRANCH  48  49
ENDBRANCH  40  43
ENDBRANCH  38  39
ENDBRANCH   1  38
TORSDOF 11
ENDMDL
