MODEL 1
REMARK VINA RESULT:     -13.1      0.000      0.000
REMARK SMILES COc1ccc(Br)cc1CNc1ccc(N2CCOCC2)c(C(=O)NCCCNC(=O)c2ccc(-c3c4nc(c(-c5c(F)cccc5F)c5ccc([nH]5)c(-c5c(F)cccc5F)c5nc(c(-c6c(F)cccc6F)c6ccc3[nH]6)C=C5)C=C4)cc2)c1
REMARK SMILES IDX 26 1 25 2 23 3 24 4 22 6 12 7 13 8 86 9 14 10 15 11 11 12
REMARK SMILES IDX 10 14 9 15 3 16 4 17 5 18 8 19 6 20 7 21 2 22 1 23 16 24
REMARK SMILES IDX 17 25 21 26 18 27 20 28 19 29 27 30 28 31 29 32 30 33 31 35
REMARK SMILES IDX 32 36 33 37 85 38 34 39 84 40 35 41 36 42 37 43 78 44 38 45
REMARK SMILES IDX 83 46 77 47 79 48 39 49 82 50 76 51 75 52 40 54 66 55 49 56
REMARK SMILES IDX 65 57 50 58 53 59 64 60 80 61 51 62 52 63 63 65 81 66 54 67
REMARK SMILES IDX 41 68 42 69 47 70 43 71 44 72 46 73 48 74 45 75 67 76 68 77
REMARK SMILES IDX 73 78 69 79 70 80 72 81 74 82 71 83 55 84 56 85 61 86 57 87
REMARK SMILES IDX 58 88 60 89 62 90 59 91
REMARK H PARENT 25 5 11 13 29 34 79 53 53 64
REMARK Flexibility Score: inf
ROOT
ATOM      1  C   UNL A   1      31.871  30.356  26.401  1.00  0.00     0.118 C 
ENDROOT
BRANCH   1   2
ATOM      2  N   UNL A   1      32.460  30.026  25.104  1.00  0.00    -0.352 N 
ATOM      3  C   UNL A   1      32.142  29.221  24.030  1.00  0.00     0.253 C 
ATOM      4  O   UNL A   1      32.967  29.252  23.118  1.00  0.00    -0.269 OA
ATOM      5  H   UNL A   1      33.309  30.506  24.960  1.00  0.00     0.163 HD
BRANCH   3   6
ATOM      6  C   UNL A   1      30.927  28.342  23.968  1.00  0.00     0.065 A 
ATOM      7  C   UNL A   1      30.021  26.115  24.482  1.00  0.00     0.035 A 
ATOM      8  C   UNL A   1      28.893  26.429  23.738  1.00  0.00     0.028 A 
ATOM      9  C   UNL A   1      30.951  27.131  24.665  1.00  0.00     0.041 A 
ATOM     10  C   UNL A   1      28.726  27.714  23.210  1.00  0.00     0.029 A 
ATOM     11  C   UNL A   1      29.728  28.700  23.318  1.00  0.00     0.050 A 
BRANCH   7  12
ATOM     12  N   UNL A   1      30.142  24.876  25.070  1.00  0.00    -0.381 N 
ATOM     13  H   UNL A   1      29.766  24.770  25.974  1.00  0.00     0.160 HD
BRANCH  12  14
ATOM     14  C   UNL A   1      30.777  23.707  24.472  1.00  0.00     0.152 C 
BRANCH  14  15
ATOM     15  C   UNL A   1      31.784  23.147  25.445  1.00  0.00     0.014 A 
ATOM     16  C   UNL A   1      31.550  23.133  26.828  1.00  0.00     0.123 A 
ATOM     17  C   UNL A   1      32.514  22.595  27.687  1.00  0.00     0.048 A 
ATOM     18  C   UNL A   1      33.709  22.074  27.177  1.00  0.00     0.019 A 
ATOM     19  C   UNL A   1      32.971  22.579  24.941  1.00  0.00     0.025 A 
ATOM     20  C   UNL A   1      33.928  22.062  25.804  1.00  0.00     0.018 A 
ATOM     21  Br  UNL A   1      35.524  21.335  25.101  1.00  0.00    -0.051 Br
BRANCH  16  22
ATOM     22  O   UNL A   1      30.328  23.577  27.259  1.00  0.00    -0.496 OA
ATOM     23  C   UNL A   1      29.368  22.556  27.513  1.00  0.00     0.278 C 
ENDBRANCH  16  22
ENDBRANCH  14  15
ENDBRANCH  12  14
ENDBRANCH   7  12
BRANCH  11  24
ATOM     24  N   UNL A   1      29.407  29.984  22.932  1.00  0.00    -0.366 N 
ATOM     25  C   UNL A   1      29.084  31.065  23.861  1.00  0.00     0.145 C 
ATOM     26  C   UNL A   1      29.531  30.356  21.520  1.00  0.00     0.145 C 
ATOM     27  C   UNL A   1      27.946  31.947  23.302  1.00  0.00     0.181 C 
ATOM     28  C   UNL A   1      28.296  31.166  21.108  1.00  0.00     0.181 C 
ATOM     29  O   UNL A   1      28.167  32.339  21.932  1.00  0.00    -0.378 OA
ENDBRANCH  11  24
ENDBRANCH   3   6
ENDBRANCH   1   2
BRANCH   1  30
ATOM     30  C   UNL A   1      31.629  31.840  26.597  1.00  0.00     0.042 C 
BRANCH  30  31
ATOM     31  C   UNL A   1      32.746  32.546  27.340  1.00  0.00     0.118 C 
BRANCH  31  32
ATOM     32  N   UNL A   1      32.457  33.958  27.574  1.00  0.00    -0.352 N 
ATOM     33  C   UNL A   1      32.978  34.828  28.506  1.00  0.00     0.251 C 
ATOM     34  H   UNL A   1      31.785  34.350  26.972  1.00  0.00     0.163 HD
ATOM     35  O   UNL A   1      32.447  35.912  28.706  1.00  0.00    -0.269 OA
BRANCH  33  36
ATOM     36  C   UNL A   1      34.173  34.432  29.278  1.00  0.00     0.039 A 
ATOM     37  C   UNL A   1      34.025  33.866  30.547  1.00  0.00     0.014 A 
ATOM     38  C   UNL A   1      35.443  34.611  28.732  1.00  0.00     0.014 A 
ATOM     39  C   UNL A   1      35.151  33.393  31.226  1.00  0.00     0.010 A 
ATOM     40  C   UNL A   1      36.542  34.041  29.353  1.00  0.00     0.010 A 
ATOM     41  C   UNL A   1      36.411  33.434  30.610  1.00  0.00    -0.014 A 
BRANCH  41  42
ATOM     42  C   UNL A   1      37.635  32.889  31.249  1.00  0.00     0.031 A 
ATOM     43  C   UNL A   1      38.306  31.692  30.634  1.00  0.00     0.074 A 
ATOM     44  C   UNL A   1      38.060  33.379  32.430  1.00  0.00     0.049 A 
ATOM     45  N   UNL A   1      39.236  30.917  31.128  1.00  0.00    -0.248 NA
ATOM     46  C   UNL A   1      37.832  31.288  29.299  1.00  0.00     0.031 C 
ATOM     47  C   UNL A   1      37.476  34.518  33.141  1.00  0.00     0.029 A 
ATOM     48  N   UNL A   1      39.071  32.956  33.256  1.00  0.00    -0.354 N 
ATOM     49  C   UNL A   1      39.431  29.918  30.182  1.00  0.00     0.074 A 
ATOM     50  C   UNL A   1      38.485  30.151  29.114  1.00  0.00     0.031 C 
ATOM     51  C   UNL A   1      38.145  34.709  34.289  1.00  0.00     0.029 A 
ATOM     52  C   UNL A   1      39.166  33.675  34.423  1.00  0.00     0.049 A 
ATOM     53  H   UNL A   1      39.670  32.207  33.034  1.00  0.00     0.167 HD
ATOM     54  C   UNL A   1      40.334  28.911  30.192  1.00  0.00     0.037 A 
ATOM     55  C   UNL A   1      39.970  33.503  35.490  1.00  0.00     0.037 A 
ATOM     56  C   UNL A   1      41.293  28.706  31.244  1.00  0.00     0.049 A 
ATOM     57  C   UNL A   1      40.952  32.361  35.489  1.00  0.00     0.074 A 
ATOM     58  C   UNL A   1      42.285  27.746  31.331  1.00  0.00     0.029 A 
ATOM     59  N   UNL A   1      41.380  29.482  32.390  1.00  0.00    -0.354 N 
ATOM     60  N   UNL A   1      41.157  31.449  34.571  1.00  0.00    -0.248 NA
ATOM     61  C   UNL A   1      41.812  32.225  36.673  1.00  0.00     0.031 C 
ATOM     62  C   UNL A   1      42.945  27.914  32.552  1.00  0.00     0.029 A 
ATOM     63  C   UNL A   1      42.402  29.013  33.198  1.00  0.00     0.049 A 
ATOM     64  H   UNL A   1      40.803  30.252  32.599  1.00  0.00     0.167 HD
ATOM     65  C   UNL A   1      42.198  30.659  35.044  1.00  0.00     0.074 A 
ATOM     66  C   UNL A   1      42.580  31.198  36.332  1.00  0.00     0.031 C 
ATOM     67  C   UNL A   1      42.788  29.588  34.461  1.00  0.00     0.037 A 
BRANCH  54  68
ATOM     68  C   UNL A   1      40.328  27.961  29.030  1.00  0.00     0.057 A 
ATOM     69  C   UNL A   1      39.553  26.794  29.033  1.00  0.00     0.134 A 
ATOM     70  C   UNL A   1      41.088  28.227  27.884  1.00  0.00     0.134 A 
ATOM     71  F   UNL A   1      38.812  26.472  30.104  1.00  0.00    -0.206 F 
ATOM     72  C   UNL A   1      39.558  25.910  27.953  1.00  0.00     0.040 A 
ATOM     73  C   UNL A   1      41.076  27.367  26.784  1.00  0.00     0.040 A 
ATOM     74  F   UNL A   1      41.850  29.329  27.811  1.00  0.00    -0.206 F 
ATOM     75  C   UNL A   1      40.315  26.200  26.820  1.00  0.00     0.006 A 
ENDBRANCH  54  68
BRANCH  55  76
ATOM     76  C   UNL A   1      39.896  34.437  36.642  1.00  0.00     0.057 A 
ATOM     77  C   UNL A   1      40.632  35.629  36.648  1.00  0.00     0.134 A 
ATOM     78  C   UNL A   1      39.108  34.163  37.766  1.00  0.00     0.134 A 
ATOM     79  F   UNL A   1      41.419  35.941  35.608  1.00  0.00    -0.206 F 
ATOM     80  C   UNL A   1      40.608  36.500  37.739  1.00  0.00     0.040 A 
ATOM     81  C   UNL A   1      39.052  35.039  38.852  1.00  0.00     0.040 A 
ATOM     82  F   UNL A   1      38.370  33.044  37.820  1.00  0.00    -0.206 F 
ATOM     83  C   UNL A   1      39.811  36.207  38.844  1.00  0.00     0.006 A 
ENDBRANCH  55  76
BRANCH  67  84
ATOM     84  C   UNL A   1      43.956  28.966  35.168  1.00  0.00     0.057 A 
ATOM     85  C   UNL A   1      43.799  27.939  36.105  1.00  0.00     0.134 A 
ATOM     86  C   UNL A   1      45.262  29.347  34.834  1.00  0.00     0.134 A 
ATOM     87  F   UNL A   1      42.573  27.537  36.476  1.00  0.00    -0.206 F 
ATOM     88  C   UNL A   1      44.901  27.317  36.694  1.00  0.00     0.040 A 
ATOM     89  C   UNL A   1      46.372  28.715  35.395  1.00  0.00     0.040 A 
ATOM     90  F   UNL A   1      45.480  30.318  33.935  1.00  0.00    -0.206 F 
ATOM     91  C   UNL A   1      46.192  27.698  36.330  1.00  0.00     0.006 A 
ENDBRANCH  67  84
ENDBRANCH  41  42
ENDBRANCH  33  36
ENDBRANCH  31  32
ENDBRANCH  30  31
ENDBRANCH   1  30
TORSDOF 15
ENDMDL
MODEL 2
REMARK VINA RESULT:     -13.0      5.542     10.803
REMARK SMILES COc1ccc(Br)cc1CNc1ccc(N2CCOCC2)c(C(=O)NCCCNC(=O)c2ccc(-c3c4nc(c(-c5c(F)cccc5F)c5ccc([nH]5)c(-c5c(F)cccc5F)c5nc(c(-c6c(F)cccc6F)c6ccc3[nH]6)C=C5)C=C4)cc2)c1
REMARK SMILES IDX 26 1 25 2 23 3 24 4 22 6 12 7 13 8 86 9 14 10 15 11 11 12
REMARK SMILES IDX 10 14 9 15 3 16 4 17 5 18 8 19 6 20 7 21 2 22 1 23 16 24
REMARK SMILES IDX 17 25 21 26 18 27 20 28 19 29 27 30 28 31 29 32 30 33 31 35
REMARK SMILES IDX 32 36 33 37 85 38 34 39 84 40 35 41 36 42 37 43 78 44 38 45
REMARK SMILES IDX 83 46 77 47 79 48 39 49 82 50 76 51 75 52 40 54 66 55 49 56
REMARK SMILES IDX 65 57 50 58 53 59 64 60 80 61 51 62 52 63 63 65 81 66 54 67
REMARK SMILES IDX 41 68 42 69 47 70 43 71 44 72 46 73 48 74 45 75 67 76 68 77
REMARK SMILES IDX 73 78 69 79 70 80 72 81 74 82 71 83 55 84 56 85 61 86 57 87
REMARK SMILES IDX 58 88 60 89 62 90 59 91
REMARK H PARENT 25 5 11 13 29 34 79 53 53 64
REMARK Flexibility Score: inf
ROOT
ATOM      1  C   UNL A   1      37.017  21.212  24.829  1.00  0.00     0.118 C 
ENDROOT
BRANCH   1   2
ATOM      2  N   UNL A   1      35.994  21.262  25.873  1.00  0.00    -0.352 N 
ATOM      3  C   UNL A   1      34.616  21.227  25.934  1.00  0.00     0.253 C 
ATOM      4  O   UNL A   1      34.162  21.308  27.074  1.00  0.00    -0.269 OA
ATOM      5  H   UNL A   1      36.396  21.342  26.769  1.00  0.00     0.163 HD
BRANCH   3   6
ATOM      6  C   UNL A   1      33.723  21.142  24.731  1.00  0.00     0.065 A 
ATOM      7  C   UNL A   1      32.556  22.429  22.990  1.00  0.00     0.035 A 
ATOM      8  C   UNL A   1      31.870  21.276  22.633  1.00  0.00     0.028 A 
ATOM      9  C   UNL A   1      33.546  22.291  23.956  1.00  0.00     0.041 A 
ATOM     10  C   UNL A   1      32.181  20.051  23.233  1.00  0.00     0.029 A 
ATOM     11  C   UNL A   1      33.115  19.951  24.283  1.00  0.00     0.050 A 
BRANCH   7  12
ATOM     12  N   UNL A   1      32.306  23.616  22.339  1.00  0.00    -0.381 N 
ATOM     13  H   UNL A   1      31.806  23.565  21.493  1.00  0.00     0.160 HD
BRANCH  12  14
ATOM     14  C   UNL A   1      32.717  24.939  22.792  1.00  0.00     0.152 C 
BRANCH  14  15
ATOM     15  C   UNL A   1      31.485  25.766  23.066  1.00  0.00     0.014 A 
ATOM     16  C   UNL A   1      30.463  25.315  23.913  1.00  0.00     0.123 A 
ATOM     17  C   UNL A   1      29.344  26.125  24.138  1.00  0.00     0.048 A 
ATOM     18  C   UNL A   1      29.239  27.377  23.524  1.00  0.00     0.019 A 
ATOM     19  C   UNL A   1      31.388  27.048  22.489  1.00  0.00     0.025 A 
ATOM     20  C   UNL A   1      30.266  27.837  22.707  1.00  0.00     0.018 A 
ATOM     21  Br  UNL A   1      30.150  29.538  21.896  1.00  0.00    -0.051 Br
BRANCH  16  22
ATOM     22  O   UNL A   1      30.663  24.120  24.552  1.00  0.00    -0.496 OA
ATOM     23  C   UNL A   1      30.871  24.212  25.958  1.00  0.00     0.278 C 
ENDBRANCH  16  22
ENDBRANCH  14  15
ENDBRANCH  12  14
ENDBRANCH   7  12
BRANCH  11  24
ATOM     24  N   UNL A   1      33.491  18.687  24.687  1.00  0.00    -0.366 N 
ATOM     25  C   UNL A   1      34.694  18.000  24.222  1.00  0.00     0.145 C 
ATOM     26  C   UNL A   1      32.738  18.027  25.757  1.00  0.00     0.145 C 
ATOM     27  C   UNL A   1      34.419  16.495  24.013  1.00  0.00     0.181 C 
ATOM     28  C   UNL A   1      32.493  16.565  25.365  1.00  0.00     0.181 C 
ATOM     29  O   UNL A   1      33.742  15.891  25.133  1.00  0.00    -0.378 OA
ENDBRANCH  11  24
ENDBRANCH   3   6
ENDBRANCH   1   2
BRANCH   1  30
ATOM     30  C   UNL A   1      37.991  20.062  24.990  1.00  0.00     0.042 C 
BRANCH  30  31
ATOM     31  C   UNL A   1      39.180  20.391  25.873  1.00  0.00     0.118 C 
BRANCH  31  32
ATOM     32  N   UNL A   1      40.153  19.302  25.930  1.00  0.00    -0.352 N 
ATOM     33  C   UNL A   1      41.520  19.342  26.085  1.00  0.00     0.251 C 
ATOM     34  H   UNL A   1      39.771  18.400  25.844  1.00  0.00     0.163 HD
ATOM     35  O   UNL A   1      42.196  18.344  25.875  1.00  0.00    -0.269 OA
BRANCH  33  36
ATOM     36  C   UNL A   1      42.168  20.606  26.488  1.00  0.00     0.039 A 
ATOM     37  C   UNL A   1      42.684  21.465  25.514  1.00  0.00     0.014 A 
ATOM     38  C   UNL A   1      42.248  20.946  27.838  1.00  0.00     0.014 A 
ATOM     39  C   UNL A   1      43.196  22.708  25.892  1.00  0.00     0.010 A 
ATOM     40  C   UNL A   1      42.649  22.221  28.201  1.00  0.00     0.010 A 
ATOM     41  C   UNL A   1      43.136  23.114  27.234  1.00  0.00    -0.014 A 
BRANCH  41  42
ATOM     42  C   UNL A   1      43.602  24.446  27.692  1.00  0.00     0.031 A 
ATOM     43  C   UNL A   1      42.582  25.477  28.090  1.00  0.00     0.074 A 
ATOM     44  C   UNL A   1      44.908  24.768  27.629  1.00  0.00     0.049 A 
ATOM     45  N   UNL A   1      42.735  26.758  28.302  1.00  0.00    -0.248 NA
ATOM     46  C   UNL A   1      41.191  25.007  28.221  1.00  0.00     0.031 C 
ATOM     47  C   UNL A   1      45.990  23.865  27.232  1.00  0.00     0.029 A 
ATOM     48  N   UNL A   1      45.544  25.960  27.870  1.00  0.00    -0.354 N 
ATOM     49  C   UNL A   1      41.460  27.250  28.556  1.00  0.00     0.074 A 
ATOM     50  C   UNL A   1      40.540  26.144  28.415  1.00  0.00     0.031 C 
ATOM     51  C   UNL A   1      47.155  24.532  27.269  1.00  0.00     0.029 A 
ATOM     52  C   UNL A   1      46.897  25.920  27.636  1.00  0.00     0.049 A 
ATOM     53  H   UNL A   1      45.074  26.767  28.182  1.00  0.00     0.167 HD
ATOM     54  C   UNL A   1      41.094  28.506  28.900  1.00  0.00     0.037 A 
ATOM     55  C   UNL A   1      47.819  26.900  27.687  1.00  0.00     0.037 A 
ATOM     56  C   UNL A   1      42.020  29.592  29.070  1.00  0.00     0.049 A 
ATOM     57  C   UNL A   1      47.384  28.296  28.049  1.00  0.00     0.074 A 
ATOM     58  C   UNL A   1      41.761  30.893  29.463  1.00  0.00     0.029 A 
ATOM     59  N   UNL A   1      43.388  29.499  28.859  1.00  0.00    -0.354 N 
ATOM     60  N   UNL A   1      46.183  28.741  28.330  1.00  0.00    -0.248 NA
ATOM     61  C   UNL A   1      48.432  29.326  28.101  1.00  0.00     0.031 C 
ATOM     62  C   UNL A   1      42.967  31.599  29.448  1.00  0.00     0.029 A 
ATOM     63  C   UNL A   1      43.984  30.724  29.102  1.00  0.00     0.049 A 
ATOM     64  H   UNL A   1      43.864  28.683  28.580  1.00  0.00     0.167 HD
ATOM     65  C   UNL A   1      46.337  30.088  28.635  1.00  0.00     0.074 A 
ATOM     66  C   UNL A   1      47.747  30.388  28.502  1.00  0.00     0.031 C 
ATOM     67  C   UNL A   1      45.396  30.992  28.997  1.00  0.00     0.037 A 
BRANCH  54  68
ATOM     68  C   UNL A   1      39.632  28.767  29.118  1.00  0.00     0.057 A 
ATOM     69  C   UNL A   1      39.028  28.592  30.371  1.00  0.00     0.134 A 
ATOM     70  C   UNL A   1      38.821  29.222  28.070  1.00  0.00     0.134 A 
ATOM     71  F   UNL A   1      39.743  28.147  31.415  1.00  0.00    -0.206 F 
ATOM     72  C   UNL A   1      37.666  28.829  30.566  1.00  0.00     0.040 A 
ATOM     73  C   UNL A   1      37.465  29.493  28.260  1.00  0.00     0.040 A 
ATOM     74  F   UNL A   1      39.334  29.415  26.846  1.00  0.00    -0.206 F 
ATOM     75  C   UNL A   1      36.882  29.289  29.510  1.00  0.00     0.006 A 
ENDBRANCH  54  68
BRANCH  55  76
ATOM     76  C   UNL A   1      49.246  26.602  27.404  1.00  0.00     0.057 A 
ATOM     77  C   UNL A   1      49.791  26.838  26.136  1.00  0.00     0.134 A 
ATOM     78  C   UNL A   1      50.095  26.063  28.377  1.00  0.00     0.134 A 
ATOM     79  F   UNL A   1      49.024  27.338  25.154  1.00  0.00    -0.206 F 
ATOM     80  C   UNL A   1      51.118  26.526  25.838  1.00  0.00     0.040 A 
ATOM     81  C   UNL A   1      51.433  25.771  28.102  1.00  0.00     0.040 A 
ATOM     82  F   UNL A   1      49.640  25.822  29.615  1.00  0.00    -0.206 F 
ATOM     83  C   UNL A   1      51.945  25.995  26.826  1.00  0.00     0.006 A 
ENDBRANCH  55  76
BRANCH  67  84
ATOM     84  C   UNL A   1      45.858  32.375  29.350  1.00  0.00     0.057 A 
ATOM     85  C   UNL A   1      45.910  33.406  28.406  1.00  0.00     0.134 A 
ATOM     86  C   UNL A   1      46.171  32.694  30.678  1.00  0.00     0.134 A 
ATOM     87  F   UNL A   1      45.633  33.163  27.116  1.00  0.00    -0.206 F 
ATOM     88  C   UNL A   1      46.266  34.707  28.768  1.00  0.00     0.040 A 
ATOM     89  C   UNL A   1      46.502  33.994  31.058  1.00  0.00     0.040 A 
ATOM     90  F   UNL A   1      46.130  31.751  31.632  1.00  0.00    -0.206 F 
ATOM     91  C   UNL A   1      46.552  35.005  30.100  1.00  0.00     0.006 A 
ENDBRANCH  67  84
ENDBRANCH  41  42
ENDBRANCH  33  36
ENDBRANCH  31  32
ENDBRANCH  30  31
ENDBRANCH   1  30
TORSDOF 15
ENDMDL
MODEL 3
REMARK VINA RESULT:     -13.0      0.997      1.772
REMARK SMILES COc1ccc(Br)cc1CNc1ccc(N2CCOCC2)c(C(=O)NCCCNC(=O)c2ccc(-c3c4nc(c(-c5c(F)cccc5F)c5ccc([nH]5)c(-c5c(F)cccc5F)c5nc(c(-c6c(F)cccc6F)c6ccc3[nH]6)C=C5)C=C4)cc2)c1
REMARK SMILES IDX 26 1 25 2 23 3 24 4 22 6 12 7 13 8 86 9 14 10 15 11 11 12
REMARK SMILES IDX 10 14 9 15 3 16 4 17 5 18 8 19 6 20 7 21 2 22 1 23 16 24
REMARK SMILES IDX 17 25 21 26 18 27 20 28 19 29 27 30 28 31 29 32 30 33 31 35
REMARK SMILES IDX 32 36 33 37 85 38 34 39 84 40 35 41 36 42 37 43 78 44 38 45
REMARK SMILES IDX 83 46 77 47 79 48 39 49 82 50 76 51 75 52 40 54 66 55 49 56
REMARK SMILES IDX 65 57 50 58 53 59 64 60 80 61 51 62 52 63 63 65 81 66 54 67
REMARK SMILES IDX 41 68 42 69 47 70 43 71 44 72 46 73 48 74 45 75 67 76 68 77
REMARK SMILES IDX 73 78 69 79 70 80 72 81 74 82 71 83 55 84 56 85 61 86 57 87
REMARK SMILES IDX 58 88 60 89 62 90 59 91
REMARK H PARENT 25 5 11 13 29 34 79 53 53 64
REMARK Flexibility Score: inf
ROOT
ATOM      1  C   UNL A   1      31.852  30.260  26.387  1.00  0.00     0.118 C 
ENDROOT
BRANCH   1   2
ATOM      2  N   UNL A   1      32.386  29.920  25.069  1.00  0.00    -0.352 N 
ATOM      3  C   UNL A   1      32.001  29.140  23.998  1.00  0.00     0.253 C 
ATOM      4  O   UNL A   1      32.798  29.146  23.061  1.00  0.00    -0.269 OA
ATOM      5  H   UNL A   1      33.249  30.365  24.903  1.00  0.00     0.163 HD
BRANCH   3   6
ATOM      6  C   UNL A   1      30.749  28.314  23.966  1.00  0.00     0.065 A 
ATOM      7  C   UNL A   1      29.754  26.138  24.535  1.00  0.00     0.035 A 
ATOM      8  C   UNL A   1      28.632  26.486  23.795  1.00  0.00     0.028 A 
ATOM      9  C   UNL A   1      30.729  27.117  24.687  1.00  0.00     0.041 A 
ATOM     10  C   UNL A   1      28.514  27.767  23.244  1.00  0.00     0.029 A 
ATOM     11  C   UNL A   1      29.558  28.710  23.322  1.00  0.00     0.050 A 
BRANCH   7  12
ATOM     12  N   UNL A   1      29.827  24.907  25.146  1.00  0.00    -0.381 N 
ATOM     13  H   UNL A   1      29.222  24.205  24.814  1.00  0.00     0.160 HD
BRANCH  12  14
ATOM     14  C   UNL A   1      30.723  24.552  26.241  1.00  0.00     0.152 C 
BRANCH  14  15
ATOM     15  C   UNL A   1      31.909  23.807  25.681  1.00  0.00     0.014 A 
ATOM     16  C   UNL A   1      33.197  24.362  25.674  1.00  0.00     0.123 A 
ATOM     17  C   UNL A   1      34.264  23.626  25.149  1.00  0.00     0.048 A 
ATOM     18  C   UNL A   1      34.054  22.343  24.630  1.00  0.00     0.019 A 
ATOM     19  C   UNL A   1      31.720  22.497  25.196  1.00  0.00     0.025 A 
ATOM     20  C   UNL A   1      32.783  21.781  24.663  1.00  0.00     0.018 A 
ATOM     21  Br  UNL A   1      32.493  20.040  23.991  1.00  0.00    -0.051 Br
BRANCH  16  22
ATOM     22  O   UNL A   1      33.353  25.583  26.274  1.00  0.00    -0.496 OA
ATOM     23  C   UNL A   1      34.126  26.526  25.537  1.00  0.00     0.278 C 
ENDBRANCH  16  22
ENDBRANCH  14  15
ENDBRANCH  12  14
ENDBRANCH   7  12
BRANCH  11  24
ATOM     24  N   UNL A   1      29.289  29.999  22.913  1.00  0.00    -0.366 N 
ATOM     25  C   UNL A   1      29.015  31.109  23.824  1.00  0.00     0.145 C 
ATOM     26  C   UNL A   1      29.421  30.340  21.494  1.00  0.00     0.145 C 
ATOM     27  C   UNL A   1      27.912  32.027  23.252  1.00  0.00     0.181 C 
ATOM     28  C   UNL A   1      28.219  31.193  21.073  1.00  0.00     0.181 C 
ATOM     29  O   UNL A   1      28.142  32.384  21.875  1.00  0.00    -0.378 OA
ENDBRANCH  11  24
ENDBRANCH   3   6
ENDBRANCH   1   2
BRANCH   1  30
ATOM     30  C   UNL A   1      31.644  31.748  26.590  1.00  0.00     0.042 C 
BRANCH  30  31
ATOM     31  C   UNL A   1      32.795  32.432  27.304  1.00  0.00     0.118 C 
BRANCH  31  32
ATOM     32  N   UNL A   1      32.517  33.836  27.595  1.00  0.00    -0.352 N 
ATOM     33  C   UNL A   1      33.087  34.679  28.522  1.00  0.00     0.251 C 
ATOM     34  H   UNL A   1      31.812  34.243  27.042  1.00  0.00     0.163 HD
ATOM     35  O   UNL A   1      32.567  35.755  28.783  1.00  0.00    -0.269 OA
BRANCH  33  36
ATOM     36  C   UNL A   1      34.324  34.264  29.216  1.00  0.00     0.039 A 
ATOM     37  C   UNL A   1      34.242  33.541  30.409  1.00  0.00     0.014 A 
ATOM     38  C   UNL A   1      35.566  34.581  28.669  1.00  0.00     0.014 A 
ATOM     39  C   UNL A   1      35.411  33.057  31.002  1.00  0.00     0.010 A 
ATOM     40  C   UNL A   1      36.712  34.006  29.193  1.00  0.00     0.010 A 
ATOM     41  C   UNL A   1      36.650  33.245  30.370  1.00  0.00    -0.014 A 
BRANCH  41  42
ATOM     42  C   UNL A   1      37.919  32.701  30.911  1.00  0.00     0.031 A 
ATOM     43  C   UNL A   1      38.509  31.468  30.285  1.00  0.00     0.074 A 
ATOM     44  C   UNL A   1      38.462  33.226  32.027  1.00  0.00     0.049 A 
ATOM     45  N   UNL A   1      39.469  30.693  30.719  1.00  0.00    -0.248 NA
ATOM     46  C   UNL A   1      37.904  31.022  29.017  1.00  0.00     0.031 C 
ATOM     47  C   UNL A   1      37.967  34.403  32.744  1.00  0.00     0.029 A 
ATOM     48  N   UNL A   1      39.540  32.814  32.771  1.00  0.00    -0.354 N 
ATOM     49  C   UNL A   1      39.557  29.655  29.800  1.00  0.00     0.074 A 
ATOM     50  C   UNL A   1      38.518  29.867  28.817  1.00  0.00     0.031 C 
ATOM     51  C   UNL A   1      38.745  34.624  33.815  1.00  0.00     0.029 A 
ATOM     52  C   UNL A   1      39.757  33.576  33.894  1.00  0.00     0.049 A 
ATOM     53  H   UNL A   1      40.103  32.046  32.523  1.00  0.00     0.167 HD
ATOM     54  C   UNL A   1      40.440  28.631  29.765  1.00  0.00     0.037 A 
ATOM     55  C   UNL A   1      40.655  33.428  34.887  1.00  0.00     0.037 A 
ATOM     56  C   UNL A   1      41.490  28.447  30.729  1.00  0.00     0.049 A 
ATOM     57  C   UNL A   1      41.613  32.267  34.839  1.00  0.00     0.074 A 
ATOM     58  C   UNL A   1      42.470  27.471  30.761  1.00  0.00     0.029 A 
ATOM     59  N   UNL A   1      41.698  29.264  31.831  1.00  0.00    -0.354 N 
ATOM     60  N   UNL A   1      41.715  31.316  33.943  1.00  0.00    -0.248 NA
ATOM     61  C   UNL A   1      42.579  32.158  35.941  1.00  0.00     0.031 C 
ATOM     62  C   UNL A   1      43.245  27.671  31.908  1.00  0.00     0.029 A 
ATOM     63  C   UNL A   1      42.784  28.805  32.557  1.00  0.00     0.049 A 
ATOM     64  H   UNL A   1      41.156  30.053  32.062  1.00  0.00     0.167 HD
ATOM     65  C   UNL A   1      42.783  30.523  34.347  1.00  0.00     0.074 A 
ATOM     66  C   UNL A   1      43.294  31.103  35.571  1.00  0.00     0.031 C 
ATOM     67  C   UNL A   1      43.297  29.419  33.755  1.00  0.00     0.037 A 
BRANCH  54  68
ATOM     68  C   UNL A   1      40.308  27.638  28.648  1.00  0.00     0.057 A 
ATOM     69  C   UNL A   1      40.955  27.817  27.418  1.00  0.00     0.134 A 
ATOM     70  C   UNL A   1      39.543  26.475  28.810  1.00  0.00     0.134 A 
ATOM     71  F   UNL A   1      41.692  28.915  27.191  1.00  0.00    -0.206 F 
ATOM     72  C   UNL A   1      40.821  26.894  26.379  1.00  0.00     0.040 A 
ATOM     73  C   UNL A   1      39.428  25.528  27.790  1.00  0.00     0.040 A 
ATOM     74  F   UNL A   1      38.900  26.237  29.963  1.00  0.00    -0.206 F 
ATOM     75  C   UNL A   1      40.062  25.741  26.568  1.00  0.00     0.006 A 
ENDBRANCH  54  68
BRANCH  55  76
ATOM     76  C   UNL A   1      40.705  34.406  36.003  1.00  0.00     0.057 A 
ATOM     77  C   UNL A   1      41.474  35.572  35.900  1.00  0.00     0.134 A 
ATOM     78  C   UNL A   1      40.007  34.200  37.198  1.00  0.00     0.134 A 
ATOM     79  F   UNL A   1      42.181  35.819  34.787  1.00  0.00    -0.206 F 
ATOM     80  C   UNL A   1      41.568  36.484  36.953  1.00  0.00     0.040 A 
ATOM     81  C   UNL A   1      40.069  35.117  38.249  1.00  0.00     0.040 A 
ATOM     82  F   UNL A   1      39.244  33.109  37.358  1.00  0.00    -0.206 F 
ATOM     83  C   UNL A   1      40.859  36.259  38.132  1.00  0.00     0.006 A 
ENDBRANCH  55  76
BRANCH  67  84
ATOM     84  C   UNL A   1      44.516  28.801  34.373  1.00  0.00     0.057 A 
ATOM     85  C   UNL A   1      45.810  29.224  34.052  1.00  0.00     0.134 A 
ATOM     86  C   UNL A   1      44.380  27.825  35.370  1.00  0.00     0.134 A 
ATOM     87  F   UNL A   1      46.008  30.147  33.098  1.00  0.00    -0.206 F 
ATOM     88  C   UNL A   1      46.930  28.693  34.695  1.00  0.00     0.040 A 
ATOM     89  C   UNL A   1      45.489  27.306  36.039  1.00  0.00     0.040 A 
ATOM     90  F   UNL A   1      43.165  27.384  35.730  1.00  0.00    -0.206 F 
ATOM     91  C   UNL A   1      46.768  27.740  35.700  1.00  0.00     0.006 A 
ENDBRANCH  67  84
ENDBRANCH  41  42
ENDBRANCH  33  36
ENDBRANCH  31  32
ENDBRANCH  30  31
ENDBRANCH   1  30
TORSDOF 15
ENDMDL
