MODEL 1
REMARK VINA RESULT:     -12.7      0.000      0.000
REMARK SMILES Cn1cc(C[C@@H](NC(=O)OCC2c3ccccc3-c3ccccc32)C(=O)NCCCNC(=O)c2ccc(-c3c4nc(c(-c5c(F)cccc5F)c5ccc([nH]5)c(-c5c(F)cccc5F)c5nc(c(-c6c(F)cccc6F)c6ccc3[nH]6)C=C5)C=C4)cc2)c2ccccc21
REMARK SMILES IDX 28 1 27 2 25 3 26 4 6 6 5 7 4 8 1 9 2 10 3 11 93 12 88 13
REMARK SMILES IDX 92 14 89 15 91 16 90 17 7 18 8 19 9 21 10 22 11 23 12 24
REMARK SMILES IDX 13 25 24 26 14 27 18 28 19 29 23 30 15 31 17 32 20 33 22 34
REMARK SMILES IDX 16 35 21 36 29 37 30 38 31 39 32 40 33 42 34 43 35 44 87 45
REMARK SMILES IDX 36 46 86 47 37 48 38 49 39 50 80 51 40 52 85 53 79 54 81 55
REMARK SMILES IDX 41 56 84 57 78 58 77 59 42 61 68 62 51 63 67 64 52 65 55 66
REMARK SMILES IDX 66 67 82 68 53 69 54 70 65 72 83 73 56 74 43 75 44 76 49 77
REMARK SMILES IDX 45 78 46 79 48 80 50 81 47 82 69 83 70 84 75 85 71 86 72 87
REMARK SMILES IDX 74 88 76 89 73 90 57 91 58 92 63 93 59 94 60 95 62 96 64 97
REMARK SMILES IDX 61 98
REMARK H PARENT 27 5 7 20 31 41 81 60 55 71
REMARK Flexibility Score: inf
ROOT
ATOM      1  C   UNL A   1      31.663  30.737  26.749  1.00  0.00     0.117 C 
ENDROOT
BRANCH   1   2
ATOM      2  N   UNL A   1      32.845  30.279  27.461  1.00  0.00    -0.354 N 
ATOM      3  C   UNL A   1      33.745  29.302  27.130  1.00  0.00     0.243 C 
ATOM      4  O   UNL A   1      34.696  29.122  27.896  1.00  0.00    -0.273 OA
ATOM      5  H   UNL A   1      33.026  30.742  28.311  1.00  0.00     0.163 HD
BRANCH   3   6
ATOM      6  C   UNL A   1      33.496  28.363  25.931  1.00  0.00     0.179 C 
BRANCH   6   7
ATOM      7  C   UNL A   1      32.139  27.645  26.166  1.00  0.00     0.073 C 
BRANCH   7   8
ATOM      8  C   UNL A   1      32.193  26.161  26.398  1.00  0.00    -0.020 A 
ATOM      9  C   UNL A   1      30.703  22.951  27.190  1.00  0.00     0.149 C 
ATOM     10  N   UNL A   1      31.557  24.075  26.876  1.00  0.00    -0.350 N 
ATOM     11  C   UNL A   1      31.163  25.386  26.898  1.00  0.00     0.090 A 
ATOM     12  C   UNL A   1      32.861  23.974  26.445  1.00  0.00     0.048 A 
ATOM     13  C   UNL A   1      33.259  25.258  26.064  1.00  0.00     0.003 A 
ATOM     14  C   UNL A   1      33.709  22.860  26.329  1.00  0.00     0.027 A 
ATOM     15  C   UNL A   1      34.533  25.410  25.475  1.00  0.00     0.010 A 
ATOM     16  C   UNL A   1      34.991  23.058  25.809  1.00  0.00     0.002 A 
ATOM     17  C   UNL A   1      35.396  24.315  25.376  1.00  0.00     0.001 A 
ENDBRANCH   7   8
ENDBRANCH   6   7
BRANCH   6  18
ATOM     18  N   UNL A   1      33.637  28.931  24.585  1.00  0.00    -0.309 N 
ATOM     19  C   UNL A   1      34.126  28.383  23.445  1.00  0.00     0.407 C 
ATOM     20  H   UNL A   1      33.327  29.861  24.494  1.00  0.00     0.167 HD
ATOM     21  O   UNL A   1      34.827  29.054  22.689  1.00  0.00    -0.225 OA
BRANCH  19  22
ATOM     22  O   UNL A   1      33.778  27.089  23.234  1.00  0.00    -0.449 OA
BRANCH  22  23
ATOM     23  C   UNL A   1      33.653  26.690  21.846  1.00  0.00     0.248 C 
BRANCH  23  24
ATOM     24  C   UNL A   1      32.335  25.954  21.529  1.00  0.00     0.088 C 
ATOM     25  C   UNL A   1      32.303  24.537  22.093  1.00  0.00    -0.029 A 
ATOM     26  C   UNL A   1      31.114  26.575  22.190  1.00  0.00    -0.029 A 
ATOM     27  C   UNL A   1      33.083  23.448  21.731  1.00  0.00     0.005 A 
ATOM     28  C   UNL A   1      31.273  24.420  23.050  1.00  0.00    -0.014 A 
ATOM     29  C   UNL A   1      30.576  25.685  23.145  1.00  0.00    -0.014 A 
ATOM     30  C   UNL A   1      30.579  27.839  22.001  1.00  0.00     0.005 A 
ATOM     31  C   UNL A   1      32.828  22.223  22.350  1.00  0.00     0.000 A 
ATOM     32  C   UNL A   1      31.028  23.206  23.670  1.00  0.00     0.009 A 
ATOM     33  C   UNL A   1      29.549  26.094  23.979  1.00  0.00     0.009 A 
ATOM     34  C   UNL A   1      29.555  28.254  22.850  1.00  0.00     0.000 A 
ATOM     35  C   UNL A   1      31.812  22.104  23.313  1.00  0.00     0.001 A 
ATOM     36  C   UNL A   1      29.054  27.394  23.840  1.00  0.00     0.001 A 
ENDBRANCH  23  24
ENDBRANCH  22  23
ENDBRANCH  19  22
ENDBRANCH   6  18
ENDBRANCH   3   6
ENDBRANCH   1   2
BRANCH   1  37
ATOM     37  C   UNL A   1      31.457  32.235  26.866  1.00  0.00     0.042 C 
BRANCH  37  38
ATOM     38  C   UNL A   1      32.727  32.974  27.251  1.00  0.00     0.118 C 
BRANCH  38  39
ATOM     39  N   UNL A   1      32.474  34.346  27.680  1.00  0.00    -0.352 N 
ATOM     40  C   UNL A   1      33.068  35.065  28.687  1.00  0.00     0.251 C 
ATOM     41  H   UNL A   1      31.778  34.824  27.174  1.00  0.00     0.163 HD
ATOM     42  O   UNL A   1      32.628  36.161  29.014  1.00  0.00    -0.269 OA
BRANCH  40  43
ATOM     43  C   UNL A   1      34.229  34.486  29.391  1.00  0.00     0.039 A 
ATOM     44  C   UNL A   1      34.026  33.801  30.591  1.00  0.00     0.014 A 
ATOM     45  C   UNL A   1      35.505  34.584  28.833  1.00  0.00     0.014 A 
ATOM     46  C   UNL A   1      35.099  33.145  31.193  1.00  0.00     0.010 A 
ATOM     47  C   UNL A   1      36.550  33.858  29.385  1.00  0.00     0.010 A 
ATOM     48  C   UNL A   1      36.358  33.135  30.572  1.00  0.00    -0.014 A 
BRANCH  48  49
ATOM     49  C   UNL A   1      37.503  32.390  31.144  1.00  0.00     0.031 A 
ATOM     50  C   UNL A   1      38.133  32.867  32.421  1.00  0.00     0.074 A 
ATOM     51  C   UNL A   1      38.032  31.353  30.468  1.00  0.00     0.049 A 
ATOM     52  N   UNL A   1      39.218  32.444  33.016  1.00  0.00    -0.248 NA
ATOM     53  C   UNL A   1      37.477  33.998  33.098  1.00  0.00     0.031 C 
ATOM     54  C   UNL A   1      37.544  30.832  29.188  1.00  0.00     0.029 A 
ATOM     55  N   UNL A   1      39.111  30.559  30.759  1.00  0.00    -0.354 N 
ATOM     56  C   UNL A   1      39.396  33.281  34.110  1.00  0.00     0.074 A 
ATOM     57  C   UNL A   1      38.331  34.259  34.076  1.00  0.00     0.031 C 
ATOM     58  C   UNL A   1      38.306  29.790  28.819  1.00  0.00     0.029 A 
ATOM     59  C   UNL A   1      39.353  29.591  29.816  1.00  0.00     0.049 A 
ATOM     60  H   UNL A   1      39.659  30.670  31.570  1.00  0.00     0.167 HD
ATOM     61  C   UNL A   1      40.351  33.227  35.068  1.00  0.00     0.037 A 
ATOM     62  C   UNL A   1      40.315  28.652  29.763  1.00  0.00     0.037 A 
ATOM     63  C   UNL A   1      41.370  32.216  35.133  1.00  0.00     0.049 A 
ATOM     64  C   UNL A   1      41.331  28.578  30.867  1.00  0.00     0.074 A 
ATOM     65  C   UNL A   1      42.330  32.020  36.109  1.00  0.00     0.029 A 
ATOM     66  N   UNL A   1      41.551  31.222  34.183  1.00  0.00    -0.354 N 
ATOM     67  N   UNL A   1      41.454  29.341  31.925  1.00  0.00    -0.248 NA
ATOM     68  C   UNL A   1      42.339  27.513  30.769  1.00  0.00     0.031 C 
ATOM     69  C   UNL A   1      43.106  30.916  35.740  1.00  0.00     0.029 A 
ATOM     70  C   UNL A   1      42.613  30.413  34.548  1.00  0.00     0.049 A 
ATOM     71  H   UNL A   1      41.006  31.110  33.371  1.00  0.00     0.167 HD
ATOM     72  C   UNL A   1      42.537  28.837  32.632  1.00  0.00     0.074 A 
ATOM     73  C   UNL A   1      43.031  27.697  31.885  1.00  0.00     0.031 C 
ATOM     74  C   UNL A   1      43.077  29.277  33.793  1.00  0.00     0.037 A 
BRANCH  61  75
ATOM     75  C   UNL A   1      40.322  34.289  36.124  1.00  0.00     0.057 A 
ATOM     76  C   UNL A   1      41.056  35.474  35.998  1.00  0.00     0.134 A 
ATOM     77  C   UNL A   1      39.543  34.128  37.277  1.00  0.00     0.134 A 
ATOM     78  F   UNL A   1      41.835  35.680  34.925  1.00  0.00    -0.206 F 
ATOM     79  C   UNL A   1      41.039  36.453  36.993  1.00  0.00     0.040 A 
ATOM     80  C   UNL A   1      39.500  35.109  38.268  1.00  0.00     0.040 A 
ATOM     81  F   UNL A   1      38.816  33.015  37.459  1.00  0.00    -0.206 F 
ATOM     82  C   UNL A   1      40.254  36.273  38.131  1.00  0.00     0.006 A 
ENDBRANCH  61  75
BRANCH  62  83
ATOM     83  C   UNL A   1      40.339  27.679  28.645  1.00  0.00     0.057 A 
ATOM     84  C   UNL A   1      41.085  27.938  27.489  1.00  0.00     0.134 A 
ATOM     85  C   UNL A   1      39.630  26.475  28.701  1.00  0.00     0.134 A 
ATOM     86  F   UNL A   1      41.772  29.084  27.373  1.00  0.00    -0.206 F 
ATOM     87  C   UNL A   1      41.114  27.040  26.422  1.00  0.00     0.040 A 
ATOM     88  C   UNL A   1      39.663  25.560  27.648  1.00  0.00     0.040 A 
ATOM     89  F   UNL A   1      38.903  26.168  29.786  1.00  0.00    -0.206 F 
ATOM     90  C   UNL A   1      40.403  25.845  26.502  1.00  0.00     0.006 A 
ENDBRANCH  62  83
BRANCH  74  91
ATOM     91  C   UNL A   1      44.238  28.506  34.340  1.00  0.00     0.057 A 
ATOM     92  C   UNL A   1      44.052  27.399  35.175  1.00  0.00     0.134 A 
ATOM     93  C   UNL A   1      45.548  28.850  33.992  1.00  0.00     0.134 A 
ATOM     94  F   UNL A   1      42.820  27.030  35.553  1.00  0.00    -0.206 F 
ATOM     95  C   UNL A   1      45.137  26.666  35.659  1.00  0.00     0.040 A 
ATOM     96  C   UNL A   1      46.640  28.114  34.455  1.00  0.00     0.040 A 
ATOM     97  F   UNL A   1      45.788  29.899  33.190  1.00  0.00    -0.206 F 
ATOM     98  C   UNL A   1      46.435  27.020  35.293  1.00  0.00     0.006 A 
ENDBRANCH  74  91
ENDBRANCH  48  49
ENDBRANCH  40  43
ENDBRANCH  38  39
ENDBRANCH  37  38
ENDBRANCH   1  37
TORSDOF 16
ENDMDL
MODEL 2
REMARK VINA RESULT:     -12.7      0.548      5.901
REMARK SMILES Cn1cc(C[C@@H](NC(=O)OCC2c3ccccc3-c3ccccc32)C(=O)NCCCNC(=O)c2ccc(-c3c4nc(c(-c5c(F)cccc5F)c5ccc([nH]5)c(-c5c(F)cccc5F)c5nc(c(-c6c(F)cccc6F)c6ccc3[nH]6)C=C5)C=C4)cc2)c2ccccc21
REMARK SMILES IDX 28 1 27 2 25 3 26 4 6 6 5 7 4 8 1 9 2 10 3 11 93 12 88 13
REMARK SMILES IDX 92 14 89 15 91 16 90 17 7 18 8 19 9 21 10 22 11 23 12 24
REMARK SMILES IDX 13 25 24 26 14 27 18 28 19 29 23 30 15 31 17 32 20 33 22 34
REMARK SMILES IDX 16 35 21 36 29 37 30 38 31 39 32 40 33 42 34 43 35 44 87 45
REMARK SMILES IDX 36 46 86 47 37 48 38 49 39 50 80 51 40 52 85 53 79 54 81 55
REMARK SMILES IDX 41 56 84 57 78 58 77 59 42 61 68 62 51 63 67 64 52 65 55 66
REMARK SMILES IDX 66 67 82 68 53 69 54 70 65 72 83 73 56 74 43 75 44 76 49 77
REMARK SMILES IDX 45 78 46 79 48 80 50 81 47 82 69 83 70 84 75 85 71 86 72 87
REMARK SMILES IDX 74 88 76 89 73 90 57 91 58 92 63 93 59 94 60 95 62 96 64 97
REMARK SMILES IDX 61 98
REMARK H PARENT 27 5 7 20 31 41 81 60 55 71
REMARK Flexibility Score: inf
ROOT
ATOM      1  C   UNL A   1      31.781  30.345  26.859  1.00  0.00     0.117 C 
ENDROOT
BRANCH   1   2
ATOM      2  N   UNL A   1      32.981  29.983  27.596  1.00  0.00    -0.354 N 
ATOM      3  C   UNL A   1      34.033  29.190  27.223  1.00  0.00     0.243 C 
ATOM      4  O   UNL A   1      34.961  29.061  28.028  1.00  0.00    -0.273 OA
ATOM      5  H   UNL A   1      33.046  30.365  28.501  1.00  0.00     0.163 HD
BRANCH   3   6
ATOM      6  C   UNL A   1      33.990  28.372  25.916  1.00  0.00     0.179 C 
BRANCH   6   7
ATOM      7  C   UNL A   1      32.624  27.636  25.863  1.00  0.00     0.073 C 
BRANCH   7   8
ATOM      8  C   UNL A   1      32.639  26.163  26.164  1.00  0.00    -0.020 A 
ATOM      9  C   UNL A   1      31.114  23.072  27.291  1.00  0.00     0.149 C 
ATOM     10  N   UNL A   1      31.973  24.136  26.821  1.00  0.00    -0.350 N 
ATOM     11  C   UNL A   1      31.644  25.465  26.822  1.00  0.00     0.090 A 
ATOM     12  C   UNL A   1      33.209  23.950  26.243  1.00  0.00     0.048 A 
ATOM     13  C   UNL A   1      33.615  25.193  25.751  1.00  0.00     0.003 A 
ATOM     14  C   UNL A   1      33.986  22.790  26.084  1.00  0.00     0.027 A 
ATOM     15  C   UNL A   1      34.813  25.253  25.007  1.00  0.00     0.010 A 
ATOM     16  C   UNL A   1      35.202  22.899  25.404  1.00  0.00     0.002 A 
ATOM     17  C   UNL A   1      35.608  24.112  24.863  1.00  0.00     0.001 A 
ENDBRANCH   7   8
ENDBRANCH   6   7
BRANCH   6  18
ATOM     18  N   UNL A   1      34.334  29.066  24.669  1.00  0.00    -0.309 N 
ATOM     19  C   UNL A   1      34.303  28.636  23.383  1.00  0.00     0.407 C 
ATOM     20  H   UNL A   1      34.638  29.996  24.785  1.00  0.00     0.167 HD
ATOM     21  O   UNL A   1      35.203  28.950  22.606  1.00  0.00    -0.225 OA
BRANCH  19  22
ATOM     22  O   UNL A   1      33.233  27.868  23.061  1.00  0.00    -0.449 OA
BRANCH  22  23
ATOM     23  C   UNL A   1      33.487  26.804  22.111  1.00  0.00     0.248 C 
BRANCH  23  24
ATOM     24  C   UNL A   1      32.223  26.012  21.714  1.00  0.00     0.088 C 
ATOM     25  C   UNL A   1      32.243  24.577  22.232  1.00  0.00    -0.029 A 
ATOM     26  C   UNL A   1      30.945  26.547  22.341  1.00  0.00    -0.029 A 
ATOM     27  C   UNL A   1      33.093  23.542  21.871  1.00  0.00     0.005 A 
ATOM     28  C   UNL A   1      31.180  24.376  23.139  1.00  0.00    -0.014 A 
ATOM     29  C   UNL A   1      30.415  25.600  23.244  1.00  0.00    -0.014 A 
ATOM     30  C   UNL A   1      30.353  27.788  22.167  1.00  0.00     0.005 A 
ATOM     31  C   UNL A   1      32.876  22.286  22.439  1.00  0.00     0.000 A 
ATOM     32  C   UNL A   1      30.974  23.132  23.710  1.00  0.00     0.009 A 
ATOM     33  C   UNL A   1      29.334  25.928  24.044  1.00  0.00     0.009 A 
ATOM     34  C   UNL A   1      29.274  28.122  22.984  1.00  0.00     0.000 A 
ATOM     35  C   UNL A   1      31.829  22.083  23.354  1.00  0.00     0.001 A 
ATOM     36  C   UNL A   1      28.778  27.206  23.924  1.00  0.00     0.001 A 
ENDBRANCH  23  24
ENDBRANCH  22  23
ENDBRANCH  19  22
ENDBRANCH   6  18
ENDBRANCH   3   6
ENDBRANCH   1   2
BRANCH   1  37
ATOM     37  C   UNL A   1      31.525  31.839  26.863  1.00  0.00     0.042 C 
BRANCH  37  38
ATOM     38  C   UNL A   1      32.727  32.640  27.334  1.00  0.00     0.118 C 
BRANCH  38  39
ATOM     39  N   UNL A   1      32.410  34.044  27.576  1.00  0.00    -0.352 N 
ATOM     40  C   UNL A   1      32.967  34.917  28.478  1.00  0.00     0.251 C 
ATOM     41  H   UNL A   1      31.697  34.419  27.012  1.00  0.00     0.163 HD
ATOM     42  O   UNL A   1      32.476  36.026  28.656  1.00  0.00    -0.269 OA
BRANCH  40  43
ATOM     43  C   UNL A   1      34.148  34.490  29.251  1.00  0.00     0.039 A 
ATOM     44  C   UNL A   1      33.965  33.865  30.486  1.00  0.00     0.014 A 
ATOM     45  C   UNL A   1      35.429  34.669  28.726  1.00  0.00     0.014 A 
ATOM     46  C   UNL A   1      35.070  33.346  31.161  1.00  0.00     0.010 A 
ATOM     47  C   UNL A   1      36.515  34.076  29.354  1.00  0.00     0.010 A 
ATOM     48  C   UNL A   1      36.346  33.412  30.580  1.00  0.00    -0.014 A 
BRANCH  48  49
ATOM     49  C   UNL A   1      37.532  32.811  31.232  1.00  0.00     0.031 A 
ATOM     50  C   UNL A   1      38.207  31.631  30.596  1.00  0.00     0.074 A 
ATOM     51  C   UNL A   1      37.934  33.262  32.435  1.00  0.00     0.049 A 
ATOM     52  N   UNL A   1      39.168  30.876  31.064  1.00  0.00    -0.248 NA
ATOM     53  C   UNL A   1      37.708  31.217  29.274  1.00  0.00     0.031 C 
ATOM     54  C   UNL A   1      37.322  34.364  33.180  1.00  0.00     0.029 A 
ATOM     55  N   UNL A   1      38.951  32.834  33.250  1.00  0.00    -0.354 N 
ATOM     56  C   UNL A   1      39.358  29.881  30.116  1.00  0.00     0.074 A 
ATOM     57  C   UNL A   1      38.390  30.102  29.064  1.00  0.00     0.031 C 
ATOM     58  C   UNL A   1      37.991  34.542  34.331  1.00  0.00     0.029 A 
ATOM     59  C   UNL A   1      39.055  33.547  34.419  1.00  0.00     0.049 A 
ATOM     60  H   UNL A   1      39.550  32.088  33.019  1.00  0.00     0.167 HD
ATOM     61  C   UNL A   1      40.272  28.882  30.112  1.00  0.00     0.037 A 
ATOM     62  C   UNL A   1      39.913  33.409  35.446  1.00  0.00     0.037 A 
ATOM     63  C   UNL A   1      41.274  28.702  31.127  1.00  0.00     0.049 A 
ATOM     64  C   UNL A   1      40.954  32.327  35.393  1.00  0.00     0.074 A 
ATOM     65  C   UNL A   1      42.301  27.777  31.172  1.00  0.00     0.029 A 
ATOM     66  N   UNL A   1      41.378  29.477  32.272  1.00  0.00    -0.354 N 
ATOM     67  N   UNL A   1      41.159  31.426  34.464  1.00  0.00    -0.248 NA
ATOM     68  C   UNL A   1      41.882  32.243  36.530  1.00  0.00     0.031 C 
ATOM     69  C   UNL A   1      43.017  27.980  32.357  1.00  0.00     0.029 A 
ATOM     70  C   UNL A   1      42.450  29.047  33.035  1.00  0.00     0.049 A 
ATOM     71  H   UNL A   1      40.779  30.223  32.507  1.00  0.00     0.167 HD
ATOM     72  C   UNL A   1      42.251  30.683  34.890  1.00  0.00     0.074 A 
ATOM     73  C   UNL A   1      42.670  31.244  36.159  1.00  0.00     0.031 C 
ATOM     74  C   UNL A   1      42.853  29.630  34.288  1.00  0.00     0.037 A 
BRANCH  61  75
ATOM     75  C   UNL A   1      40.230  27.919  28.965  1.00  0.00     0.057 A 
ATOM     76  C   UNL A   1      39.485  26.734  29.025  1.00  0.00     0.134 A 
ATOM     77  C   UNL A   1      40.933  28.184  27.784  1.00  0.00     0.134 A 
ATOM     78  F   UNL A   1      38.804  26.415  30.136  1.00  0.00    -0.206 F 
ATOM     79  C   UNL A   1      39.463  25.832  27.960  1.00  0.00     0.040 A 
ATOM     80  C   UNL A   1      40.900  27.300  26.704  1.00  0.00     0.040 A 
ATOM     81  F   UNL A   1      41.665  29.301  27.662  1.00  0.00    -0.206 F 
ATOM     82  C   UNL A   1      40.168  26.118  26.792  1.00  0.00     0.006 A 
ENDBRANCH  61  75
BRANCH  62  83
ATOM     83  C   UNL A   1      39.852  34.344  36.594  1.00  0.00     0.057 A 
ATOM     84  C   UNL A   1      39.131  34.013  37.747  1.00  0.00     0.134 A 
ATOM     85  C   UNL A   1      40.507  35.579  36.573  1.00  0.00     0.134 A 
ATOM     86  F   UNL A   1      38.469  32.849  37.817  1.00  0.00    -0.206 F 
ATOM     87  C   UNL A   1      39.052  34.883  38.835  1.00  0.00     0.040 A 
ATOM     88  C   UNL A   1      40.452  36.453  37.661  1.00  0.00     0.040 A 
ATOM     89  F   UNL A   1      41.220  35.949  35.499  1.00  0.00    -0.206 F 
ATOM     90  C   UNL A   1      39.717  36.107  38.794  1.00  0.00     0.006 A 
ENDBRANCH  62  83
BRANCH  74  91
ATOM     91  C   UNL A   1      44.045  29.041  34.977  1.00  0.00     0.057 A 
ATOM     92  C   UNL A   1      45.339  29.507  34.727  1.00  0.00     0.134 A 
ATOM     93  C   UNL A   1      43.887  28.029  35.931  1.00  0.00     0.134 A 
ATOM     94  F   UNL A   1      45.553  30.466  33.814  1.00  0.00    -0.206 F 
ATOM     95  C   UNL A   1      46.443  28.975  35.394  1.00  0.00     0.040 A 
ATOM     96  C   UNL A   1      44.981  27.502  36.617  1.00  0.00     0.040 A 
ATOM     97  F   UNL A   1      42.668  27.546  36.217  1.00  0.00    -0.206 F 
ATOM     98  C   UNL A   1      46.264  27.973  36.347  1.00  0.00     0.006 A 
ENDBRANCH  74  91
ENDBRANCH  48  49
ENDBRANCH  40  43
ENDBRANCH  38  39
ENDBRANCH  37  38
ENDBRANCH   1  37
TORSDOF 16
ENDMDL
MODEL 3
REMARK VINA RESULT:     -12.6      2.070      7.107
REMARK SMILES Cn1cc(C[C@@H](NC(=O)OCC2c3ccccc3-c3ccccc32)C(=O)NCCCNC(=O)c2ccc(-c3c4nc(c(-c5c(F)cccc5F)c5ccc([nH]5)c(-c5c(F)cccc5F)c5nc(c(-c6c(F)cccc6F)c6ccc3[nH]6)C=C5)C=C4)cc2)c2ccccc21
REMARK SMILES IDX 28 1 27 2 25 3 26 4 6 6 5 7 4 8 1 9 2 10 3 11 93 12 88 13
REMARK SMILES IDX 92 14 89 15 91 16 90 17 7 18 8 19 9 21 10 22 11 23 12 24
REMARK SMILES IDX 13 25 24 26 14 27 18 28 19 29 23 30 15 31 17 32 20 33 22 34
REMARK SMILES IDX 16 35 21 36 29 37 30 38 31 39 32 40 33 42 34 43 35 44 87 45
REMARK SMILES IDX 36 46 86 47 37 48 38 49 39 50 80 51 40 52 85 53 79 54 81 55
REMARK SMILES IDX 41 56 84 57 78 58 77 59 42 61 68 62 51 63 67 64 52 65 55 66
REMARK SMILES IDX 66 67 82 68 53 69 54 70 65 72 83 73 56 74 43 75 44 76 49 77
REMARK SMILES IDX 45 78 46 79 48 80 50 81 47 82 69 83 70 84 75 85 71 86 72 87
REMARK SMILES IDX 74 88 76 89 73 90 57 91 58 92 63 93 59 94 60 95 62 96 64 97
REMARK SMILES IDX 61 98
REMARK H PARENT 27 5 7 20 31 41 81 60 55 71
REMARK Flexibility Score: inf
ROOT
ATOM      1  C   UNL A   1      31.795  29.295  27.066  1.00  0.00     0.117 C 
ENDROOT
BRANCH   1   2
ATOM      2  N   UNL A   1      32.771  28.436  26.415  1.00  0.00    -0.354 N 
ATOM      3  C   UNL A   1      32.607  27.210  25.827  1.00  0.00     0.243 C 
ATOM      4  O   UNL A   1      33.600  26.692  25.308  1.00  0.00    -0.273 OA
ATOM      5  H   UNL A   1      33.689  28.789  26.395  1.00  0.00     0.163 HD
BRANCH   3   6
ATOM      6  C   UNL A   1      31.274  26.443  25.943  1.00  0.00     0.179 C 
BRANCH   6   7
ATOM      7  C   UNL A   1      30.804  26.091  24.506  1.00  0.00     0.073 C 
BRANCH   7   8
ATOM      8  C   UNL A   1      29.648  26.883  23.960  1.00  0.00    -0.020 A 
ATOM      9  C   UNL A   1      26.133  27.749  23.742  1.00  0.00     0.149 C 
ATOM     10  N   UNL A   1      27.566  27.605  23.605  1.00  0.00    -0.350 N 
ATOM     11  C   UNL A   1      28.311  26.614  24.184  1.00  0.00     0.090 A 
ATOM     12  C   UNL A   1      28.383  28.486  22.932  1.00  0.00     0.048 A 
ATOM     13  C   UNL A   1      29.698  28.102  23.203  1.00  0.00     0.003 A 
ATOM     14  C   UNL A   1      28.075  29.602  22.135  1.00  0.00     0.027 A 
ATOM     15  C   UNL A   1      30.741  28.918  22.715  1.00  0.00     0.010 A 
ATOM     16  C   UNL A   1      29.133  30.347  21.608  1.00  0.00     0.002 A 
ATOM     17  C   UNL A   1      30.451  30.018  21.901  1.00  0.00     0.001 A 
ENDBRANCH   7   8
ENDBRANCH   6   7
BRANCH   6  18
ATOM     18  N   UNL A   1      31.221  25.310  26.874  1.00  0.00    -0.309 N 
ATOM     19  C   UNL A   1      31.178  23.975  26.636  1.00  0.00     0.407 C 
ATOM     20  H   UNL A   1      31.213  25.559  27.827  1.00  0.00     0.167 HD
ATOM     21  O   UNL A   1      30.458  23.250  27.319  1.00  0.00    -0.225 OA
BRANCH  19  22
ATOM     22  O   UNL A   1      31.973  23.547  25.624  1.00  0.00    -0.449 OA
BRANCH  22  23
ATOM     23  C   UNL A   1      32.438  22.179  25.726  1.00  0.00     0.248 C 
BRANCH  23  24
ATOM     24  C   UNL A   1      33.349  21.744  24.560  1.00  0.00     0.088 C 
ATOM     25  C   UNL A   1      34.821  22.049  24.820  1.00  0.00    -0.029 A 
ATOM     26  C   UNL A   1      33.383  20.239  24.338  1.00  0.00    -0.029 A 
ATOM     27  C   UNL A   1      35.436  23.287  24.934  1.00  0.00     0.005 A 
ATOM     28  C   UNL A   1      35.563  20.850  24.867  1.00  0.00    -0.014 A 
ATOM     29  C   UNL A   1      34.670  19.737  24.622  1.00  0.00    -0.014 A 
ATOM     30  C   UNL A   1      32.342  19.397  23.981  1.00  0.00     0.005 A 
ATOM     31  C   UNL A   1      36.821  23.318  25.111  1.00  0.00     0.000 A 
ATOM     32  C   UNL A   1      36.935  20.882  25.053  1.00  0.00     0.009 A 
ATOM     33  C   UNL A   1      34.900  18.372  24.634  1.00  0.00     0.009 A 
ATOM     34  C   UNL A   1      32.570  18.022  24.008  1.00  0.00     0.000 A 
ATOM     35  C   UNL A   1      37.563  22.127  25.174  1.00  0.00     0.001 A 
ATOM     36  C   UNL A   1      33.834  17.513  24.345  1.00  0.00     0.001 A 
ENDBRANCH  23  24
ENDBRANCH  22  23
ENDBRANCH  19  22
ENDBRANCH   6  18
ENDBRANCH   3   6
ENDBRANCH   1   2
BRANCH   1  37
ATOM     37  C   UNL A   1      31.760  30.690  26.473  1.00  0.00     0.042 C 
BRANCH  37  38
ATOM     38  C   UNL A   1      32.915  31.557  26.946  1.00  0.00     0.118 C 
BRANCH  38  39
ATOM     39  N   UNL A   1      32.498  32.912  27.291  1.00  0.00    -0.352 N 
ATOM     40  C   UNL A   1      33.083  33.808  28.152  1.00  0.00     0.251 C 
ATOM     41  H   UNL A   1      31.683  33.231  26.841  1.00  0.00     0.163 HD
ATOM     42  O   UNL A   1      32.514  34.855  28.442  1.00  0.00    -0.269 OA
BRANCH  40  43
ATOM     43  C   UNL A   1      34.393  33.480  28.745  1.00  0.00     0.039 A 
ATOM     44  C   UNL A   1      34.438  32.754  29.937  1.00  0.00     0.014 A 
ATOM     45  C   UNL A   1      35.569  33.853  28.092  1.00  0.00     0.014 A 
ATOM     46  C   UNL A   1      35.671  32.332  30.434  1.00  0.00     0.010 A 
ATOM     47  C   UNL A   1      36.786  33.358  28.539  1.00  0.00     0.010 A 
ATOM     48  C   UNL A   1      36.848  32.596  29.717  1.00  0.00    -0.014 A 
BRANCH  48  49
ATOM     49  C   UNL A   1      38.168  32.103  30.175  1.00  0.00     0.031 A 
ATOM     50  C   UNL A   1      38.716  30.824  29.614  1.00  0.00     0.074 A 
ATOM     51  C   UNL A   1      38.818  32.751  31.160  1.00  0.00     0.049 A 
ATOM     52  N   UNL A   1      39.779  30.151  29.973  1.00  0.00    -0.248 NA
ATOM     53  C   UNL A   1      37.943  30.193  28.531  1.00  0.00     0.031 C 
ATOM     54  C   UNL A   1      38.358  33.973  31.825  1.00  0.00     0.029 A 
ATOM     55  N   UNL A   1      40.004  32.460  31.784  1.00  0.00    -0.354 N 
ATOM     56  C   UNL A   1      39.779  29.004  29.191  1.00  0.00     0.074 A 
ATOM     57  C   UNL A   1      38.592  29.051  28.365  1.00  0.00     0.031 C 
ATOM     58  C   UNL A   1      39.265  34.340  32.745  1.00  0.00     0.029 A 
ATOM     59  C   UNL A   1      40.349  33.364  32.759  1.00  0.00     0.049 A 
ATOM     60  H   UNL A   1      40.557  31.679  31.553  1.00  0.00     0.167 HD
ATOM     61  C   UNL A   1      40.697  28.010  29.150  1.00  0.00     0.037 A 
ATOM     62  C   UNL A   1      41.421  33.396  33.572  1.00  0.00     0.037 A 
ATOM     63  C   UNL A   1      41.906  27.998  29.927  1.00  0.00     0.049 A 
ATOM     64  C   UNL A   1      42.453  32.309  33.469  1.00  0.00     0.074 A 
ATOM     65  C   UNL A   1      42.943  27.084  29.895  1.00  0.00     0.029 A 
ATOM     66  N   UNL A   1      42.244  28.959  30.868  1.00  0.00    -0.354 N 
ATOM     67  N   UNL A   1      42.469  31.259  32.686  1.00  0.00    -0.248 NA
ATOM     68  C   UNL A   1      43.615  32.414  34.363  1.00  0.00     0.031 C 
ATOM     69  C   UNL A   1      43.903  27.481  30.833  1.00  0.00     0.029 A 
ATOM     70  C   UNL A   1      43.472  28.655  31.429  1.00  0.00     0.049 A 
ATOM     71  H   UNL A   1      41.692  29.740  31.102  1.00  0.00     0.167 HD
ATOM     72  C   UNL A   1      43.650  30.589  32.974  1.00  0.00     0.074 A 
ATOM     73  C   UNL A   1      44.328  31.357  33.999  1.00  0.00     0.031 C 
ATOM     74  C   UNL A   1      44.131  29.441  32.439  1.00  0.00     0.037 A 
BRANCH  61  75
ATOM     75  C   UNL A   1      40.424  26.864  28.226  1.00  0.00     0.057 A 
ATOM     76  C   UNL A   1      41.029  26.774  26.966  1.00  0.00     0.134 A 
ATOM     77  C   UNL A   1      39.555  25.833  28.603  1.00  0.00     0.134 A 
ATOM     78  F   UNL A   1      41.858  27.738  26.539  1.00  0.00    -0.206 F 
ATOM     79  C   UNL A   1      40.758  25.711  26.101  1.00  0.00     0.040 A 
ATOM     80  C   UNL A   1      39.294  24.755  27.757  1.00  0.00     0.040 A 
ATOM     81  F   UNL A   1      38.943  25.860  29.796  1.00  0.00    -0.206 F 
ATOM     82  C   UNL A   1      39.892  24.695  26.499  1.00  0.00     0.006 A 
ENDBRANCH  61  75
BRANCH  62  83
ATOM     83  C   UNL A   1      41.593  34.517  34.526  1.00  0.00     0.057 A 
ATOM     84  C   UNL A   1      41.153  34.401  35.850  1.00  0.00     0.134 A 
ATOM     85  C   UNL A   1      42.198  35.719  34.148  1.00  0.00     0.134 A 
ATOM     86  F   UNL A   1      40.551  33.277  36.265  1.00  0.00    -0.206 F 
ATOM     87  C   UNL A   1      41.297  35.447  36.762  1.00  0.00     0.040 A 
ATOM     88  C   UNL A   1      42.364  36.768  35.054  1.00  0.00     0.040 A 
ATOM     89  F   UNL A   1      42.646  35.887  32.895  1.00  0.00    -0.206 F 
ATOM     90  C   UNL A   1      41.907  36.635  36.364  1.00  0.00     0.006 A 
ENDBRANCH  62  83
BRANCH  74  91
ATOM     91  C   UNL A   1      45.464  28.968  32.930  1.00  0.00     0.057 A 
ATOM     92  C   UNL A   1      46.656  29.399  32.340  1.00  0.00     0.134 A 
ATOM     93  C   UNL A   1      45.552  28.108  34.031  1.00  0.00     0.134 A 
ATOM     94  F   UNL A   1      46.633  30.214  31.275  1.00  0.00    -0.206 F 
ATOM     95  C   UNL A   1      47.897  28.977  32.820  1.00  0.00     0.040 A 
ATOM     96  C   UNL A   1      46.787  27.693  34.531  1.00  0.00     0.040 A 
ATOM     97  F   UNL A   1      44.442  27.665  34.641  1.00  0.00    -0.206 F 
ATOM     98  C   UNL A   1      47.964  28.127  33.923  1.00  0.00     0.006 A 
ENDBRANCH  74  91
ENDBRANCH  48  49
ENDBRANCH  40  43
ENDBRANCH  38  39
ENDBRANCH  37  38
ENDBRANCH   1  37
TORSDOF 16
ENDMDL
