MODEL 1
REMARK VINA RESULT:     -12.3      0.000      0.000
REMARK SMILES O=C(NCCCNC(=O)c1ccc2nc(C3CCCCC3)[nH]c2c1)c1ccc(-c2c3nc(c(-c4c(F)cccc4F)c4ccc([nH]4)c(-c4c(F)cccc4F)c4nc(c(-c5c(F)cccc5F)c5ccc2[nH]5)C=C4)C=C3)cc1
REMARK SMILES IDX 4 1 3 2 1 3 2 4 25 6 26 7 78 8 27 9 77 10 28 11 29 12 30 13
REMARK SMILES IDX 71 14 31 15 76 16 70 17 72 18 32 19 75 20 69 21 68 22 33 24
REMARK SMILES IDX 59 25 42 26 58 27 43 28 46 29 57 30 73 31 44 32 45 33 56 35
REMARK SMILES IDX 74 36 47 37 34 38 35 39 40 40 36 41 37 42 39 43 41 44 38 45
REMARK SMILES IDX 60 46 61 47 66 48 62 49 63 50 65 51 67 52 64 53 48 54 49 55
REMARK SMILES IDX 54 56 50 57 51 58 53 59 55 60 52 61 5 62 6 63 7 64 8 65 9 67
REMARK SMILES IDX 10 68 11 69 24 70 12 71 23 72 13 73 22 74 14 75 15 76 16 78
REMARK SMILES IDX 17 79 21 80 18 81 20 82 19 83
REMARK H PARENT 3 5 72 23 46 34 7 66 22 77
REMARK Flexibility Score: inf
ROOT
ATOM      1  C   UNL A   1      38.560  20.158  25.493  1.00  0.00     0.118 C 
ENDROOT
BRANCH   1   2
ATOM      2  N   UNL A   1      39.691  19.251  25.639  1.00  0.00    -0.352 N 
ATOM      3  O   UNL A   1      41.830  18.606  25.853  1.00  0.00    -0.269 OA
ATOM      4  C   UNL A   1      40.990  19.489  26.006  1.00  0.00     0.251 C 
ATOM      5  H   UNL A   1      39.486  18.308  25.442  1.00  0.00     0.163 HD
BRANCH   4   6
ATOM      6  C   UNL A   1      41.397  20.795  26.568  1.00  0.00     0.039 A 
ATOM      7  C   UNL A   1      41.416  21.021  27.946  1.00  0.00     0.014 A 
ATOM      8  C   UNL A   1      41.834  21.794  25.691  1.00  0.00     0.014 A 
ATOM      9  C   UNL A   1      41.745  22.280  28.442  1.00  0.00     0.010 A 
ATOM     10  C   UNL A   1      42.239  23.032  26.195  1.00  0.00     0.010 A 
ATOM     11  C   UNL A   1      42.172  23.293  27.572  1.00  0.00    -0.014 A 
BRANCH  11  12
ATOM     12  C   UNL A   1      42.594  24.610  28.105  1.00  0.00     0.031 A 
ATOM     13  C   UNL A   1      41.582  25.685  28.378  1.00  0.00     0.074 A 
ATOM     14  C   UNL A   1      43.903  24.849  28.309  1.00  0.00     0.049 A 
ATOM     15  N   UNL A   1      41.773  26.925  28.750  1.00  0.00    -0.248 NA
ATOM     16  C   UNL A   1      40.169  25.321  28.196  1.00  0.00     0.031 C 
ATOM     17  C   UNL A   1      44.981  23.884  28.077  1.00  0.00     0.029 A 
ATOM     18  N   UNL A   1      44.552  25.976  28.742  1.00  0.00    -0.354 N 
ATOM     19  C   UNL A   1      40.510  27.497  28.822  1.00  0.00     0.074 A 
ATOM     20  C   UNL A   1      39.561  26.475  28.434  1.00  0.00     0.031 C 
ATOM     21  C   UNL A   1      46.155  24.459  28.374  1.00  0.00     0.029 A 
ATOM     22  C   UNL A   1      45.918  25.847  28.760  1.00  0.00     0.049 A 
ATOM     23  H   UNL A   1      44.083  26.798  29.013  1.00  0.00     0.167 HD
ATOM     24  C   UNL A   1      40.175  28.760  29.182  1.00  0.00     0.037 A 
ATOM     25  C   UNL A   1      46.879  26.751  29.023  1.00  0.00     0.037 A 
ATOM     26  C   UNL A   1      41.125  29.768  29.576  1.00  0.00     0.049 A 
ATOM     27  C   UNL A   1      46.488  28.153  29.387  1.00  0.00     0.074 A 
ATOM     28  C   UNL A   1      40.883  31.064  30.001  1.00  0.00     0.029 A 
ATOM     29  N   UNL A   1      42.501  29.596  29.586  1.00  0.00    -0.354 N 
ATOM     30  N   UNL A   1      45.289  28.673  29.485  1.00  0.00    -0.248 NA
ATOM     31  C   UNL A   1      47.579  29.093  29.676  1.00  0.00     0.031 C 
ATOM     32  C   UNL A   1      42.114  31.689  30.222  1.00  0.00     0.029 A 
ATOM     33  C   UNL A   1      43.123  30.768  29.984  1.00  0.00     0.049 A 
ATOM     34  H   UNL A   1      42.969  28.764  29.345  1.00  0.00     0.167 HD
ATOM     35  C   UNL A   1      45.478  29.993  29.870  1.00  0.00     0.074 A 
ATOM     36  C   UNL A   1      46.908  30.194  29.990  1.00  0.00     0.031 C 
ATOM     37  C   UNL A   1      44.548  30.949  30.107  1.00  0.00     0.037 A 
BRANCH  24  38
ATOM     38  C   UNL A   1      38.721  29.129  29.132  1.00  0.00     0.057 A 
ATOM     39  C   UNL A   1      37.894  29.051  30.261  1.00  0.00     0.134 A 
ATOM     40  C   UNL A   1      38.143  29.583  27.940  1.00  0.00     0.134 A 
ATOM     41  F   UNL A   1      38.381  28.612  31.431  1.00  0.00    -0.206 F 
ATOM     42  C   UNL A   1      36.538  29.381  30.198  1.00  0.00     0.040 A 
ATOM     43  C   UNL A   1      36.794  29.941  27.870  1.00  0.00     0.040 A 
ATOM     44  F   UNL A   1      38.878  29.690  26.823  1.00  0.00    -0.206 F 
ATOM     45  C   UNL A   1      35.987  29.831  29.000  1.00  0.00     0.006 A 
ENDBRANCH  24  38
BRANCH  25  46
ATOM     46  C   UNL A   1      48.301  26.342  28.932  1.00  0.00     0.057 A 
ATOM     47  C   UNL A   1      48.949  25.733  30.011  1.00  0.00     0.134 A 
ATOM     48  C   UNL A   1      49.027  26.500  27.744  1.00  0.00     0.134 A 
ATOM     49  F   UNL A   1      48.306  25.567  31.177  1.00  0.00    -0.206 F 
ATOM     50  C   UNL A   1      50.269  25.292  29.913  1.00  0.00     0.040 A 
ATOM     51  C   UNL A   1      50.341  26.044  27.627  1.00  0.00     0.040 A 
ATOM     52  F   UNL A   1      48.457  27.069  26.672  1.00  0.00    -0.206 F 
ATOM     53  C   UNL A   1      50.965  25.438  28.715  1.00  0.00     0.006 A 
ENDBRANCH  25  46
BRANCH  37  54
ATOM     54  C   UNL A   1      45.039  32.291  30.561  1.00  0.00     0.057 A 
ATOM     55  C   UNL A   1      45.299  33.327  29.657  1.00  0.00     0.134 A 
ATOM     56  C   UNL A   1      45.188  32.567  31.926  1.00  0.00     0.134 A 
ATOM     57  F   UNL A   1      45.188  33.123  28.336  1.00  0.00    -0.206 F 
ATOM     58  C   UNL A   1      45.699  34.591  30.096  1.00  0.00     0.040 A 
ATOM     59  C   UNL A   1      45.567  33.831  32.378  1.00  0.00     0.040 A 
ATOM     60  F   UNL A   1      44.948  31.616  32.842  1.00  0.00    -0.206 F 
ATOM     61  C   UNL A   1      45.825  34.848  31.461  1.00  0.00     0.006 A 
ENDBRANCH  37  54
ENDBRANCH  11  12
ENDBRANCH   4   6
ENDBRANCH   1   2
BRANCH   1  62
ATOM     62  C   UNL A   1      37.327  19.466  24.926  1.00  0.00     0.042 C 
BRANCH  62  63
ATOM     63  C   UNL A   1      36.051  20.294  25.019  1.00  0.00     0.118 C 
BRANCH  63  64
ATOM     64  N   UNL A   1      34.860  19.463  25.128  1.00  0.00    -0.352 N 
ATOM     65  C   UNL A   1      33.538  19.827  25.110  1.00  0.00     0.251 C 
ATOM     66  H   UNL A   1      35.029  18.499  25.228  1.00  0.00     0.163 HD
ATOM     67  O   UNL A   1      32.671  19.016  25.427  1.00  0.00    -0.269 OA
BRANCH  65  68
ATOM     68  C   UNL A   1      33.156  21.204  24.742  1.00  0.00     0.042 A 
ATOM     69  C   UNL A   1      32.772  21.507  23.428  1.00  0.00     0.016 A 
ATOM     70  C   UNL A   1      33.166  22.180  25.749  1.00  0.00     0.042 A 
ATOM     71  C   UNL A   1      32.480  22.825  23.057  1.00  0.00     0.031 A 
ATOM     72  C   UNL A   1      32.858  23.481  25.347  1.00  0.00     0.066 A 
ATOM     73  C   UNL A   1      32.539  23.824  24.038  1.00  0.00     0.089 A 
ATOM     74  N   UNL A   1      32.782  24.664  26.033  1.00  0.00    -0.342 N 
ATOM     75  N   UNL A   1      32.317  25.171  23.926  1.00  0.00    -0.233 NA
ATOM     76  C   UNL A   1      32.470  25.661  25.140  1.00  0.00     0.110 A 
ATOM     77  H   UNL A   1      32.926  24.779  27.000  1.00  0.00     0.168 HD
BRANCH  76  78
ATOM     78  C   UNL A   1      32.301  27.095  25.538  1.00  0.00     0.055 C 
ATOM     79  C   UNL A   1      31.671  27.199  26.934  1.00  0.00     0.011 C 
ATOM     80  C   UNL A   1      33.625  27.871  25.458  1.00  0.00     0.011 C 
ATOM     81  C   UNL A   1      31.515  28.652  27.375  1.00  0.00     0.001 C 
ATOM     82  C   UNL A   1      33.456  29.319  25.909  1.00  0.00     0.001 C 
ATOM     83  C   UNL A   1      32.840  29.404  27.303  1.00  0.00     0.000 C 
ENDBRANCH  76  78
ENDBRANCH  65  68
ENDBRANCH  63  64
ENDBRANCH  62  63
ENDBRANCH   1  62
TORSDOF 11
ENDMDL
MODEL 2
REMARK VINA RESULT:     -12.1      4.324      9.522
REMARK SMILES O=C(NCCCNC(=O)c1ccc2nc(C3CCCCC3)[nH]c2c1)c1ccc(-c2c3nc(c(-c4c(F)cccc4F)c4ccc([nH]4)c(-c4c(F)cccc4F)c4nc(c(-c5c(F)cccc5F)c5ccc2[nH]5)C=C4)C=C3)cc1
REMARK SMILES IDX 4 1 3 2 1 3 2 4 25 6 26 7 78 8 27 9 77 10 28 11 29 12 30 13
REMARK SMILES IDX 71 14 31 15 76 16 70 17 72 18 32 19 75 20 69 21 68 22 33 24
REMARK SMILES IDX 59 25 42 26 58 27 43 28 46 29 57 30 73 31 44 32 45 33 56 35
REMARK SMILES IDX 74 36 47 37 34 38 35 39 40 40 36 41 37 42 39 43 41 44 38 45
REMARK SMILES IDX 60 46 61 47 66 48 62 49 63 50 65 51 67 52 64 53 48 54 49 55
REMARK SMILES IDX 54 56 50 57 51 58 53 59 55 60 52 61 5 62 6 63 7 64 8 65 9 67
REMARK SMILES IDX 10 68 11 69 24 70 12 71 23 72 13 73 22 74 14 75 15 76 16 78
REMARK SMILES IDX 17 79 21 80 18 81 20 82 19 83
REMARK H PARENT 3 5 72 23 46 34 7 66 22 77
REMARK Flexibility Score: inf
ROOT
ATOM      1  C   UNL A   1      34.542  32.685  28.603  1.00  0.00     0.118 C 
ENDROOT
BRANCH   1   2
ATOM      2  N   UNL A   1      33.864  31.469  28.175  1.00  0.00    -0.352 N 
ATOM      3  O   UNL A   1      33.625  29.413  27.305  1.00  0.00    -0.269 OA
ATOM      4  C   UNL A   1      34.360  30.233  27.849  1.00  0.00     0.251 C 
ATOM      5  H   UNL A   1      32.885  31.548  28.110  1.00  0.00     0.163 HD
BRANCH   4   6
ATOM      6  C   UNL A   1      35.769  29.879  28.128  1.00  0.00     0.039 A 
ATOM      7  C   UNL A   1      36.776  30.103  27.186  1.00  0.00     0.014 A 
ATOM      8  C   UNL A   1      36.094  29.372  29.390  1.00  0.00     0.014 A 
ATOM      9  C   UNL A   1      38.083  29.703  27.454  1.00  0.00     0.010 A 
ATOM     10  C   UNL A   1      37.419  29.044  29.687  1.00  0.00     0.010 A 
ATOM     11  C   UNL A   1      38.418  29.182  28.712  1.00  0.00    -0.014 A 
BRANCH  11  12
ATOM     12  C   UNL A   1      39.823  28.825  29.024  1.00  0.00     0.031 A 
ATOM     13  C   UNL A   1      40.731  29.812  29.698  1.00  0.00     0.074 A 
ATOM     14  C   UNL A   1      40.290  27.615  28.664  1.00  0.00     0.049 A 
ATOM     15  N   UNL A   1      42.009  29.713  29.961  1.00  0.00    -0.248 NA
ATOM     16  C   UNL A   1      40.125  31.083  30.122  1.00  0.00     0.031 C 
ATOM     17  C   UNL A   1      39.505  26.572  28.000  1.00  0.00     0.029 A 
ATOM     18  N   UNL A   1      41.539  27.062  28.791  1.00  0.00    -0.354 N 
ATOM     19  C   UNL A   1      42.367  30.917  30.556  1.00  0.00     0.074 A 
ATOM     20  C   UNL A   1      41.176  31.738  30.596  1.00  0.00     0.031 C 
ATOM     21  C   UNL A   1      40.287  25.506  27.782  1.00  0.00     0.029 A 
ATOM     22  C   UNL A   1      41.640  25.811  28.236  1.00  0.00     0.049 A 
ATOM     23  H   UNL A   1      42.289  27.519  29.235  1.00  0.00     0.167 HD
ATOM     24  C   UNL A   1      43.579  31.297  31.027  1.00  0.00     0.037 A 
ATOM     25  C   UNL A   1      42.709  25.008  28.077  1.00  0.00     0.037 A 
ATOM     26  C   UNL A   1      44.757  30.469  30.992  1.00  0.00     0.049 A 
ATOM     27  C   UNL A   1      44.048  25.462  28.576  1.00  0.00     0.074 A 
ATOM     28  C   UNL A   1      46.022  30.747  31.483  1.00  0.00     0.029 A 
ATOM     29  N   UNL A   1      44.818  29.205  30.426  1.00  0.00    -0.354 N 
ATOM     30  N   UNL A   1      44.368  26.588  29.168  1.00  0.00    -0.248 NA
ATOM     31  C   UNL A   1      45.176  24.540  28.386  1.00  0.00     0.031 C 
ATOM     32  C   UNL A   1      46.858  29.670  31.173  1.00  0.00     0.029 A 
ATOM     33  C   UNL A   1      46.103  28.699  30.533  1.00  0.00     0.049 A 
ATOM     34  H   UNL A   1      44.060  28.735  30.009  1.00  0.00     0.167 HD
ATOM     35  C   UNL A   1      45.725  26.501  29.443  1.00  0.00     0.074 A 
ATOM     36  C   UNL A   1      46.169  25.210  28.955  1.00  0.00     0.031 C 
ATOM     37  C   UNL A   1      46.527  27.408  30.050  1.00  0.00     0.037 A 
BRANCH  24  38
ATOM     38  C   UNL A   1      43.696  32.684  31.590  1.00  0.00     0.057 A 
ATOM     39  C   UNL A   1      44.042  33.784  30.793  1.00  0.00     0.134 A 
ATOM     40  C   UNL A   1      43.446  32.924  32.947  1.00  0.00     0.134 A 
ATOM     41  F   UNL A   1      44.306  33.622  29.488  1.00  0.00    -0.206 F 
ATOM     42  C   UNL A   1      44.164  35.067  31.333  1.00  0.00     0.040 A 
ATOM     43  C   UNL A   1      43.540  34.206  33.493  1.00  0.00     0.040 A 
ATOM     44  F   UNL A   1      43.104  31.918  33.765  1.00  0.00    -0.206 F 
ATOM     45  C   UNL A   1      43.908  35.280  32.686  1.00  0.00     0.006 A 
ENDBRANCH  24  38
BRANCH  25  46
ATOM     46  C   UNL A   1      42.536  23.701  27.400  1.00  0.00     0.057 A 
ATOM     47  C   UNL A   1      42.656  23.583  26.013  1.00  0.00     0.134 A 
ATOM     48  C   UNL A   1      42.305  22.530  28.134  1.00  0.00     0.134 A 
ATOM     49  F   UNL A   1      42.865  24.672  25.259  1.00  0.00    -0.206 F 
ATOM     50  C   UNL A   1      42.553  22.345  25.375  1.00  0.00     0.040 A 
ATOM     51  C   UNL A   1      42.222  21.284  27.511  1.00  0.00     0.040 A 
ATOM     52  F   UNL A   1      42.191  22.578  29.469  1.00  0.00    -0.206 F 
ATOM     53  C   UNL A   1      42.346  21.190  26.127  1.00  0.00     0.006 A 
ENDBRANCH  25  46
BRANCH  37  54
ATOM     54  C   UNL A   1      47.962  27.027  30.262  1.00  0.00     0.057 A 
ATOM     55  C   UNL A   1      48.369  26.260  31.360  1.00  0.00     0.134 A 
ATOM     56  C   UNL A   1      48.936  27.380  29.319  1.00  0.00     0.134 A 
ATOM     57  F   UNL A   1      47.487  25.903  32.304  1.00  0.00    -0.206 F 
ATOM     58  C   UNL A   1      49.698  25.862  31.515  1.00  0.00     0.040 A 
ATOM     59  C   UNL A   1      50.263  26.970  29.453  1.00  0.00     0.040 A 
ATOM     60  F   UNL A   1      48.607  28.110  28.242  1.00  0.00    -0.206 F 
ATOM     61  C   UNL A   1      50.647  26.210  30.555  1.00  0.00     0.006 A 
ENDBRANCH  37  54
ENDBRANCH  11  12
ENDBRANCH   4   6
ENDBRANCH   1   2
BRANCH   1  62
ATOM     62  C   UNL A   1      33.658  33.920  28.478  1.00  0.00     0.042 C 
BRANCH  62  63
ATOM     63  C   UNL A   1      34.059  35.067  29.397  1.00  0.00     0.118 C 
BRANCH  63  64
ATOM     64  N   UNL A   1      33.102  35.274  30.474  1.00  0.00    -0.352 N 
ATOM     65  C   UNL A   1      33.164  34.877  31.785  1.00  0.00     0.251 C 
ATOM     66  H   UNL A   1      32.291  35.773  30.224  1.00  0.00     0.163 HD
ATOM     67  O   UNL A   1      32.168  34.955  32.501  1.00  0.00    -0.269 OA
BRANCH  65  68
ATOM     68  C   UNL A   1      34.419  34.324  32.330  1.00  0.00     0.042 A 
ATOM     69  C   UNL A   1      35.389  35.174  32.879  1.00  0.00     0.016 A 
ATOM     70  C   UNL A   1      34.591  32.933  32.302  1.00  0.00     0.042 A 
ATOM     71  C   UNL A   1      36.612  34.662  33.330  1.00  0.00     0.031 A 
ATOM     72  C   UNL A   1      35.815  32.455  32.770  1.00  0.00     0.066 A 
ATOM     73  C   UNL A   1      36.823  33.278  33.259  1.00  0.00     0.089 A 
ATOM     74  N   UNL A   1      36.330  31.191  32.882  1.00  0.00    -0.342 N 
ATOM     75  N   UNL A   1      37.924  32.544  33.615  1.00  0.00    -0.233 NA
ATOM     76  C   UNL A   1      37.609  31.287  33.378  1.00  0.00     0.110 A 
ATOM     77  H   UNL A   1      35.864  30.356  32.645  1.00  0.00     0.168 HD
BRANCH  76  78
ATOM     78  C   UNL A   1      38.480  30.096  33.636  1.00  0.00     0.055 C 
ATOM     79  C   UNL A   1      38.252  29.016  32.570  1.00  0.00     0.011 C 
ATOM     80  C   UNL A   1      39.964  30.485  33.737  1.00  0.00     0.011 C 
ATOM     81  C   UNL A   1      39.150  27.804  32.795  1.00  0.00     0.001 C 
ATOM     82  C   UNL A   1      40.852  29.262  33.953  1.00  0.00     0.001 C 
ATOM     83  C   UNL A   1      40.620  28.204  32.878  1.00  0.00     0.000 C 
ENDBRANCH  76  78
ENDBRANCH  65  68
ENDBRANCH  63  64
ENDBRANCH  62  63
ENDBRANCH   1  62
TORSDOF 11
ENDMDL
MODEL 3
REMARK VINA RESULT:     -12.1      4.294      9.286
REMARK SMILES O=C(NCCCNC(=O)c1ccc2nc(C3CCCCC3)[nH]c2c1)c1ccc(-c2c3nc(c(-c4c(F)cccc4F)c4ccc([nH]4)c(-c4c(F)cccc4F)c4nc(c(-c5c(F)cccc5F)c5ccc2[nH]5)C=C4)C=C3)cc1
REMARK SMILES IDX 4 1 3 2 1 3 2 4 25 6 26 7 78 8 27 9 77 10 28 11 29 12 30 13
REMARK SMILES IDX 71 14 31 15 76 16 70 17 72 18 32 19 75 20 69 21 68 22 33 24
REMARK SMILES IDX 59 25 42 26 58 27 43 28 46 29 57 30 73 31 44 32 45 33 56 35
REMARK SMILES IDX 74 36 47 37 34 38 35 39 40 40 36 41 37 42 39 43 41 44 38 45
REMARK SMILES IDX 60 46 61 47 66 48 62 49 63 50 65 51 67 52 64 53 48 54 49 55
REMARK SMILES IDX 54 56 50 57 51 58 53 59 55 60 52 61 5 62 6 63 7 64 8 65 9 67
REMARK SMILES IDX 10 68 11 69 24 70 12 71 23 72 13 73 22 74 14 75 15 76 16 78
REMARK SMILES IDX 17 79 21 80 18 81 20 82 19 83
REMARK H PARENT 3 5 72 23 46 34 7 66 22 77
REMARK Flexibility Score: inf
ROOT
ATOM      1  C   UNL A   1      32.199  32.005  26.934  1.00  0.00     0.118 C 
ENDROOT
BRANCH   1   2
ATOM      2  N   UNL A   1      32.121  33.414  27.295  1.00  0.00    -0.352 N 
ATOM      3  O   UNL A   1      32.535  35.295  28.448  1.00  0.00    -0.269 OA
ATOM      4  C   UNL A   1      32.912  34.174  28.117  1.00  0.00     0.251 C 
ATOM      5  H   UNL A   1      31.375  33.902  26.877  1.00  0.00     0.163 HD
BRANCH   4   6
ATOM      6  C   UNL A   1      34.204  33.659  28.621  1.00  0.00     0.039 A 
ATOM      7  C   UNL A   1      35.417  34.053  28.051  1.00  0.00     0.014 A 
ATOM      8  C   UNL A   1      34.199  32.816  29.737  1.00  0.00     0.014 A 
ATOM      9  C   UNL A   1      36.613  33.504  28.508  1.00  0.00     0.010 A 
ATOM     10  C   UNL A   1      35.404  32.328  30.245  1.00  0.00     0.010 A 
ATOM     11  C   UNL A   1      36.619  32.647  29.617  1.00  0.00    -0.014 A 
BRANCH  11  12
ATOM     12  C   UNL A   1      37.898  32.121  30.152  1.00  0.00     0.031 A 
ATOM     13  C   UNL A   1      38.508  30.873  29.584  1.00  0.00     0.074 A 
ATOM     14  C   UNL A   1      38.491  32.755  31.180  1.00  0.00     0.049 A 
ATOM     15  N   UNL A   1      39.565  30.214  29.986  1.00  0.00    -0.248 NA
ATOM     16  C   UNL A   1      37.836  30.281  28.418  1.00  0.00     0.031 C 
ATOM     17  C   UNL A   1      37.991  33.975  31.819  1.00  0.00     0.029 A 
ATOM     18  N   UNL A   1      39.632  32.457  31.879  1.00  0.00    -0.354 N 
ATOM     19  C   UNL A   1      39.670  29.116  29.141  1.00  0.00     0.074 A 
ATOM     20  C   UNL A   1      38.557  29.187  28.217  1.00  0.00     0.031 C 
ATOM     21  C   UNL A   1      38.822  34.322  32.811  1.00  0.00     0.029 A 
ATOM     22  C   UNL A   1      39.879  33.321  32.916  1.00  0.00     0.049 A 
ATOM     23  H   UNL A   1      40.217  31.696  31.658  1.00  0.00     0.167 HD
ATOM     24  C   UNL A   1      40.611  28.142  29.137  1.00  0.00     0.037 A 
ATOM     25  C   UNL A   1      40.828  33.295  33.870  1.00  0.00     0.037 A 
ATOM     26  C   UNL A   1      41.721  28.084  30.053  1.00  0.00     0.049 A 
ATOM     27  C   UNL A   1      41.841  32.189  33.867  1.00  0.00     0.074 A 
ATOM     28  C   UNL A   1      42.752  27.162  30.103  1.00  0.00     0.029 A 
ATOM     29  N   UNL A   1      41.938  28.982  31.088  1.00  0.00    -0.354 N 
ATOM     30  N   UNL A   1      41.951  31.175  33.043  1.00  0.00    -0.248 NA
ATOM     31  C   UNL A   1      42.860  32.219  34.925  1.00  0.00     0.031 C 
ATOM     32  C   UNL A   1      43.567  27.475  31.195  1.00  0.00     0.029 A 
ATOM     33  C   UNL A   1      43.072  28.622  31.797  1.00  0.00     0.049 A 
ATOM     34  H   UNL A   1      41.371  29.761  31.289  1.00  0.00     0.167 HD
ATOM     35  C   UNL A   1      43.063  30.461  33.464  1.00  0.00     0.074 A 
ATOM     36  C   UNL A   1      43.595  31.158  34.618  1.00  0.00     0.031 C 
ATOM     37  C   UNL A   1      43.595  29.332  32.938  1.00  0.00     0.037 A 
BRANCH  24  38
ATOM     38  C   UNL A   1      40.459  27.040  28.128  1.00  0.00     0.057 A 
ATOM     39  C   UNL A   1      41.109  27.073  26.887  1.00  0.00     0.134 A 
ATOM     40  C   UNL A   1      39.662  25.923  28.410  1.00  0.00     0.134 A 
ATOM     41  F   UNL A   1      41.876  28.120  26.549  1.00  0.00    -0.206 F 
ATOM     42  C   UNL A   1      40.946  26.050  25.950  1.00  0.00     0.040 A 
ATOM     43  C   UNL A   1      39.513  24.881  27.492  1.00  0.00     0.040 A 
ATOM     44  F   UNL A   1      39.018  25.823  29.582  1.00  0.00    -0.206 F 
ATOM     45  C   UNL A   1      40.149  24.948  26.254  1.00  0.00     0.006 A 
ENDBRANCH  24  38
BRANCH  25  46
ATOM     46  C   UNL A   1      40.840  34.354  34.908  1.00  0.00     0.057 A 
ATOM     47  C   UNL A   1      41.457  35.586  34.677  1.00  0.00     0.134 A 
ATOM     48  C   UNL A   1      40.182  34.176  36.132  1.00  0.00     0.134 A 
ATOM     49  F   UNL A   1      42.112  35.807  33.527  1.00  0.00    -0.206 F 
ATOM     50  C   UNL A   1      41.422  36.608  35.626  1.00  0.00     0.040 A 
ATOM     51  C   UNL A   1      40.120  35.197  37.081  1.00  0.00     0.040 A 
ATOM     52  F   UNL A   1      39.563  33.019  36.407  1.00  0.00    -0.206 F 
ATOM     53  C   UNL A   1      40.743  36.418  36.829  1.00  0.00     0.006 A 
ENDBRANCH  25  46
BRANCH  37  54
ATOM     54  C   UNL A   1      44.842  28.795  33.575  1.00  0.00     0.057 A 
ATOM     55  C   UNL A   1      44.800  27.815  34.572  1.00  0.00     0.134 A 
ATOM     56  C   UNL A   1      46.102  29.222  33.135  1.00  0.00     0.134 A 
ATOM     57  F   UNL A   1      43.624  27.375  35.046  1.00  0.00    -0.206 F 
ATOM     58  C   UNL A   1      45.970  27.281  35.116  1.00  0.00     0.040 A 
ATOM     59  C   UNL A   1      47.278  28.680  33.656  1.00  0.00     0.040 A 
ATOM     60  F   UNL A   1      46.208  30.156  32.178  1.00  0.00    -0.206 F 
ATOM     61  C   UNL A   1      47.213  27.707  34.651  1.00  0.00     0.006 A 
ENDBRANCH  37  54
ENDBRANCH  11  12
ENDBRANCH   4   6
ENDBRANCH   1   2
BRANCH   1  62
ATOM     62  C   UNL A   1      31.109  31.594  25.951  1.00  0.00     0.042 C 
BRANCH  62  63
ATOM     63  C   UNL A   1      31.303  30.206  25.352  1.00  0.00     0.118 C 
BRANCH  63  64
ATOM     64  N   UNL A   1      30.690  30.081  24.038  1.00  0.00    -0.352 N 
ATOM     65  C   UNL A   1      30.616  28.991  23.209  1.00  0.00     0.251 C 
ATOM     66  H   UNL A   1      30.265  30.900  23.693  1.00  0.00     0.163 HD
ATOM     67  O   UNL A   1      30.246  29.124  22.045  1.00  0.00    -0.269 OA
BRANCH  65  68
ATOM     68  C   UNL A   1      31.013  27.658  23.706  1.00  0.00     0.042 A 
ATOM     69  C   UNL A   1      30.044  26.755  24.165  1.00  0.00     0.016 A 
ATOM     70  C   UNL A   1      32.374  27.325  23.676  1.00  0.00     0.042 A 
ATOM     71  C   UNL A   1      30.421  25.519  24.705  1.00  0.00     0.031 A 
ATOM     72  C   UNL A   1      32.715  26.081  24.210  1.00  0.00     0.066 A 
ATOM     73  C   UNL A   1      31.784  25.192  24.734  1.00  0.00     0.089 A 
ATOM     74  N   UNL A   1      33.915  25.438  24.358  1.00  0.00    -0.342 N 
ATOM     75  N   UNL A   1      32.400  24.069  25.219  1.00  0.00    -0.233 NA
ATOM     76  C   UNL A   1      33.686  24.236  24.985  1.00  0.00     0.110 A 
ATOM     77  H   UNL A   1      34.791  25.780  24.066  1.00  0.00     0.168 HD
BRANCH  76  78
ATOM     78  C   UNL A   1      34.776  23.260  25.308  1.00  0.00     0.055 C 
ATOM     79  C   UNL A   1      34.553  21.934  24.568  1.00  0.00     0.011 C 
ATOM     80  C   UNL A   1      36.168  23.842  25.018  1.00  0.00     0.011 C 
ATOM     81  C   UNL A   1      35.667  20.933  24.860  1.00  0.00     0.001 C 
ATOM     82  C   UNL A   1      37.272  22.827  25.305  1.00  0.00     0.001 C 
ATOM     83  C   UNL A   1      37.041  21.520  24.553  1.00  0.00     0.000 C 
ENDBRANCH  76  78
ENDBRANCH  65  68
ENDBRANCH  63  64
ENDBRANCH  62  63
ENDBRANCH   1  62
TORSDOF 11
ENDMDL
