MODEL 1
REMARK VINA RESULT:     -13.0      0.000      0.000
REMARK SMILES CCc1sc(NC(=O)[C@H]2CC(C)=C(C)C[C@H]2C(=O)NCCCNC(=O)c2ccc(-c3c4nc(c(-c5c(F)cccc5F)c5ccc([nH]5)c(-c5c(F)cccc5F)c5nc(c(-c6c(F)cccc6F)c6ccc3[nH]6)C=C5)C=C4)cc2)nc1-c1ccccc1
REMARK SMILES IDX 20 1 19 2 17 3 18 4 16 6 9 7 10 8 11 9 15 10 12 11 13 12
REMARK SMILES IDX 14 13 7 14 6 15 8 17 5 18 3 19 4 20 81 21 80 22 2 23 1 24
REMARK SMILES IDX 82 25 83 26 87 27 84 28 86 29 85 30 21 31 22 32 23 33 24 34
REMARK SMILES IDX 25 36 26 37 27 38 79 39 28 40 78 41 29 42 30 43 31 44 72 45
REMARK SMILES IDX 32 46 77 47 71 48 73 49 33 50 76 51 70 52 69 53 34 55 60 56
REMARK SMILES IDX 43 57 59 58 44 59 47 60 58 61 74 62 45 63 46 64 57 66 75 67
REMARK SMILES IDX 48 68 35 69 36 70 41 71 37 72 38 73 40 74 42 75 39 76 61 77
REMARK SMILES IDX 62 78 67 79 63 80 64 81 66 82 68 83 65 84 49 85 50 86 55 87
REMARK SMILES IDX 51 88 52 89 54 90 56 91 53 92
REMARK H PARENT 19 5 6 16 23 35 73 54 47 65
REMARK Flexibility Score: inf
ROOT
ATOM      1  C   UNL A   1      36.374  20.293  24.671  1.00  0.00     0.117 C 
ENDROOT
BRANCH   1   2
ATOM      2  N   UNL A   1      36.352  21.463  25.524  1.00  0.00    -0.356 N 
ATOM      3  C   UNL A   1      35.346  22.287  25.905  1.00  0.00     0.224 C 
ATOM      4  O   UNL A   1      35.646  23.183  26.701  1.00  0.00    -0.275 OA
ATOM      5  H   UNL A   1      37.231  21.703  25.897  1.00  0.00     0.163 HD
BRANCH   3   6
ATOM      6  C   UNL A   1      33.890  22.071  25.492  1.00  0.00     0.095 C 
ATOM      7  C   UNL A   1      33.466  22.394  24.027  1.00  0.00     0.095 C 
ATOM      8  C   UNL A   1      33.052  21.170  23.233  1.00  0.00     0.045 C 
ATOM      9  C   UNL A   1      32.656  19.892  23.897  1.00  0.00    -0.074 C 
ATOM     10  C   UNL A   1      33.381  20.752  26.119  1.00  0.00     0.045 C 
ATOM     11  C   UNL A   1      32.105  18.866  22.937  1.00  0.00     0.039 C 
ATOM     12  C   UNL A   1      32.873  19.672  25.202  1.00  0.00    -0.074 C 
ATOM     13  C   UNL A   1      32.736  18.300  25.807  1.00  0.00     0.039 C 
BRANCH   7  14
ATOM     14  C   UNL A   1      34.393  23.433  23.328  1.00  0.00     0.230 C 
ATOM     15  N   UNL A   1      34.281  24.791  23.277  1.00  0.00    -0.302 N 
ATOM     16  H   UNL A   1      34.976  25.217  22.727  1.00  0.00     0.172 HD
ATOM     17  O   UNL A   1      35.366  22.990  22.697  1.00  0.00    -0.274 OA
BRANCH  15  18
ATOM     18  C   UNL A   1      33.406  25.686  23.826  1.00  0.00     0.190 A 
ATOM     19  C   UNL A   1      32.028  26.858  25.403  1.00  0.00     0.034 A 
ATOM     20  S   UNL A   1      33.710  26.418  25.334  1.00  0.00    -0.101 S 
ATOM     21  C   UNL A   1      31.567  26.874  24.090  1.00  0.00     0.087 A 
ATOM     22  N   UNL A   1      32.382  26.198  23.183  1.00  0.00    -0.220 NA
BRANCH  19  23
ATOM     23  C   UNL A   1      31.398  27.043  26.755  1.00  0.00     0.046 C 
ATOM     24  C   UNL A   1      31.597  28.366  27.463  1.00  0.00     0.010 C 
ENDBRANCH  19  23
BRANCH  21  25
ATOM     25  C   UNL A   1      30.291  27.437  23.681  1.00  0.00     0.001 A 
ATOM     26  C   UNL A   1      30.241  28.739  23.163  1.00  0.00     0.010 A 
ATOM     27  C   UNL A   1      29.100  26.725  23.856  1.00  0.00     0.010 A 
ATOM     28  C   UNL A   1      29.013  29.352  22.903  1.00  0.00     0.001 A 
ATOM     29  C   UNL A   1      27.872  27.337  23.586  1.00  0.00     0.001 A 
ATOM     30  C   UNL A   1      27.829  28.653  23.125  1.00  0.00     0.000 A 
ENDBRANCH  21  25
ENDBRANCH  15  18
ENDBRANCH   7  14
ENDBRANCH   3   6
ENDBRANCH   1   2
BRANCH   1  31
ATOM     31  C   UNL A   1      37.556  19.399  24.996  1.00  0.00     0.042 C 
BRANCH  31  32
ATOM     32  C   UNL A   1      38.726  20.114  25.652  1.00  0.00     0.118 C 
BRANCH  32  33
ATOM     33  N   UNL A   1      39.912  19.279  25.721  1.00  0.00    -0.352 N 
ATOM     34  C   UNL A   1      41.209  19.611  26.018  1.00  0.00     0.251 C 
ATOM     35  H   UNL A   1      39.762  18.326  25.524  1.00  0.00     0.163 HD
ATOM     36  O   UNL A   1      42.097  18.778  25.814  1.00  0.00    -0.269 OA
BRANCH  34  37
ATOM     37  C   UNL A   1      41.574  20.946  26.551  1.00  0.00     0.039 A 
ATOM     38  C   UNL A   1      41.410  21.180  27.921  1.00  0.00     0.014 A 
ATOM     39  C   UNL A   1      42.015  21.987  25.729  1.00  0.00     0.014 A 
ATOM     40  C   UNL A   1      41.727  22.426  28.467  1.00  0.00     0.010 A 
ATOM     41  C   UNL A   1      42.412  23.204  26.285  1.00  0.00     0.010 A 
ATOM     42  C   UNL A   1      42.245  23.445  27.655  1.00  0.00    -0.014 A 
BRANCH  42  43
ATOM     43  C   UNL A   1      42.541  24.788  28.217  1.00  0.00     0.031 A 
ATOM     44  C   UNL A   1      43.952  25.148  28.599  1.00  0.00     0.074 A 
ATOM     45  C   UNL A   1      41.548  25.680  28.397  1.00  0.00     0.049 A 
ATOM     46  N   UNL A   1      44.416  26.265  29.099  1.00  0.00    -0.248 NA
ATOM     47  C   UNL A   1      44.975  24.107  28.413  1.00  0.00     0.031 C 
ATOM     48  C   UNL A   1      40.133  25.443  28.109  1.00  0.00     0.029 A 
ATOM     49  N   UNL A   1      41.583  26.969  28.867  1.00  0.00    -0.354 N 
ATOM     50  C   UNL A   1      45.775  26.056  29.299  1.00  0.00     0.074 A 
ATOM     51  C   UNL A   1      46.053  24.688  28.918  1.00  0.00     0.031 C 
ATOM     52  C   UNL A   1      39.439  26.561  28.379  1.00  0.00     0.029 A 
ATOM     53  C   UNL A   1      40.354  27.581  28.882  1.00  0.00     0.049 A 
ATOM     54  H   UNL A   1      42.409  27.412  29.164  1.00  0.00     0.167 HD
ATOM     55  C   UNL A   1      46.716  26.928  29.732  1.00  0.00     0.037 A 
ATOM     56  C   UNL A   1      40.008  28.829  29.254  1.00  0.00     0.037 A 
ATOM     57  C   UNL A   1      46.451  28.297  30.084  1.00  0.00     0.049 A 
ATOM     58  C   UNL A   1      41.070  29.782  29.727  1.00  0.00     0.074 A 
ATOM     59  C   UNL A   1      47.344  29.273  30.488  1.00  0.00     0.029 A 
ATOM     60  N   UNL A   1      45.195  28.883  30.072  1.00  0.00    -0.354 N 
ATOM     61  N   UNL A   1      42.361  29.590  29.847  1.00  0.00    -0.248 NA
ATOM     62  C   UNL A   1      40.627  31.132  30.105  1.00  0.00     0.031 C 
ATOM     63  C   UNL A   1      46.623  30.444  30.749  1.00  0.00     0.029 A 
ATOM     64  C   UNL A   1      45.287  30.205  30.472  1.00  0.00     0.049 A 
ATOM     65  H   UNL A   1      44.360  28.427  29.816  1.00  0.00     0.167 HD
ATOM     66  C   UNL A   1      42.888  30.797  30.285  1.00  0.00     0.074 A 
ATOM     67  C   UNL A   1      41.777  31.721  30.399  1.00  0.00     0.031 C 
ATOM     68  C   UNL A   1      44.175  31.115  30.566  1.00  0.00     0.037 A 
BRANCH  55  69
ATOM     69  C   UNL A   1      48.125  26.422  29.836  1.00  0.00     0.057 A 
ATOM     70  C   UNL A   1      49.027  26.538  28.770  1.00  0.00     0.134 A 
ATOM     71  C   UNL A   1      48.589  25.830  31.015  1.00  0.00     0.134 A 
ATOM     72  F   UNL A   1      48.640  27.084  27.606  1.00  0.00    -0.206 F 
ATOM     73  C   UNL A   1      50.334  26.055  28.864  1.00  0.00     0.040 A 
ATOM     74  C   UNL A   1      49.900  25.365  31.130  1.00  0.00     0.040 A 
ATOM     75  F   UNL A   1      47.778  25.693  32.075  1.00  0.00    -0.206 F 
ATOM     76  C   UNL A   1      50.775  25.471  30.050  1.00  0.00     0.006 A 
ENDBRANCH  55  69
BRANCH  56  77
ATOM     77  C   UNL A   1      38.593  29.267  29.154  1.00  0.00     0.057 A 
ATOM     78  C   UNL A   1      38.067  29.723  27.940  1.00  0.00     0.134 A 
ATOM     79  C   UNL A   1      37.742  29.252  30.264  1.00  0.00     0.134 A 
ATOM     80  F   UNL A   1      38.841  29.779  26.847  1.00  0.00    -0.206 F 
ATOM     81  C   UNL A   1      36.748  30.168  27.836  1.00  0.00     0.040 A 
ATOM     82  C   UNL A   1      36.414  29.674  30.170  1.00  0.00     0.040 A 
ATOM     83  F   UNL A   1      38.185  28.821  31.453  1.00  0.00    -0.206 F 
ATOM     84  C   UNL A   1      35.915  30.140  28.954  1.00  0.00     0.006 A 
ENDBRANCH  56  77
BRANCH  68  85
ATOM     85  C   UNL A   1      44.458  32.527  30.983  1.00  0.00     0.057 A 
ATOM     86  C   UNL A   1      44.475  32.910  32.329  1.00  0.00     0.134 A 
ATOM     87  C   UNL A   1      44.758  33.504  30.026  1.00  0.00     0.134 A 
ATOM     88  F   UNL A   1      44.186  32.023  33.293  1.00  0.00    -0.206 F 
ATOM     89  C   UNL A   1      44.759  34.222  32.709  1.00  0.00     0.040 A 
ATOM     90  C   UNL A   1      45.066  34.815  30.393  1.00  0.00     0.040 A 
ATOM     91  F   UNL A   1      44.766  33.200  28.719  1.00  0.00    -0.206 F 
ATOM     92  C   UNL A   1      45.062  35.178  31.739  1.00  0.00     0.006 A 
ENDBRANCH  68  85
ENDBRANCH  42  43
ENDBRANCH  34  37
ENDBRANCH  32  33
ENDBRANCH  31  32
ENDBRANCH   1  31
TORSDOF 14
ENDMDL
MODEL 2
REMARK VINA RESULT:     -12.9      3.970      9.329
REMARK SMILES CCc1sc(NC(=O)[C@H]2CC(C)=C(C)C[C@H]2C(=O)NCCCNC(=O)c2ccc(-c3c4nc(c(-c5c(F)cccc5F)c5ccc([nH]5)c(-c5c(F)cccc5F)c5nc(c(-c6c(F)cccc6F)c6ccc3[nH]6)C=C5)C=C4)cc2)nc1-c1ccccc1
REMARK SMILES IDX 20 1 19 2 17 3 18 4 16 6 9 7 10 8 11 9 15 10 12 11 13 12
REMARK SMILES IDX 14 13 7 14 6 15 8 17 5 18 3 19 4 20 81 21 80 22 2 23 1 24
REMARK SMILES IDX 82 25 83 26 87 27 84 28 86 29 85 30 21 31 22 32 23 33 24 34
REMARK SMILES IDX 25 36 26 37 27 38 79 39 28 40 78 41 29 42 30 43 31 44 72 45
REMARK SMILES IDX 32 46 77 47 71 48 73 49 33 50 76 51 70 52 69 53 34 55 60 56
REMARK SMILES IDX 43 57 59 58 44 59 47 60 58 61 74 62 45 63 46 64 57 66 75 67
REMARK SMILES IDX 48 68 35 69 36 70 41 71 37 72 38 73 40 74 42 75 39 76 61 77
REMARK SMILES IDX 62 78 67 79 63 80 64 81 66 82 68 83 65 84 49 85 50 86 55 87
REMARK SMILES IDX 51 88 52 89 54 90 56 91 53 92
REMARK H PARENT 19 5 6 16 23 35 73 54 47 65
REMARK Flexibility Score: inf
ROOT
ATOM      1  C   UNL A   1      31.137  30.653  25.585  1.00  0.00     0.117 C 
ENDROOT
BRANCH   1   2
ATOM      2  N   UNL A   1      32.469  30.084  25.577  1.00  0.00    -0.356 N 
ATOM      3  C   UNL A   1      32.984  28.990  24.965  1.00  0.00     0.224 C 
ATOM      4  O   UNL A   1      34.195  28.800  25.114  1.00  0.00    -0.275 OA
ATOM      5  H   UNL A   1      33.122  30.588  26.116  1.00  0.00     0.163 HD
BRANCH   3   6
ATOM      6  C   UNL A   1      32.166  28.094  24.034  1.00  0.00     0.095 C 
ATOM      7  C   UNL A   1      31.155  27.085  24.657  1.00  0.00     0.095 C 
ATOM      8  C   UNL A   1      29.706  27.403  24.337  1.00  0.00     0.045 C 
ATOM      9  C   UNL A   1      29.324  28.290  23.198  1.00  0.00    -0.074 C 
ATOM     10  C   UNL A   1      31.702  28.927  22.817  1.00  0.00     0.045 C 
ATOM     11  C   UNL A   1      27.836  28.327  22.943  1.00  0.00     0.039 C 
ATOM     12  C   UNL A   1      30.225  29.043  22.550  1.00  0.00    -0.074 C 
ATOM     13  C   UNL A   1      29.808  30.134  21.600  1.00  0.00     0.039 C 
BRANCH   7  14
ATOM     14  C   UNL A   1      31.503  26.681  26.121  1.00  0.00     0.230 C 
ATOM     15  N   UNL A   1      32.221  25.614  26.573  1.00  0.00    -0.302 N 
ATOM     16  H   UNL A   1      32.257  25.559  27.555  1.00  0.00     0.172 HD
ATOM     17  O   UNL A   1      31.053  27.399  27.029  1.00  0.00    -0.274 OA
BRANCH  15  18
ATOM     18  C   UNL A   1      32.901  24.604  25.952  1.00  0.00     0.190 A 
ATOM     19  C   UNL A   1      34.302  23.398  24.422  1.00  0.00     0.034 A 
ATOM     20  S   UNL A   1      34.509  24.803  25.427  1.00  0.00    -0.101 S 
ATOM     21  C   UNL A   1      33.267  22.657  24.983  1.00  0.00     0.087 A 
ATOM     22  N   UNL A   1      32.466  23.367  25.877  1.00  0.00    -0.220 NA
BRANCH  19  23
ATOM     23  C   UNL A   1      35.144  23.282  23.183  1.00  0.00     0.046 C 
ATOM     24  C   UNL A   1      36.584  22.841  23.333  1.00  0.00     0.010 C 
ENDBRANCH  19  23
BRANCH  21  25
ATOM     25  C   UNL A   1      32.944  21.291  24.606  1.00  0.00     0.001 A 
ATOM     26  C   UNL A   1      33.261  20.237  25.475  1.00  0.00     0.010 A 
ATOM     27  C   UNL A   1      32.381  21.001  23.359  1.00  0.00     0.010 A 
ATOM     28  C   UNL A   1      33.096  18.911  25.071  1.00  0.00     0.001 A 
ATOM     29  C   UNL A   1      32.208  19.672  22.959  1.00  0.00     0.001 A 
ATOM     30  C   UNL A   1      32.579  18.630  23.809  1.00  0.00     0.000 A 
ENDBRANCH  21  25
ENDBRANCH  15  18
ENDBRANCH   7  14
ENDBRANCH   3   6
ENDBRANCH   1   2
BRANCH   1  31
ATOM     31  C   UNL A   1      31.138  32.046  26.185  1.00  0.00     0.042 C 
BRANCH  31  32
ATOM     32  C   UNL A   1      32.393  32.394  26.969  1.00  0.00     0.118 C 
BRANCH  32  33
ATOM     33  N   UNL A   1      32.384  33.767  27.440  1.00  0.00    -0.352 N 
ATOM     34  C   UNL A   1      33.149  34.375  28.402  1.00  0.00     0.251 C 
ATOM     35  H   UNL A   1      31.726  34.353  27.002  1.00  0.00     0.163 HD
ATOM     36  O   UNL A   1      32.830  35.503  28.790  1.00  0.00    -0.269 OA
BRANCH  34  37
ATOM     37  C   UNL A   1      34.329  33.707  29.004  1.00  0.00     0.039 A 
ATOM     38  C   UNL A   1      35.603  34.150  28.630  1.00  0.00     0.014 A 
ATOM     39  C   UNL A   1      34.212  32.621  29.876  1.00  0.00     0.014 A 
ATOM     40  C   UNL A   1      36.744  33.543  29.159  1.00  0.00     0.010 A 
ATOM     41  C   UNL A   1      35.349  32.069  30.469  1.00  0.00     0.010 A 
ATOM     42  C   UNL A   1      36.627  32.506  30.096  1.00  0.00    -0.014 A 
BRANCH  42  43
ATOM     43  C   UNL A   1      37.832  31.822  30.628  1.00  0.00     0.031 A 
ATOM     44  C   UNL A   1      38.366  32.190  31.987  1.00  0.00     0.074 A 
ATOM     45  C   UNL A   1      38.458  30.883  29.893  1.00  0.00     0.049 A 
ATOM     46  N   UNL A   1      39.400  31.709  32.630  1.00  0.00    -0.248 NA
ATOM     47  C   UNL A   1      37.655  33.255  32.712  1.00  0.00     0.031 C 
ATOM     48  C   UNL A   1      38.070  30.464  28.546  1.00  0.00     0.029 A 
ATOM     49  N   UNL A   1      39.555  30.110  30.182  1.00  0.00    -0.354 N 
ATOM     50  C   UNL A   1      39.469  32.420  33.822  1.00  0.00     0.074 A 
ATOM     51  C   UNL A   1      38.408  33.402  33.792  1.00  0.00     0.031 C 
ATOM     52  C   UNL A   1      38.898  29.488  28.137  1.00  0.00     0.029 A 
ATOM     53  C   UNL A   1      39.886  29.231  29.180  1.00  0.00     0.049 A 
ATOM     54  H   UNL A   1      40.056  30.178  31.026  1.00  0.00     0.167 HD
ATOM     55  C   UNL A   1      40.319  32.254  34.864  1.00  0.00     0.037 A 
ATOM     56  C   UNL A   1      40.874  28.317  29.116  1.00  0.00     0.037 A 
ATOM     57  C   UNL A   1      41.357  31.260  34.912  1.00  0.00     0.049 A 
ATOM     58  C   UNL A   1      41.803  28.147  30.286  1.00  0.00     0.074 A 
ATOM     59  C   UNL A   1      42.238  30.981  35.941  1.00  0.00     0.029 A 
ATOM     60  N   UNL A   1      41.651  30.379  33.883  1.00  0.00    -0.354 N 
ATOM     61  N   UNL A   1      41.814  28.781  31.433  1.00  0.00    -0.248 NA
ATOM     62  C   UNL A   1      42.850  27.123  30.156  1.00  0.00     0.031 C 
ATOM     63  C   UNL A   1      43.086  29.949  35.522  1.00  0.00     0.029 A 
ATOM     64  C   UNL A   1      42.708  29.563  34.247  1.00  0.00     0.049 A 
ATOM     65  H   UNL A   1      41.178  30.339  33.019  1.00  0.00     0.167 HD
ATOM     66  C   UNL A   1      42.846  28.217  32.171  1.00  0.00     0.074 A 
ATOM     67  C   UNL A   1      43.431  27.180  31.346  1.00  0.00     0.031 C 
ATOM     68  C   UNL A   1      43.269  28.526  33.420  1.00  0.00     0.037 A 
BRANCH  55  69
ATOM     69  C   UNL A   1      40.147  33.167  36.042  1.00  0.00     0.057 A 
ATOM     70  C   UNL A   1      40.847  34.377  36.142  1.00  0.00     0.134 A 
ATOM     71  C   UNL A   1      39.262  32.844  37.077  1.00  0.00     0.134 A 
ATOM     72  F   UNL A   1      41.721  34.738  35.190  1.00  0.00    -0.206 F 
ATOM     73  C   UNL A   1      40.695  35.219  37.245  1.00  0.00     0.040 A 
ATOM     74  C   UNL A   1      39.083  33.689  38.173  1.00  0.00     0.040 A 
ATOM     75  F   UNL A   1      38.558  31.702  37.040  1.00  0.00    -0.206 F 
ATOM     76  C   UNL A   1      39.806  34.877  38.263  1.00  0.00     0.006 A 
ENDBRANCH  55  69
BRANCH  56  77
ATOM     77  C   UNL A   1      41.012  27.458  27.914  1.00  0.00     0.057 A 
ATOM     78  C   UNL A   1      40.394  26.204  27.852  1.00  0.00     0.134 A 
ATOM     79  C   UNL A   1      41.771  27.860  26.809  1.00  0.00     0.134 A 
ATOM     80  F   UNL A   1      39.670  25.757  28.889  1.00  0.00    -0.206 F 
ATOM     81  C   UNL A   1      40.539  25.371  26.742  1.00  0.00     0.040 A 
ATOM     82  C   UNL A   1      41.907  27.046  25.682  1.00  0.00     0.040 A 
ATOM     83  F   UNL A   1      42.383  29.052  26.805  1.00  0.00    -0.206 F 
ATOM     84  C   UNL A   1      41.295  25.794  25.650  1.00  0.00     0.006 A 
ENDBRANCH  56  77
BRANCH  68  85
ATOM     85  C   UNL A   1      44.392  27.710  33.987  1.00  0.00     0.057 A 
ATOM     86  C   UNL A   1      45.728  28.112  33.875  1.00  0.00     0.134 A 
ATOM     87  C   UNL A   1      44.127  26.527  34.688  1.00  0.00     0.134 A 
ATOM     88  F   UNL A   1      46.048  29.230  33.206  1.00  0.00    -0.206 F 
ATOM     89  C   UNL A   1      46.764  27.355  34.423  1.00  0.00     0.040 A 
ATOM     90  C   UNL A   1      45.152  25.772  35.259  1.00  0.00     0.040 A 
ATOM     91  F   UNL A   1      42.867  26.090  34.837  1.00  0.00    -0.206 F 
ATOM     92  C   UNL A   1      46.477  26.184  35.122  1.00  0.00     0.006 A 
ENDBRANCH  68  85
ENDBRANCH  42  43
ENDBRANCH  34  37
ENDBRANCH  32  33
ENDBRANCH  31  32
ENDBRANCH   1  31
TORSDOF 14
ENDMDL
MODEL 3
REMARK VINA RESULT:     -12.9      0.492      5.955
REMARK SMILES CCc1sc(NC(=O)[C@H]2CC(C)=C(C)C[C@H]2C(=O)NCCCNC(=O)c2ccc(-c3c4nc(c(-c5c(F)cccc5F)c5ccc([nH]5)c(-c5c(F)cccc5F)c5nc(c(-c6c(F)cccc6F)c6ccc3[nH]6)C=C5)C=C4)cc2)nc1-c1ccccc1
REMARK SMILES IDX 20 1 19 2 17 3 18 4 16 6 9 7 10 8 11 9 15 10 12 11 13 12
REMARK SMILES IDX 14 13 7 14 6 15 8 17 5 18 3 19 4 20 81 21 80 22 2 23 1 24
REMARK SMILES IDX 82 25 83 26 87 27 84 28 86 29 85 30 21 31 22 32 23 33 24 34
REMARK SMILES IDX 25 36 26 37 27 38 79 39 28 40 78 41 29 42 30 43 31 44 72 45
REMARK SMILES IDX 32 46 77 47 71 48 73 49 33 50 76 51 70 52 69 53 34 55 60 56
REMARK SMILES IDX 43 57 59 58 44 59 47 60 58 61 74 62 45 63 46 64 57 66 75 67
REMARK SMILES IDX 48 68 35 69 36 70 41 71 37 72 38 73 40 74 42 75 39 76 61 77
REMARK SMILES IDX 62 78 67 79 63 80 64 81 66 82 68 83 65 84 49 85 50 86 55 87
REMARK SMILES IDX 51 88 52 89 54 90 56 91 53 92
REMARK H PARENT 19 5 6 16 23 35 73 54 47 65
REMARK Flexibility Score: inf
ROOT
ATOM      1  C   UNL A   1      36.376  20.546  24.586  1.00  0.00     0.117 C 
ENDROOT
BRANCH   1   2
ATOM      2  N   UNL A   1      36.300  21.668  25.498  1.00  0.00    -0.356 N 
ATOM      3  C   UNL A   1      35.260  22.431  25.913  1.00  0.00     0.224 C 
ATOM      4  O   UNL A   1      35.518  23.296  26.755  1.00  0.00    -0.275 OA
ATOM      5  H   UNL A   1      37.167  21.924  25.889  1.00  0.00     0.163 HD
BRANCH   3   6
ATOM      6  C   UNL A   1      33.816  22.177  25.478  1.00  0.00     0.095 C 
ATOM      7  C   UNL A   1      33.409  22.480  24.004  1.00  0.00     0.095 C 
ATOM      8  C   UNL A   1      33.036  21.242  23.211  1.00  0.00     0.045 C 
ATOM      9  C   UNL A   1      32.660  19.960  23.878  1.00  0.00    -0.074 C 
ATOM     10  C   UNL A   1      33.329  20.850  26.106  1.00  0.00     0.045 C 
ATOM     11  C   UNL A   1      32.149  18.914  22.916  1.00  0.00     0.039 C 
ATOM     12  C   UNL A   1      32.861  19.753  25.187  1.00  0.00    -0.074 C 
ATOM     13  C   UNL A   1      32.746  18.383  25.800  1.00  0.00     0.039 C 
BRANCH   7  14
ATOM     14  C   UNL A   1      34.323  23.537  23.313  1.00  0.00     0.230 C 
ATOM     15  N   UNL A   1      34.188  24.894  23.265  1.00  0.00    -0.302 N 
ATOM     16  H   UNL A   1      34.880  25.333  22.720  1.00  0.00     0.172 HD
ATOM     17  O   UNL A   1      35.305  23.112  22.685  1.00  0.00    -0.274 OA
BRANCH  15  18
ATOM     18  C   UNL A   1      33.296  25.772  23.814  1.00  0.00     0.190 A 
ATOM     19  C   UNL A   1      31.901  26.923  25.390  1.00  0.00     0.034 A 
ATOM     20  S   UNL A   1      33.592  26.520  25.315  1.00  0.00    -0.101 S 
ATOM     21  C   UNL A   1      31.433  26.921  24.079  1.00  0.00     0.087 A 
ATOM     22  N   UNL A   1      32.258  26.257  23.173  1.00  0.00    -0.220 NA
BRANCH  19  23
ATOM     23  C   UNL A   1      31.273  27.103  26.743  1.00  0.00     0.046 C 
ATOM     24  C   UNL A   1      31.750  28.250  27.609  1.00  0.00     0.010 C 
ENDBRANCH  19  23
BRANCH  21  25
ATOM     25  C   UNL A   1      30.143  27.453  23.673  1.00  0.00     0.001 A 
ATOM     26  C   UNL A   1      30.062  28.750  23.145  1.00  0.00     0.010 A 
ATOM     27  C   UNL A   1      28.968  26.718  23.861  1.00  0.00     0.010 A 
ATOM     28  C   UNL A   1      28.820  29.334  22.887  1.00  0.00     0.001 A 
ATOM     29  C   UNL A   1      27.726  27.301  23.593  1.00  0.00     0.001 A 
ATOM     30  C   UNL A   1      27.653  28.612  23.121  1.00  0.00     0.000 A 
ENDBRANCH  21  25
ENDBRANCH  15  18
ENDBRANCH   7  14
ENDBRANCH   3   6
ENDBRANCH   1   2
BRANCH   1  31
ATOM     31  C   UNL A   1      37.476  19.583  24.989  1.00  0.00     0.042 C 
BRANCH  31  32
ATOM     32  C   UNL A   1      38.696  20.244  25.610  1.00  0.00     0.118 C 
BRANCH  32  33
ATOM     33  N   UNL A   1      39.785  19.306  25.817  1.00  0.00    -0.352 N 
ATOM     34  C   UNL A   1      41.096  19.535  26.148  1.00  0.00     0.251 C 
ATOM     35  H   UNL A   1      39.545  18.359  25.701  1.00  0.00     0.163 HD
ATOM     36  O   UNL A   1      41.900  18.602  26.068  1.00  0.00    -0.269 OA
BRANCH  34  37
ATOM     37  C   UNL A   1      41.575  20.873  26.574  1.00  0.00     0.039 A 
ATOM     38  C   UNL A   1      41.368  21.258  27.903  1.00  0.00     0.014 A 
ATOM     39  C   UNL A   1      42.166  21.775  25.685  1.00  0.00     0.014 A 
ATOM     40  C   UNL A   1      41.790  22.514  28.347  1.00  0.00     0.010 A 
ATOM     41  C   UNL A   1      42.663  22.995  26.147  1.00  0.00     0.010 A 
ATOM     42  C   UNL A   1      42.455  23.388  27.476  1.00  0.00    -0.014 A 
BRANCH  42  43
ATOM     43  C   UNL A   1      42.865  24.743  27.924  1.00  0.00     0.031 A 
ATOM     44  C   UNL A   1      41.820  25.797  28.181  1.00  0.00     0.074 A 
ATOM     45  C   UNL A   1      44.168  25.036  28.089  1.00  0.00     0.049 A 
ATOM     46  N   UNL A   1      41.972  27.035  28.579  1.00  0.00    -0.248 NA
ATOM     47  C   UNL A   1      40.420  25.415  27.937  1.00  0.00     0.031 C 
ATOM     48  C   UNL A   1      45.281  24.121  27.835  1.00  0.00     0.029 A 
ATOM     49  N   UNL A   1      44.775  26.191  28.514  1.00  0.00    -0.354 N 
ATOM     50  C   UNL A   1      40.694  27.579  28.620  1.00  0.00     0.074 A 
ATOM     51  C   UNL A   1      39.783  26.556  28.154  1.00  0.00     0.031 C 
ATOM     52  C   UNL A   1      46.434  24.740  28.138  1.00  0.00     0.029 A 
ATOM     53  C   UNL A   1      46.144  26.100  28.583  1.00  0.00     0.049 A 
ATOM     54  H   UNL A   1      44.278  27.008  28.748  1.00  0.00     0.167 HD
ATOM     55  C   UNL A   1      40.306  28.808  29.035  1.00  0.00     0.037 A 
ATOM     56  C   UNL A   1      47.059  27.011  28.967  1.00  0.00     0.037 A 
ATOM     57  C   UNL A   1      41.203  29.818  29.527  1.00  0.00     0.049 A 
ATOM     58  C   UNL A   1      46.604  28.368  29.429  1.00  0.00     0.074 A 
ATOM     59  C   UNL A   1      40.901  31.077  30.016  1.00  0.00     0.029 A 
ATOM     60  N   UNL A   1      42.580  29.681  29.594  1.00  0.00    -0.354 N 
ATOM     61  N   UNL A   1      45.387  28.845  29.525  1.00  0.00    -0.248 NA
ATOM     62  C   UNL A   1      47.652  29.310  29.849  1.00  0.00     0.031 C 
ATOM     63  C   UNL A   1      42.102  31.714  30.351  1.00  0.00     0.029 A 
ATOM     64  C   UNL A   1      43.146  30.837  30.105  1.00  0.00     0.049 A 
ATOM     65  H   UNL A   1      43.084  28.880  29.319  1.00  0.00     0.167 HD
ATOM     66  C   UNL A   1      45.519  30.127  30.041  1.00  0.00     0.074 A 
ATOM     67  C   UNL A   1      46.935  30.350  30.248  1.00  0.00     0.031 C 
ATOM     68  C   UNL A   1      44.555  31.037  30.320  1.00  0.00     0.037 A 
BRANCH  55  69
ATOM     69  C   UNL A   1      38.838  29.118  28.983  1.00  0.00     0.057 A 
ATOM     70  C   UNL A   1      38.020  28.992  30.113  1.00  0.00     0.134 A 
ATOM     71  C   UNL A   1      38.241  29.562  27.798  1.00  0.00     0.134 A 
ATOM     72  F   UNL A   1      38.528  28.558  31.277  1.00  0.00    -0.206 F 
ATOM     73  C   UNL A   1      36.652  29.269  30.059  1.00  0.00     0.040 A 
ATOM     74  C   UNL A   1      36.880  29.865  27.737  1.00  0.00     0.040 A 
ATOM     75  F   UNL A   1      38.969  29.709  26.680  1.00  0.00    -0.206 F 
ATOM     76  C   UNL A   1      36.080  29.712  28.868  1.00  0.00     0.006 A 
ENDBRANCH  55  69
BRANCH  56  77
ATOM     77  C   UNL A   1      48.500  26.656  28.975  1.00  0.00     0.057 A 
ATOM     78  C   UNL A   1      49.308  26.910  27.862  1.00  0.00     0.134 A 
ATOM     79  C   UNL A   1      49.098  26.046  30.084  1.00  0.00     0.134 A 
ATOM     80  F   UNL A   1      48.786  27.475  26.763  1.00  0.00    -0.206 F 
ATOM     81  C   UNL A   1      50.658  26.555  27.841  1.00  0.00     0.040 A 
ATOM     82  C   UNL A   1      50.452  25.705  30.086  1.00  0.00     0.040 A 
ATOM     83  F   UNL A   1      48.378  25.782  31.182  1.00  0.00    -0.206 F 
ATOM     84  C   UNL A   1      51.234  25.953  28.959  1.00  0.00     0.006 A 
ENDBRANCH  56  77
BRANCH  68  85
ATOM     85  C   UNL A   1      44.994  32.341  30.917  1.00  0.00     0.057 A 
ATOM     86  C   UNL A   1      45.125  32.514  32.299  1.00  0.00     0.134 A 
ATOM     87  C   UNL A   1      45.328  33.423  30.092  1.00  0.00     0.134 A 
ATOM     88  F   UNL A   1      44.810  31.519  33.142  1.00  0.00    -0.206 F 
ATOM     89  C   UNL A   1      45.553  33.726  32.844  1.00  0.00     0.040 A 
ATOM     90  C   UNL A   1      45.779  34.633  30.623  1.00  0.00     0.040 A 
ATOM     91  F   UNL A   1      45.232  33.320  28.758  1.00  0.00    -0.206 F 
ATOM     92  C   UNL A   1      45.887  34.787  32.004  1.00  0.00     0.006 A 
ENDBRANCH  68  85
ENDBRANCH  42  43
ENDBRANCH  34  37
ENDBRANCH  32  33
ENDBRANCH  31  32
ENDBRANCH   1  31
TORSDOF 14
ENDMDL
