MODEL 1
REMARK VINA RESULT:     -10.4      0.000      0.000
REMARK SMILES CCc1ccc(S(=O)(=O)Cc2noc(C(=O)NCCCNC(=O)c3ccc(-c4c5nc(c(-c6c(F)cccc6F)c6ccc([nH]6)c(-c6c(F)cccc6F)c6nc(c(-c7c(F)cccc7F)c7ccc4[nH]7)C=C6)C=C5)cc3)n2)cc1
REMARK SMILES IDX 18 1 17 2 15 3 16 4 14 6 11 7 12 8 78 9 13 10 10 11 7 12
REMARK SMILES IDX 8 13 9 14 6 15 3 16 4 17 80 18 5 19 79 20 2 21 1 22 19 23
REMARK SMILES IDX 20 24 21 25 22 26 23 28 24 29 25 30 77 31 26 32 76 33 27 34
REMARK SMILES IDX 28 35 29 36 70 37 30 38 75 39 69 40 71 41 31 42 74 43 68 44
REMARK SMILES IDX 67 45 32 47 58 48 41 49 57 50 42 51 45 52 56 53 72 54 43 55
REMARK SMILES IDX 44 56 55 58 73 59 46 60 33 61 34 62 39 63 35 64 36 65 38 66
REMARK SMILES IDX 40 67 37 68 59 69 60 70 65 71 61 72 62 73 64 74 66 75 63 76
REMARK SMILES IDX 47 77 48 78 53 79 49 80 50 81 52 82 54 83 51 84
REMARK H PARENT 17 5 21 27 71 46 45 57
REMARK Flexibility Score: inf
ROOT
ATOM      1  C   UNL A   1      34.584  35.233  28.846  1.00  0.00     0.118 C 
ENDROOT
BRANCH   1   2
ATOM      2  N   UNL A   1      33.583  36.083  29.471  1.00  0.00    -0.348 N 
ATOM      3  C   UNL A   1      33.275  36.275  30.805  1.00  0.00     0.309 C 
ATOM      4  O   UNL A   1      32.358  37.069  31.037  1.00  0.00    -0.264 OA
ATOM      5  H   UNL A   1      33.036  36.606  28.842  1.00  0.00     0.163 HD
BRANCH   3   6
ATOM      6  C   UNL A   1      34.014  35.585  31.847  1.00  0.00     0.315 A 
ATOM      7  C   UNL A   1      34.998  34.219  33.106  1.00  0.00     0.187 A 
ATOM      8  N   UNL A   1      35.396  35.405  33.575  1.00  0.00    -0.061 NA
ATOM      9  N   UNL A   1      34.110  34.289  32.063  1.00  0.00    -0.186 NA
ATOM     10  O   UNL A   1      34.755  36.320  32.731  1.00  0.00    -0.329 OA
BRANCH   7  11
ATOM     11  C   UNL A   1      35.401  32.916  33.657  1.00  0.00     0.223 C 
BRANCH  11  12
ATOM     12  S   UNL A   1      37.137  32.606  33.691  1.00  0.00     0.185 S 
ATOM     13  O   UNL A   1      37.308  31.170  33.532  1.00  0.00    -0.223 OA
ATOM     14  O   UNL A   1      37.693  33.269  34.857  1.00  0.00    -0.223 OA
BRANCH  12  15
ATOM     15  C   UNL A   1      37.930  33.325  32.269  1.00  0.00     0.067 A 
ATOM     16  C   UNL A   1      39.298  34.517  30.117  1.00  0.00    -0.048 A 
ATOM     17  C   UNL A   1      39.816  34.580  31.420  1.00  0.00     0.005 A 
ATOM     18  C   UNL A   1      38.099  33.818  29.910  1.00  0.00     0.005 A 
ATOM     19  C   UNL A   1      39.133  34.001  32.491  1.00  0.00     0.020 A 
ATOM     20  C   UNL A   1      37.421  33.214  30.976  1.00  0.00     0.020 A 
BRANCH  16  21
ATOM     21  C   UNL A   1      40.099  35.136  28.992  1.00  0.00     0.032 C 
ATOM     22  C   UNL A   1      41.608  35.195  29.194  1.00  0.00     0.009 C 
ENDBRANCH  16  21
ENDBRANCH  12  15
ENDBRANCH  11  12
ENDBRANCH   7  11
ENDBRANCH   3   6
ENDBRANCH   1   2
BRANCH   1  23
ATOM     23  C   UNL A   1      33.980  33.940  28.309  1.00  0.00     0.042 C 
BRANCH  23  24
ATOM     24  C   UNL A   1      34.744  32.687  28.732  1.00  0.00     0.118 C 
BRANCH  24  25
ATOM     25  N   UNL A   1      34.058  31.462  28.343  1.00  0.00    -0.352 N 
ATOM     26  C   UNL A   1      34.542  30.218  28.037  1.00  0.00     0.251 C 
ATOM     27  H   UNL A   1      33.078  31.542  28.290  1.00  0.00     0.163 HD
ATOM     28  O   UNL A   1      33.788  29.395  27.523  1.00  0.00    -0.269 OA
BRANCH  26  29
ATOM     29  C   UNL A   1      35.949  29.850  28.309  1.00  0.00     0.039 A 
ATOM     30  C   UNL A   1      36.880  29.967  27.272  1.00  0.00     0.014 A 
ATOM     31  C   UNL A   1      36.349  29.329  29.542  1.00  0.00     0.014 A 
ATOM     32  C   UNL A   1      38.210  29.596  27.483  1.00  0.00     0.010 A 
ATOM     33  C   UNL A   1      37.691  29.041  29.779  1.00  0.00     0.010 A 
ATOM     34  C   UNL A   1      38.634  29.153  28.747  1.00  0.00    -0.014 A 
BRANCH  34  35
ATOM     35  C   UNL A   1      40.054  28.786  28.983  1.00  0.00     0.031 A 
ATOM     36  C   UNL A   1      40.989  29.747  29.668  1.00  0.00     0.074 A 
ATOM     37  C   UNL A   1      40.512  27.595  28.550  1.00  0.00     0.049 A 
ATOM     38  N   UNL A   1      42.258  29.601  29.957  1.00  0.00    -0.248 NA
ATOM     39  C   UNL A   1      40.436  31.055  30.058  1.00  0.00     0.031 C 
ATOM     40  C   UNL A   1      39.723  26.601  27.817  1.00  0.00     0.029 A 
ATOM     41  N   UNL A   1      41.752  27.017  28.660  1.00  0.00    -0.354 N 
ATOM     42  C   UNL A   1      42.655  30.797  30.543  1.00  0.00     0.074 A 
ATOM     43  C   UNL A   1      41.509  31.679  30.522  1.00  0.00     0.031 C 
ATOM     44  C   UNL A   1      40.491  25.528  27.568  1.00  0.00     0.029 A 
ATOM     45  C   UNL A   1      41.832  25.769  28.089  1.00  0.00     0.049 A 
ATOM     46  H   UNL A   1      42.513  27.455  29.105  1.00  0.00     0.167 HD
ATOM     47  C   UNL A   1      43.859  31.123  31.070  1.00  0.00     0.037 A 
ATOM     48  C   UNL A   1      42.871  24.918  27.993  1.00  0.00     0.037 A 
ATOM     49  C   UNL A   1      44.988  30.231  31.122  1.00  0.00     0.049 A 
ATOM     50  C   UNL A   1      44.189  25.298  28.608  1.00  0.00     0.074 A 
ATOM     51  C   UNL A   1      46.223  30.439  31.712  1.00  0.00     0.029 A 
ATOM     52  N   UNL A   1      45.023  28.966  30.556  1.00  0.00    -0.354 N 
ATOM     53  N   UNL A   1      44.520  26.395  29.246  1.00  0.00    -0.248 NA
ATOM     54  C   UNL A   1      45.276  24.314  28.505  1.00  0.00     0.031 C 
ATOM     55  C   UNL A   1      47.025  29.323  31.453  1.00  0.00     0.029 A 
ATOM     56  C   UNL A   1      46.268  28.394  30.756  1.00  0.00     0.049 A 
ATOM     57  H   UNL A   1      44.274  28.537  30.083  1.00  0.00     0.167 HD
ATOM     58  C   UNL A   1      45.841  26.224  29.639  1.00  0.00     0.074 A 
ATOM     59  C   UNL A   1      46.241  24.906  29.194  1.00  0.00     0.031 C 
ATOM     60  C   UNL A   1      46.653  27.080  30.306  1.00  0.00     0.037 A 
BRANCH  47  61
ATOM     61  C   UNL A   1      44.025  32.503  31.642  1.00  0.00     0.057 A 
ATOM     62  C   UNL A   1      44.529  33.566  30.883  1.00  0.00     0.134 A 
ATOM     63  C   UNL A   1      43.617  32.783  32.952  1.00  0.00     0.134 A 
ATOM     64  F   UNL A   1      44.950  33.365  29.625  1.00  0.00    -0.206 F 
ATOM     65  C   UNL A   1      44.638  34.854  31.411  1.00  0.00     0.040 A 
ATOM     66  C   UNL A   1      43.694  34.072  33.483  1.00  0.00     0.040 A 
ATOM     67  F   UNL A   1      43.119  31.812  33.734  1.00  0.00    -0.206 F 
ATOM     68  C   UNL A   1      44.211  35.111  32.712  1.00  0.00     0.006 A 
ENDBRANCH  47  61
BRANCH  48  69
ATOM     69  C   UNL A   1      42.709  23.617  27.293  1.00  0.00     0.057 A 
ATOM     70  C   UNL A   1      42.318  22.463  27.982  1.00  0.00     0.134 A 
ATOM     71  C   UNL A   1      42.977  23.488  25.925  1.00  0.00     0.134 A 
ATOM     72  F   UNL A   1      42.063  22.515  29.299  1.00  0.00    -0.206 F 
ATOM     73  C   UNL A   1      42.231  21.223  27.347  1.00  0.00     0.040 A 
ATOM     74  C   UNL A   1      42.864  22.261  25.270  1.00  0.00     0.040 A 
ATOM     75  F   UNL A   1      43.346  24.557  25.204  1.00  0.00    -0.206 F 
ATOM     76  C   UNL A   1      42.504  21.121  25.983  1.00  0.00     0.006 A 
ENDBRANCH  48  69
BRANCH  60  77
ATOM     77  C   UNL A   1      48.042  26.603  30.619  1.00  0.00     0.057 A 
ATOM     78  C   UNL A   1      49.128  26.872  29.775  1.00  0.00     0.134 A 
ATOM     79  C   UNL A   1      48.300  25.878  31.789  1.00  0.00     0.134 A 
ATOM     80  F   UNL A   1      48.948  27.554  28.632  1.00  0.00    -0.206 F 
ATOM     81  C   UNL A   1      50.411  26.405  30.064  1.00  0.00     0.040 A 
ATOM     82  C   UNL A   1      49.584  25.433  32.106  1.00  0.00     0.040 A 
ATOM     83  F   UNL A   1      47.310  25.595  32.649  1.00  0.00    -0.206 F 
ATOM     84  C   UNL A   1      50.643  25.688  31.236  1.00  0.00     0.006 A 
ENDBRANCH  60  77
ENDBRANCH  34  35
ENDBRANCH  26  29
ENDBRANCH  24  25
ENDBRANCH  23  24
ENDBRANCH   1  23
TORSDOF 14
ENDMDL
MODEL 2
REMARK VINA RESULT:     -10.3      0.583      6.236
REMARK SMILES CCc1ccc(S(=O)(=O)Cc2noc(C(=O)NCCCNC(=O)c3ccc(-c4c5nc(c(-c6c(F)cccc6F)c6ccc([nH]6)c(-c6c(F)cccc6F)c6nc(c(-c7c(F)cccc7F)c7ccc4[nH]7)C=C6)C=C5)cc3)n2)cc1
REMARK SMILES IDX 18 1 17 2 15 3 16 4 14 6 11 7 12 8 78 9 13 10 10 11 7 12
REMARK SMILES IDX 8 13 9 14 6 15 3 16 4 17 80 18 5 19 79 20 2 21 1 22 19 23
REMARK SMILES IDX 20 24 21 25 22 26 23 28 24 29 25 30 77 31 26 32 76 33 27 34
REMARK SMILES IDX 28 35 29 36 70 37 30 38 75 39 69 40 71 41 31 42 74 43 68 44
REMARK SMILES IDX 67 45 32 47 58 48 41 49 57 50 42 51 45 52 56 53 72 54 43 55
REMARK SMILES IDX 44 56 55 58 73 59 46 60 33 61 34 62 39 63 35 64 36 65 38 66
REMARK SMILES IDX 40 67 37 68 59 69 60 70 65 71 61 72 62 73 64 74 66 75 63 76
REMARK SMILES IDX 47 77 48 78 53 79 49 80 50 81 52 82 54 83 51 84
REMARK H PARENT 17 5 21 27 71 46 45 57
REMARK Flexibility Score: inf
ROOT
ATOM      1  C   UNL A   1      34.482  35.178  28.853  1.00  0.00     0.118 C 
ENDROOT
BRANCH   1   2
ATOM      2  N   UNL A   1      33.595  36.163  29.449  1.00  0.00    -0.348 N 
ATOM      3  C   UNL A   1      33.350  36.464  30.776  1.00  0.00     0.309 C 
ATOM      4  O   UNL A   1      32.528  37.363  30.982  1.00  0.00    -0.264 OA
ATOM      5  H   UNL A   1      33.085  36.703  28.803  1.00  0.00     0.163 HD
BRANCH   3   6
ATOM      6  C   UNL A   1      34.046  35.763  31.840  1.00  0.00     0.315 A 
ATOM      7  C   UNL A   1      35.012  34.390  33.106  1.00  0.00     0.187 A 
ATOM      8  N   UNL A   1      35.297  35.570  33.664  1.00  0.00    -0.061 NA
ATOM      9  N   UNL A   1      34.205  34.465  31.999  1.00  0.00    -0.186 NA
ATOM     10  O   UNL A   1      34.669  36.490  32.817  1.00  0.00    -0.329 OA
BRANCH   7  11
ATOM     11  C   UNL A   1      35.450  33.085  33.623  1.00  0.00     0.223 C 
BRANCH  11  12
ATOM     12  S   UNL A   1      36.250  32.031  32.456  1.00  0.00     0.185 S 
ATOM     13  O   UNL A   1      35.213  31.528  31.569  1.00  0.00    -0.223 OA
ATOM     14  O   UNL A   1      37.084  31.094  33.188  1.00  0.00    -0.223 OA
BRANCH  12  15
ATOM     15  C   UNL A   1      37.338  32.971  31.408  1.00  0.00     0.067 A 
ATOM     16  C   UNL A   1      39.130  34.515  29.881  1.00  0.00    -0.048 A 
ATOM     17  C   UNL A   1      39.201  34.510  31.283  1.00  0.00     0.005 A 
ATOM     18  C   UNL A   1      38.166  33.706  29.260  1.00  0.00     0.005 A 
ATOM     19  C   UNL A   1      38.305  33.756  32.042  1.00  0.00     0.020 A 
ATOM     20  C   UNL A   1      37.280  32.927  30.015  1.00  0.00     0.020 A 
BRANCH  16  21
ATOM     21  C   UNL A   1      40.148  35.327  29.111  1.00  0.00     0.032 C 
ATOM     22  C   UNL A   1      41.609  34.955  29.327  1.00  0.00     0.009 C 
ENDBRANCH  16  21
ENDBRANCH  12  15
ENDBRANCH  11  12
ENDBRANCH   7  11
ENDBRANCH   3   6
ENDBRANCH   1   2
BRANCH   1  23
ATOM     23  C   UNL A   1      33.773  33.852  28.596  1.00  0.00     0.042 C 
BRANCH  23  24
ATOM     24  C   UNL A   1      34.721  32.716  28.217  1.00  0.00     0.118 C 
BRANCH  24  25
ATOM     25  N   UNL A   1      34.026  31.446  28.053  1.00  0.00    -0.352 N 
ATOM     26  C   UNL A   1      34.502  30.166  27.956  1.00  0.00     0.251 C 
ATOM     27  H   UNL A   1      33.044  31.521  28.004  1.00  0.00     0.163 HD
ATOM     28  O   UNL A   1      33.736  29.271  27.602  1.00  0.00    -0.269 OA
BRANCH  26  29
ATOM     29  C   UNL A   1      35.912  29.842  28.263  1.00  0.00     0.039 A 
ATOM     30  C   UNL A   1      36.865  29.994  27.251  1.00  0.00     0.014 A 
ATOM     31  C   UNL A   1      36.296  29.329  29.504  1.00  0.00     0.014 A 
ATOM     32  C   UNL A   1      38.200  29.665  27.495  1.00  0.00     0.010 A 
ATOM     33  C   UNL A   1      37.641  29.084  29.775  1.00  0.00     0.010 A 
ATOM     34  C   UNL A   1      38.605  29.231  28.768  1.00  0.00    -0.014 A 
BRANCH  34  35
ATOM     35  C   UNL A   1      40.030  28.909  29.040  1.00  0.00     0.031 A 
ATOM     36  C   UNL A   1      40.622  27.603  28.578  1.00  0.00     0.074 A 
ATOM     37  C   UNL A   1      40.786  29.782  29.734  1.00  0.00     0.049 A 
ATOM     38  N   UNL A   1      41.842  27.150  28.727  1.00  0.00    -0.248 NA
ATOM     39  C   UNL A   1      39.721  26.671  27.880  1.00  0.00     0.031 C 
ATOM     40  C   UNL A   1      40.315  31.053  30.292  1.00  0.00     0.029 A 
ATOM     41  N   UNL A   1      42.110  29.734  30.093  1.00  0.00    -0.354 N 
ATOM     42  C   UNL A   1      41.848  25.881  28.160  1.00  0.00     0.074 A 
ATOM     43  C   UNL A   1      40.500  25.613  27.710  1.00  0.00     0.031 C 
ATOM     44  C   UNL A   1      41.341  31.674  30.898  1.00  0.00     0.029 A 
ATOM     45  C   UNL A   1      42.529  30.833  30.805  1.00  0.00     0.049 A 
ATOM     46  H   UNL A   1      42.704  28.983  29.864  1.00  0.00     0.167 HD
ATOM     47  C   UNL A   1      42.888  25.027  28.007  1.00  0.00     0.037 A 
ATOM     48  C   UNL A   1      43.735  31.128  31.326  1.00  0.00     0.037 A 
ATOM     49  C   UNL A   1      44.237  25.312  28.424  1.00  0.00     0.049 A 
ATOM     50  C   UNL A   1      44.876  30.171  31.121  1.00  0.00     0.074 A 
ATOM     51  C   UNL A   1      45.375  24.547  28.236  1.00  0.00     0.029 A 
ATOM     52  N   UNL A   1      44.627  26.447  29.117  1.00  0.00    -0.354 N 
ATOM     53  N   UNL A   1      44.888  29.018  30.495  1.00  0.00    -0.248 NA
ATOM     54  C   UNL A   1      46.177  30.562  31.680  1.00  0.00     0.031 C 
ATOM     55  C   UNL A   1      46.443  25.191  28.867  1.00  0.00     0.029 A 
ATOM     56  C   UNL A   1      45.983  26.388  29.393  1.00  0.00     0.049 A 
ATOM     57  H   UNL A   1      44.030  27.186  29.375  1.00  0.00     0.167 HD
ATOM     58  C   UNL A   1      46.197  28.560  30.565  1.00  0.00     0.074 A 
ATOM     59  C   UNL A   1      46.956  29.573  31.268  1.00  0.00     0.031 C 
ATOM     60  C   UNL A   1      46.726  27.404  30.095  1.00  0.00     0.037 A 
BRANCH  47  61
ATOM     61  C   UNL A   1      42.617  23.700  27.359  1.00  0.00     0.057 A 
ATOM     62  C   UNL A   1      42.713  23.515  25.974  1.00  0.00     0.134 A 
ATOM     63  C   UNL A   1      42.315  22.576  28.139  1.00  0.00     0.134 A 
ATOM     64  F   UNL A   1      42.987  24.550  25.167  1.00  0.00    -0.206 F 
ATOM     65  C   UNL A   1      42.502  22.266  25.386  1.00  0.00     0.040 A 
ATOM     66  C   UNL A   1      42.129  21.316  27.567  1.00  0.00     0.040 A 
ATOM     67  F   UNL A   1      42.212  22.680  29.473  1.00  0.00    -0.206 F 
ATOM     68  C   UNL A   1      42.218  21.160  26.185  1.00  0.00     0.006 A 
ENDBRANCH  47  61
BRANCH  48  69
ATOM     69  C   UNL A   1      43.933  32.389  32.088  1.00  0.00     0.057 A 
ATOM     70  C   UNL A   1      43.669  32.460  33.461  1.00  0.00     0.134 A 
ATOM     71  C   UNL A   1      44.356  33.563  31.454  1.00  0.00     0.134 A 
ATOM     72  F   UNL A   1      43.244  31.373  34.124  1.00  0.00    -0.206 F 
ATOM     73  C   UNL A   1      43.786  33.657  34.169  1.00  0.00     0.040 A 
ATOM     74  C   UNL A   1      44.507  34.760  32.155  1.00  0.00     0.040 A 
ATOM     75  F   UNL A   1      44.636  33.561  30.142  1.00  0.00    -0.206 F 
ATOM     76  C   UNL A   1      44.209  34.813  33.515  1.00  0.00     0.006 A 
ENDBRANCH  48  69
BRANCH  60  77
ATOM     77  C   UNL A   1      48.199  27.191  30.298  1.00  0.00     0.057 A 
ATOM     78  C   UNL A   1      48.702  26.490  31.401  1.00  0.00     0.134 A 
ATOM     79  C   UNL A   1      49.125  27.681  29.369  1.00  0.00     0.134 A 
ATOM     80  F   UNL A   1      47.870  26.002  32.335  1.00  0.00    -0.206 F 
ATOM     81  C   UNL A   1      50.074  26.316  31.593  1.00  0.00     0.040 A 
ATOM     82  C   UNL A   1      50.497  27.486  29.531  1.00  0.00     0.040 A 
ATOM     83  F   UNL A   1      48.712  28.351  28.282  1.00  0.00    -0.206 F 
ATOM     84  C   UNL A   1      50.975  26.811  30.653  1.00  0.00     0.006 A 
ENDBRANCH  60  77
ENDBRANCH  34  35
ENDBRANCH  26  29
ENDBRANCH  24  25
ENDBRANCH  23  24
ENDBRANCH   1  23
TORSDOF 14
ENDMDL
MODEL 3
REMARK VINA RESULT:     -10.3      5.323     10.765
REMARK SMILES CCc1ccc(S(=O)(=O)Cc2noc(C(=O)NCCCNC(=O)c3ccc(-c4c5nc(c(-c6c(F)cccc6F)c6ccc([nH]6)c(-c6c(F)cccc6F)c6nc(c(-c7c(F)cccc7F)c7ccc4[nH]7)C=C6)C=C5)cc3)n2)cc1
REMARK SMILES IDX 18 1 17 2 15 3 16 4 14 6 11 7 12 8 78 9 13 10 10 11 7 12
REMARK SMILES IDX 8 13 9 14 6 15 3 16 4 17 80 18 5 19 79 20 2 21 1 22 19 23
REMARK SMILES IDX 20 24 21 25 22 26 23 28 24 29 25 30 77 31 26 32 76 33 27 34
REMARK SMILES IDX 28 35 29 36 70 37 30 38 75 39 69 40 71 41 31 42 74 43 68 44
REMARK SMILES IDX 67 45 32 47 58 48 41 49 57 50 42 51 45 52 56 53 72 54 43 55
REMARK SMILES IDX 44 56 55 58 73 59 46 60 33 61 34 62 39 63 35 64 36 65 38 66
REMARK SMILES IDX 40 67 37 68 59 69 60 70 65 71 61 72 62 73 64 74 66 75 63 76
REMARK SMILES IDX 47 77 48 78 53 79 49 80 50 81 52 82 54 83 51 84
REMARK H PARENT 17 5 21 27 71 46 45 57
REMARK Flexibility Score: inf
ROOT
ATOM      1  C   UNL A   1      36.402  19.641  24.989  1.00  0.00     0.118 C 
ENDROOT
BRANCH   1   2
ATOM      2  N   UNL A   1      35.472  18.536  24.814  1.00  0.00    -0.348 N 
ATOM      3  C   UNL A   1      34.102  18.537  24.628  1.00  0.00     0.309 C 
ATOM      4  O   UNL A   1      33.574  17.427  24.511  1.00  0.00    -0.264 OA
ATOM      5  H   UNL A   1      35.885  17.643  24.832  1.00  0.00     0.163 HD
BRANCH   3   6
ATOM      6  C   UNL A   1      33.361  19.783  24.559  1.00  0.00     0.315 A 
ATOM      7  C   UNL A   1      32.295  21.512  24.013  1.00  0.00     0.187 A 
ATOM      8  N   UNL A   1      32.124  21.455  25.337  1.00  0.00    -0.061 NA
ATOM      9  N   UNL A   1      33.090  20.519  23.500  1.00  0.00    -0.186 NA
ATOM     10  O   UNL A   1      32.819  20.297  25.705  1.00  0.00    -0.329 OA
BRANCH   7  11
ATOM     11  C   UNL A   1      31.749  22.559  23.137  1.00  0.00     0.223 C 
BRANCH  11  12
ATOM     12  S   UNL A   1      32.904  23.778  22.594  1.00  0.00     0.185 S 
ATOM     13  O   UNL A   1      32.281  25.072  22.820  1.00  0.00    -0.223 OA
ATOM     14  O   UNL A   1      33.347  23.419  21.258  1.00  0.00    -0.223 OA
BRANCH  12  15
ATOM     15  C   UNL A   1      34.351  23.774  23.629  1.00  0.00     0.067 A 
ATOM     16  C   UNL A   1      36.559  23.853  25.373  1.00  0.00    -0.048 A 
ATOM     17  C   UNL A   1      35.341  24.453  25.729  1.00  0.00     0.005 A 
ATOM     18  C   UNL A   1      36.638  23.185  24.142  1.00  0.00     0.005 A 
ATOM     19  C   UNL A   1      34.250  24.427  24.860  1.00  0.00     0.020 A 
ATOM     20  C   UNL A   1      35.538  23.133  23.275  1.00  0.00     0.020 A 
BRANCH  16  21
ATOM     21  C   UNL A   1      37.698  23.887  26.369  1.00  0.00     0.032 C 
ATOM     22  C   UNL A   1      38.832  22.900  26.126  1.00  0.00     0.009 C 
ENDBRANCH  16  21
ENDBRANCH  12  15
ENDBRANCH  11  12
ENDBRANCH   7  11
ENDBRANCH   3   6
ENDBRANCH   1   2
BRANCH   1  23
ATOM     23  C   UNL A   1      37.841  19.226  24.698  1.00  0.00     0.042 C 
BRANCH  23  24
ATOM     24  C   UNL A   1      38.839  19.707  25.750  1.00  0.00     0.118 C 
BRANCH  24  25
ATOM     25  N   UNL A   1      40.032  18.873  25.802  1.00  0.00    -0.352 N 
ATOM     26  C   UNL A   1      41.353  19.201  25.961  1.00  0.00     0.251 C 
ATOM     27  H   UNL A   1      39.860  17.907  25.707  1.00  0.00     0.163 HD
ATOM     28  O   UNL A   1      42.208  18.342  25.755  1.00  0.00    -0.269 OA
BRANCH  26  29
ATOM     29  C   UNL A   1      41.765  20.561  26.370  1.00  0.00     0.039 A 
ATOM     30  C   UNL A   1      42.109  21.480  25.373  1.00  0.00     0.014 A 
ATOM     31  C   UNL A   1      41.886  20.921  27.714  1.00  0.00     0.014 A 
ATOM     32  C   UNL A   1      42.536  22.762  25.724  1.00  0.00     0.010 A 
ATOM     33  C   UNL A   1      42.228  22.226  28.062  1.00  0.00     0.010 A 
ATOM     34  C   UNL A   1      42.576  23.156  27.072  1.00  0.00    -0.014 A 
BRANCH  34  35
ATOM     35  C   UNL A   1      43.001  24.529  27.447  1.00  0.00     0.031 A 
ATOM     36  C   UNL A   1      44.451  24.928  27.374  1.00  0.00     0.074 A 
ATOM     37  C   UNL A   1      42.081  25.411  27.888  1.00  0.00     0.049 A 
ATOM     38  N   UNL A   1      45.007  26.078  27.663  1.00  0.00    -0.248 NA
ATOM     39  C   UNL A   1      45.408  23.895  26.944  1.00  0.00     0.031 C 
ATOM     40  C   UNL A   1      40.655  25.128  28.065  1.00  0.00     0.029 A 
ATOM     41  N   UNL A   1      42.209  26.723  28.270  1.00  0.00    -0.354 N 
ATOM     42  C   UNL A   1      46.372  25.901  27.467  1.00  0.00     0.074 A 
ATOM     43  C   UNL A   1      46.568  24.520  27.086  1.00  0.00     0.031 C 
ATOM     44  C   UNL A   1      40.037  26.240  28.495  1.00  0.00     0.029 A 
ATOM     45  C   UNL A   1      41.023  27.302  28.658  1.00  0.00     0.049 A 
ATOM     46  H   UNL A   1      43.068  27.205  28.267  1.00  0.00     0.167 HD
ATOM     47  C   UNL A   1      47.368  26.812  27.575  1.00  0.00     0.037 A 
ATOM     48  C   UNL A   1      40.763  28.547  29.100  1.00  0.00     0.037 A 
ATOM     49  C   UNL A   1      47.166  28.195  27.921  1.00  0.00     0.049 A 
ATOM     50  C   UNL A   1      41.887  29.543  29.186  1.00  0.00     0.074 A 
ATOM     51  C   UNL A   1      48.100  29.215  27.971  1.00  0.00     0.029 A 
ATOM     52  N   UNL A   1      45.948  28.750  28.281  1.00  0.00    -0.354 N 
ATOM     53  N   UNL A   1      43.157  29.386  28.903  1.00  0.00    -0.248 NA
ATOM     54  C   UNL A   1      41.537  30.897  29.639  1.00  0.00     0.031 C 
ATOM     55  C   UNL A   1      47.459  30.374  28.419  1.00  0.00     0.029 A 
ATOM     56  C   UNL A   1      46.113  30.091  28.587  1.00  0.00     0.049 A 
ATOM     57  H   UNL A   1      45.093  28.264  28.315  1.00  0.00     0.167 HD
ATOM     58  C   UNL A   1      43.752  30.622  29.119  1.00  0.00     0.074 A 
ATOM     59  C   UNL A   1      42.698  31.526  29.530  1.00  0.00     0.031 C 
ATOM     60  C   UNL A   1      45.054  30.979  28.995  1.00  0.00     0.037 A 
BRANCH  47  61
ATOM     61  C   UNL A   1      48.773  26.350  27.312  1.00  0.00     0.057 A 
ATOM     62  C   UNL A   1      49.339  26.381  26.031  1.00  0.00     0.134 A 
ATOM     63  C   UNL A   1      49.591  25.926  28.368  1.00  0.00     0.134 A 
ATOM     64  F   UNL A   1      48.609  26.765  24.974  1.00  0.00    -0.206 F 
ATOM     65  C   UNL A   1      50.661  25.990  25.807  1.00  0.00     0.040 A 
ATOM     66  C   UNL A   1      50.922  25.559  28.161  1.00  0.00     0.040 A 
ATOM     67  F   UNL A   1      49.115  25.877  29.622  1.00  0.00    -0.206 F 
ATOM     68  C   UNL A   1      51.459  25.587  26.876  1.00  0.00     0.006 A 
ENDBRANCH  47  61
BRANCH  48  69
ATOM     69  C   UNL A   1      39.381  28.930  29.488  1.00  0.00     0.057 A 
ATOM     70  C   UNL A   1      38.907  28.728  30.790  1.00  0.00     0.134 A 
ATOM     71  C   UNL A   1      38.488  29.473  28.557  1.00  0.00     0.134 A 
ATOM     72  F   UNL A   1      39.709  28.194  31.725  1.00  0.00    -0.206 F 
ATOM     73  C   UNL A   1      37.589  29.020  31.144  1.00  0.00     0.040 A 
ATOM     74  C   UNL A   1      37.176  29.800  28.905  1.00  0.00     0.040 A 
ATOM     75  F   UNL A   1      38.881  29.702  27.295  1.00  0.00    -0.206 F 
ATOM     76  C   UNL A   1      36.719  29.560  30.199  1.00  0.00     0.006 A 
ENDBRANCH  48  69
BRANCH  60  77
ATOM     77  C   UNL A   1      45.401  32.413  29.275  1.00  0.00     0.057 A 
ATOM     78  C   UNL A   1      45.808  32.844  30.544  1.00  0.00     0.134 A 
ATOM     79  C   UNL A   1      45.342  33.373  28.257  1.00  0.00     0.134 A 
ATOM     80  F   UNL A   1      45.876  31.977  31.568  1.00  0.00    -0.206 F 
ATOM     81  C   UNL A   1      46.107  34.184  30.800  1.00  0.00     0.040 A 
ATOM     82  C   UNL A   1      45.670  34.709  28.491  1.00  0.00     0.040 A 
ATOM     83  F   UNL A   1      44.972  33.028  27.014  1.00  0.00    -0.206 F 
ATOM     84  C   UNL A   1      46.043  35.119  29.770  1.00  0.00     0.006 A 
ENDBRANCH  60  77
ENDBRANCH  34  35
ENDBRANCH  26  29
ENDBRANCH  24  25
ENDBRANCH  23  24
ENDBRANCH   1  23
TORSDOF 14
ENDMDL
