MODEL 1
REMARK VINA RESULT:     -12.6      0.000      0.000
REMARK SMILES C[C@@H](C(=O)NCCCNC(=O)c1ccc(-c2c3nc(c(-c4c(F)cccc4F)c4ccc([nH]4)c(-c4c(F)cccc4F)c4nc(c(-c5c(F)cccc5F)c5ccc2[nH]5)C=C4)C=C3)cc1)c1ccc2c3cc(Cl)ccc3n(C(=O)c3cocn3)c2c1
REMARK SMILES IDX 6 1 5 2 3 3 4 4 2 6 1 7 66 8 67 9 86 10 68 11 85 12 69 13
REMARK SMILES IDX 77 14 70 15 76 16 71 17 75 18 72 19 74 20 73 21 78 22 79 23
REMARK SMILES IDX 80 24 81 25 84 26 82 27 83 28 7 29 8 30 9 31 10 32 11 34
REMARK SMILES IDX 12 35 13 36 65 37 14 38 64 39 15 40 16 41 17 42 58 43 18 44
REMARK SMILES IDX 63 45 57 46 59 47 19 48 62 49 56 50 55 51 20 53 46 54 29 55
REMARK SMILES IDX 45 56 30 57 33 58 44 59 60 60 31 61 32 62 43 64 61 65 34 66
REMARK SMILES IDX 21 67 22 68 27 69 23 70 24 71 26 72 28 73 25 74 47 75 48 76
REMARK SMILES IDX 53 77 49 78 50 79 52 80 54 81 51 82 35 83 36 84 41 85 37 86
REMARK SMILES IDX 38 87 40 88 42 89 39 90
REMARK H PARENT 5 5 9 33 59 52 33 63
REMARK Flexibility Score: inf
ROOT
ATOM      1  C   UNL A   1      36.386  20.677  24.900  1.00  0.00     0.117 C 
ENDROOT
BRANCH   1   2
ATOM      2  N   UNL A   1      36.639  21.696  23.900  1.00  0.00    -0.356 N 
ATOM      3  C   UNL A   1      35.818  22.638  23.351  1.00  0.00     0.227 C 
ATOM      4  O   UNL A   1      36.316  23.324  22.457  1.00  0.00    -0.274 OA
ATOM      5  H   UNL A   1      37.563  21.712  23.558  1.00  0.00     0.163 HD
BRANCH   3   6
ATOM      6  C   UNL A   1      34.384  22.809  23.879  1.00  0.00     0.105 C 
ATOM      7  C   UNL A   1      33.323  22.605  22.796  1.00  0.00     0.023 C 
BRANCH   6   8
ATOM      8  C   UNL A   1      34.085  24.150  24.548  1.00  0.00    -0.034 A 
ATOM      9  C   UNL A   1      34.830  24.633  25.625  1.00  0.00     0.005 A 
ATOM     10  C   UNL A   1      33.112  24.980  23.962  1.00  0.00     0.032 A 
ATOM     11  C   UNL A   1      34.622  25.921  26.126  1.00  0.00     0.011 A 
ATOM     12  C   UNL A   1      32.902  26.281  24.466  1.00  0.00     0.058 A 
ATOM     13  C   UNL A   1      33.663  26.761  25.527  1.00  0.00     0.008 A 
ATOM     14  N   UNL A   1      32.039  27.304  24.040  1.00  0.00    -0.274 N 
ATOM     15  C   UNL A   1      33.247  28.094  25.785  1.00  0.00     0.009 A 
ATOM     16  C   UNL A   1      32.199  28.398  24.909  1.00  0.00     0.057 A 
ATOM     17  C   UNL A   1      33.667  29.048  26.738  1.00  0.00     0.031 A 
ATOM     18  C   UNL A   1      31.485  29.605  25.053  1.00  0.00     0.029 A 
ATOM     19  C   UNL A   1      32.995  30.262  26.834  1.00  0.00     0.041 A 
ATOM     20  C   UNL A   1      31.907  30.532  26.015  1.00  0.00     0.023 A 
ATOM     21  Cl  UNL A   1      33.498  31.418  28.004  1.00  0.00    -0.084 Cl
BRANCH  14  22
ATOM     22  C   UNL A   1      31.160  27.196  22.928  1.00  0.00     0.284 C 
ATOM     23  O   UNL A   1      31.590  26.537  21.966  1.00  0.00    -0.266 OA
BRANCH  22  24
ATOM     24  C   UNL A   1      29.851  27.825  22.811  1.00  0.00     0.167 A 
ATOM     25  C   UNL A   1      28.680  27.538  23.482  1.00  0.00     0.231 A 
ATOM     26  N   UNL A   1      29.639  28.962  22.040  1.00  0.00    -0.211 NA
ATOM     27  O   UNL A   1      27.737  28.458  23.127  1.00  0.00    -0.451 OA
ATOM     28  C   UNL A   1      28.392  29.288  22.271  1.00  0.00     0.308 A 
ENDBRANCH  22  24
ENDBRANCH  14  22
ENDBRANCH   6   8
ENDBRANCH   3   6
ENDBRANCH   1   2
BRANCH   1  29
ATOM     29  C   UNL A   1      37.542  19.684  25.002  1.00  0.00     0.042 C 
BRANCH  29  30
ATOM     30  C   UNL A   1      38.770  20.216  25.731  1.00  0.00     0.118 C 
BRANCH  30  31
ATOM     31  N   UNL A   1      39.848  19.243  25.807  1.00  0.00    -0.352 N 
ATOM     32  C   UNL A   1      41.185  19.435  26.054  1.00  0.00     0.251 C 
ATOM     33  H   UNL A   1      39.579  18.308  25.660  1.00  0.00     0.163 HD
ATOM     34  O   UNL A   1      41.973  18.508  25.910  1.00  0.00    -0.269 OA
BRANCH  32  35
ATOM     35  C   UNL A   1      41.679  20.766  26.467  1.00  0.00     0.039 A 
ATOM     36  C   UNL A   1      42.158  21.638  25.486  1.00  0.00     0.014 A 
ATOM     37  C   UNL A   1      41.678  21.151  27.810  1.00  0.00     0.014 A 
ATOM     38  C   UNL A   1      42.574  22.922  25.843  1.00  0.00     0.010 A 
ATOM     39  C   UNL A   1      42.022  22.455  28.155  1.00  0.00     0.010 A 
ATOM     40  C   UNL A   1      42.475  23.352  27.176  1.00  0.00    -0.014 A 
BRANCH  40  41
ATOM     41  C   UNL A   1      42.840  24.736  27.569  1.00  0.00     0.031 A 
ATOM     42  C   UNL A   1      44.284  25.124  27.714  1.00  0.00     0.074 A 
ATOM     43  C   UNL A   1      41.869  25.620  27.871  1.00  0.00     0.049 A 
ATOM     44  N   UNL A   1      44.799  26.251  28.136  1.00  0.00    -0.248 NA
ATOM     45  C   UNL A   1      45.281  24.100  27.365  1.00  0.00     0.031 C 
ATOM     46  C   UNL A   1      40.431  25.349  27.819  1.00  0.00     0.029 A 
ATOM     47  N   UNL A   1      41.947  26.920  28.302  1.00  0.00    -0.354 N 
ATOM     48  C   UNL A   1      46.176  26.064  28.121  1.00  0.00     0.074 A 
ATOM     49  C   UNL A   1      46.413  24.702  27.697  1.00  0.00     0.031 C 
ATOM     50  C   UNL A   1      39.762  26.451  28.193  1.00  0.00     0.029 A 
ATOM     51  C   UNL A   1      40.722  27.492  28.547  1.00  0.00     0.049 A 
ATOM     52  H   UNL A   1      42.799  27.397  28.425  1.00  0.00     0.167 HD
ATOM     53  C   UNL A   1      47.153  26.954  28.415  1.00  0.00     0.037 A 
ATOM     54  C   UNL A   1      40.408  28.714  29.018  1.00  0.00     0.037 A 
ATOM     55  C   UNL A   1      46.914  28.316  28.815  1.00  0.00     0.049 A 
ATOM     56  C   UNL A   1      41.509  29.686  29.335  1.00  0.00     0.074 A 
ATOM     57  C   UNL A   1      47.837  29.315  29.068  1.00  0.00     0.029 A 
ATOM     58  N   UNL A   1      45.659  28.869  29.022  1.00  0.00    -0.354 N 
ATOM     59  N   UNL A   1      42.807  29.520  29.248  1.00  0.00    -0.248 NA
ATOM     60  C   UNL A   1      41.105  31.016  29.811  1.00  0.00     0.031 C 
ATOM     61  C   UNL A   1      47.142  30.460  29.470  1.00  0.00     0.029 A 
ATOM     62  C   UNL A   1      45.784  30.188  29.423  1.00  0.00     0.049 A 
ATOM     63  H   UNL A   1      44.805  28.393  28.901  1.00  0.00     0.167 HD
ATOM     64  C   UNL A   1      43.372  30.729  29.634  1.00  0.00     0.074 A 
ATOM     65  C   UNL A   1      42.275  31.623  29.944  1.00  0.00     0.031 C 
ATOM     66  C   UNL A   1      44.682  31.067  29.723  1.00  0.00     0.037 A 
BRANCH  53  67
ATOM     67  C   UNL A   1      48.574  26.477  28.317  1.00  0.00     0.057 A 
ATOM     68  C   UNL A   1      49.310  26.590  27.129  1.00  0.00     0.134 A 
ATOM     69  C   UNL A   1      49.219  25.915  29.425  1.00  0.00     0.134 A 
ATOM     70  F   UNL A   1      48.747  27.108  26.027  1.00  0.00    -0.206 F 
ATOM     71  C   UNL A   1      50.626  26.133  27.040  1.00  0.00     0.040 A 
ATOM     72  C   UNL A   1      50.543  25.480  29.356  1.00  0.00     0.040 A 
ATOM     73  F   UNL A   1      48.575  25.782  30.595  1.00  0.00    -0.206 F 
ATOM     74  C   UNL A   1      51.248  25.581  28.158  1.00  0.00     0.006 A 
ENDBRANCH  53  67
BRANCH  54  75
ATOM     75  C   UNL A   1      38.984  29.089  29.203  1.00  0.00     0.057 A 
ATOM     76  C   UNL A   1      38.365  28.983  30.452  1.00  0.00     0.134 A 
ATOM     77  C   UNL A   1      38.212  29.570  28.138  1.00  0.00     0.134 A 
ATOM     78  F   UNL A   1      39.048  28.512  31.506  1.00  0.00    -0.206 F 
ATOM     79  C   UNL A   1      37.024  29.326  30.636  1.00  0.00     0.040 A 
ATOM     80  C   UNL A   1      36.878  29.939  28.311  1.00  0.00     0.040 A 
ATOM     81  F   UNL A   1      38.750  29.703  26.917  1.00  0.00    -0.206 F 
ATOM     82  C   UNL A   1      36.278  29.812  29.563  1.00  0.00     0.006 A 
ENDBRANCH  54  75
BRANCH  66  83
ATOM     83  C   UNL A   1      45.002  32.471  30.145  1.00  0.00     0.057 A 
ATOM     84  C   UNL A   1      45.089  33.518  29.221  1.00  0.00     0.134 A 
ATOM     85  C   UNL A   1      45.180  32.783  31.498  1.00  0.00     0.134 A 
ATOM     86  F   UNL A   1      44.943  33.281  27.909  1.00  0.00    -0.206 F 
ATOM     87  C   UNL A   1      45.357  34.827  29.627  1.00  0.00     0.040 A 
ATOM     88  C   UNL A   1      45.425  34.091  31.919  1.00  0.00     0.040 A 
ATOM     89  F   UNL A   1      45.103  31.826  32.435  1.00  0.00    -0.206 F 
ATOM     90  C   UNL A   1      45.518  35.116  30.980  1.00  0.00     0.006 A 
ENDBRANCH  66  83
ENDBRANCH  40  41
ENDBRANCH  32  35
ENDBRANCH  30  31
ENDBRANCH  29  30
ENDBRANCH   1  29
TORSDOF 13
ENDMDL
MODEL 2
REMARK VINA RESULT:     -12.6      3.426      8.640
REMARK SMILES C[C@@H](C(=O)NCCCNC(=O)c1ccc(-c2c3nc(c(-c4c(F)cccc4F)c4ccc([nH]4)c(-c4c(F)cccc4F)c4nc(c(-c5c(F)cccc5F)c5ccc2[nH]5)C=C4)C=C3)cc1)c1ccc2c3cc(Cl)ccc3n(C(=O)c3cocn3)c2c1
REMARK SMILES IDX 6 1 5 2 3 3 4 4 2 6 1 7 66 8 67 9 86 10 68 11 85 12 69 13
REMARK SMILES IDX 77 14 70 15 76 16 71 17 75 18 72 19 74 20 73 21 78 22 79 23
REMARK SMILES IDX 80 24 81 25 84 26 82 27 83 28 7 29 8 30 9 31 10 32 11 34
REMARK SMILES IDX 12 35 13 36 65 37 14 38 64 39 15 40 16 41 17 42 58 43 18 44
REMARK SMILES IDX 63 45 57 46 59 47 19 48 62 49 56 50 55 51 20 53 46 54 29 55
REMARK SMILES IDX 45 56 30 57 33 58 44 59 60 60 31 61 32 62 43 64 61 65 34 66
REMARK SMILES IDX 21 67 22 68 27 69 23 70 24 71 26 72 28 73 25 74 47 75 48 76
REMARK SMILES IDX 53 77 49 78 50 79 52 80 54 81 51 82 35 83 36 84 41 85 37 86
REMARK SMILES IDX 38 87 40 88 42 89 39 90
REMARK H PARENT 5 5 9 33 59 52 33 63
REMARK Flexibility Score: inf
ROOT
ATOM      1  C   UNL A   1      31.414  27.418  26.522  1.00  0.00     0.117 C 
ENDROOT
BRANCH   1   2
ATOM      2  N   UNL A   1      31.051  28.101  25.296  1.00  0.00    -0.356 N 
ATOM      3  C   UNL A   1      31.686  28.179  24.090  1.00  0.00     0.227 C 
ATOM      4  O   UNL A   1      31.153  28.908  23.252  1.00  0.00    -0.274 OA
ATOM      5  H   UNL A   1      30.198  28.593  25.339  1.00  0.00     0.163 HD
BRANCH   3   6
ATOM      6  C   UNL A   1      32.963  27.361  23.840  1.00  0.00     0.105 C 
ATOM      7  C   UNL A   1      33.702  27.783  22.569  1.00  0.00     0.023 C 
BRANCH   6   8
ATOM      8  C   UNL A   1      32.770  25.847  23.760  1.00  0.00    -0.034 A 
ATOM      9  C   UNL A   1      31.965  25.244  22.793  1.00  0.00     0.005 A 
ATOM     10  C   UNL A   1      33.546  25.035  24.607  1.00  0.00     0.032 A 
ATOM     11  C   UNL A   1      31.918  23.854  22.658  1.00  0.00     0.011 A 
ATOM     12  C   UNL A   1      33.500  23.631  24.472  1.00  0.00     0.058 A 
ATOM     13  C   UNL A   1      32.709  23.040  23.492  1.00  0.00     0.008 A 
ATOM     14  N   UNL A   1      34.196  22.619  25.151  1.00  0.00    -0.274 N 
ATOM     15  C   UNL A   1      32.893  21.635  23.582  1.00  0.00     0.009 A 
ATOM     16  C   UNL A   1      33.760  21.380  24.651  1.00  0.00     0.057 A 
ATOM     17  C   UNL A   1      32.345  20.561  22.848  1.00  0.00     0.031 A 
ATOM     18  C   UNL A   1      33.992  20.054  25.071  1.00  0.00     0.029 A 
ATOM     19  C   UNL A   1      32.627  19.255  23.232  1.00  0.00     0.041 A 
ATOM     20  C   UNL A   1      33.425  19.002  24.339  1.00  0.00     0.023 A 
ATOM     21  Cl  UNL A   1      31.947  17.945  22.346  1.00  0.00    -0.084 Cl
BRANCH  14  22
ATOM     22  C   UNL A   1      35.155  22.856  26.174  1.00  0.00     0.284 C 
ATOM     23  O   UNL A   1      34.691  23.159  27.286  1.00  0.00    -0.266 OA
BRANCH  22  24
ATOM     24  C   UNL A   1      36.603  22.822  26.011  1.00  0.00     0.167 A 
ATOM     25  C   UNL A   1      37.533  23.813  26.251  1.00  0.00     0.231 A 
ATOM     26  N   UNL A   1      37.287  21.656  25.691  1.00  0.00    -0.211 NA
ATOM     27  O   UNL A   1      38.780  23.294  26.062  1.00  0.00    -0.451 OA
ATOM     28  C   UNL A   1      38.552  21.993  25.743  1.00  0.00     0.308 A 
ENDBRANCH  22  24
ENDBRANCH  14  22
ENDBRANCH   6   8
ENDBRANCH   3   6
ENDBRANCH   1   2
BRANCH   1  29
ATOM     29  C   UNL A   1      31.958  28.387  27.570  1.00  0.00     0.042 C 
BRANCH  29  30
ATOM     30  C   UNL A   1      33.376  28.878  27.301  1.00  0.00     0.118 C 
BRANCH  30  31
ATOM     31  N   UNL A   1      33.503  30.322  27.412  1.00  0.00    -0.352 N 
ATOM     32  C   UNL A   1      34.509  31.071  27.972  1.00  0.00     0.251 C 
ATOM     33  H   UNL A   1      32.760  30.839  27.028  1.00  0.00     0.163 HD
ATOM     34  O   UNL A   1      34.361  32.277  28.124  1.00  0.00    -0.269 OA
BRANCH  32  35
ATOM     35  C   UNL A   1      35.759  30.419  28.418  1.00  0.00     0.039 A 
ATOM     36  C   UNL A   1      36.872  30.452  27.573  1.00  0.00     0.014 A 
ATOM     37  C   UNL A   1      35.834  29.772  29.654  1.00  0.00     0.014 A 
ATOM     38  C   UNL A   1      38.079  29.896  27.997  1.00  0.00     0.010 A 
ATOM     39  C   UNL A   1      37.057  29.284  30.106  1.00  0.00     0.010 A 
ATOM     40  C   UNL A   1      38.191  29.339  29.281  1.00  0.00    -0.014 A 
BRANCH  40  41
ATOM     41  C   UNL A   1      39.483  28.809  29.783  1.00  0.00     0.031 A 
ATOM     42  C   UNL A   1      40.202  29.508  30.902  1.00  0.00     0.074 A 
ATOM     43  C   UNL A   1      40.046  27.745  29.179  1.00  0.00     0.049 A 
ATOM     44  N   UNL A   1      41.379  29.255  31.414  1.00  0.00    -0.248 NA
ATOM     45  C   UNL A   1      39.519  30.662  31.507  1.00  0.00     0.031 C 
ATOM     46  C   UNL A   1      39.473  27.011  28.050  1.00  0.00     0.029 A 
ATOM     47  N   UNL A   1      41.238  27.108  29.418  1.00  0.00    -0.354 N 
ATOM     48  C   UNL A   1      41.585  30.227  32.385  1.00  0.00     0.074 A 
ATOM     49  C   UNL A   1      40.434  31.104  32.355  1.00  0.00     0.031 C 
ATOM     50  C   UNL A   1      40.307  26.019  27.700  1.00  0.00     0.029 A 
ATOM     51  C   UNL A   1      41.490  26.070  28.555  1.00  0.00     0.049 A 
ATOM     52  H   UNL A   1      41.854  27.371  30.139  1.00  0.00     0.167 HD
ATOM     53  C   UNL A   1      42.628  30.365  33.237  1.00  0.00     0.037 A 
ATOM     54  C   UNL A   1      42.559  25.259  28.453  1.00  0.00     0.037 A 
ATOM     55  C   UNL A   1      43.761  29.478  33.279  1.00  0.00     0.049 A 
ATOM     56  C   UNL A   1      43.705  25.429  29.411  1.00  0.00     0.074 A 
ATOM     57  C   UNL A   1      44.836  29.492  34.150  1.00  0.00     0.029 A 
ATOM     58  N   UNL A   1      43.965  28.417  32.409  1.00  0.00    -0.354 N 
ATOM     59  N   UNL A   1      43.854  26.308  30.372  1.00  0.00    -0.248 NA
ATOM     60  C   UNL A   1      44.828  24.491  29.275  1.00  0.00     0.031 C 
ATOM     61  C   UNL A   1      45.712  28.467  33.779  1.00  0.00     0.029 A 
ATOM     62  C   UNL A   1      45.160  27.785  32.707  1.00  0.00     0.049 A 
ATOM     63  H   UNL A   1      43.351  28.153  31.685  1.00  0.00     0.167 HD
ATOM     64  C   UNL A   1      45.074  26.016  30.969  1.00  0.00     0.074 A 
ATOM     65  C   UNL A   1      45.618  24.870  30.270  1.00  0.00     0.031 C 
ATOM     66  C   UNL A   1      45.687  26.641  32.004  1.00  0.00     0.037 A 
BRANCH  53  67
ATOM     67  C   UNL A   1      42.591  31.523  34.192  1.00  0.00     0.057 A 
ATOM     68  C   UNL A   1      43.149  32.767  33.867  1.00  0.00     0.134 A 
ATOM     69  C   UNL A   1      41.975  31.399  35.443  1.00  0.00     0.134 A 
ATOM     70  F   UNL A   1      43.765  32.949  32.689  1.00  0.00    -0.206 F 
ATOM     71  C   UNL A   1      43.123  33.836  34.765  1.00  0.00     0.040 A 
ATOM     72  C   UNL A   1      41.917  32.469  36.338  1.00  0.00     0.040 A 
ATOM     73  F   UNL A   1      41.415  30.238  35.816  1.00  0.00    -0.206 F 
ATOM     74  C   UNL A   1      42.500  33.690  36.002  1.00  0.00     0.006 A 
ENDBRANCH  53  67
BRANCH  54  75
ATOM     75  C   UNL A   1      42.588  24.203  27.411  1.00  0.00     0.057 A 
ATOM     76  C   UNL A   1      43.071  24.468  26.126  1.00  0.00     0.134 A 
ATOM     77  C   UNL A   1      42.140  22.903  27.677  1.00  0.00     0.134 A 
ATOM     78  F   UNL A   1      43.496  25.699  25.805  1.00  0.00    -0.206 F 
ATOM     79  C   UNL A   1      43.095  23.484  25.135  1.00  0.00     0.040 A 
ATOM     80  C   UNL A   1      42.180  21.903  26.705  1.00  0.00     0.040 A 
ATOM     81  F   UNL A   1      41.673  22.583  28.893  1.00  0.00    -0.206 F 
ATOM     82  C   UNL A   1      42.654  22.194  25.427  1.00  0.00     0.006 A 
ENDBRANCH  54  75
BRANCH  66  83
ATOM     83  C   UNL A   1      47.001  26.083  32.463  1.00  0.00     0.057 A 
ATOM     84  C   UNL A   1      47.083  25.137  33.491  1.00  0.00     0.134 A 
ATOM     85  C   UNL A   1      48.193  26.465  31.836  1.00  0.00     0.134 A 
ATOM     86  F   UNL A   1      45.978  24.742  34.142  1.00  0.00    -0.206 F 
ATOM     87  C   UNL A   1      48.309  24.601  33.891  1.00  0.00     0.040 A 
ATOM     88  C   UNL A   1      49.422  25.918  32.210  1.00  0.00     0.040 A 
ATOM     89  F   UNL A   1      48.183  27.362  30.839  1.00  0.00    -0.206 F 
ATOM     90  C   UNL A   1      49.481  24.985  33.244  1.00  0.00     0.006 A 
ENDBRANCH  66  83
ENDBRANCH  40  41
ENDBRANCH  32  35
ENDBRANCH  30  31
ENDBRANCH  29  30
ENDBRANCH   1  29
TORSDOF 13
ENDMDL
MODEL 3
REMARK VINA RESULT:     -12.5      3.268      4.920
REMARK SMILES C[C@@H](C(=O)NCCCNC(=O)c1ccc(-c2c3nc(c(-c4c(F)cccc4F)c4ccc([nH]4)c(-c4c(F)cccc4F)c4nc(c(-c5c(F)cccc5F)c5ccc2[nH]5)C=C4)C=C3)cc1)c1ccc2c3cc(Cl)ccc3n(C(=O)c3cocn3)c2c1
REMARK SMILES IDX 6 1 5 2 3 3 4 4 2 6 1 7 66 8 67 9 86 10 68 11 85 12 69 13
REMARK SMILES IDX 77 14 70 15 76 16 71 17 75 18 72 19 74 20 73 21 78 22 79 23
REMARK SMILES IDX 80 24 81 25 84 26 82 27 83 28 7 29 8 30 9 31 10 32 11 34
REMARK SMILES IDX 12 35 13 36 65 37 14 38 64 39 15 40 16 41 17 42 58 43 18 44
REMARK SMILES IDX 63 45 57 46 59 47 19 48 62 49 56 50 55 51 20 53 46 54 29 55
REMARK SMILES IDX 45 56 30 57 33 58 44 59 60 60 31 61 32 62 43 64 61 65 34 66
REMARK SMILES IDX 21 67 22 68 27 69 23 70 24 71 26 72 28 73 25 74 47 75 48 76
REMARK SMILES IDX 53 77 49 78 50 79 52 80 54 81 51 82 35 83 36 84 41 85 37 86
REMARK SMILES IDX 38 87 40 88 42 89 39 90
REMARK H PARENT 5 5 9 33 59 52 33 63
REMARK Flexibility Score: inf
ROOT
ATOM      1  C   UNL A   1      34.852  22.839  24.483  1.00  0.00     0.117 C 
ENDROOT
BRANCH   1   2
ATOM      2  N   UNL A   1      34.714  22.776  25.925  1.00  0.00    -0.356 N 
ATOM      3  C   UNL A   1      33.605  22.741  26.720  1.00  0.00     0.227 C 
ATOM      4  O   UNL A   1      33.818  22.764  27.933  1.00  0.00    -0.274 OA
ATOM      5  H   UNL A   1      35.568  22.755  26.416  1.00  0.00     0.163 HD
BRANCH   3   6
ATOM      6  C   UNL A   1      32.208  22.645  26.086  1.00  0.00     0.105 C 
ATOM      7  C   UNL A   1      32.070  21.464  25.124  1.00  0.00     0.023 C 
BRANCH   6   8
ATOM      8  C   UNL A   1      31.740  23.889  25.334  1.00  0.00    -0.034 A 
ATOM      9  C   UNL A   1      31.034  23.818  24.131  1.00  0.00     0.005 A 
ATOM     10  C   UNL A   1      31.908  25.140  25.954  1.00  0.00     0.032 A 
ATOM     11  C   UNL A   1      30.500  24.965  23.539  1.00  0.00     0.011 A 
ATOM     12  C   UNL A   1      31.368  26.300  25.357  1.00  0.00     0.058 A 
ATOM     13  C   UNL A   1      30.650  26.216  24.169  1.00  0.00     0.008 A 
ATOM     14  N   UNL A   1      31.360  27.637  25.787  1.00  0.00    -0.274 N 
ATOM     15  C   UNL A   1      30.213  27.526  23.838  1.00  0.00     0.009 A 
ATOM     16  C   UNL A   1      30.713  28.406  24.805  1.00  0.00     0.057 A 
ATOM     17  C   UNL A   1      29.459  28.025  22.753  1.00  0.00     0.031 A 
ATOM     18  C   UNL A   1      30.567  29.798  24.636  1.00  0.00     0.029 A 
ATOM     19  C   UNL A   1      29.269  29.396  22.626  1.00  0.00     0.041 A 
ATOM     20  C   UNL A   1      29.829  30.274  23.544  1.00  0.00     0.023 A 
ATOM     21  Cl  UNL A   1      28.362  30.006  21.296  1.00  0.00    -0.084 Cl
BRANCH  14  22
ATOM     22  C   UNL A   1      31.938  28.088  27.005  1.00  0.00     0.284 C 
ATOM     23  O   UNL A   1      31.341  27.749  28.041  1.00  0.00    -0.266 OA
BRANCH  22  24
ATOM     24  C   UNL A   1      33.116  28.937  27.128  1.00  0.00     0.167 A 
ATOM     25  C   UNL A   1      34.440  28.634  26.885  1.00  0.00     0.231 A 
ATOM     26  N   UNL A   1      33.027  30.296  27.405  1.00  0.00    -0.211 NA
ATOM     27  O   UNL A   1      35.180  29.772  27.029  1.00  0.00    -0.451 OA
ATOM     28  C   UNL A   1      34.260  30.729  27.325  1.00  0.00     0.308 A 
ENDBRANCH  22  24
ENDBRANCH  14  22
ENDBRANCH   6   8
ENDBRANCH   3   6
ENDBRANCH   1   2
BRANCH   1  29
ATOM     29  C   UNL A   1      36.256  23.268  24.066  1.00  0.00     0.042 C 
BRANCH  29  30
ATOM     30  C   UNL A   1      37.146  23.724  25.217  1.00  0.00     0.118 C 
BRANCH  30  31
ATOM     31  N   UNL A   1      38.252  22.815  25.470  1.00  0.00    -0.352 N 
ATOM     32  C   UNL A   1      39.443  23.044  26.114  1.00  0.00     0.251 C 
ATOM     33  H   UNL A   1      38.128  21.899  25.132  1.00  0.00     0.163 HD
ATOM     34  O   UNL A   1      40.328  22.198  26.082  1.00  0.00    -0.269 OA
BRANCH  32  35
ATOM     35  C   UNL A   1      39.670  24.322  26.821  1.00  0.00     0.039 A 
ATOM     36  C   UNL A   1      39.144  24.480  28.106  1.00  0.00     0.014 A 
ATOM     37  C   UNL A   1      40.387  25.361  26.223  1.00  0.00     0.014 A 
ATOM     38  C   UNL A   1      39.394  25.655  28.818  1.00  0.00     0.010 A 
ATOM     39  C   UNL A   1      40.699  26.500  26.960  1.00  0.00     0.010 A 
ATOM     40  C   UNL A   1      40.204  26.659  28.264  1.00  0.00    -0.014 A 
BRANCH  40  41
ATOM     41  C   UNL A   1      40.548  27.883  29.029  1.00  0.00     0.031 A 
ATOM     42  C   UNL A   1      41.863  27.980  29.748  1.00  0.00     0.074 A 
ATOM     43  C   UNL A   1      39.643  28.875  29.140  1.00  0.00     0.049 A 
ATOM     44  N   UNL A   1      42.305  28.923  30.541  1.00  0.00    -0.248 NA
ATOM     45  C   UNL A   1      42.795  26.854  29.575  1.00  0.00     0.031 C 
ATOM     46  C   UNL A   1      38.311  28.878  28.532  1.00  0.00     0.029 A 
ATOM     47  N   UNL A   1      39.699  30.064  29.822  1.00  0.00    -0.354 N 
ATOM     48  C   UNL A   1      43.554  28.495  30.975  1.00  0.00     0.074 A 
ATOM     49  C   UNL A   1      43.777  27.187  30.398  1.00  0.00     0.031 C 
ATOM     50  C   UNL A   1      37.681  30.016  28.859  1.00  0.00     0.029 A 
ATOM     51  C   UNL A   1      38.547  30.806  29.730  1.00  0.00     0.049 A 
ATOM     52  H   UNL A   1      40.489  30.357  30.330  1.00  0.00     0.167 HD
ATOM     53  C   UNL A   1      44.441  29.142  31.767  1.00  0.00     0.037 A 
ATOM     54  C   UNL A   1      38.219  31.984  30.294  1.00  0.00     0.037 A 
ATOM     55  C   UNL A   1      44.226  30.453  32.320  1.00  0.00     0.049 A 
ATOM     56  C   UNL A   1      39.221  32.685  31.167  1.00  0.00     0.074 A 
ATOM     57  C   UNL A   1      45.092  31.223  33.077  1.00  0.00     0.029 A 
ATOM     58  N   UNL A   1      43.058  31.188  32.178  1.00  0.00    -0.354 N 
ATOM     59  N   UNL A   1      40.427  32.303  31.511  1.00  0.00    -0.248 NA
ATOM     60  C   UNL A   1      38.821  33.984  31.725  1.00  0.00     0.031 C 
ATOM     61  C   UNL A   1      44.431  32.404  33.430  1.00  0.00     0.029 A 
ATOM     62  C   UNL A   1      43.171  32.391  32.853  1.00  0.00     0.049 A 
ATOM     63  H   UNL A   1      42.265  30.895  31.672  1.00  0.00     0.167 HD
ATOM     64  C   UNL A   1      40.937  33.322  32.305  1.00  0.00     0.074 A 
ATOM     65  C   UNL A   1      39.915  34.345  32.381  1.00  0.00     0.031 C 
ATOM     66  C   UNL A   1      42.145  33.402  32.915  1.00  0.00     0.037 A 
BRANCH  53  67
ATOM     67  C   UNL A   1      45.729  28.436  32.081  1.00  0.00     0.057 A 
ATOM     68  C   UNL A   1      45.861  27.606  33.203  1.00  0.00     0.134 A 
ATOM     69  C   UNL A   1      46.843  28.572  31.244  1.00  0.00     0.134 A 
ATOM     70  F   UNL A   1      44.835  27.441  34.052  1.00  0.00    -0.206 F 
ATOM     71  C   UNL A   1      47.064  26.962  33.497  1.00  0.00     0.040 A 
ATOM     72  C   UNL A   1      48.043  27.911  31.512  1.00  0.00     0.040 A 
ATOM     73  F   UNL A   1      46.784  29.347  30.150  1.00  0.00    -0.206 F 
ATOM     74  C   UNL A   1      48.158  27.110  32.647  1.00  0.00     0.006 A 
ENDBRANCH  53  67
BRANCH  54  75
ATOM     75  C   UNL A   1      36.884  32.579  30.036  1.00  0.00     0.057 A 
ATOM     76  C   UNL A   1      36.689  33.494  28.996  1.00  0.00     0.134 A 
ATOM     77  C   UNL A   1      35.772  32.242  30.817  1.00  0.00     0.134 A 
ATOM     78  F   UNL A   1      37.721  33.869  28.225  1.00  0.00    -0.206 F 
ATOM     79  C   UNL A   1      35.440  34.066  28.750  1.00  0.00     0.040 A 
ATOM     80  C   UNL A   1      34.512  32.787  30.568  1.00  0.00     0.040 A 
ATOM     81  F   UNL A   1      35.892  31.364  31.824  1.00  0.00    -0.206 F 
ATOM     82  C   UNL A   1      34.344  33.707  29.534  1.00  0.00     0.006 A 
ENDBRANCH  54  75
BRANCH  66  83
ATOM     83  C   UNL A   1      42.440  34.649  33.696  1.00  0.00     0.057 A 
ATOM     84  C   UNL A   1      42.226  34.724  35.076  1.00  0.00     0.134 A 
ATOM     85  C   UNL A   1      42.988  35.771  33.062  1.00  0.00     0.134 A 
ATOM     86  F   UNL A   1      41.689  33.688  35.739  1.00  0.00    -0.206 F 
ATOM     87  C   UNL A   1      42.532  35.878  35.800  1.00  0.00     0.040 A 
ATOM     88  C   UNL A   1      43.321  36.922  33.778  1.00  0.00     0.040 A 
ATOM     89  F   UNL A   1      43.225  35.762  31.742  1.00  0.00    -0.206 F 
ATOM     90  C   UNL A   1      43.089  36.978  35.151  1.00  0.00     0.006 A 
ENDBRANCH  66  83
ENDBRANCH  40  41
ENDBRANCH  32  35
ENDBRANCH  30  31
ENDBRANCH  29  30
ENDBRANCH   1  29
TORSDOF 13
ENDMDL
