MODEL 1
REMARK VINA RESULT:     -12.4      0.000      0.000
REMARK SMILES CCCc1cc2c(cc1Cl)C=C(C(=O)NCCCNC(=O)c1ccc(-c3c4nc(c(-c5c(F)cccc5F)c5ccc([nH]5)c(-c5c(F)cccc5F)c5nc(c(-c6c(F)cccc6F)c6ccc3[nH]6)C=C5)C=C4)cc1)[C@@H](C(F)(F)F)O2
REMARK SMILES IDX 17 1 16 2 15 3 13 4 14 5 12 7 4 8 5 9 9 10 6 11 8 12 10 13
REMARK SMILES IDX 7 14 81 15 11 16 76 17 3 18 2 19 1 20 77 21 78 22 79 23
REMARK SMILES IDX 80 24 18 25 19 26 20 27 21 29 22 30 23 31 75 32 24 33 74 34
REMARK SMILES IDX 25 35 26 36 27 37 68 38 28 39 73 40 67 41 69 42 29 43 72 44
REMARK SMILES IDX 66 45 65 46 30 48 56 49 39 50 55 51 40 52 43 53 54 54 70 55
REMARK SMILES IDX 41 56 42 57 53 59 71 60 44 61 31 62 32 63 37 64 33 65 34 66
REMARK SMILES IDX 36 67 38 68 35 69 57 70 58 71 63 72 59 73 60 74 62 75 64 76
REMARK SMILES IDX 61 77 45 78 46 79 51 80 47 81 48 82 50 83 52 84 49 85
REMARK H PARENT 15 6 19 28 69 47 43 58
REMARK Flexibility Score: inf
ROOT
ATOM      1  C   UNL A   1      31.471  32.115  26.692  1.00  0.00     0.042 C 
ENDROOT
BRANCH   1   2
ATOM      2  C   UNL A   1      31.698  30.633  26.442  1.00  0.00     0.118 C 
BRANCH   2   3
ATOM      3  N   UNL A   1      31.279  30.249  25.105  1.00  0.00    -0.352 N 
ATOM      4  C   UNL A   1      31.180  29.109  24.387  1.00  0.00     0.251 C 
ATOM      5  O   UNL A   1      30.795  29.257  23.222  1.00  0.00    -0.270 OA
ATOM      6  H   UNL A   1      30.987  31.030  24.581  1.00  0.00     0.163 HD
BRANCH   4   7
ATOM      7  C   UNL A   1      31.489  27.745  24.895  1.00  0.00     0.067 C 
ATOM      8  C   UNL A   1      33.825  23.528  26.431  1.00  0.00    -0.026 A 
ATOM      9  C   UNL A   1      32.529  24.073  26.598  1.00  0.00     0.052 A 
ATOM     10  C   UNL A   1      34.762  24.306  25.729  1.00  0.00     0.045 A 
ATOM     11  C   UNL A   1      32.199  25.329  26.099  1.00  0.00     0.128 A 
ATOM     12  C   UNL A   1      34.440  25.605  25.296  1.00  0.00     0.032 A 
ATOM     13  Cl  UNL A   1      36.339  23.773  25.274  1.00  0.00    -0.084 Cl
ATOM     14  C   UNL A   1      33.159  26.118  25.479  1.00  0.00     0.019 A 
ATOM     15  O   UNL A   1      30.904  25.747  26.245  1.00  0.00    -0.475 OA
ATOM     16  C   UNL A   1      32.798  27.455  25.027  1.00  0.00     0.025 C 
ATOM     17  C   UNL A   1      30.465  26.696  25.226  1.00  0.00     0.314 C 
BRANCH   8  18
ATOM     18  C   UNL A   1      33.988  22.122  26.984  1.00  0.00     0.037 C 
BRANCH  18  19
ATOM     19  C   UNL A   1      33.614  20.871  26.188  1.00  0.00     0.001 C 
ATOM     20  C   UNL A   1      34.613  20.517  25.095  1.00  0.00     0.004 C 
ENDBRANCH  18  19
ENDBRANCH   8  18
BRANCH  17  21
ATOM     21  C   UNL A   1      29.971  25.939  23.973  1.00  0.00     0.429 C 
ATOM     22  F   UNL A   1      28.705  26.313  23.663  1.00  0.00    -0.167 F 
ATOM     23  F   UNL A   1      30.727  26.202  22.878  1.00  0.00    -0.167 F 
ATOM     24  F   UNL A   1      29.972  24.596  24.127  1.00  0.00    -0.167 F 
ENDBRANCH  17  21
ENDBRANCH   4   7
ENDBRANCH   2   3
ENDBRANCH   1   2
BRANCH   1  25
ATOM     25  C   UNL A   1      32.707  32.798  27.260  1.00  0.00     0.118 C 
BRANCH  25  26
ATOM     26  N   UNL A   1      32.444  34.187  27.632  1.00  0.00    -0.352 N 
ATOM     27  C   UNL A   1      32.997  34.960  28.624  1.00  0.00     0.251 C 
ATOM     28  H   UNL A   1      31.762  34.640  27.087  1.00  0.00     0.163 HD
ATOM     29  O   UNL A   1      32.473  36.025  28.939  1.00  0.00    -0.269 OA
BRANCH  27  30
ATOM     30  C   UNL A   1      34.213  34.499  29.321  1.00  0.00     0.039 A 
ATOM     31  C   UNL A   1      35.461  34.652  28.720  1.00  0.00     0.014 A 
ATOM     32  C   UNL A   1      34.107  33.897  30.578  1.00  0.00     0.014 A 
ATOM     33  C   UNL A   1      36.566  34.019  29.267  1.00  0.00     0.010 A 
ATOM     34  C   UNL A   1      35.247  33.365  31.187  1.00  0.00     0.010 A 
ATOM     35  C   UNL A   1      36.476  33.373  30.510  1.00  0.00    -0.014 A 
BRANCH  35  36
ATOM     36  C   UNL A   1      37.687  32.713  31.063  1.00  0.00     0.031 A 
ATOM     37  C   UNL A   1      38.280  33.163  32.370  1.00  0.00     0.074 A 
ATOM     38  C   UNL A   1      38.201  31.651  30.415  1.00  0.00     0.049 A 
ATOM     39  N   UNL A   1      39.321  32.689  33.010  1.00  0.00    -0.248 NA
ATOM     40  C   UNL A   1      37.628  34.294  33.048  1.00  0.00     0.031 C 
ATOM     41  C   UNL A   1      37.702  31.112  29.147  1.00  0.00     0.029 A 
ATOM     42  N   UNL A   1      39.233  30.811  30.746  1.00  0.00    -0.354 N 
ATOM     43  C   UNL A   1      39.463  33.477  34.146  1.00  0.00     0.074 A 
ATOM     44  C   UNL A   1      38.419  34.478  34.096  1.00  0.00     0.031 C 
ATOM     45  C   UNL A   1      38.379  29.995  28.845  1.00  0.00     0.029 A 
ATOM     46  C   UNL A   1      39.411  29.784  29.851  1.00  0.00     0.049 A 
ATOM     47  H   UNL A   1      39.791  30.931  31.548  1.00  0.00     0.167 HD
ATOM     48  C   UNL A   1      40.373  33.370  35.142  1.00  0.00     0.037 A 
ATOM     49  C   UNL A   1      40.318  28.792  29.831  1.00  0.00     0.037 A 
ATOM     50  C   UNL A   1      41.396  32.357  35.198  1.00  0.00     0.049 A 
ATOM     51  C   UNL A   1      41.343  28.726  30.924  1.00  0.00     0.074 A 
ATOM     52  C   UNL A   1      42.359  32.153  36.172  1.00  0.00     0.029 A 
ATOM     53  N   UNL A   1      41.586  31.373  34.238  1.00  0.00    -0.354 N 
ATOM     54  N   UNL A   1      41.467  29.483  31.988  1.00  0.00    -0.248 NA
ATOM     55  C   UNL A   1      42.363  27.677  30.805  1.00  0.00     0.031 C 
ATOM     56  C   UNL A   1      43.155  31.070  35.781  1.00  0.00     0.029 A 
ATOM     57  C   UNL A   1      42.662  30.573  34.585  1.00  0.00     0.049 A 
ATOM     58  H   UNL A   1      41.036  31.261  33.429  1.00  0.00     0.167 HD
ATOM     59  C   UNL A   1      42.574  28.998  32.669  1.00  0.00     0.074 A 
ATOM     60  C   UNL A   1      43.067  27.863  31.914  1.00  0.00     0.031 C 
ATOM     61  C   UNL A   1      43.139  29.453  33.814  1.00  0.00     0.037 A 
BRANCH  48  62
ATOM     62  C   UNL A   1      40.318  34.391  36.242  1.00  0.00     0.057 A 
ATOM     63  C   UNL A   1      41.023  35.597  36.131  1.00  0.00     0.134 A 
ATOM     64  C   UNL A   1      39.588  34.178  37.419  1.00  0.00     0.134 A 
ATOM     65  F   UNL A   1      41.745  35.865  35.034  1.00  0.00    -0.206 F 
ATOM     66  C   UNL A   1      41.001  36.553  37.148  1.00  0.00     0.040 A 
ATOM     67  C   UNL A   1      39.540  35.136  38.434  1.00  0.00     0.040 A 
ATOM     68  F   UNL A   1      38.879  33.051  37.584  1.00  0.00    -0.206 F 
ATOM     69  C   UNL A   1      40.253  36.327  38.301  1.00  0.00     0.006 A 
ENDBRANCH  48  62
BRANCH  49  70
ATOM     70  C   UNL A   1      40.315  27.801  28.726  1.00  0.00     0.057 A 
ATOM     71  C   UNL A   1      39.599  26.602  28.826  1.00  0.00     0.134 A 
ATOM     72  C   UNL A   1      41.024  28.034  27.543  1.00  0.00     0.134 A 
ATOM     73  F   UNL A   1      38.905  26.318  29.938  1.00  0.00    -0.206 F 
ATOM     74  C   UNL A   1      39.597  25.664  27.794  1.00  0.00     0.040 A 
ATOM     75  C   UNL A   1      41.007  27.117  26.491  1.00  0.00     0.040 A 
ATOM     76  F   UNL A   1      41.714  29.172  27.382  1.00  0.00    -0.206 F 
ATOM     77  C   UNL A   1      40.297  25.925  26.618  1.00  0.00     0.006 A 
ENDBRANCH  49  70
BRANCH  61  78
ATOM     78  C   UNL A   1      44.336  28.705  34.316  1.00  0.00     0.057 A 
ATOM     79  C   UNL A   1      44.185  27.597  35.158  1.00  0.00     0.134 A 
ATOM     80  C   UNL A   1      45.640  29.081  33.964  1.00  0.00     0.134 A 
ATOM     81  F   UNL A   1      42.965  27.190  35.536  1.00  0.00    -0.206 F 
ATOM     82  C   UNL A   1      45.288  26.886  35.629  1.00  0.00     0.040 A 
ATOM     83  C   UNL A   1      46.750  28.362  34.409  1.00  0.00     0.040 A 
ATOM     84  F   UNL A   1      45.849  30.123  33.145  1.00  0.00    -0.206 F 
ATOM     85  C   UNL A   1      46.575  27.264  35.248  1.00  0.00     0.006 A 
ENDBRANCH  61  78
ENDBRANCH  35  36
ENDBRANCH  27  30
ENDBRANCH  25  26
ENDBRANCH   1  25
TORSDOF 13
ENDMDL
MODEL 2
REMARK VINA RESULT:     -12.4      5.367     10.171
REMARK SMILES CCCc1cc2c(cc1Cl)C=C(C(=O)NCCCNC(=O)c1ccc(-c3c4nc(c(-c5c(F)cccc5F)c5ccc([nH]5)c(-c5c(F)cccc5F)c5nc(c(-c6c(F)cccc6F)c6ccc3[nH]6)C=C5)C=C4)cc1)[C@@H](C(F)(F)F)O2
REMARK SMILES IDX 17 1 16 2 15 3 13 4 14 5 12 7 4 8 5 9 9 10 6 11 8 12 10 13
REMARK SMILES IDX 7 14 81 15 11 16 76 17 3 18 2 19 1 20 77 21 78 22 79 23
REMARK SMILES IDX 80 24 18 25 19 26 20 27 21 29 22 30 23 31 75 32 24 33 74 34
REMARK SMILES IDX 25 35 26 36 27 37 68 38 28 39 73 40 67 41 69 42 29 43 72 44
REMARK SMILES IDX 66 45 65 46 30 48 56 49 39 50 55 51 40 52 43 53 54 54 70 55
REMARK SMILES IDX 41 56 42 57 53 59 71 60 44 61 31 62 32 63 37 64 33 65 34 66
REMARK SMILES IDX 36 67 38 68 35 69 57 70 58 71 63 72 59 73 60 74 62 75 64 76
REMARK SMILES IDX 61 77 45 78 46 79 51 80 47 81 48 82 50 83 52 84 49 85
REMARK H PARENT 15 6 19 28 69 47 43 58
REMARK Flexibility Score: inf
ROOT
ATOM      1  C   UNL A   1      37.778  19.902  24.750  1.00  0.00     0.042 C 
ENDROOT
BRANCH   1   2
ATOM      2  C   UNL A   1      36.449  20.513  25.160  1.00  0.00     0.118 C 
BRANCH   2   3
ATOM      3  N   UNL A   1      35.357  19.568  25.001  1.00  0.00    -0.352 N 
ATOM      4  C   UNL A   1      34.008  19.615  24.923  1.00  0.00     0.251 C 
ATOM      5  O   UNL A   1      33.453  18.515  24.825  1.00  0.00    -0.270 OA
ATOM      6  H   UNL A   1      35.689  18.644  24.930  1.00  0.00     0.163 HD
BRANCH   4   7
ATOM      7  C   UNL A   1      33.191  20.858  24.945  1.00  0.00     0.067 C 
ATOM      8  C   UNL A   1      30.794  25.140  23.710  1.00  0.00    -0.026 A 
ATOM      9  C   UNL A   1      30.683  24.196  24.760  1.00  0.00     0.052 A 
ATOM     10  C   UNL A   1      31.736  24.868  22.702  1.00  0.00     0.045 A 
ATOM     11  C   UNL A   1      31.462  23.042  24.787  1.00  0.00     0.128 A 
ATOM     12  C   UNL A   1      32.462  23.664  22.700  1.00  0.00     0.032 A 
ATOM     13  Cl  UNL A   1      32.147  25.953  21.424  1.00  0.00    -0.084 Cl
ATOM     14  C   UNL A   1      32.329  22.751  23.741  1.00  0.00     0.019 A 
ATOM     15  O   UNL A   1      31.338  22.221  25.874  1.00  0.00    -0.475 OA
ATOM     16  C   UNL A   1      33.081  21.504  23.768  1.00  0.00     0.025 C 
ATOM     17  C   UNL A   1      32.533  21.435  26.166  1.00  0.00     0.314 C 
BRANCH   8  18
ATOM     18  C   UNL A   1      29.913  26.366  23.877  1.00  0.00     0.037 C 
BRANCH  18  19
ATOM     19  C   UNL A   1      30.480  27.768  24.099  1.00  0.00     0.001 C 
ATOM     20  C   UNL A   1      31.403  27.874  25.305  1.00  0.00     0.004 C 
ENDBRANCH  18  19
ENDBRANCH   8  18
BRANCH  17  21
ATOM     21  C   UNL A   1      33.513  22.260  27.030  1.00  0.00     0.429 C 
ATOM     22  F   UNL A   1      34.385  21.440  27.669  1.00  0.00    -0.167 F 
ATOM     23  F   UNL A   1      34.262  23.113  26.289  1.00  0.00    -0.167 F 
ATOM     24  F   UNL A   1      32.895  23.006  27.971  1.00  0.00    -0.167 F 
ENDBRANCH  17  21
ENDBRANCH   4   7
ENDBRANCH   2   3
ENDBRANCH   1   2
BRANCH   1  25
ATOM     25  C   UNL A   1      38.901  20.270  25.709  1.00  0.00     0.118 C 
BRANCH  25  26
ATOM     26  N   UNL A   1      39.893  19.203  25.828  1.00  0.00    -0.352 N 
ATOM     27  C   UNL A   1      41.254  19.272  26.002  1.00  0.00     0.251 C 
ATOM     28  H   UNL A   1      39.529  18.290  25.775  1.00  0.00     0.163 HD
ATOM     29  O   UNL A   1      41.947  18.273  25.833  1.00  0.00    -0.269 OA
BRANCH  27  30
ATOM     30  C   UNL A   1      41.882  20.554  26.374  1.00  0.00     0.039 A 
ATOM     31  C   UNL A   1      41.999  20.909  27.717  1.00  0.00     0.014 A 
ATOM     32  C   UNL A   1      42.345  21.417  25.376  1.00  0.00     0.014 A 
ATOM     33  C   UNL A   1      42.377  22.199  28.054  1.00  0.00     0.010 A 
ATOM     34  C   UNL A   1      42.840  22.676  25.727  1.00  0.00     0.010 A 
ATOM     35  C   UNL A   1      42.808  23.098  27.065  1.00  0.00    -0.014 A 
BRANCH  35  36
ATOM     36  C   UNL A   1      43.209  24.469  27.471  1.00  0.00     0.031 A 
ATOM     37  C   UNL A   1      44.643  24.915  27.367  1.00  0.00     0.074 A 
ATOM     38  C   UNL A   1      42.256  25.337  27.861  1.00  0.00     0.049 A 
ATOM     39  N   UNL A   1      45.167  26.080  27.658  1.00  0.00    -0.248 NA
ATOM     40  C   UNL A   1      45.618  23.928  26.878  1.00  0.00     0.031 C 
ATOM     41  C   UNL A   1      40.830  25.024  27.986  1.00  0.00     0.029 A 
ATOM     42  N   UNL A   1      42.332  26.666  28.189  1.00  0.00    -0.354 N 
ATOM     43  C   UNL A   1      46.530  25.957  27.414  1.00  0.00     0.074 A 
ATOM     44  C   UNL A   1      46.758  24.596  26.977  1.00  0.00     0.031 C 
ATOM     45  C   UNL A   1      40.158  26.143  28.294  1.00  0.00     0.029 A 
ATOM     46  C   UNL A   1      41.112  27.231  28.467  1.00  0.00     0.049 A 
ATOM     47  H   UNL A   1      43.179  27.166  28.221  1.00  0.00     0.167 HD
ATOM     48  C   UNL A   1      47.499  26.894  27.534  1.00  0.00     0.037 A 
ATOM     49  C   UNL A   1      40.796  28.483  28.840  1.00  0.00     0.037 A 
ATOM     50  C   UNL A   1      47.263  28.254  27.947  1.00  0.00     0.049 A 
ATOM     51  C   UNL A   1      41.896  29.489  29.009  1.00  0.00     0.074 A 
ATOM     52  C   UNL A   1      48.175  29.287  28.087  1.00  0.00     0.029 A 
ATOM     53  N   UNL A   1      46.020  28.772  28.283  1.00  0.00    -0.354 N 
ATOM     54  N   UNL A   1      43.180  29.354  28.780  1.00  0.00    -0.248 NA
ATOM     55  C   UNL A   1      41.504  30.814  29.503  1.00  0.00     0.031 C 
ATOM     56  C   UNL A   1      47.489  30.418  28.546  1.00  0.00     0.029 A 
ATOM     57  C   UNL A   1      46.145  30.102  28.651  1.00  0.00     0.049 A 
ATOM     58  H   UNL A   1      45.175  28.268  28.265  1.00  0.00     0.167 HD
ATOM     59  C   UNL A   1      43.750  30.580  29.096  1.00  0.00     0.074 A 
ATOM     60  C   UNL A   1      42.667  31.452  29.502  1.00  0.00     0.031 C 
ATOM     61  C   UNL A   1      45.053  30.949  29.059  1.00  0.00     0.037 A 
BRANCH  48  62
ATOM     62  C   UNL A   1      48.910  26.473  27.237  1.00  0.00     0.057 A 
ATOM     63  C   UNL A   1      49.419  26.559  25.934  1.00  0.00     0.134 A 
ATOM     64  C   UNL A   1      49.758  25.963  28.228  1.00  0.00     0.134 A 
ATOM     65  F   UNL A   1      48.661  27.034  24.936  1.00  0.00    -0.206 F 
ATOM     66  C   UNL A   1      50.721  26.156  25.631  1.00  0.00     0.040 A 
ATOM     67  C   UNL A   1      51.070  25.578  27.941  1.00  0.00     0.040 A 
ATOM     68  F   UNL A   1      49.338  25.868  29.499  1.00  0.00    -0.206 F 
ATOM     69  C   UNL A   1      51.552  25.670  26.636  1.00  0.00     0.006 A 
ENDBRANCH  48  62
BRANCH  49  70
ATOM     70  C   UNL A   1      39.381  28.848  29.105  1.00  0.00     0.057 A 
ATOM     71  C   UNL A   1      38.572  29.400  28.105  1.00  0.00     0.134 A 
ATOM     72  C   UNL A   1      38.806  28.646  30.364  1.00  0.00     0.134 A 
ATOM     73  F   UNL A   1      39.068  29.622  26.878  1.00  0.00    -0.206 F 
ATOM     74  C   UNL A   1      37.244  29.750  28.349  1.00  0.00     0.040 A 
ATOM     75  C   UNL A   1      37.470  28.965  30.614  1.00  0.00     0.040 A 
ATOM     76  F   UNL A   1      39.526  28.105  31.357  1.00  0.00    -0.206 F 
ATOM     77  C   UNL A   1      36.687  29.524  29.606  1.00  0.00     0.006 A 
ENDBRANCH  49  70
BRANCH  61  78
ATOM     78  C   UNL A   1      45.361  32.362  29.453  1.00  0.00     0.057 A 
ATOM     79  C   UNL A   1      45.324  33.393  28.505  1.00  0.00     0.134 A 
ATOM     80  C   UNL A   1      45.694  32.703  30.771  1.00  0.00     0.134 A 
ATOM     81  F   UNL A   1      45.018  33.131  27.226  1.00  0.00    -0.206 F 
ATOM     82  C   UNL A   1      45.602  34.713  28.856  1.00  0.00     0.040 A 
ATOM     83  C   UNL A   1      45.948  34.025  31.138  1.00  0.00     0.040 A 
ATOM     84  F   UNL A   1      45.728  31.763  31.728  1.00  0.00    -0.206 F 
ATOM     85  C   UNL A   1      45.908  35.033  30.178  1.00  0.00     0.006 A 
ENDBRANCH  61  78
ENDBRANCH  35  36
ENDBRANCH  27  30
ENDBRANCH  25  26
ENDBRANCH   1  25
TORSDOF 13
ENDMDL
MODEL 3
REMARK VINA RESULT:     -12.4      5.409     10.340
REMARK SMILES CCCc1cc2c(cc1Cl)C=C(C(=O)NCCCNC(=O)c1ccc(-c3c4nc(c(-c5c(F)cccc5F)c5ccc([nH]5)c(-c5c(F)cccc5F)c5nc(c(-c6c(F)cccc6F)c6ccc3[nH]6)C=C5)C=C4)cc1)[C@@H](C(F)(F)F)O2
REMARK SMILES IDX 17 1 16 2 15 3 13 4 14 5 12 7 4 8 5 9 9 10 6 11 8 12 10 13
REMARK SMILES IDX 7 14 81 15 11 16 76 17 3 18 2 19 1 20 77 21 78 22 79 23
REMARK SMILES IDX 80 24 18 25 19 26 20 27 21 29 22 30 23 31 75 32 24 33 74 34
REMARK SMILES IDX 25 35 26 36 27 37 68 38 28 39 73 40 67 41 69 42 29 43 72 44
REMARK SMILES IDX 66 45 65 46 30 48 56 49 39 50 55 51 40 52 43 53 54 54 70 55
REMARK SMILES IDX 41 56 42 57 53 59 71 60 44 61 31 62 32 63 37 64 33 65 34 66
REMARK SMILES IDX 36 67 38 68 35 69 57 70 58 71 63 72 59 73 60 74 62 75 64 76
REMARK SMILES IDX 61 77 45 78 46 79 51 80 47 81 48 82 50 83 52 84 49 85
REMARK H PARENT 15 6 19 28 69 47 43 58
REMARK Flexibility Score: inf
ROOT
ATOM      1  C   UNL A   1      38.108  19.657  24.962  1.00  0.00     0.042 C 
ENDROOT
BRANCH   1   2
ATOM      2  C   UNL A   1      37.127  20.794  24.731  1.00  0.00     0.118 C 
BRANCH   2   3
ATOM      3  N   UNL A   1      35.783  20.429  25.149  1.00  0.00    -0.352 N 
ATOM      4  C   UNL A   1      34.556  20.995  25.143  1.00  0.00     0.251 C 
ATOM      5  O   UNL A   1      33.664  20.312  25.659  1.00  0.00    -0.270 OA
ATOM      6  H   UNL A   1      35.761  19.526  25.541  1.00  0.00     0.163 HD
BRANCH   4   7
ATOM      7  C   UNL A   1      34.230  22.331  24.576  1.00  0.00     0.067 C 
ATOM      8  C   UNL A   1      33.521  27.292  23.880  1.00  0.00    -0.026 A 
ATOM      9  C   UNL A   1      33.660  26.171  23.027  1.00  0.00     0.052 A 
ATOM     10  C   UNL A   1      33.651  27.067  25.262  1.00  0.00     0.045 A 
ATOM     11  C   UNL A   1      33.927  24.902  23.532  1.00  0.00     0.128 A 
ATOM     12  C   UNL A   1      33.995  25.795  25.754  1.00  0.00     0.032 A 
ATOM     13  Cl  UNL A   1      33.362  28.252  26.483  1.00  0.00    -0.084 Cl
ATOM     14  C   UNL A   1      34.132  24.711  24.893  1.00  0.00     0.019 A 
ATOM     15  O   UNL A   1      33.976  23.864  22.642  1.00  0.00    -0.475 OA
ATOM     16  C   UNL A   1      34.474  23.382  25.381  1.00  0.00     0.025 C 
ATOM     17  C   UNL A   1      33.632  22.567  23.217  1.00  0.00     0.314 C 
BRANCH   8  18
ATOM     18  C   UNL A   1      33.170  28.584  23.162  1.00  0.00     0.037 C 
BRANCH  18  19
ATOM     19  C   UNL A   1      31.739  28.945  22.760  1.00  0.00     0.001 C 
ATOM     20  C   UNL A   1      30.809  29.176  23.943  1.00  0.00     0.004 C 
ENDBRANCH  18  19
ENDBRANCH   8  18
BRANCH  17  21
ATOM     21  C   UNL A   1      32.100  22.370  23.205  1.00  0.00     0.429 C 
ATOM     22  F   UNL A   1      31.772  21.265  22.490  1.00  0.00    -0.167 F 
ATOM     23  F   UNL A   1      31.593  22.186  24.449  1.00  0.00    -0.167 F 
ATOM     24  F   UNL A   1      31.433  23.414  22.666  1.00  0.00    -0.167 F 
ENDBRANCH  17  21
ENDBRANCH   4   7
ENDBRANCH   2   3
ENDBRANCH   1   2
BRANCH   1  25
ATOM     25  C   UNL A   1      39.306  20.091  25.795  1.00  0.00     0.118 C 
BRANCH  25  26
ATOM     26  N   UNL A   1      40.319  19.042  25.891  1.00  0.00    -0.352 N 
ATOM     27  C   UNL A   1      41.682  19.133  26.025  1.00  0.00     0.251 C 
ATOM     28  H   UNL A   1      39.967  18.123  25.852  1.00  0.00     0.163 HD
ATOM     29  O   UNL A   1      42.387  18.145  25.842  1.00  0.00    -0.269 OA
BRANCH  27  30
ATOM     30  C   UNL A   1      42.299  20.428  26.373  1.00  0.00     0.039 A 
ATOM     31  C   UNL A   1      42.281  20.876  27.693  1.00  0.00     0.014 A 
ATOM     32  C   UNL A   1      42.889  21.208  25.374  1.00  0.00     0.014 A 
ATOM     33  C   UNL A   1      42.653  22.180  27.978  1.00  0.00     0.010 A 
ATOM     34  C   UNL A   1      43.376  22.480  25.689  1.00  0.00     0.010 A 
ATOM     35  C   UNL A   1      43.211  22.997  26.982  1.00  0.00    -0.014 A 
BRANCH  35  36
ATOM     36  C   UNL A   1      43.602  24.387  27.333  1.00  0.00     0.031 A 
ATOM     37  C   UNL A   1      45.014  24.865  27.130  1.00  0.00     0.074 A 
ATOM     38  C   UNL A   1      42.653  25.240  27.763  1.00  0.00     0.049 A 
ATOM     39  N   UNL A   1      45.526  26.048  27.362  1.00  0.00    -0.248 NA
ATOM     40  C   UNL A   1      45.982  23.890  26.603  1.00  0.00     0.031 C 
ATOM     41  C   UNL A   1      41.246  24.897  27.984  1.00  0.00     0.029 A 
ATOM     42  N   UNL A   1      42.715  26.578  28.057  1.00  0.00    -0.354 N 
ATOM     43  C   UNL A   1      46.873  25.952  27.036  1.00  0.00     0.074 A 
ATOM     44  C   UNL A   1      47.108  24.588  26.615  1.00  0.00     0.031 C 
ATOM     45  C   UNL A   1      40.566  26.006  28.308  1.00  0.00     0.029 A 
ATOM     46  C   UNL A   1      41.500  27.120  28.398  1.00  0.00     0.049 A 
ATOM     47  H   UNL A   1      43.550  27.100  28.025  1.00  0.00     0.167 HD
ATOM     48  C   UNL A   1      47.824  26.916  27.076  1.00  0.00     0.037 A 
ATOM     49  C   UNL A   1      41.176  28.373  28.763  1.00  0.00     0.037 A 
ATOM     50  C   UNL A   1      47.580  28.279  27.474  1.00  0.00     0.049 A 
ATOM     51  C   UNL A   1      42.259  29.408  28.842  1.00  0.00     0.074 A 
ATOM     52  C   UNL A   1      48.472  29.336  27.534  1.00  0.00     0.029 A 
ATOM     53  N   UNL A   1      46.347  28.774  27.876  1.00  0.00    -0.354 N 
ATOM     54  N   UNL A   1      43.529  29.299  28.536  1.00  0.00    -0.248 NA
ATOM     55  C   UNL A   1      41.865  30.734  29.331  1.00  0.00     0.031 C 
ATOM     56  C   UNL A   1      47.787  30.460  28.011  1.00  0.00     0.029 A 
ATOM     57  C   UNL A   1      46.460  30.114  28.206  1.00  0.00     0.049 A 
ATOM     58  H   UNL A   1      45.516  28.249  27.921  1.00  0.00     0.167 HD
ATOM     59  C   UNL A   1      44.086  30.545  28.789  1.00  0.00     0.074 A 
ATOM     60  C   UNL A   1      43.008  31.400  29.244  1.00  0.00     0.031 C 
ATOM     61  C   UNL A   1      45.375  30.945  28.663  1.00  0.00     0.037 A 
BRANCH  48  62
ATOM     62  C   UNL A   1      49.224  26.521  26.700  1.00  0.00     0.057 A 
ATOM     63  C   UNL A   1      49.689  26.706  25.391  1.00  0.00     0.134 A 
ATOM     64  C   UNL A   1      50.106  25.941  27.622  1.00  0.00     0.134 A 
ATOM     65  F   UNL A   1      48.897  27.252  24.457  1.00  0.00    -0.206 F 
ATOM     66  C   UNL A   1      50.980  26.330  25.014  1.00  0.00     0.040 A 
ATOM     67  C   UNL A   1      51.407  25.583  27.262  1.00  0.00     0.040 A 
ATOM     68  F   UNL A   1      49.729  25.750  28.895  1.00  0.00    -0.206 F 
ATOM     69  C   UNL A   1      51.845  25.773  25.952  1.00  0.00     0.006 A 
ENDBRANCH  48  62
BRANCH  49  70
ATOM     70  C   UNL A   1      39.772  28.709  29.108  1.00  0.00     0.057 A 
ATOM     71  C   UNL A   1      38.876  29.174  28.138  1.00  0.00     0.134 A 
ATOM     72  C   UNL A   1      39.294  28.566  30.415  1.00  0.00     0.134 A 
ATOM     73  F   UNL A   1      39.276  29.337  26.868  1.00  0.00    -0.206 F 
ATOM     74  C   UNL A   1      37.557  29.498  28.457  1.00  0.00     0.040 A 
ATOM     75  C   UNL A   1      37.969  28.859  30.742  1.00  0.00     0.040 A 
ATOM     76  F   UNL A   1      40.100  28.109  31.383  1.00  0.00    -0.206 F 
ATOM     77  C   UNL A   1      37.098  29.332  29.762  1.00  0.00     0.006 A 
ENDBRANCH  49  70
BRANCH  61  78
ATOM     78  C   UNL A   1      45.671  32.373  29.007  1.00  0.00     0.057 A 
ATOM     79  C   UNL A   1      45.552  33.380  28.040  1.00  0.00     0.134 A 
ATOM     80  C   UNL A   1      46.072  32.753  30.295  1.00  0.00     0.134 A 
ATOM     81  F   UNL A   1      45.177  33.081  26.788  1.00  0.00    -0.206 F 
ATOM     82  C   UNL A   1      45.817  34.715  28.345  1.00  0.00     0.040 A 
ATOM     83  C   UNL A   1      46.316  34.088  30.617  1.00  0.00     0.040 A 
ATOM     84  F   UNL A   1      46.187  31.837  31.268  1.00  0.00    -0.206 F 
ATOM     85  C   UNL A   1      46.193  35.072  29.638  1.00  0.00     0.006 A 
ENDBRANCH  61  78
ENDBRANCH  35  36
ENDBRANCH  27  30
ENDBRANCH  25  26
ENDBRANCH   1  25
TORSDOF 13
ENDMDL
