MODEL 1
REMARK VINA RESULT:     -11.8      0.000      0.000
REMARK SMILES O=C(NCCCNC(=O)c1ccc(S(=O)(=O)Cc2ncccn2)c(F)c1)c1ccc(-c2c3nc(c(-c4c(F)cccc4F)c4ccc([nH]4)c(-c4c(F)cccc4F)c4nc(c(-c5c(F)cccc5F)c5ccc2[nH]5)C=C4)C=C3)cc1
REMARK SMILES IDX 5 1 4 2 3 3 1 4 2 5 27 7 28 8 80 9 29 10 79 11 30 12 31 13
REMARK SMILES IDX 32 14 73 15 33 16 78 17 72 18 74 19 34 20 77 21 71 22 70 23
REMARK SMILES IDX 35 25 61 26 44 27 60 28 45 29 48 30 59 31 75 32 46 33 47 34
REMARK SMILES IDX 58 36 76 37 49 38 36 39 37 40 42 41 38 42 39 43 41 44 43 45
REMARK SMILES IDX 40 46 62 47 63 48 68 49 64 50 65 51 67 52 69 53 66 54 50 55
REMARK SMILES IDX 51 56 56 57 52 58 53 59 55 60 57 61 54 62 6 63 7 64 8 65
REMARK SMILES IDX 9 67 10 68 11 69 26 70 12 71 24 72 13 73 25 74 14 75 15 76
REMARK SMILES IDX 16 77 17 78 18 79 19 80 23 81 20 82 22 83 21 84
REMARK H PARENT 3 6 74 24 48 35 7 66
REMARK Flexibility Score: inf
ROOT
ATOM      1  C   UNL A   1      31.540  32.002  26.904  1.00  0.00     0.042 C 
ENDROOT
BRANCH   1   2
ATOM      2  C   UNL A   1      32.754  32.921  26.890  1.00  0.00     0.118 C 
BRANCH   2   3
ATOM      3  N   UNL A   1      32.526  34.158  27.625  1.00  0.00    -0.352 N 
ATOM      4  O   UNL A   1      32.643  35.611  29.337  1.00  0.00    -0.269 OA
ATOM      5  C   UNL A   1      33.124  34.638  28.762  1.00  0.00     0.251 C 
ATOM      6  H   UNL A   1      31.832  34.744  27.243  1.00  0.00     0.163 HD
BRANCH   5   7
ATOM      7  C   UNL A   1      34.329  33.982  29.309  1.00  0.00     0.039 A 
ATOM      8  C   UNL A   1      35.608  34.430  28.973  1.00  0.00     0.014 A 
ATOM      9  C   UNL A   1      34.171  32.927  30.212  1.00  0.00     0.014 A 
ATOM     10  C   UNL A   1      36.727  33.739  29.423  1.00  0.00     0.010 A 
ATOM     11  C   UNL A   1      35.297  32.291  30.737  1.00  0.00     0.010 A 
ATOM     12  C   UNL A   1      36.583  32.677  30.327  1.00  0.00    -0.014 A 
BRANCH  12  13
ATOM     13  C   UNL A   1      37.782  32.019  30.900  1.00  0.00     0.031 A 
ATOM     14  C   UNL A   1      38.526  30.969  30.130  1.00  0.00     0.074 A 
ATOM     15  C   UNL A   1      38.173  32.354  32.143  1.00  0.00     0.049 A 
ATOM     16  N   UNL A   1      39.536  30.229  30.513  1.00  0.00    -0.248 NA
ATOM     17  C   UNL A   1      38.075  30.707  28.755  1.00  0.00     0.031 C 
ATOM     18  C   UNL A   1      37.527  33.364  32.984  1.00  0.00     0.029 A 
ATOM     19  N   UNL A   1      39.197  31.878  32.922  1.00  0.00    -0.354 N 
ATOM     20  C   UNL A   1      39.822  29.397  29.441  1.00  0.00     0.074 A 
ATOM     21  C   UNL A   1      38.868  29.707  28.398  1.00  0.00     0.031 C 
ATOM     22  C   UNL A   1      38.179  33.445  34.151  1.00  0.00     0.029 A 
ATOM     23  C   UNL A   1      39.241  32.444  34.172  1.00  0.00     0.049 A 
ATOM     24  H   UNL A   1      39.838  31.197  32.614  1.00  0.00     0.167 HD
ATOM     25  C   UNL A   1      40.796  28.460  29.342  1.00  0.00     0.037 A 
ATOM     26  C   UNL A   1      40.020  32.169  35.234  1.00  0.00     0.037 A 
ATOM     27  C   UNL A   1      41.747  28.173  30.385  1.00  0.00     0.049 A 
ATOM     28  C   UNL A   1      41.058  31.093  35.122  1.00  0.00     0.074 A 
ATOM     29  C   UNL A   1      42.809  27.286  30.358  1.00  0.00     0.029 A 
ATOM     30  N   UNL A   1      41.741  28.753  31.646  1.00  0.00    -0.354 N 
ATOM     31  N   UNL A   1      41.348  30.339  34.090  1.00  0.00    -0.248 NA
ATOM     32  C   UNL A   1      41.874  30.822  36.313  1.00  0.00     0.031 C 
ATOM     33  C   UNL A   1      43.401  27.277  31.622  1.00  0.00     0.029 A 
ATOM     34  C   UNL A   1      42.755  28.210  32.419  1.00  0.00     0.049 A 
ATOM     35  H   UNL A   1      41.111  29.446  31.947  1.00  0.00     0.167 HD
ATOM     36  C   UNL A   1      42.389  29.518  34.497  1.00  0.00     0.074 A 
ATOM     37  C   UNL A   1      42.683  29.868  35.872  1.00  0.00     0.031 C 
ATOM     38  C   UNL A   1      43.042  28.567  33.786  1.00  0.00     0.037 A 
BRANCH  25  39
ATOM     39  C   UNL A   1      40.869  27.652  28.078  1.00  0.00     0.057 A 
ATOM     40  C   UNL A   1      40.224  26.409  27.994  1.00  0.00     0.134 A 
ATOM     41  C   UNL A   1      41.614  28.066  26.966  1.00  0.00     0.134 A 
ATOM     42  F   UNL A   1      39.502  25.946  29.025  1.00  0.00    -0.206 F 
ATOM     43  C   UNL A   1      40.324  25.608  26.856  1.00  0.00     0.040 A 
ATOM     44  C   UNL A   1      41.697  27.286  25.810  1.00  0.00     0.040 A 
ATOM     45  F   UNL A   1      42.250  29.247  26.976  1.00  0.00    -0.206 F 
ATOM     46  C   UNL A   1      41.057  26.050  25.756  1.00  0.00     0.006 A 
ENDBRANCH  25  39
BRANCH  26  47
ATOM     47  C   UNL A   1      39.819  32.943  36.482  1.00  0.00     0.057 A 
ATOM     48  C   UNL A   1      38.826  32.589  37.406  1.00  0.00     0.134 A 
ATOM     49  C   UNL A   1      40.538  34.117  36.724  1.00  0.00     0.134 A 
ATOM     50  F   UNL A   1      38.091  31.482  37.217  1.00  0.00    -0.206 F 
ATOM     51  C   UNL A   1      38.528  33.396  38.504  1.00  0.00     0.040 A 
ATOM     52  C   UNL A   1      40.267  34.922  37.832  1.00  0.00     0.040 A 
ATOM     53  F   UNL A   1      41.508  34.500  35.881  1.00  0.00    -0.206 F 
ATOM     54  C   UNL A   1      39.249  34.569  38.717  1.00  0.00     0.006 A 
ENDBRANCH  26  47
BRANCH  38  55
ATOM     55  C   UNL A   1      44.166  27.832  34.456  1.00  0.00     0.057 A 
ATOM     56  C   UNL A   1      43.916  26.647  35.160  1.00  0.00     0.134 A 
ATOM     57  C   UNL A   1      45.458  28.366  34.523  1.00  0.00     0.134 A 
ATOM     58  F   UNL A   1      42.695  26.090  35.144  1.00  0.00    -0.206 F 
ATOM     59  C   UNL A   1      44.901  26.039  35.939  1.00  0.00     0.040 A 
ATOM     60  C   UNL A   1      46.459  27.753  35.279  1.00  0.00     0.040 A 
ATOM     61  F   UNL A   1      45.764  29.492  33.861  1.00  0.00    -0.206 F 
ATOM     62  C   UNL A   1      46.176  26.595  36.003  1.00  0.00     0.006 A 
ENDBRANCH  38  55
ENDBRANCH  12  13
ENDBRANCH   5   7
ENDBRANCH   2   3
ENDBRANCH   1   2
BRANCH   1  63
ATOM     63  C   UNL A   1      31.891  30.521  26.952  1.00  0.00     0.118 C 
BRANCH  63  64
ATOM     64  N   UNL A   1      33.194  30.289  27.559  1.00  0.00    -0.352 N 
ATOM     65  C   UNL A   1      34.106  29.306  27.291  1.00  0.00     0.251 C 
ATOM     66  H   UNL A   1      33.454  30.929  28.260  1.00  0.00     0.163 HD
ATOM     67  O   UNL A   1      35.069  29.121  28.032  1.00  0.00    -0.269 OA
BRANCH  65  68
ATOM     68  C   UNL A   1      33.926  28.452  26.105  1.00  0.00     0.042 A 
ATOM     69  C   UNL A   1      34.152  28.968  24.823  1.00  0.00     0.015 A 
ATOM     70  C   UNL A   1      33.554  27.120  26.287  1.00  0.00     0.054 A 
ATOM     71  C   UNL A   1      33.974  28.148  23.711  1.00  0.00     0.024 A 
ATOM     72  C   UNL A   1      33.363  26.313  25.171  1.00  0.00     0.142 A 
ATOM     73  C   UNL A   1      33.587  26.814  23.893  1.00  0.00     0.103 A 
ATOM     74  F   UNL A   1      32.965  25.051  25.367  1.00  0.00    -0.206 F 
BRANCH  73  75
ATOM     75  S   UNL A   1      33.432  25.785  22.467  1.00  0.00     0.188 S 
ATOM     76  O   UNL A   1      33.758  26.662  21.352  1.00  0.00    -0.223 OA
ATOM     77  O   UNL A   1      34.262  24.613  22.699  1.00  0.00    -0.223 OA
BRANCH  75  78
ATOM     78  C   UNL A   1      31.773  25.253  22.240  1.00  0.00     0.219 C 
BRANCH  78  79
ATOM     79  C   UNL A   1      30.776  26.247  22.740  1.00  0.00     0.143 A 
ATOM     80  N   UNL A   1      29.873  25.772  23.623  1.00  0.00    -0.240 NA
ATOM     81  N   UNL A   1      30.689  27.468  22.183  1.00  0.00    -0.240 NA
ATOM     82  C   UNL A   1      28.859  26.591  23.965  1.00  0.00     0.115 A 
ATOM     83  C   UNL A   1      29.659  28.250  22.560  1.00  0.00     0.115 A 
ATOM     84  C   UNL A   1      28.699  27.855  23.456  1.00  0.00     0.040 A 
ENDBRANCH  78  79
ENDBRANCH  75  78
ENDBRANCH  73  75
ENDBRANCH  65  68
ENDBRANCH  63  64
ENDBRANCH   1  63
TORSDOF 13
ENDMDL
MODEL 2
REMARK VINA RESULT:     -11.6      4.665      9.285
REMARK SMILES O=C(NCCCNC(=O)c1ccc(S(=O)(=O)Cc2ncccn2)c(F)c1)c1ccc(-c2c3nc(c(-c4c(F)cccc4F)c4ccc([nH]4)c(-c4c(F)cccc4F)c4nc(c(-c5c(F)cccc5F)c5ccc2[nH]5)C=C4)C=C3)cc1
REMARK SMILES IDX 5 1 4 2 3 3 1 4 2 5 27 7 28 8 80 9 29 10 79 11 30 12 31 13
REMARK SMILES IDX 32 14 73 15 33 16 78 17 72 18 74 19 34 20 77 21 71 22 70 23
REMARK SMILES IDX 35 25 61 26 44 27 60 28 45 29 48 30 59 31 75 32 46 33 47 34
REMARK SMILES IDX 58 36 76 37 49 38 36 39 37 40 42 41 38 42 39 43 41 44 43 45
REMARK SMILES IDX 40 46 62 47 63 48 68 49 64 50 65 51 67 52 69 53 66 54 50 55
REMARK SMILES IDX 51 56 56 57 52 58 53 59 55 60 57 61 54 62 6 63 7 64 8 65
REMARK SMILES IDX 9 67 10 68 11 69 26 70 12 71 24 72 13 73 25 74 14 75 15 76
REMARK SMILES IDX 16 77 17 78 18 79 19 80 23 81 20 82 22 83 21 84
REMARK H PARENT 3 6 74 24 48 35 7 66
REMARK Flexibility Score: inf
ROOT
ATOM      1  C   UNL A   1      38.121  19.842  24.861  1.00  0.00     0.042 C 
ENDROOT
BRANCH   1   2
ATOM      2  C   UNL A   1      39.054  19.936  26.060  1.00  0.00     0.118 C 
BRANCH   2   3
ATOM      3  N   UNL A   1      40.285  19.182  25.870  1.00  0.00    -0.352 N 
ATOM      4  O   UNL A   1      42.485  18.838  25.555  1.00  0.00    -0.269 OA
ATOM      5  C   UNL A   1      41.594  19.584  25.952  1.00  0.00     0.251 C 
ATOM      6  H   UNL A   1      40.157  18.230  25.648  1.00  0.00     0.163 HD
BRANCH   5   7
ATOM      7  C   UNL A   1      41.936  20.913  26.497  1.00  0.00     0.039 A 
ATOM      8  C   UNL A   1      42.179  21.998  25.652  1.00  0.00     0.014 A 
ATOM      9  C   UNL A   1      41.969  21.085  27.884  1.00  0.00     0.014 A 
ATOM     10  C   UNL A   1      42.591  23.214  26.183  1.00  0.00     0.010 A 
ATOM     11  C   UNL A   1      42.294  22.331  28.419  1.00  0.00     0.010 A 
ATOM     12  C   UNL A   1      42.632  23.399  27.572  1.00  0.00    -0.014 A 
BRANCH  12  13
ATOM     13  C   UNL A   1      42.955  24.731  28.138  1.00  0.00     0.031 A 
ATOM     14  C   UNL A   1      41.878  25.744  28.386  1.00  0.00     0.074 A 
ATOM     15  C   UNL A   1      44.242  25.032  28.392  1.00  0.00     0.049 A 
ATOM     16  N   UNL A   1      41.993  26.985  28.788  1.00  0.00    -0.248 NA
ATOM     17  C   UNL A   1      40.493  25.315  28.143  1.00  0.00     0.031 C 
ATOM     18  C   UNL A   1      45.373  24.123  28.193  1.00  0.00     0.029 A 
ATOM     19  N   UNL A   1      44.819  26.185  28.862  1.00  0.00    -0.354 N 
ATOM     20  C   UNL A   1      40.702  27.493  28.819  1.00  0.00     0.074 A 
ATOM     21  C   UNL A   1      39.820  26.434  28.377  1.00  0.00     0.031 C 
ATOM     22  C   UNL A   1      46.503  24.745  28.554  1.00  0.00     0.029 A 
ATOM     23  C   UNL A   1      46.188  26.117  28.940  1.00  0.00     0.049 A 
ATOM     24  H   UNL A   1      44.302  26.982  29.119  1.00  0.00     0.167 HD
ATOM     25  C   UNL A   1      40.296  28.732  29.186  1.00  0.00     0.037 A 
ATOM     26  C   UNL A   1      47.098  27.058  29.249  1.00  0.00     0.037 A 
ATOM     27  C   UNL A   1      41.186  29.770  29.638  1.00  0.00     0.049 A 
ATOM     28  C   UNL A   1      46.632  28.439  29.603  1.00  0.00     0.074 A 
ATOM     29  C   UNL A   1      40.865  31.038  30.091  1.00  0.00     0.029 A 
ATOM     30  N   UNL A   1      42.569  29.668  29.679  1.00  0.00    -0.354 N 
ATOM     31  N   UNL A   1      45.406  28.897  29.668  1.00  0.00    -0.248 NA
ATOM     32  C   UNL A   1      47.665  29.434  29.920  1.00  0.00     0.031 C 
ATOM     33  C   UNL A   1      42.055  31.726  30.336  1.00  0.00     0.029 A 
ATOM     34  C   UNL A   1      43.118  30.866  30.107  1.00  0.00     0.049 A 
ATOM     35  H   UNL A   1      43.084  28.865  29.439  1.00  0.00     0.167 HD
ATOM     36  C   UNL A   1      45.515  30.226  30.051  1.00  0.00     0.074 A 
ATOM     37  C   UNL A   1      46.930  30.501  30.206  1.00  0.00     0.031 C 
ATOM     38  C   UNL A   1      44.527  31.130  30.261  1.00  0.00     0.037 A 
BRANCH  25  39
ATOM     39  C   UNL A   1      38.831  29.050  29.088  1.00  0.00     0.057 A 
ATOM     40  C   UNL A   1      38.284  29.498  27.877  1.00  0.00     0.134 A 
ATOM     41  C   UNL A   1      37.972  28.970  30.191  1.00  0.00     0.134 A 
ATOM     42  F   UNL A   1      39.051  29.609  26.783  1.00  0.00    -0.206 F 
ATOM     43  C   UNL A   1      36.940  29.859  27.770  1.00  0.00     0.040 A 
ATOM     44  C   UNL A   1      36.618  29.301  30.089  1.00  0.00     0.040 A 
ATOM     45  F   UNL A   1      38.427  28.542  31.378  1.00  0.00    -0.206 F 
ATOM     46  C   UNL A   1      36.102  29.754  28.877  1.00  0.00     0.006 A 
ENDBRANCH  25  39
BRANCH  26  47
ATOM     47  C   UNL A   1      48.535  26.694  29.225  1.00  0.00     0.057 A 
ATOM     48  C   UNL A   1      49.169  26.162  30.356  1.00  0.00     0.134 A 
ATOM     49  C   UNL A   1      49.329  26.974  28.110  1.00  0.00     0.134 A 
ATOM     50  F   UNL A   1      48.461  25.888  31.462  1.00  0.00    -0.206 F 
ATOM     51  C   UNL A   1      50.549  25.959  30.392  1.00  0.00     0.040 A 
ATOM     52  C   UNL A   1      50.708  26.754  28.124  1.00  0.00     0.040 A 
ATOM     53  F   UNL A   1      48.776  27.474  26.996  1.00  0.00    -0.206 F 
ATOM     54  C   UNL A   1      51.323  26.259  29.273  1.00  0.00     0.006 A 
ENDBRANCH  26  47
BRANCH  38  55
ATOM     55  C   UNL A   1      44.914  32.509  30.706  1.00  0.00     0.057 A 
ATOM     56  C   UNL A   1      44.991  32.816  32.072  1.00  0.00     0.134 A 
ATOM     57  C   UNL A   1      45.071  33.559  29.795  1.00  0.00     0.134 A 
ATOM     58  F   UNL A   1      44.839  31.855  32.996  1.00  0.00    -0.206 F 
ATOM     59  C   UNL A   1      45.171  34.126  32.516  1.00  0.00     0.040 A 
ATOM     60  C   UNL A   1      45.278  34.871  30.227  1.00  0.00     0.040 A 
ATOM     61  F   UNL A   1      45.021  33.328  28.475  1.00  0.00    -0.206 F 
ATOM     62  C   UNL A   1      45.311  35.159  31.592  1.00  0.00     0.006 A 
ENDBRANCH  38  55
ENDBRANCH  12  13
ENDBRANCH   5   7
ENDBRANCH   2   3
ENDBRANCH   1   2
BRANCH   1  63
ATOM     63  C   UNL A   1      37.375  21.135  24.559  1.00  0.00     0.118 C 
BRANCH  63  64
ATOM     64  N   UNL A   1      37.996  22.285  25.201  1.00  0.00    -0.352 N 
ATOM     65  C   UNL A   1      37.420  23.452  25.621  1.00  0.00     0.251 C 
ATOM     66  H   UNL A   1      38.965  22.211  25.354  1.00  0.00     0.163 HD
ATOM     67  O   UNL A   1      38.111  24.411  25.955  1.00  0.00    -0.269 OA
BRANCH  65  68
ATOM     68  C   UNL A   1      35.952  23.563  25.663  1.00  0.00     0.042 A 
ATOM     69  C   UNL A   1      35.248  23.195  26.816  1.00  0.00     0.015 A 
ATOM     70  C   UNL A   1      35.285  24.066  24.546  1.00  0.00     0.054 A 
ATOM     71  C   UNL A   1      33.860  23.304  26.839  1.00  0.00     0.024 A 
ATOM     72  C   UNL A   1      33.898  24.155  24.571  1.00  0.00     0.142 A 
ATOM     73  C   UNL A   1      33.189  23.795  25.711  1.00  0.00     0.103 A 
ATOM     74  F   UNL A   1      33.275  24.600  23.473  1.00  0.00    -0.206 F 
BRANCH  73  75
ATOM     75  S   UNL A   1      31.435  23.979  25.796  1.00  0.00     0.188 S 
ATOM     76  O   UNL A   1      30.925  23.038  24.808  1.00  0.00    -0.223 OA
ATOM     77  O   UNL A   1      31.058  23.801  27.189  1.00  0.00    -0.223 OA
BRANCH  75  78
ATOM     78  C   UNL A   1      30.935  25.584  25.287  1.00  0.00     0.219 C 
BRANCH  78  79
ATOM     79  C   UNL A   1      31.681  26.670  25.992  1.00  0.00     0.143 A 
ATOM     80  N   UNL A   1      31.124  27.111  27.138  1.00  0.00    -0.240 NA
ATOM     81  N   UNL A   1      32.724  27.278  25.399  1.00  0.00    -0.240 NA
ATOM     82  C   UNL A   1      31.675  28.200  27.711  1.00  0.00     0.115 A 
ATOM     83  C   UNL A   1      33.241  28.361  26.012  1.00  0.00     0.115 A 
ATOM     84  C   UNL A   1      32.746  28.875  27.182  1.00  0.00     0.040 A 
ENDBRANCH  78  79
ENDBRANCH  75  78
ENDBRANCH  73  75
ENDBRANCH  65  68
ENDBRANCH  63  64
ENDBRANCH   1  63
TORSDOF 13
ENDMDL
MODEL 3
REMARK VINA RESULT:     -11.6      5.062      9.842
REMARK SMILES O=C(NCCCNC(=O)c1ccc(S(=O)(=O)Cc2ncccn2)c(F)c1)c1ccc(-c2c3nc(c(-c4c(F)cccc4F)c4ccc([nH]4)c(-c4c(F)cccc4F)c4nc(c(-c5c(F)cccc5F)c5ccc2[nH]5)C=C4)C=C3)cc1
REMARK SMILES IDX 5 1 4 2 3 3 1 4 2 5 27 7 28 8 80 9 29 10 79 11 30 12 31 13
REMARK SMILES IDX 32 14 73 15 33 16 78 17 72 18 74 19 34 20 77 21 71 22 70 23
REMARK SMILES IDX 35 25 61 26 44 27 60 28 45 29 48 30 59 31 75 32 46 33 47 34
REMARK SMILES IDX 58 36 76 37 49 38 36 39 37 40 42 41 38 42 39 43 41 44 43 45
REMARK SMILES IDX 40 46 62 47 63 48 68 49 64 50 65 51 67 52 69 53 66 54 50 55
REMARK SMILES IDX 51 56 56 57 52 58 53 59 55 60 57 61 54 62 6 63 7 64 8 65
REMARK SMILES IDX 9 67 10 68 11 69 26 70 12 71 24 72 13 73 25 74 14 75 15 76
REMARK SMILES IDX 16 77 17 78 18 79 19 80 23 81 20 82 22 83 21 84
REMARK H PARENT 3 6 74 24 48 35 7 66
REMARK Flexibility Score: inf
ROOT
ATOM      1  C   UNL A   1      38.019  19.730  24.756  1.00  0.00     0.042 C 
ENDROOT
BRANCH   1   2
ATOM      2  C   UNL A   1      38.957  19.957  25.934  1.00  0.00     0.118 C 
BRANCH   2   3
ATOM      3  N   UNL A   1      40.109  19.066  25.908  1.00  0.00    -0.352 N 
ATOM      4  O   UNL A   1      42.271  18.467  25.751  1.00  0.00    -0.269 OA
ATOM      5  C   UNL A   1      41.449  19.344  25.999  1.00  0.00     0.251 C 
ATOM      6  H   UNL A   1      39.891  18.110  25.810  1.00  0.00     0.163 HD
BRANCH   5   7
ATOM      7  C   UNL A   1      41.908  20.696  26.377  1.00  0.00     0.039 A 
ATOM      8  C   UNL A   1      42.135  21.677  25.408  1.00  0.00     0.014 A 
ATOM      9  C   UNL A   1      42.071  21.000  27.731  1.00  0.00     0.014 A 
ATOM     10  C   UNL A   1      42.656  22.911  25.777  1.00  0.00     0.010 A 
ATOM     11  C   UNL A   1      42.508  22.270  28.109  1.00  0.00     0.010 A 
ATOM     12  C   UNL A   1      42.827  23.227  27.132  1.00  0.00    -0.014 A 
BRANCH  12  13
ATOM     13  C   UNL A   1      43.270  24.585  27.530  1.00  0.00     0.031 A 
ATOM     14  C   UNL A   1      42.278  25.620  27.972  1.00  0.00     0.074 A 
ATOM     15  C   UNL A   1      44.579  24.889  27.455  1.00  0.00     0.049 A 
ATOM     16  N   UNL A   1      42.479  26.879  28.267  1.00  0.00    -0.248 NA
ATOM     17  C   UNL A   1      40.877  25.190  28.089  1.00  0.00     0.031 C 
ATOM     18  C   UNL A   1      45.634  23.961  27.042  1.00  0.00     0.029 A 
ATOM     19  N   UNL A   1      45.246  26.060  27.710  1.00  0.00    -0.354 N 
ATOM     20  C   UNL A   1      41.230  27.399  28.576  1.00  0.00     0.074 A 
ATOM     21  C   UNL A   1      40.274  26.325  28.415  1.00  0.00     0.031 C 
ATOM     22  C   UNL A   1      46.815  24.592  27.089  1.00  0.00     0.029 A 
ATOM     23  C   UNL A   1      46.594  25.985  27.463  1.00  0.00     0.049 A 
ATOM     24  H   UNL A   1      44.800  26.875  28.038  1.00  0.00     0.167 HD
ATOM     25  C   UNL A   1      40.917  28.660  28.960  1.00  0.00     0.037 A 
ATOM     26  C   UNL A   1      47.547  26.935  27.495  1.00  0.00     0.037 A 
ATOM     27  C   UNL A   1      41.885  29.713  29.130  1.00  0.00     0.049 A 
ATOM     28  C   UNL A   1      47.172  28.336  27.873  1.00  0.00     0.074 A 
ATOM     29  C   UNL A   1      41.675  31.007  29.575  1.00  0.00     0.029 A 
ATOM     30  N   UNL A   1      43.238  29.602  28.846  1.00  0.00    -0.354 N 
ATOM     31  N   UNL A   1      45.995  28.808  28.203  1.00  0.00    -0.248 NA
ATOM     32  C   UNL A   1      48.247  29.338  27.880  1.00  0.00     0.031 C 
ATOM     33  C   UNL A   1      42.886  31.697  29.493  1.00  0.00     0.029 A 
ATOM     34  C   UNL A   1      43.867  30.817  29.065  1.00  0.00     0.049 A 
ATOM     35  H   UNL A   1      43.686  28.783  28.535  1.00  0.00     0.167 HD
ATOM     36  C   UNL A   1      46.186  30.155  28.475  1.00  0.00     0.074 A 
ATOM     37  C   UNL A   1      47.595  30.425  28.274  1.00  0.00     0.031 C 
ATOM     38  C   UNL A   1      45.272  31.077  28.864  1.00  0.00     0.037 A 
BRANCH  25  39
ATOM     39  C   UNL A   1      39.470  28.984  29.196  1.00  0.00     0.057 A 
ATOM     40  C   UNL A   1      38.676  29.480  28.151  1.00  0.00     0.134 A 
ATOM     41  C   UNL A   1      38.871  28.864  30.456  1.00  0.00     0.134 A 
ATOM     42  F   UNL A   1      39.188  29.631  26.921  1.00  0.00    -0.206 F 
ATOM     43  C   UNL A   1      37.346  29.848  28.353  1.00  0.00     0.040 A 
ATOM     44  C   UNL A   1      37.531  29.201  30.664  1.00  0.00     0.040 A 
ATOM     45  F   UNL A   1      39.570  28.390  31.499  1.00  0.00    -0.206 F 
ATOM     46  C   UNL A   1      36.768  29.702  29.613  1.00  0.00     0.006 A 
ENDBRANCH  25  39
BRANCH  26  47
ATOM     47  C   UNL A   1      48.938  26.557  27.150  1.00  0.00     0.057 A 
ATOM     48  C   UNL A   1      49.391  26.580  25.824  1.00  0.00     0.134 A 
ATOM     49  C   UNL A   1      49.810  26.057  28.122  1.00  0.00     0.134 A 
ATOM     50  F   UNL A   1      48.594  27.033  24.845  1.00  0.00    -0.206 F 
ATOM     51  C   UNL A   1      50.646  26.082  25.472  1.00  0.00     0.040 A 
ATOM     52  C   UNL A   1      51.078  25.578  27.787  1.00  0.00     0.040 A 
ATOM     53  F   UNL A   1      49.436  26.021  29.409  1.00  0.00    -0.206 F 
ATOM     54  C   UNL A   1      51.492  25.576  26.456  1.00  0.00     0.006 A 
ENDBRANCH  26  47
BRANCH  38  55
ATOM     55  C   UNL A   1      45.747  32.475  29.128  1.00  0.00     0.057 A 
ATOM     56  C   UNL A   1      46.091  32.871  30.428  1.00  0.00     0.134 A 
ATOM     57  C   UNL A   1      45.730  33.458  28.133  1.00  0.00     0.134 A 
ATOM     58  F   UNL A   1      46.117  31.978  31.429  1.00  0.00    -0.206 F 
ATOM     59  C   UNL A   1      46.364  34.204  30.736  1.00  0.00     0.040 A 
ATOM     60  C   UNL A   1      46.025  34.792  28.424  1.00  0.00     0.040 A 
ATOM     61  F   UNL A   1      45.421  33.140  26.867  1.00  0.00    -0.206 F 
ATOM     62  C   UNL A   1      46.326  35.170  29.733  1.00  0.00     0.006 A 
ENDBRANCH  38  55
ENDBRANCH  12  13
ENDBRANCH   5   7
ENDBRANCH   2   3
ENDBRANCH   1   2
BRANCH   1  63
ATOM     63  C   UNL A   1      36.930  20.787  24.626  1.00  0.00     0.118 C 
BRANCH  63  64
ATOM     64  N   UNL A   1      36.007  20.760  25.751  1.00  0.00    -0.352 N 
ATOM     65  C   UNL A   1      34.955  21.592  26.023  1.00  0.00     0.251 C 
ATOM     66  H   UNL A   1      36.161  20.043  26.408  1.00  0.00     0.163 HD
ATOM     67  O   UNL A   1      34.400  21.567  27.118  1.00  0.00    -0.269 OA
BRANCH  65  68
ATOM     68  C   UNL A   1      34.492  22.535  24.993  1.00  0.00     0.042 A 
ATOM     69  C   UNL A   1      34.854  23.887  25.057  1.00  0.00     0.015 A 
ATOM     70  C   UNL A   1      33.711  22.052  23.942  1.00  0.00     0.054 A 
ATOM     71  C   UNL A   1      34.405  24.767  24.075  1.00  0.00     0.024 A 
ATOM     72  C   UNL A   1      33.254  22.941  22.976  1.00  0.00     0.142 A 
ATOM     73  C   UNL A   1      33.610  24.284  23.028  1.00  0.00     0.103 A 
ATOM     74  F   UNL A   1      32.471  22.463  22.001  1.00  0.00    -0.206 F 
BRANCH  73  75
ATOM     75  S   UNL A   1      33.109  25.414  21.767  1.00  0.00     0.188 S 
ATOM     76  O   UNL A   1      33.895  26.612  22.024  1.00  0.00    -0.223 OA
ATOM     77  O   UNL A   1      33.277  24.728  20.495  1.00  0.00    -0.223 OA
BRANCH  75  78
ATOM     78  C   UNL A   1      31.418  25.855  21.939  1.00  0.00     0.219 C 
BRANCH  78  79
ATOM     79  C   UNL A   1      31.232  27.164  22.634  1.00  0.00     0.143 A 
ATOM     80  N   UNL A   1      31.503  27.167  23.955  1.00  0.00    -0.240 NA
ATOM     81  N   UNL A   1      30.647  28.197  22.001  1.00  0.00    -0.240 NA
ATOM     82  C   UNL A   1      31.187  28.280  24.646  1.00  0.00     0.115 A 
ATOM     83  C   UNL A   1      30.353  29.288  22.735  1.00  0.00     0.115 A 
ATOM     84  C   UNL A   1      30.599  29.383  24.080  1.00  0.00     0.040 A 
ENDBRANCH  78  79
ENDBRANCH  75  78
ENDBRANCH  73  75
ENDBRANCH  65  68
ENDBRANCH  63  64
ENDBRANCH   1  63
TORSDOF 13
ENDMDL
