MODEL 1
REMARK VINA RESULT:     -11.4      0.000      0.000
REMARK SMILES O=C(CC[C@H]1CCC[N@@H+](Cc2cccc(C3CC3)c2)C1)NCCCNC(=O)c1ccc(-c2c3nc(c(-c4c(F)cccc4F)c4ccc([nH]4)c(-c4c(F)cccc4F)c4nc(c(-c5c(F)cccc5F)c5ccc2[nH]5)C=C4)C=C3)cc1
REMARK SMILES IDX 1 1 2 2 21 3 3 5 4 6 5 7 6 8 20 9 7 10 9 11 8 12 10 14 11 15
REMARK SMILES IDX 12 16 19 17 13 18 15 19 14 20 16 21 17 22 18 23 22 24 23 25
REMARK SMILES IDX 24 26 25 27 26 28 27 30 28 31 29 32 81 33 30 34 80 35 31 36
REMARK SMILES IDX 32 37 33 38 74 39 34 40 79 41 73 42 75 43 35 44 78 45 72 46
REMARK SMILES IDX 71 47 36 49 62 50 45 51 61 52 46 53 49 54 60 55 76 56 47 57
REMARK SMILES IDX 48 58 59 60 77 61 50 62 37 63 38 64 43 65 39 66 40 67 42 68
REMARK SMILES IDX 44 69 41 70 63 71 64 72 69 73 65 74 66 75 68 76 70 77 67 78
REMARK SMILES IDX 51 79 52 80 57 81 53 82 54 83 56 84 58 85 55 86
REMARK H PARENT 21 4 9 13 25 29 75 48 49 59
REMARK Flexibility Score: inf
ROOT
ATOM      1  O   UNL A   1      32.353  28.725  22.944  1.00  0.00    -0.275 OA
ATOM      2  C   UNL A   1      31.218  28.867  23.388  1.00  0.00     0.220 C 
ATOM      3  N   UNL A   1      30.946  29.533  24.566  1.00  0.00    -0.356 N 
ATOM      4  H   UNL A   1      30.017  29.757  24.804  1.00  0.00     0.163 HD
ENDROOT
BRANCH   2   5
ATOM      5  C   UNL A   1      30.005  28.258  22.717  1.00  0.00     0.100 C 
BRANCH   5   6
ATOM      6  C   UNL A   1      29.505  27.009  23.464  1.00  0.00     0.019 C 
BRANCH   6   7
ATOM      7  C   UNL A   1      30.544  26.173  24.258  1.00  0.00     0.045 C 
ATOM      8  C   UNL A   1      30.180  25.971  25.732  1.00  0.00     0.015 C 
ATOM      9  C   UNL A   1      30.823  24.829  23.568  1.00  0.00     0.265 C 
ATOM     10  C   UNL A   1      31.159  25.032  26.429  1.00  0.00     0.062 C 
ATOM     11  N   UNL A   1      31.758  23.972  24.305  1.00  0.00    -0.331 N 
ATOM     12  C   UNL A   1      31.288  23.711  25.667  1.00  0.00     0.262 C 
ATOM     13  H   UNL A   1      32.628  24.499  24.389  1.00  0.00     0.348 HD
BRANCH  11  14
ATOM     14  C   UNL A   1      32.138  22.747  23.574  1.00  0.00     0.299 C 
BRANCH  14  15
ATOM     15  C   UNL A   1      33.338  21.983  24.102  1.00  0.00     0.006 A 
ATOM     16  C   UNL A   1      33.272  20.620  24.392  1.00  0.00     0.009 A 
ATOM     17  C   UNL A   1      34.566  22.650  24.280  1.00  0.00     0.013 A 
ATOM     18  C   UNL A   1      34.413  19.947  24.825  1.00  0.00     0.001 A 
ATOM     19  C   UNL A   1      35.754  21.987  24.628  1.00  0.00    -0.044 A 
ATOM     20  C   UNL A   1      35.637  20.620  24.923  1.00  0.00     0.004 A 
BRANCH  19  21
ATOM     21  C   UNL A   1      37.108  22.674  24.645  1.00  0.00     0.019 C 
ATOM     22  C   UNL A   1      37.452  23.669  25.734  1.00  0.00     0.009 C 
ATOM     23  C   UNL A   1      38.153  22.342  25.681  1.00  0.00     0.009 C 
ENDBRANCH  19  21
ENDBRANCH  14  15
ENDBRANCH  11  14
ENDBRANCH   6   7
ENDBRANCH   5   6
ENDBRANCH   2   5
BRANCH   3  24
ATOM     24  C   UNL A   1      32.033  29.900  25.449  1.00  0.00     0.117 C 
BRANCH  24  25
ATOM     25  C   UNL A   1      32.360  28.849  26.502  1.00  0.00     0.042 C 
BRANCH  25  26
ATOM     26  C   UNL A   1      33.657  29.077  27.277  1.00  0.00     0.118 C 
BRANCH  26  27
ATOM     27  N   UNL A   1      33.752  30.377  27.925  1.00  0.00    -0.352 N 
ATOM     28  C   UNL A   1      34.830  30.948  28.565  1.00  0.00     0.251 C 
ATOM     29  H   UNL A   1      32.933  30.924  27.903  1.00  0.00     0.163 HD
ATOM     30  O   UNL A   1      34.723  32.049  29.100  1.00  0.00    -0.269 OA
BRANCH  28  31
ATOM     31  C   UNL A   1      36.111  30.213  28.658  1.00  0.00     0.039 A 
ATOM     32  C   UNL A   1      36.976  30.235  27.559  1.00  0.00     0.014 A 
ATOM     33  C   UNL A   1      36.480  29.544  29.827  1.00  0.00     0.014 A 
ATOM     34  C   UNL A   1      38.257  29.686  27.672  1.00  0.00     0.010 A 
ATOM     35  C   UNL A   1      37.774  29.040  29.956  1.00  0.00     0.010 A 
ATOM     36  C   UNL A   1      38.685  29.137  28.891  1.00  0.00    -0.014 A 
BRANCH  36  37
ATOM     37  C   UNL A   1      40.099  28.734  29.102  1.00  0.00     0.031 A 
ATOM     38  C   UNL A   1      41.103  29.710  29.642  1.00  0.00     0.074 A 
ATOM     39  C   UNL A   1      40.499  27.507  28.712  1.00  0.00     0.049 A 
ATOM     40  N   UNL A   1      42.397  29.575  29.774  1.00  0.00    -0.248 NA
ATOM     41  C   UNL A   1      40.584  31.018  30.073  1.00  0.00     0.031 C 
ATOM     42  C   UNL A   1      39.631  26.476  28.139  1.00  0.00     0.029 A 
ATOM     43  N   UNL A   1      41.744  26.928  28.716  1.00  0.00    -0.354 N 
ATOM     44  C   UNL A   1      42.853  30.781  30.288  1.00  0.00     0.074 A 
ATOM     45  C   UNL A   1      41.700  31.648  30.414  1.00  0.00     0.031 C 
ATOM     46  C   UNL A   1      40.367  25.390  27.855  1.00  0.00     0.029 A 
ATOM     47  C   UNL A   1      41.763  25.660  28.186  1.00  0.00     0.049 A 
ATOM     48  H   UNL A   1      42.547  27.378  29.066  1.00  0.00     0.167 HD
ATOM     49  C   UNL A   1      44.116  31.129  30.633  1.00  0.00     0.037 A 
ATOM     50  C   UNL A   1      42.789  24.814  27.974  1.00  0.00     0.037 A 
ATOM     51  C   UNL A   1      45.261  30.261  30.527  1.00  0.00     0.049 A 
ATOM     52  C   UNL A   1      44.182  25.230  28.353  1.00  0.00     0.074 A 
ATOM     53  C   UNL A   1      46.569  30.512  30.905  1.00  0.00     0.029 A 
ATOM     54  N   UNL A   1      45.234  28.977  30.007  1.00  0.00    -0.354 N 
ATOM     55  N   UNL A   1      44.590  26.357  28.882  1.00  0.00    -0.248 NA
ATOM     56  C   UNL A   1      45.257  24.259  28.102  1.00  0.00     0.031 C 
ATOM     57  C   UNL A   1      47.341  29.391  30.580  1.00  0.00     0.029 A 
ATOM     58  C   UNL A   1      46.506  28.430  30.034  1.00  0.00     0.049 A 
ATOM     59  H   UNL A   1      44.429  28.522  29.667  1.00  0.00     0.167 HD
ATOM     60  C   UNL A   1      45.961  26.221  29.055  1.00  0.00     0.074 A 
ATOM     61  C   UNL A   1      46.315  24.901  28.576  1.00  0.00     0.031 C 
ATOM     62  C   UNL A   1      46.845  27.110  29.566  1.00  0.00     0.037 A 
BRANCH  49  63
ATOM     63  C   UNL A   1      44.329  32.515  31.162  1.00  0.00     0.057 A 
ATOM     64  C   UNL A   1      44.268  32.797  32.532  1.00  0.00     0.134 A 
ATOM     65  C   UNL A   1      44.637  33.571  30.295  1.00  0.00     0.134 A 
ATOM     66  F   UNL A   1      43.966  31.831  33.412  1.00  0.00    -0.206 F 
ATOM     67  C   UNL A   1      44.487  34.086  33.021  1.00  0.00     0.040 A 
ATOM     68  C   UNL A   1      44.880  34.860  30.774  1.00  0.00     0.040 A 
ATOM     69  F   UNL A   1      44.717  33.366  28.972  1.00  0.00    -0.206 F 
ATOM     70  C   UNL A   1      44.800  35.120  32.141  1.00  0.00     0.006 A 
ENDBRANCH  49  63
BRANCH  50  71
ATOM     71  C   UNL A   1      42.535  23.478  27.380  1.00  0.00     0.057 A 
ATOM     72  C   UNL A   1      42.199  22.386  28.187  1.00  0.00     0.134 A 
ATOM     73  C   UNL A   1      42.625  23.262  26.001  1.00  0.00     0.134 A 
ATOM     74  F   UNL A   1      42.119  22.530  29.518  1.00  0.00    -0.206 F 
ATOM     75  C   UNL A   1      41.973  21.121  27.645  1.00  0.00     0.040 A 
ATOM     76  C   UNL A   1      42.381  22.007  25.443  1.00  0.00     0.040 A 
ATOM     77  F   UNL A   1      42.939  24.272  25.175  1.00  0.00    -0.206 F 
ATOM     78  C   UNL A   1      42.060  20.930  26.267  1.00  0.00     0.006 A 
ENDBRANCH  50  71
BRANCH  62  79
ATOM     79  C   UNL A   1      48.275  26.677  29.670  1.00  0.00     0.057 A 
ATOM     80  C   UNL A   1      48.750  25.966  30.778  1.00  0.00     0.134 A 
ATOM     81  C   UNL A   1      49.173  26.930  28.625  1.00  0.00     0.134 A 
ATOM     82  F   UNL A   1      47.940  25.705  31.816  1.00  0.00    -0.206 F 
ATOM     83  C   UNL A   1      50.073  25.530  30.849  1.00  0.00     0.040 A 
ATOM     84  C   UNL A   1      50.494  26.484  28.677  1.00  0.00     0.040 A 
ATOM     85  F   UNL A   1      48.777  27.603  27.534  1.00  0.00    -0.206 F 
ATOM     86  C   UNL A   1      50.949  25.782  29.793  1.00  0.00     0.006 A 
ENDBRANCH  62  79
ENDBRANCH  36  37
ENDBRANCH  28  31
ENDBRANCH  26  27
ENDBRANCH  25  26
ENDBRANCH  24  25
ENDBRANCH   3  24
TORSDOF 15
ENDMDL
MODEL 2
REMARK VINA RESULT:     -11.0      3.900      7.662
REMARK SMILES O=C(CC[C@H]1CCC[N@@H+](Cc2cccc(C3CC3)c2)C1)NCCCNC(=O)c1ccc(-c2c3nc(c(-c4c(F)cccc4F)c4ccc([nH]4)c(-c4c(F)cccc4F)c4nc(c(-c5c(F)cccc5F)c5ccc2[nH]5)C=C4)C=C3)cc1
REMARK SMILES IDX 1 1 2 2 21 3 3 5 4 6 5 7 6 8 20 9 7 10 9 11 8 12 10 14 11 15
REMARK SMILES IDX 12 16 19 17 13 18 15 19 14 20 16 21 17 22 18 23 22 24 23 25
REMARK SMILES IDX 24 26 25 27 26 28 27 30 28 31 29 32 81 33 30 34 80 35 31 36
REMARK SMILES IDX 32 37 33 38 74 39 34 40 79 41 73 42 75 43 35 44 78 45 72 46
REMARK SMILES IDX 71 47 36 49 62 50 45 51 61 52 46 53 49 54 60 55 76 56 47 57
REMARK SMILES IDX 48 58 59 60 77 61 50 62 37 63 38 64 43 65 39 66 40 67 42 68
REMARK SMILES IDX 44 69 41 70 63 71 64 72 69 73 65 74 66 75 68 76 70 77 67 78
REMARK SMILES IDX 51 79 52 80 57 81 53 82 54 83 56 84 58 85 55 86
REMARK H PARENT 21 4 9 13 25 29 75 48 49 59
REMARK Flexibility Score: inf
ROOT
ATOM      1  O   UNL A   1      31.198  28.212  24.959  1.00  0.00    -0.275 OA
ATOM      2  C   UNL A   1      32.235  28.562  25.512  1.00  0.00     0.220 C 
ATOM      3  N   UNL A   1      32.402  29.806  26.086  1.00  0.00    -0.356 N 
ATOM      4  H   UNL A   1      33.188  29.989  26.651  1.00  0.00     0.163 HD
ENDROOT
BRANCH   2   5
ATOM      5  C   UNL A   1      33.467  27.682  25.553  1.00  0.00     0.100 C 
BRANCH   5   6
ATOM      6  C   UNL A   1      33.151  26.283  26.111  1.00  0.00     0.019 C 
BRANCH   6   7
ATOM      7  C   UNL A   1      33.550  25.052  25.253  1.00  0.00     0.045 C 
ATOM      8  C   UNL A   1      35.061  24.818  25.170  1.00  0.00     0.015 C 
ATOM      9  C   UNL A   1      32.818  23.785  25.723  1.00  0.00     0.265 C 
ATOM     10  C   UNL A   1      35.389  23.523  24.433  1.00  0.00     0.062 C 
ATOM     11  N   UNL A   1      33.199  22.577  24.982  1.00  0.00    -0.331 N 
ATOM     12  C   UNL A   1      34.641  22.338  25.050  1.00  0.00     0.262 C 
ATOM     13  H   UNL A   1      32.975  22.756  24.003  1.00  0.00     0.348 HD
BRANCH  11  14
ATOM     14  C   UNL A   1      32.394  21.391  25.333  1.00  0.00     0.299 C 
BRANCH  14  15
ATOM     15  C   UNL A   1      32.382  20.253  24.330  1.00  0.00     0.006 A 
ATOM     16  C   UNL A   1      32.162  20.474  22.970  1.00  0.00     0.009 A 
ATOM     17  C   UNL A   1      32.628  18.936  24.766  1.00  0.00     0.013 A 
ATOM     18  C   UNL A   1      32.212  19.406  22.076  1.00  0.00     0.001 A 
ATOM     19  C   UNL A   1      32.773  17.853  23.885  1.00  0.00    -0.044 A 
ATOM     20  C   UNL A   1      32.530  18.120  22.528  1.00  0.00     0.004 A 
BRANCH  19  21
ATOM     21  C   UNL A   1      33.214  16.472  24.340  1.00  0.00     0.019 C 
ATOM     22  C   UNL A   1      34.672  16.189  24.635  1.00  0.00     0.009 C 
ATOM     23  C   UNL A   1      33.670  16.211  25.753  1.00  0.00     0.009 C 
ENDBRANCH  19  21
ENDBRANCH  14  15
ENDBRANCH  11  14
ENDBRANCH   6   7
ENDBRANCH   5   6
ENDBRANCH   2   5
BRANCH   3  24
ATOM     24  C   UNL A   1      31.415  30.840  25.855  1.00  0.00     0.117 C 
BRANCH  24  25
ATOM     25  C   UNL A   1      31.402  31.934  26.914  1.00  0.00     0.042 C 
BRANCH  25  26
ATOM     26  C   UNL A   1      32.389  33.078  26.689  1.00  0.00     0.118 C 
BRANCH  26  27
ATOM     27  N   UNL A   1      32.235  34.198  27.606  1.00  0.00    -0.352 N 
ATOM     28  C   UNL A   1      33.027  34.559  28.673  1.00  0.00     0.251 C 
ATOM     29  H   UNL A   1      31.456  34.778  27.441  1.00  0.00     0.163 HD
ATOM     30  O   UNL A   1      32.725  35.520  29.376  1.00  0.00    -0.269 OA
BRANCH  28  31
ATOM     31  C   UNL A   1      34.224  33.755  29.012  1.00  0.00     0.039 A 
ATOM     32  C   UNL A   1      35.486  34.274  28.709  1.00  0.00     0.014 A 
ATOM     33  C   UNL A   1      34.109  32.523  29.662  1.00  0.00     0.014 A 
ATOM     34  C   UNL A   1      36.635  33.614  29.157  1.00  0.00     0.010 A 
ATOM     35  C   UNL A   1      35.252  31.892  30.151  1.00  0.00     0.010 A 
ATOM     36  C   UNL A   1      36.523  32.449  29.931  1.00  0.00    -0.014 A 
BRANCH  36  37
ATOM     37  C   UNL A   1      37.708  31.844  30.591  1.00  0.00     0.031 A 
ATOM     38  C   UNL A   1      38.512  30.781  29.901  1.00  0.00     0.074 A 
ATOM     39  C   UNL A   1      38.001  32.188  31.861  1.00  0.00     0.049 A 
ATOM     40  N   UNL A   1      39.495  30.056  30.368  1.00  0.00    -0.248 NA
ATOM     41  C   UNL A   1      38.148  30.481  28.507  1.00  0.00     0.031 C 
ATOM     42  C   UNL A   1      37.279  33.182  32.657  1.00  0.00     0.029 A 
ATOM     43  N   UNL A   1      38.973  31.723  32.714  1.00  0.00    -0.354 N 
ATOM     44  C   UNL A   1      39.861  29.203  29.335  1.00  0.00     0.074 A 
ATOM     45  C   UNL A   1      38.972  29.480  28.227  1.00  0.00     0.031 C 
ATOM     46  C   UNL A   1      37.834  33.257  33.877  1.00  0.00     0.029 A 
ATOM     47  C   UNL A   1      38.925  32.291  33.964  1.00  0.00     0.049 A 
ATOM     48  H   UNL A   1      39.640  31.047  32.453  1.00  0.00     0.167 HD
ATOM     49  C   UNL A   1      40.854  28.283  29.311  1.00  0.00     0.037 A 
ATOM     50  C   UNL A   1      39.664  32.051  35.063  1.00  0.00     0.037 A 
ATOM     51  C   UNL A   1      41.752  28.021  30.406  1.00  0.00     0.049 A 
ATOM     52  C   UNL A   1      40.751  31.014  35.014  1.00  0.00     0.074 A 
ATOM     53  C   UNL A   1      42.823  27.143  30.450  1.00  0.00     0.029 A 
ATOM     54  N   UNL A   1      41.685  28.633  31.647  1.00  0.00    -0.354 N 
ATOM     55  N   UNL A   1      41.116  30.250  34.015  1.00  0.00    -0.248 NA
ATOM     56  C   UNL A   1      41.526  30.805  36.246  1.00  0.00     0.031 C 
ATOM     57  C   UNL A   1      43.382  27.200  31.731  1.00  0.00     0.029 A 
ATOM     58  C   UNL A   1      42.683  28.138  32.471  1.00  0.00     0.049 A 
ATOM     59  H   UNL A   1      41.026  29.317  31.905  1.00  0.00     0.167 HD
ATOM     60  C   UNL A   1      42.179  29.491  34.485  1.00  0.00     0.074 A 
ATOM     61  C   UNL A   1      42.402  29.888  35.859  1.00  0.00     0.031 C 
ATOM     62  C   UNL A   1      42.903  28.550  33.834  1.00  0.00     0.037 A 
BRANCH  49  63
ATOM     63  C   UNL A   1      41.024  27.486  28.053  1.00  0.00     0.057 A 
ATOM     64  C   UNL A   1      41.860  27.917  27.016  1.00  0.00     0.134 A 
ATOM     65  C   UNL A   1      40.377  26.254  27.894  1.00  0.00     0.134 A 
ATOM     66  F   UNL A   1      42.499  29.093  27.104  1.00  0.00    -0.206 F 
ATOM     67  C   UNL A   1      42.031  27.162  25.855  1.00  0.00     0.040 A 
ATOM     68  C   UNL A   1      40.557  25.478  26.748  1.00  0.00     0.040 A 
ATOM     69  F   UNL A   1      39.567  25.781  28.854  1.00  0.00    -0.206 F 
ATOM     70  C   UNL A   1      41.382  25.936  25.722  1.00  0.00     0.006 A 
ENDBRANCH  49  63
BRANCH  50  71
ATOM     71  C   UNL A   1      39.409  32.817  36.308  1.00  0.00     0.057 A 
ATOM     72  C   UNL A   1      38.473  32.372  37.246  1.00  0.00     0.134 A 
ATOM     73  C   UNL A   1      40.088  34.009  36.586  1.00  0.00     0.134 A 
ATOM     74  F   UNL A   1      37.777  31.247  37.023  1.00  0.00    -0.206 F 
ATOM     75  C   UNL A   1      38.211  33.089  38.414  1.00  0.00     0.040 A 
ATOM     76  C   UNL A   1      39.851  34.726  37.759  1.00  0.00     0.040 A 
ATOM     77  F   UNL A   1      41.001  34.485  35.726  1.00  0.00    -0.206 F 
ATOM     78  C   UNL A   1      38.905  34.269  38.674  1.00  0.00     0.006 A 
ENDBRANCH  50  71
BRANCH  62  79
ATOM     79  C   UNL A   1      44.031  27.910  34.584  1.00  0.00     0.057 A 
ATOM     80  C   UNL A   1      45.287  28.519  34.686  1.00  0.00     0.134 A 
ATOM     81  C   UNL A   1      43.841  26.695  35.255  1.00  0.00     0.134 A 
ATOM     82  F   UNL A   1      45.534  29.678  34.055  1.00  0.00    -0.206 F 
ATOM     83  C   UNL A   1      46.320  27.937  35.421  1.00  0.00     0.040 A 
ATOM     84  C   UNL A   1      44.861  26.112  36.008  1.00  0.00     0.040 A 
ATOM     85  F   UNL A   1      42.659  26.064  35.199  1.00  0.00    -0.206 F 
ATOM     86  C   UNL A   1      46.107  26.732  36.091  1.00  0.00     0.006 A 
ENDBRANCH  62  79
ENDBRANCH  36  37
ENDBRANCH  28  31
ENDBRANCH  26  27
ENDBRANCH  25  26
ENDBRANCH  24  25
ENDBRANCH   3  24
TORSDOF 15
ENDMDL
MODEL 3
REMARK VINA RESULT:     -10.8      4.611      6.691
REMARK SMILES O=C(CC[C@H]1CCC[N@@H+](Cc2cccc(C3CC3)c2)C1)NCCCNC(=O)c1ccc(-c2c3nc(c(-c4c(F)cccc4F)c4ccc([nH]4)c(-c4c(F)cccc4F)c4nc(c(-c5c(F)cccc5F)c5ccc2[nH]5)C=C4)C=C3)cc1
REMARK SMILES IDX 1 1 2 2 21 3 3 5 4 6 5 7 6 8 20 9 7 10 9 11 8 12 10 14 11 15
REMARK SMILES IDX 12 16 19 17 13 18 15 19 14 20 16 21 17 22 18 23 22 24 23 25
REMARK SMILES IDX 24 26 25 27 26 28 27 30 28 31 29 32 81 33 30 34 80 35 31 36
REMARK SMILES IDX 32 37 33 38 74 39 34 40 79 41 73 42 75 43 35 44 78 45 72 46
REMARK SMILES IDX 71 47 36 49 62 50 45 51 61 52 46 53 49 54 60 55 76 56 47 57
REMARK SMILES IDX 48 58 59 60 77 61 50 62 37 63 38 64 43 65 39 66 40 67 42 68
REMARK SMILES IDX 44 69 41 70 63 71 64 72 69 73 65 74 66 75 68 76 70 77 67 78
REMARK SMILES IDX 51 79 52 80 57 81 53 82 54 83 56 84 58 85 55 86
REMARK H PARENT 21 4 9 13 25 29 75 48 49 59
REMARK Flexibility Score: inf
ROOT
ATOM      1  O   UNL A   1      36.234  31.090  27.633  1.00  0.00    -0.275 OA
ATOM      2  C   UNL A   1      35.075  30.765  27.872  1.00  0.00     0.220 C 
ATOM      3  N   UNL A   1      34.112  31.660  28.292  1.00  0.00    -0.356 N 
ATOM      4  H   UNL A   1      33.166  31.390  28.322  1.00  0.00     0.163 HD
ENDROOT
BRANCH   2   5
ATOM      5  C   UNL A   1      34.606  29.328  27.797  1.00  0.00     0.100 C 
BRANCH   5   6
ATOM      6  C   UNL A   1      34.121  28.957  26.384  1.00  0.00     0.019 C 
BRANCH   6   7
ATOM      7  C   UNL A   1      33.292  27.655  26.219  1.00  0.00     0.045 C 
ATOM      8  C   UNL A   1      31.777  27.875  26.275  1.00  0.00     0.015 C 
ATOM      9  C   UNL A   1      33.694  26.895  24.945  1.00  0.00     0.265 C 
ATOM     10  C   UNL A   1      31.012  26.590  25.971  1.00  0.00     0.062 C 
ATOM     11  N   UNL A   1      32.903  25.683  24.709  1.00  0.00    -0.331 N 
ATOM     12  C   UNL A   1      31.471  25.981  24.644  1.00  0.00     0.262 C 
ATOM     13  H   UNL A   1      33.043  25.083  25.522  1.00  0.00     0.348 HD
BRANCH  11  14
ATOM     14  C   UNL A   1      33.384  24.877  23.569  1.00  0.00     0.299 C 
BRANCH  14  15
ATOM     15  C   UNL A   1      33.942  23.504  23.892  1.00  0.00     0.006 A 
ATOM     16  C   UNL A   1      35.290  23.312  24.195  1.00  0.00     0.009 A 
ATOM     17  C   UNL A   1      33.081  22.390  23.919  1.00  0.00     0.013 A 
ATOM     18  C   UNL A   1      35.750  22.041  24.537  1.00  0.00     0.001 A 
ATOM     19  C   UNL A   1      33.490  21.116  24.345  1.00  0.00    -0.044 A 
ATOM     20  C   UNL A   1      34.857  20.966  24.627  1.00  0.00     0.004 A 
BRANCH  19  21
ATOM     21  C   UNL A   1      32.524  19.962  24.544  1.00  0.00     0.019 C 
ATOM     22  C   UNL A   1      32.750  18.639  23.841  1.00  0.00     0.009 C 
ATOM     23  C   UNL A   1      32.906  18.734  25.331  1.00  0.00     0.009 C 
ENDBRANCH  19  21
ENDBRANCH  14  15
ENDBRANCH  11  14
ENDBRANCH   6   7
ENDBRANCH   5   6
ENDBRANCH   2   5
BRANCH   3  24
ATOM     24  C   UNL A   1      34.500  32.998  28.688  1.00  0.00     0.117 C 
BRANCH  24  25
ATOM     25  C   UNL A   1      33.351  33.996  28.716  1.00  0.00     0.042 C 
BRANCH  25  26
ATOM     26  C   UNL A   1      33.678  35.358  29.324  1.00  0.00     0.118 C 
BRANCH  26  27
ATOM     27  N   UNL A   1      32.698  35.842  30.285  1.00  0.00    -0.352 N 
ATOM     28  C   UNL A   1      32.714  35.749  31.659  1.00  0.00     0.251 C 
ATOM     29  H   UNL A   1      31.915  36.299  29.900  1.00  0.00     0.163 HD
ATOM     30  O   UNL A   1      31.774  36.179  32.322  1.00  0.00    -0.269 OA
BRANCH  28  31
ATOM     31  C   UNL A   1      33.844  35.081  32.343  1.00  0.00     0.039 A 
ATOM     32  C   UNL A   1      33.646  33.799  32.866  1.00  0.00     0.014 A 
ATOM     33  C   UNL A   1      35.100  35.687  32.430  1.00  0.00     0.014 A 
ATOM     34  C   UNL A   1      34.731  33.080  33.375  1.00  0.00     0.010 A 
ATOM     35  C   UNL A   1      36.191  34.952  32.892  1.00  0.00     0.010 A 
ATOM     36  C   UNL A   1      36.022  33.630  33.338  1.00  0.00    -0.014 A 
BRANCH  36  37
ATOM     37  C   UNL A   1      37.218  32.818  33.679  1.00  0.00     0.031 A 
ATOM     38  C   UNL A   1      37.994  33.084  34.935  1.00  0.00     0.074 A 
ATOM     39  C   UNL A   1      37.661  31.898  32.798  1.00  0.00     0.049 A 
ATOM     40  N   UNL A   1      39.127  32.564  35.331  1.00  0.00    -0.248 NA
ATOM     41  C   UNL A   1      37.432  34.082  35.858  1.00  0.00     0.031 C 
ATOM     42  C   UNL A   1      37.019  31.567  31.525  1.00  0.00     0.029 A 
ATOM     43  N   UNL A   1      38.770  31.088  32.831  1.00  0.00    -0.354 N 
ATOM     44  C   UNL A   1      39.423  33.177  36.541  1.00  0.00     0.074 A 
ATOM     45  C   UNL A   1      38.367  34.133  36.798  1.00  0.00     0.031 C 
ATOM     46  C   UNL A   1      37.739  30.620  30.902  1.00  0.00     0.029 A 
ATOM     47  C   UNL A   1      38.913  30.306  31.710  1.00  0.00     0.049 A 
ATOM     48  H   UNL A   1      39.402  31.070  33.586  1.00  0.00     0.167 HD
ATOM     49  C   UNL A   1      40.475  32.955  37.366  1.00  0.00     0.037 A 
ATOM     50  C   UNL A   1      39.888  29.444  31.363  1.00  0.00     0.037 A 
ATOM     51  C   UNL A   1      41.516  31.990  37.121  1.00  0.00     0.049 A 
ATOM     52  C   UNL A   1      41.050  29.227  32.290  1.00  0.00     0.074 A 
ATOM     53  C   UNL A   1      42.591  31.661  37.929  1.00  0.00     0.029 A 
ATOM     54  N   UNL A   1      41.613  31.202  35.986  1.00  0.00    -0.354 N 
ATOM     55  N   UNL A   1      41.291  29.780  33.452  1.00  0.00    -0.248 NA
ATOM     56  C   UNL A   1      42.077  28.269  31.854  1.00  0.00     0.031 C 
ATOM     57  C   UNL A   1      43.357  30.696  37.266  1.00  0.00     0.029 A 
ATOM     58  C   UNL A   1      42.740  30.401  36.063  1.00  0.00     0.049 A 
ATOM     59  H   UNL A   1      40.975  31.211  35.235  1.00  0.00     0.167 HD
ATOM     60  C   UNL A   1      42.479  29.218  33.901  1.00  0.00     0.074 A 
ATOM     61  C   UNL A   1      42.909  28.279  32.887  1.00  0.00     0.031 C 
ATOM     62  C   UNL A   1      43.151  29.460  35.052  1.00  0.00     0.037 A 
BRANCH  49  63
ATOM     63  C   UNL A   1      40.552  33.775  38.618  1.00  0.00     0.057 A 
ATOM     64  C   UNL A   1      41.335  34.933  38.692  1.00  0.00     0.134 A 
ATOM     65  C   UNL A   1      39.806  33.424  39.749  1.00  0.00     0.134 A 
ATOM     66  F   UNL A   1      42.081  35.317  37.645  1.00  0.00    -0.206 F 
ATOM     67  C   UNL A   1      41.387  35.705  39.854  1.00  0.00     0.040 A 
ATOM     68  C   UNL A   1      39.833  34.198  40.910  1.00  0.00     0.040 A 
ATOM     69  F   UNL A   1      39.031  32.328  39.742  1.00  0.00    -0.206 F 
ATOM     70  C   UNL A   1      40.630  35.340  40.965  1.00  0.00     0.006 A 
ENDBRANCH  49  63
BRANCH  50  71
ATOM     71  C   UNL A   1      39.801  28.710  30.076  1.00  0.00     0.057 A 
ATOM     72  C   UNL A   1      40.395  29.219  28.917  1.00  0.00     0.134 A 
ATOM     73  C   UNL A   1      39.123  27.490  29.975  1.00  0.00     0.134 A 
ATOM     74  F   UNL A   1      41.040  30.394  28.950  1.00  0.00    -0.206 F 
ATOM     75  C   UNL A   1      40.309  28.548  27.698  1.00  0.00     0.040 A 
ATOM     76  C   UNL A   1      39.046  26.797  28.767  1.00  0.00     0.040 A 
ATOM     77  F   UNL A   1      38.536  26.949  31.054  1.00  0.00    -0.206 F 
ATOM     78  C   UNL A   1      39.635  27.329  27.622  1.00  0.00     0.006 A 
ENDBRANCH  50  71
BRANCH  62  79
ATOM     79  C   UNL A   1      44.401  28.671  35.297  1.00  0.00     0.057 A 
ATOM     80  C   UNL A   1      44.372  27.427  35.936  1.00  0.00     0.134 A 
ATOM     81  C   UNL A   1      45.640  29.141  34.843  1.00  0.00     0.134 A 
ATOM     82  F   UNL A   1      43.218  26.929  36.405  1.00  0.00    -0.206 F 
ATOM     83  C   UNL A   1      45.536  26.679  36.124  1.00  0.00     0.040 A 
ATOM     84  C   UNL A   1      46.807  28.395  35.009  1.00  0.00     0.040 A 
ATOM     85  F   UNL A   1      45.732  30.326  34.219  1.00  0.00    -0.206 F 
ATOM     86  C   UNL A   1      46.757  27.160  35.653  1.00  0.00     0.006 A 
ENDBRANCH  62  79
ENDBRANCH  36  37
ENDBRANCH  28  31
ENDBRANCH  26  27
ENDBRANCH  25  26
ENDBRANCH  24  25
ENDBRANCH   3  24
TORSDOF 15
ENDMDL
