MODEL 1
REMARK VINA RESULT:     -11.8      0.000      0.000
REMARK SMILES Cc1ccccc1OCC[NH+]1CCC(CC(=O)NCCCNC(=O)c2ccc(-c3c4nc(c(-c5c(F)cccc5F)c5ccc([nH]5)c(-c5c(F)cccc5F)c5nc(c(-c6c(F)cccc6F)c6ccc3[nH]6)C=C5)C=C4)cc2)CC1
REMARK SMILES IDX 16 1 17 2 18 3 15 5 14 6 11 7 12 8 80 9 13 11 79 12 10 13
REMARK SMILES IDX 9 14 8 15 7 16 1 17 2 18 3 19 4 20 6 21 5 22 19 23 20 24
REMARK SMILES IDX 21 25 22 26 23 27 24 29 25 30 26 31 78 32 27 33 77 34 28 35
REMARK SMILES IDX 29 36 30 37 71 38 31 39 76 40 70 41 72 42 32 43 75 44 69 45
REMARK SMILES IDX 68 46 33 48 59 49 42 50 58 51 43 52 46 53 57 54 73 55 44 56
REMARK SMILES IDX 45 57 56 59 74 60 47 61 34 62 35 63 40 64 36 65 37 66 39 67
REMARK SMILES IDX 41 68 38 69 60 70 61 71 66 72 62 73 63 74 65 75 67 76 64 77
REMARK SMILES IDX 48 78 49 79 54 80 50 81 51 82 53 83 55 84 52 85
REMARK H PARENT 18 4 11 10 22 28 72 47 46 58
REMARK Flexibility Score: inf
ROOT
ATOM      1  C   UNL A   1      36.942  22.073  24.577  1.00  0.00     0.220 C 
ATOM      2  O   UNL A   1      36.718  22.780  23.592  1.00  0.00    -0.275 OA
ATOM      3  N   UNL A   1      38.219  22.033  25.065  1.00  0.00    -0.356 N 
ATOM      4  H   UNL A   1      38.825  22.689  24.650  1.00  0.00     0.163 HD
ENDROOT
BRANCH   1   5
ATOM      5  C   UNL A   1      35.818  21.306  25.250  1.00  0.00     0.104 C 
BRANCH   5   6
ATOM      6  C   UNL A   1      34.435  22.040  25.234  1.00  0.00     0.009 C 
ATOM      7  N   UNL A   1      31.956  24.882  24.241  1.00  0.00    -0.332 N 
ATOM      8  C   UNL A   1      33.013  25.054  25.786  1.00  0.00     0.262 C 
ATOM      9  C   UNL A   1      32.149  23.394  23.151  1.00  0.00     0.262 C 
ATOM     10  H   UNL A   1      31.113  24.662  24.770  1.00  0.00     0.348 HD
ATOM     11  C   UNL A   1      34.447  23.769  26.156  1.00  0.00     0.066 C 
ATOM     12  C   UNL A   1      33.300  21.867  23.612  1.00  0.00     0.066 C 
BRANCH   7  13
ATOM     13  C   UNL A   1      31.645  26.076  23.496  1.00  0.00     0.304 C 
BRANCH  13  14
ATOM     14  C   UNL A   1      30.429  26.741  24.071  1.00  0.00     0.290 C 
BRANCH  14  15
ATOM     15  O   UNL A   1      30.651  28.091  24.479  1.00  0.00    -0.487 OA
BRANCH  15  16
ATOM     16  C   UNL A   1      31.835  28.446  25.117  1.00  0.00     0.122 A 
ATOM     17  C   UNL A   1      34.052  28.757  22.682  1.00  0.00     0.048 C 
ATOM     18  C   UNL A   1      33.264  28.653  24.582  1.00  0.00    -0.009 A 
ATOM     19  C   UNL A   1      34.035  28.720  25.861  1.00  0.00     0.007 A 
ATOM     20  C   UNL A   1      33.636  28.594  27.226  1.00  0.00     0.001 A 
ATOM     21  C   UNL A   1      31.449  28.333  26.511  1.00  0.00     0.047 A 
ATOM     22  C   UNL A   1      32.334  28.390  27.558  1.00  0.00     0.004 A 
ENDBRANCH  15  16
ENDBRANCH  14  15
ENDBRANCH  13  14
ENDBRANCH   7  13
ENDBRANCH   5   6
ENDBRANCH   1   5
BRANCH   3  23
ATOM     23  C   UNL A   1      38.860  21.196  26.091  1.00  0.00     0.117 C 
BRANCH  23  24
ATOM     24  C   UNL A   1      39.943  21.976  26.825  1.00  0.00     0.042 C 
BRANCH  24  25
ATOM     25  C   UNL A   1      40.511  23.249  26.233  1.00  0.00     0.118 C 
BRANCH  25  26
ATOM     26  N   UNL A   1      41.665  23.843  26.910  1.00  0.00    -0.352 N 
ATOM     27  C   UNL A   1      41.698  25.049  27.610  1.00  0.00     0.251 C 
ATOM     28  H   UNL A   1      42.508  23.337  26.867  1.00  0.00     0.163 HD
ATOM     29  O   UNL A   1      42.650  25.364  28.312  1.00  0.00    -0.269 OA
BRANCH  27  30
ATOM     30  C   UNL A   1      40.489  25.909  27.551  1.00  0.00     0.039 A 
ATOM     31  C   UNL A   1      40.625  27.081  26.802  1.00  0.00     0.014 A 
ATOM     32  C   UNL A   1      39.622  25.837  28.639  1.00  0.00     0.014 A 
ATOM     33  C   UNL A   1      40.230  28.279  27.379  1.00  0.00     0.010 A 
ATOM     34  C   UNL A   1      39.281  27.035  29.241  1.00  0.00     0.010 A 
ATOM     35  C   UNL A   1      39.705  28.242  28.670  1.00  0.00    -0.014 A 
BRANCH  35  36
ATOM     36  C   UNL A   1      39.636  29.423  29.516  1.00  0.00     0.031 A 
ATOM     37  C   UNL A   1      38.584  30.396  29.201  1.00  0.00     0.074 A 
ATOM     38  C   UNL A   1      40.499  29.629  30.540  1.00  0.00     0.049 A 
ATOM     39  N   UNL A   1      38.734  31.670  29.274  1.00  0.00    -0.248 NA
ATOM     40  C   UNL A   1      37.280  29.985  28.691  1.00  0.00     0.031 C 
ATOM     41  C   UNL A   1      40.468  30.698  31.538  1.00  0.00     0.029 A 
ATOM     42  N   UNL A   1      41.718  28.978  30.790  1.00  0.00    -0.354 N 
ATOM     43  C   UNL A   1      37.485  32.224  29.115  1.00  0.00     0.074 A 
ATOM     44  C   UNL A   1      36.642  31.154  28.643  1.00  0.00     0.031 C 
ATOM     45  C   UNL A   1      41.699  30.842  32.060  1.00  0.00     0.029 A 
ATOM     46  C   UNL A   1      42.586  29.953  31.329  1.00  0.00     0.049 A 
ATOM     47  H   UNL A   1      41.927  28.030  30.622  1.00  0.00     0.167 HD
ATOM     48  C   UNL A   1      37.253  33.483  29.578  1.00  0.00     0.037 A 
ATOM     49  C   UNL A   1      43.731  30.321  30.688  1.00  0.00     0.037 A 
ATOM     50  C   UNL A   1      38.463  34.029  30.190  1.00  0.00     0.049 A 
ATOM     51  C   UNL A   1      43.727  31.779  30.293  1.00  0.00     0.074 A 
ATOM     52  C   UNL A   1      38.900  34.044  31.505  1.00  0.00     0.029 A 
ATOM     53  N   UNL A   1      39.582  34.282  29.403  1.00  0.00    -0.354 N 
ATOM     54  N   UNL A   1      42.642  32.495  30.180  1.00  0.00    -0.248 NA
ATOM     55  C   UNL A   1      44.934  32.546  30.008  1.00  0.00     0.031 C 
ATOM     56  C   UNL A   1      40.297  34.273  31.504  1.00  0.00     0.029 A 
ATOM     57  C   UNL A   1      40.711  34.420  30.191  1.00  0.00     0.049 A 
ATOM     58  H   UNL A   1      39.572  34.353  28.421  1.00  0.00     0.167 HD
ATOM     59  C   UNL A   1      42.968  33.776  29.814  1.00  0.00     0.074 A 
ATOM     60  C   UNL A   1      44.418  33.760  29.742  1.00  0.00     0.031 C 
ATOM     61  C   UNL A   1      42.009  34.731  29.603  1.00  0.00     0.037 A 
BRANCH  48  62
ATOM     62  C   UNL A   1      35.857  34.010  29.801  1.00  0.00     0.057 A 
ATOM     63  C   UNL A   1      35.058  34.426  28.720  1.00  0.00     0.134 A 
ATOM     64  C   UNL A   1      35.267  34.188  31.065  1.00  0.00     0.134 A 
ATOM     65  F   UNL A   1      35.430  34.224  27.450  1.00  0.00    -0.206 F 
ATOM     66  C   UNL A   1      33.832  35.080  28.890  1.00  0.00     0.040 A 
ATOM     67  C   UNL A   1      34.069  34.893  31.254  1.00  0.00     0.040 A 
ATOM     68  F   UNL A   1      35.810  33.657  32.170  1.00  0.00    -0.206 F 
ATOM     69  C   UNL A   1      33.352  35.354  30.161  1.00  0.00     0.006 A 
ENDBRANCH  48  62
BRANCH  49  70
ATOM     70  C   UNL A   1      44.354  29.208  29.922  1.00  0.00     0.057 A 
ATOM     71  C   UNL A   1      44.131  29.145  28.533  1.00  0.00     0.134 A 
ATOM     72  C   UNL A   1      45.451  28.501  30.417  1.00  0.00     0.134 A 
ATOM     73  F   UNL A   1      43.087  29.790  27.989  1.00  0.00    -0.206 F 
ATOM     74  C   UNL A   1      45.039  28.537  27.662  1.00  0.00     0.040 A 
ATOM     75  C   UNL A   1      46.360  27.876  29.554  1.00  0.00     0.040 A 
ATOM     76  F   UNL A   1      45.732  28.507  31.728  1.00  0.00    -0.206 F 
ATOM     77  C   UNL A   1      46.187  27.940  28.171  1.00  0.00     0.006 A 
ENDBRANCH  49  70
BRANCH  61  78
ATOM     78  C   UNL A   1      42.193  36.081  28.932  1.00  0.00     0.057 A 
ATOM     79  C   UNL A   1      42.906  37.158  29.477  1.00  0.00     0.134 A 
ATOM     80  C   UNL A   1      41.745  36.292  27.603  1.00  0.00     0.134 A 
ATOM     81  F   UNL A   1      43.512  37.080  30.667  1.00  0.00    -0.206 F 
ATOM     82  C   UNL A   1      43.093  38.368  28.791  1.00  0.00     0.040 A 
ATOM     83  C   UNL A   1      41.990  37.465  26.884  1.00  0.00     0.040 A 
ATOM     84  F   UNL A   1      41.066  35.360  26.919  1.00  0.00    -0.206 F 
ATOM     85  C   UNL A   1      42.648  38.521  27.486  1.00  0.00     0.006 A 
ENDBRANCH  61  78
ENDBRANCH  35  36
ENDBRANCH  27  30
ENDBRANCH  25  26
ENDBRANCH  24  25
ENDBRANCH  23  24
ENDBRANCH   3  23
TORSDOF 15
ENDMDL
MODEL 2
REMARK VINA RESULT:     -11.7      3.598      9.098
REMARK SMILES Cc1ccccc1OCC[NH+]1CCC(CC(=O)NCCCNC(=O)c2ccc(-c3c4nc(c(-c5c(F)cccc5F)c5ccc([nH]5)c(-c5c(F)cccc5F)c5nc(c(-c6c(F)cccc6F)c6ccc3[nH]6)C=C5)C=C4)cc2)CC1
REMARK SMILES IDX 16 1 17 2 18 3 15 5 14 6 11 7 12 8 80 9 13 11 79 12 10 13
REMARK SMILES IDX 9 14 8 15 7 16 1 17 2 18 3 19 4 20 6 21 5 22 19 23 20 24
REMARK SMILES IDX 21 25 22 26 23 27 24 29 25 30 26 31 78 32 27 33 77 34 28 35
REMARK SMILES IDX 29 36 30 37 71 38 31 39 76 40 70 41 72 42 32 43 75 44 69 45
REMARK SMILES IDX 68 46 33 48 59 49 42 50 58 51 43 52 46 53 57 54 73 55 44 56
REMARK SMILES IDX 45 57 56 59 74 60 47 61 34 62 35 63 40 64 36 65 37 66 39 67
REMARK SMILES IDX 41 68 38 69 60 70 61 71 66 72 62 73 63 74 65 75 67 76 64 77
REMARK SMILES IDX 48 78 49 79 54 80 50 81 51 82 53 83 55 84 52 85
REMARK H PARENT 18 4 11 10 22 28 72 47 46 58
REMARK Flexibility Score: inf
ROOT
ATOM      1  C   UNL A   1      32.134  29.094  24.574  1.00  0.00     0.220 C 
ATOM      2  O   UNL A   1      32.300  29.312  23.372  1.00  0.00    -0.275 OA
ATOM      3  N   UNL A   1      31.963  30.165  25.406  1.00  0.00    -0.356 N 
ATOM      4  H   UNL A   1      31.859  31.023  24.935  1.00  0.00     0.163 HD
ENDROOT
BRANCH   1   5
ATOM      5  C   UNL A   1      32.077  27.671  25.101  1.00  0.00     0.104 C 
BRANCH   5   6
ATOM      6  C   UNL A   1      31.897  26.578  23.994  1.00  0.00     0.009 C 
ATOM      7  N   UNL A   1      32.083  22.968  22.531  1.00  0.00    -0.332 N 
ATOM      8  C   UNL A   1      33.561  24.120  22.382  1.00  0.00     0.262 C 
ATOM      9  C   UNL A   1      30.565  23.526  23.440  1.00  0.00     0.262 C 
ATOM     10  H   UNL A   1      31.814  23.089  21.555  1.00  0.00     0.348 HD
ATOM     11  C   UNL A   1      33.586  25.832  23.336  1.00  0.00     0.066 C 
ATOM     12  C   UNL A   1      30.339  25.353  24.131  1.00  0.00     0.066 C 
BRANCH   7  13
ATOM     13  C   UNL A   1      32.336  21.558  22.690  1.00  0.00     0.304 C 
BRANCH  13  14
ATOM     14  C   UNL A   1      32.578  21.238  24.137  1.00  0.00     0.290 C 
BRANCH  14  15
ATOM     15  O   UNL A   1      33.945  20.964  24.443  1.00  0.00    -0.487 OA
BRANCH  15  16
ATOM     16  C   UNL A   1      34.750  21.949  25.007  1.00  0.00     0.122 A 
ATOM     17  C   UNL A   1      32.652  23.946  26.606  1.00  0.00     0.048 C 
ATOM     18  C   UNL A   1      34.404  23.225  25.797  1.00  0.00    -0.009 A 
ATOM     19  C   UNL A   1      35.729  23.916  25.808  1.00  0.00     0.007 A 
ATOM     20  C   UNL A   1      36.992  23.572  25.236  1.00  0.00     0.001 A 
ATOM     21  C   UNL A   1      36.044  21.614  24.444  1.00  0.00     0.047 A 
ATOM     22  C   UNL A   1      37.153  22.417  24.540  1.00  0.00     0.004 A 
ENDBRANCH  15  16
ENDBRANCH  14  15
ENDBRANCH  13  14
ENDBRANCH   7  13
ENDBRANCH   5   6
ENDBRANCH   1   5
BRANCH   3  23
ATOM     23  C   UNL A   1      31.905  30.280  26.871  1.00  0.00     0.117 C 
BRANCH  23  24
ATOM     24  C   UNL A   1      33.305  30.250  27.471  1.00  0.00     0.042 C 
BRANCH  24  25
ATOM     25  C   UNL A   1      34.219  31.451  27.352  1.00  0.00     0.118 C 
BRANCH  25  26
ATOM     26  N   UNL A   1      34.804  31.972  28.589  1.00  0.00    -0.352 N 
ATOM     27  C   UNL A   1      35.867  31.428  29.310  1.00  0.00     0.251 C 
ATOM     28  H   UNL A   1      34.403  32.795  28.951  1.00  0.00     0.163 HD
ATOM     29  O   UNL A   1      36.415  32.041  30.216  1.00  0.00    -0.269 OA
BRANCH  27  30
ATOM     30  C   UNL A   1      36.380  30.103  28.879  1.00  0.00     0.039 A 
ATOM     31  C   UNL A   1      36.679  29.212  29.914  1.00  0.00     0.014 A 
ATOM     32  C   UNL A   1      37.065  30.066  27.667  1.00  0.00     0.014 A 
ATOM     33  C   UNL A   1      37.915  28.582  29.902  1.00  0.00     0.010 A 
ATOM     34  C   UNL A   1      38.320  29.487  27.681  1.00  0.00     0.010 A 
ATOM     35  C   UNL A   1      38.782  28.863  28.848  1.00  0.00    -0.014 A 
BRANCH  35  36
ATOM     36  C   UNL A   1      40.211  28.600  28.924  1.00  0.00     0.031 A 
ATOM     37  C   UNL A   1      40.668  27.309  28.401  1.00  0.00     0.074 A 
ATOM     38  C   UNL A   1      41.082  29.490  29.457  1.00  0.00     0.049 A 
ATOM     39  N   UNL A   1      41.599  26.602  28.936  1.00  0.00    -0.248 NA
ATOM     40  C   UNL A   1      40.034  26.672  27.252  1.00  0.00     0.031 C 
ATOM     41  C   UNL A   1      42.542  29.411  29.485  1.00  0.00     0.029 A 
ATOM     42  N   UNL A   1      40.796  30.609  30.257  1.00  0.00    -0.354 N 
ATOM     43  C   UNL A   1      41.884  25.588  28.051  1.00  0.00     0.074 A 
ATOM     44  C   UNL A   1      40.815  25.606  27.083  1.00  0.00     0.031 C 
ATOM     45  C   UNL A   1      43.001  30.193  30.478  1.00  0.00     0.029 A 
ATOM     46  C   UNL A   1      41.847  30.706  31.195  1.00  0.00     0.049 A 
ATOM     47  H   UNL A   1      40.017  31.207  30.180  1.00  0.00     0.167 HD
ATOM     48  C   UNL A   1      43.091  24.964  28.123  1.00  0.00     0.037 A 
ATOM     49  C   UNL A   1      41.622  30.582  32.534  1.00  0.00     0.037 A 
ATOM     50  C   UNL A   1      43.894  25.534  29.202  1.00  0.00     0.049 A 
ATOM     51  C   UNL A   1      42.343  29.398  33.132  1.00  0.00     0.074 A 
ATOM     52  C   UNL A   1      44.850  26.538  29.203  1.00  0.00     0.029 A 
ATOM     53  N   UNL A   1      43.484  25.383  30.523  1.00  0.00    -0.354 N 
ATOM     54  N   UNL A   1      42.770  28.383  32.433  1.00  0.00    -0.248 NA
ATOM     55  C   UNL A   1      42.650  29.268  34.552  1.00  0.00     0.031 C 
ATOM     56  C   UNL A   1      44.988  27.015  30.529  1.00  0.00     0.029 A 
ATOM     57  C   UNL A   1      44.135  26.289  31.342  1.00  0.00     0.049 A 
ATOM     58  H   UNL A   1      42.823  24.722  30.832  1.00  0.00     0.167 HD
ATOM     59  C   UNL A   1      43.386  27.477  33.260  1.00  0.00     0.074 A 
ATOM     60  C   UNL A   1      43.303  28.091  34.573  1.00  0.00     0.031 C 
ATOM     61  C   UNL A   1      43.905  26.304  32.783  1.00  0.00     0.037 A 
BRANCH  48  62
ATOM     62  C   UNL A   1      43.636  24.140  26.982  1.00  0.00     0.057 A 
ATOM     63  C   UNL A   1      44.298  24.748  25.900  1.00  0.00     0.134 A 
ATOM     64  C   UNL A   1      43.484  22.747  26.863  1.00  0.00     0.134 A 
ATOM     65  F   UNL A   1      44.616  26.049  25.910  1.00  0.00    -0.206 F 
ATOM     66  C   UNL A   1      44.663  24.050  24.743  1.00  0.00     0.040 A 
ATOM     67  C   UNL A   1      43.791  22.044  25.689  1.00  0.00     0.040 A 
ATOM     68  F   UNL A   1      43.062  22.000  27.894  1.00  0.00    -0.206 F 
ATOM     69  C   UNL A   1      44.372  22.701  24.615  1.00  0.00     0.006 A 
ENDBRANCH  48  62
BRANCH  49  70
ATOM     70  C   UNL A   1      40.291  31.100  32.951  1.00  0.00     0.057 A 
ATOM     71  C   UNL A   1      39.269  30.172  33.227  1.00  0.00     0.134 A 
ATOM     72  C   UNL A   1      40.135  32.385  33.476  1.00  0.00     0.134 A 
ATOM     73  F   UNL A   1      39.346  28.922  32.743  1.00  0.00    -0.206 F 
ATOM     74  C   UNL A   1      38.222  30.460  34.107  1.00  0.00     0.040 A 
ATOM     75  C   UNL A   1      39.081  32.688  34.348  1.00  0.00     0.040 A 
ATOM     76  F   UNL A   1      41.062  33.328  33.257  1.00  0.00    -0.206 F 
ATOM     77  C   UNL A   1      38.154  31.711  34.710  1.00  0.00     0.006 A 
ENDBRANCH  49  70
BRANCH  61  78
ATOM     78  C   UNL A   1      44.350  25.101  33.597  1.00  0.00     0.057 A 
ATOM     79  C   UNL A   1      45.640  24.552  33.580  1.00  0.00     0.134 A 
ATOM     80  C   UNL A   1      43.483  24.521  34.558  1.00  0.00     0.134 A 
ATOM     81  F   UNL A   1      46.621  25.066  32.830  1.00  0.00    -0.206 F 
ATOM     82  C   UNL A   1      46.015  23.472  34.395  1.00  0.00     0.040 A 
ATOM     83  C   UNL A   1      43.869  23.496  35.425  1.00  0.00     0.040 A 
ATOM     84  F   UNL A   1      42.220  24.938  34.727  1.00  0.00    -0.206 F 
ATOM     85  C   UNL A   1      45.135  22.949  35.330  1.00  0.00     0.006 A 
ENDBRANCH  61  78
ENDBRANCH  35  36
ENDBRANCH  27  30
ENDBRANCH  25  26
ENDBRANCH  24  25
ENDBRANCH  23  24
ENDBRANCH   3  23
TORSDOF 15
ENDMDL
MODEL 3
REMARK VINA RESULT:     -11.6      3.321      9.166
REMARK SMILES Cc1ccccc1OCC[NH+]1CCC(CC(=O)NCCCNC(=O)c2ccc(-c3c4nc(c(-c5c(F)cccc5F)c5ccc([nH]5)c(-c5c(F)cccc5F)c5nc(c(-c6c(F)cccc6F)c6ccc3[nH]6)C=C5)C=C4)cc2)CC1
REMARK SMILES IDX 16 1 17 2 18 3 15 5 14 6 11 7 12 8 80 9 13 11 79 12 10 13
REMARK SMILES IDX 9 14 8 15 7 16 1 17 2 18 3 19 4 20 6 21 5 22 19 23 20 24
REMARK SMILES IDX 21 25 22 26 23 27 24 29 25 30 26 31 78 32 27 33 77 34 28 35
REMARK SMILES IDX 29 36 30 37 71 38 31 39 76 40 70 41 72 42 32 43 75 44 69 45
REMARK SMILES IDX 68 46 33 48 59 49 42 50 58 51 43 52 46 53 57 54 73 55 44 56
REMARK SMILES IDX 45 57 56 59 74 60 47 61 34 62 35 63 40 64 36 65 37 66 39 67
REMARK SMILES IDX 41 68 38 69 60 70 61 71 66 72 62 73 63 74 65 75 67 76 64 77
REMARK SMILES IDX 48 78 49 79 54 80 50 81 51 82 53 83 55 84 52 85
REMARK H PARENT 18 4 11 10 22 28 72 47 46 58
REMARK Flexibility Score: inf
ROOT
ATOM      1  C   UNL A   1      33.250  28.829  23.234  1.00  0.00     0.220 C 
ATOM      2  O   UNL A   1      34.394  28.952  22.792  1.00  0.00    -0.275 OA
ATOM      3  N   UNL A   1      32.837  29.702  24.202  1.00  0.00    -0.356 N 
ATOM      4  H   UNL A   1      33.464  30.443  24.365  1.00  0.00     0.163 HD
ENDROOT
BRANCH   1   5
ATOM      5  C   UNL A   1      32.318  27.765  22.683  1.00  0.00     0.104 C 
BRANCH   5   6
ATOM      6  C   UNL A   1      32.476  26.358  23.351  1.00  0.00     0.009 C 
ATOM      7  N   UNL A   1      34.469  23.264  24.642  1.00  0.00    -0.332 N 
ATOM      8  C   UNL A   1      33.865  23.318  22.862  1.00  0.00     0.262 C 
ATOM      9  C   UNL A   1      34.180  24.716  25.760  1.00  0.00     0.262 C 
ATOM     10  H   UNL A   1      33.741  22.613  24.932  1.00  0.00     0.348 HD
ATOM     11  C   UNL A   1      33.099  24.964  22.123  1.00  0.00     0.066 C 
ATOM     12  C   UNL A   1      33.109  26.279  25.233  1.00  0.00     0.066 C 
BRANCH   7  13
ATOM     13  C   UNL A   1      35.717  22.597  24.914  1.00  0.00     0.304 C 
BRANCH  13  14
ATOM     14  C   UNL A   1      35.467  21.325  25.671  1.00  0.00     0.290 C 
BRANCH  14  15
ATOM     15  O   UNL A   1      35.583  20.148  24.871  1.00  0.00    -0.487 OA
BRANCH  15  16
ATOM     16  C   UNL A   1      34.468  19.353  24.626  1.00  0.00     0.122 A 
ATOM     17  C   UNL A   1      31.878  21.269  25.375  1.00  0.00     0.048 C 
ATOM     18  C   UNL A   1      32.965  19.599  24.854  1.00  0.00    -0.009 A 
ATOM     19  C   UNL A   1      32.421  18.223  24.643  1.00  0.00     0.007 A 
ATOM     20  C   UNL A   1      33.056  16.977  24.352  1.00  0.00     0.001 A 
ATOM     21  C   UNL A   1      35.092  18.079  24.319  1.00  0.00     0.047 A 
ATOM     22  C   UNL A   1      34.403  16.899  24.196  1.00  0.00     0.004 A 
ENDBRANCH  15  16
ENDBRANCH  14  15
ENDBRANCH  13  14
ENDBRANCH   7  13
ENDBRANCH   5   6
ENDBRANCH   1   5
BRANCH   3  23
ATOM     23  C   UNL A   1      31.633  29.745  25.046  1.00  0.00     0.117 C 
BRANCH  23  24
ATOM     24  C   UNL A   1      31.846  30.657  26.247  1.00  0.00     0.042 C 
BRANCH  24  25
ATOM     25  C   UNL A   1      32.942  30.363  27.251  1.00  0.00     0.118 C 
BRANCH  25  26
ATOM     26  N   UNL A   1      33.653  31.511  27.818  1.00  0.00    -0.352 N 
ATOM     27  C   UNL A   1      34.981  31.550  28.241  1.00  0.00     0.251 C 
ATOM     28  H   UNL A   1      33.138  32.345  27.909  1.00  0.00     0.163 HD
ATOM     29  O   UNL A   1      35.544  32.603  28.510  1.00  0.00    -0.269 OA
BRANCH  27  30
ATOM     30  C   UNL A   1      35.730  30.268  28.268  1.00  0.00     0.039 A 
ATOM     31  C   UNL A   1      35.903  29.704  29.535  1.00  0.00     0.014 A 
ATOM     32  C   UNL A   1      36.660  30.070  27.250  1.00  0.00     0.014 A 
ATOM     33  C   UNL A   1      37.178  29.307  29.909  1.00  0.00     0.010 A 
ATOM     34  C   UNL A   1      37.942  29.731  27.639  1.00  0.00     0.010 A 
ATOM     35  C   UNL A   1      38.213  29.480  28.991  1.00  0.00    -0.014 A 
BRANCH  35  36
ATOM     36  C   UNL A   1      39.612  29.488  29.388  1.00  0.00     0.031 A 
ATOM     37  C   UNL A   1      40.371  28.257  29.140  1.00  0.00     0.074 A 
ATOM     38  C   UNL A   1      40.193  30.566  29.967  1.00  0.00     0.049 A 
ATOM     39  N   UNL A   1      41.259  27.783  29.938  1.00  0.00    -0.248 NA
ATOM     40  C   UNL A   1      40.115  27.413  27.978  1.00  0.00     0.031 C 
ATOM     41  C   UNL A   1      41.605  30.755  30.299  1.00  0.00     0.029 A 
ATOM     42  N   UNL A   1      39.566  31.684  30.540  1.00  0.00    -0.354 N 
ATOM     43  C   UNL A   1      41.888  26.760  29.268  1.00  0.00     0.074 A 
ATOM     44  C   UNL A   1      41.071  26.494  28.110  1.00  0.00     0.031 C 
ATOM     45  C   UNL A   1      41.705  31.696  31.254  1.00  0.00     0.029 A 
ATOM     46  C   UNL A   1      40.355  32.057  31.651  1.00  0.00     0.049 A 
ATOM     47  H   UNL A   1      38.739  32.122  30.231  1.00  0.00     0.167 HD
ATOM     48  C   UNL A   1      43.132  26.373  29.662  1.00  0.00     0.037 A 
ATOM     49  C   UNL A   1      39.861  32.019  32.921  1.00  0.00     0.037 A 
ATOM     50  C   UNL A   1      43.577  27.177  30.799  1.00  0.00     0.049 A 
ATOM     51  C   UNL A   1      40.609  31.045  33.801  1.00  0.00     0.074 A 
ATOM     52  C   UNL A   1      44.339  28.333  30.863  1.00  0.00     0.029 A 
ATOM     53  N   UNL A   1      42.914  27.077  32.018  1.00  0.00    -0.354 N 
ATOM     54  N   UNL A   1      41.334  30.063  33.340  1.00  0.00    -0.248 NA
ATOM     55  C   UNL A   1      40.611  31.105  35.258  1.00  0.00     0.031 C 
ATOM     56  C   UNL A   1      44.104  28.948  32.117  1.00  0.00     0.029 A 
ATOM     57  C   UNL A   1      43.216  28.158  32.827  1.00  0.00     0.049 A 
ATOM     58  H   UNL A   1      42.313  26.339  32.269  1.00  0.00     0.167 HD
ATOM     59  C   UNL A   1      41.885  29.364  34.384  1.00  0.00     0.074 A 
ATOM     60  C   UNL A   1      41.418  30.072  35.563  1.00  0.00     0.031 C 
ATOM     61  C   UNL A   1      42.674  28.265  34.178  1.00  0.00     0.037 A 
BRANCH  48  62
ATOM     62  C   UNL A   1      44.038  25.559  28.771  1.00  0.00     0.057 A 
ATOM     63  C   UNL A   1      44.016  24.153  28.808  1.00  0.00     0.134 A 
ATOM     64  C   UNL A   1      44.997  26.105  27.900  1.00  0.00     0.134 A 
ATOM     65  F   UNL A   1      43.091  23.480  29.503  1.00  0.00    -0.206 F 
ATOM     66  C   UNL A   1      44.953  23.361  28.132  1.00  0.00     0.040 A 
ATOM     67  C   UNL A   1      45.977  25.330  27.263  1.00  0.00     0.040 A 
ATOM     68  F   UNL A   1      45.004  27.412  27.601  1.00  0.00    -0.206 F 
ATOM     69  C   UNL A   1      45.965  23.949  27.390  1.00  0.00     0.006 A 
ENDBRANCH  48  62
BRANCH  49  70
ATOM     70  C   UNL A   1      38.407  32.324  32.990  1.00  0.00     0.057 A 
ATOM     71  C   UNL A   1      37.980  33.623  32.654  1.00  0.00     0.134 A 
ATOM     72  C   UNL A   1      37.443  31.315  32.955  1.00  0.00     0.134 A 
ATOM     73  F   UNL A   1      38.850  34.645  32.679  1.00  0.00    -0.206 F 
ATOM     74  C   UNL A   1      36.697  33.879  32.160  1.00  0.00     0.040 A 
ATOM     75  C   UNL A   1      36.150  31.563  32.475  1.00  0.00     0.040 A 
ATOM     76  F   UNL A   1      37.767  30.051  33.264  1.00  0.00    -0.206 F 
ATOM     77  C   UNL A   1      35.791  32.833  32.024  1.00  0.00     0.006 A 
ENDBRANCH  49  70
BRANCH  61  78
ATOM     78  C   UNL A   1      43.111  27.243  35.213  1.00  0.00     0.057 A 
ATOM     79  C   UNL A   1      44.284  27.324  35.977  1.00  0.00     0.134 A 
ATOM     80  C   UNL A   1      42.255  26.171  35.573  1.00  0.00     0.134 A 
ATOM     81  F   UNL A   1      45.139  28.346  35.861  1.00  0.00    -0.206 F 
ATOM     82  C   UNL A   1      44.614  26.379  36.961  1.00  0.00     0.040 A 
ATOM     83  C   UNL A   1      42.538  25.270  36.602  1.00  0.00     0.040 A 
ATOM     84  F   UNL A   1      41.080  25.957  34.963  1.00  0.00    -0.206 F 
ATOM     85  C   UNL A   1      43.736  25.357  37.287  1.00  0.00     0.006 A 
ENDBRANCH  61  78
ENDBRANCH  35  36
ENDBRANCH  27  30
ENDBRANCH  25  26
ENDBRANCH  24  25
ENDBRANCH  23  24
ENDBRANCH   3  23
TORSDOF 15
ENDMDL
