MODEL 1
REMARK VINA RESULT:     -11.3      0.000      0.000
REMARK SMILES COc1ncccc1Cn1ccc(C(=O)NCCCNC(=O)c2ccc(-c3c4nc(c(-c5c(F)cccc5F)c5ccc([nH]5)c(-c5c(F)cccc5F)c5nc(c(-c6c(F)cccc6F)c6ccc3[nH]6)C=C5)C=C4)cc2)n1
REMARK SMILES IDX 17 1 16 2 14 3 15 4 13 6 10 7 11 8 77 9 12 10 9 11 8 12 3 13
REMARK SMILES IDX 4 14 5 15 7 16 6 17 2 18 1 19 18 20 19 21 20 22 21 23 22 25
REMARK SMILES IDX 23 26 24 27 76 28 25 29 75 30 26 31 27 32 28 33 69 34 29 35
REMARK SMILES IDX 74 36 68 37 70 38 30 39 73 40 67 41 66 42 31 44 57 45 40 46
REMARK SMILES IDX 56 47 41 48 44 49 55 50 71 51 42 52 43 53 54 55 72 56 45 57
REMARK SMILES IDX 32 58 33 59 38 60 34 61 35 62 37 63 39 64 36 65 58 66 59 67
REMARK SMILES IDX 64 68 60 69 61 70 63 71 65 72 62 73 46 74 47 75 52 76 48 77
REMARK SMILES IDX 49 78 51 79 53 80 50 81
REMARK H PARENT 16 5 20 24 70 43 44 54
REMARK Flexibility Score: inf
ROOT
ATOM      1  C   UNL A   1      36.541  21.038  24.865  1.00  0.00     0.118 C 
ENDROOT
BRANCH   1   2
ATOM      2  N   UNL A   1      35.825  21.130  26.127  1.00  0.00    -0.351 N 
ATOM      3  C   UNL A   1      34.533  21.543  26.360  1.00  0.00     0.271 C 
ATOM      4  O   UNL A   1      34.108  21.511  27.514  1.00  0.00    -0.267 OA
ATOM      5  H   UNL A   1      36.336  20.860  26.925  1.00  0.00     0.163 HD
BRANCH   3   6
ATOM      6  C   UNL A   1      33.668  21.862  25.217  1.00  0.00     0.150 A 
ATOM      7  N   UNL A   1      32.933  22.813  23.452  1.00  0.00    -0.267 N 
ATOM      8  C   UNL A   1      32.530  21.511  23.364  1.00  0.00     0.110 A 
ATOM      9  N   UNL A   1      33.617  23.058  24.592  1.00  0.00    -0.167 NA
ATOM     10  C   UNL A   1      32.864  20.910  24.549  1.00  0.00     0.056 A 
BRANCH   7  11
ATOM     11  C   UNL A   1      32.912  23.821  22.388  1.00  0.00     0.185 C 
BRANCH  11  12
ATOM     12  C   UNL A   1      31.940  24.935  22.660  1.00  0.00     0.036 A 
ATOM     13  C   UNL A   1      32.077  26.208  22.105  1.00  0.00     0.218 A 
ATOM     14  N   UNL A   1      31.203  27.218  22.303  1.00  0.00    -0.222 NA
ATOM     15  C   UNL A   1      30.162  26.976  23.128  1.00  0.00     0.115 A 
ATOM     16  C   UNL A   1      30.859  24.737  23.532  1.00  0.00     0.013 A 
ATOM     17  C   UNL A   1      29.969  25.775  23.786  1.00  0.00     0.021 A 
BRANCH  13  18
ATOM     18  O   UNL A   1      33.282  26.600  21.582  1.00  0.00    -0.481 OA
ATOM     19  C   UNL A   1      33.796  27.771  22.193  1.00  0.00     0.280 C 
ENDBRANCH  13  18
ENDBRANCH  11  12
ENDBRANCH   7  11
ENDBRANCH   3   6
ENDBRANCH   1   2
BRANCH   1  20
ATOM     20  C   UNL A   1      37.618  19.951  24.904  1.00  0.00     0.042 C 
BRANCH  20  21
ATOM     21  C   UNL A   1      38.835  20.407  25.691  1.00  0.00     0.118 C 
BRANCH  21  22
ATOM     22  N   UNL A   1      39.886  19.383  25.741  1.00  0.00    -0.352 N 
ATOM     23  C   UNL A   1      41.248  19.542  25.932  1.00  0.00     0.251 C 
ATOM     24  H   UNL A   1      39.580  18.455  25.623  1.00  0.00     0.163 HD
ATOM     25  O   UNL A   1      42.036  18.669  25.621  1.00  0.00    -0.269 OA
BRANCH  23  26
ATOM     26  C   UNL A   1      41.719  20.797  26.541  1.00  0.00     0.039 A 
ATOM     27  C   UNL A   1      42.255  21.836  25.777  1.00  0.00     0.014 A 
ATOM     28  C   UNL A   1      41.559  20.927  27.915  1.00  0.00     0.014 A 
ATOM     29  C   UNL A   1      42.562  23.036  26.413  1.00  0.00     0.010 A 
ATOM     30  C   UNL A   1      41.640  22.164  28.485  1.00  0.00     0.010 A 
ATOM     31  C   UNL A   1      42.232  23.192  27.770  1.00  0.00    -0.014 A 
BRANCH  31  32
ATOM     32  C   UNL A   1      42.384  24.463  28.460  1.00  0.00     0.031 A 
ATOM     33  C   UNL A   1      41.252  25.396  28.237  1.00  0.00     0.074 A 
ATOM     34  C   UNL A   1      43.336  24.666  29.399  1.00  0.00     0.049 A 
ATOM     35  N   UNL A   1      41.257  26.482  27.542  1.00  0.00    -0.248 NA
ATOM     36  C   UNL A   1      39.909  24.982  28.682  1.00  0.00     0.031 C 
ATOM     37  C   UNL A   1      44.306  23.708  29.947  1.00  0.00     0.029 A 
ATOM     38  N   UNL A   1      43.575  25.777  30.147  1.00  0.00    -0.354 N 
ATOM     39  C   UNL A   1      39.981  27.019  27.671  1.00  0.00     0.074 A 
ATOM     40  C   UNL A   1      39.151  25.959  28.178  1.00  0.00     0.031 C 
ATOM     41  C   UNL A   1      44.855  24.203  31.079  1.00  0.00     0.029 A 
ATOM     42  C   UNL A   1      44.419  25.575  31.239  1.00  0.00     0.049 A 
ATOM     43  H   UNL A   1      43.183  26.655  29.935  1.00  0.00     0.167 HD
ATOM     44  C   UNL A   1      39.791  28.366  27.626  1.00  0.00     0.037 A 
ATOM     45  C   UNL A   1      44.713  26.480  32.208  1.00  0.00     0.037 A 
ATOM     46  C   UNL A   1      40.951  29.026  27.073  1.00  0.00     0.049 A 
ATOM     47  C   UNL A   1      44.371  27.820  31.668  1.00  0.00     0.074 A 
ATOM     48  C   UNL A   1      41.632  28.954  25.873  1.00  0.00     0.029 A 
ATOM     49  N   UNL A   1      41.819  29.617  27.959  1.00  0.00    -0.354 N 
ATOM     50  N   UNL A   1      45.008  28.382  30.678  1.00  0.00    -0.248 NA
ATOM     51  C   UNL A   1      43.020  28.303  31.901  1.00  0.00     0.031 C 
ATOM     52  C   UNL A   1      43.012  29.047  26.227  1.00  0.00     0.029 A 
ATOM     53  C   UNL A   1      43.093  29.260  27.604  1.00  0.00     0.049 A 
ATOM     54  H   UNL A   1      41.569  30.193  28.717  1.00  0.00     0.167 HD
ATOM     55  C   UNL A   1      44.011  28.950  29.898  1.00  0.00     0.074 A 
ATOM     56  C   UNL A   1      42.814  28.931  30.739  1.00  0.00     0.031 C 
ATOM     57  C   UNL A   1      44.174  29.099  28.550  1.00  0.00     0.037 A 
BRANCH  44  58
ATOM     58  C   UNL A   1      38.773  29.114  28.457  1.00  0.00     0.057 A 
ATOM     59  C   UNL A   1      38.763  28.919  29.851  1.00  0.00     0.134 A 
ATOM     60  C   UNL A   1      37.631  29.762  27.941  1.00  0.00     0.134 A 
ATOM     61  F   UNL A   1      39.788  28.310  30.467  1.00  0.00    -0.206 F 
ATOM     62  C   UNL A   1      37.665  29.255  30.652  1.00  0.00     0.040 A 
ATOM     63  C   UNL A   1      36.550  30.149  28.740  1.00  0.00     0.040 A 
ATOM     64  F   UNL A   1      37.442  29.970  26.635  1.00  0.00    -0.206 F 
ATOM     65  C   UNL A   1      36.549  29.863  30.095  1.00  0.00     0.006 A 
ENDBRANCH  44  58
BRANCH  45  66
ATOM     66  C   UNL A   1      44.952  26.258  33.654  1.00  0.00     0.057 A 
ATOM     67  C   UNL A   1      46.163  26.631  34.255  1.00  0.00     0.134 A 
ATOM     68  C   UNL A   1      43.897  25.959  34.532  1.00  0.00     0.134 A 
ATOM     69  F   UNL A   1      47.218  26.976  33.502  1.00  0.00    -0.206 F 
ATOM     70  C   UNL A   1      46.308  26.732  35.647  1.00  0.00     0.040 A 
ATOM     71  C   UNL A   1      44.028  26.052  35.923  1.00  0.00     0.040 A 
ATOM     72  F   UNL A   1      42.675  25.658  34.066  1.00  0.00    -0.206 F 
ATOM     73  C   UNL A   1      45.233  26.456  36.485  1.00  0.00     0.006 A 
ENDBRANCH  45  66
BRANCH  57  74
ATOM     74  C   UNL A   1      45.549  28.870  27.976  1.00  0.00     0.057 A 
ATOM     75  C   UNL A   1      46.015  27.637  27.490  1.00  0.00     0.134 A 
ATOM     76  C   UNL A   1      46.376  29.978  27.771  1.00  0.00     0.134 A 
ATOM     77  F   UNL A   1      45.260  26.534  27.554  1.00  0.00    -0.206 F 
ATOM     78  C   UNL A   1      47.261  27.511  26.865  1.00  0.00     0.040 A 
ATOM     79  C   UNL A   1      47.607  29.872  27.119  1.00  0.00     0.040 A 
ATOM     80  F   UNL A   1      45.976  31.199  28.160  1.00  0.00    -0.206 F 
ATOM     81  C   UNL A   1      48.058  28.634  26.671  1.00  0.00     0.006 A 
ENDBRANCH  57  74
ENDBRANCH  31  32
ENDBRANCH  23  26
ENDBRANCH  21  22
ENDBRANCH  20  21
ENDBRANCH   1  20
TORSDOF 13
ENDMDL
MODEL 2
REMARK VINA RESULT:     -11.1      4.835      9.483
REMARK SMILES COc1ncccc1Cn1ccc(C(=O)NCCCNC(=O)c2ccc(-c3c4nc(c(-c5c(F)cccc5F)c5ccc([nH]5)c(-c5c(F)cccc5F)c5nc(c(-c6c(F)cccc6F)c6ccc3[nH]6)C=C5)C=C4)cc2)n1
REMARK SMILES IDX 17 1 16 2 14 3 15 4 13 6 10 7 11 8 77 9 12 10 9 11 8 12 3 13
REMARK SMILES IDX 4 14 5 15 7 16 6 17 2 18 1 19 18 20 19 21 20 22 21 23 22 25
REMARK SMILES IDX 23 26 24 27 76 28 25 29 75 30 26 31 27 32 28 33 69 34 29 35
REMARK SMILES IDX 74 36 68 37 70 38 30 39 73 40 67 41 66 42 31 44 57 45 40 46
REMARK SMILES IDX 56 47 41 48 44 49 55 50 71 51 42 52 43 53 54 55 72 56 45 57
REMARK SMILES IDX 32 58 33 59 38 60 34 61 35 62 37 63 39 64 36 65 58 66 59 67
REMARK SMILES IDX 64 68 60 69 61 70 63 71 65 72 62 73 46 74 47 75 52 76 48 77
REMARK SMILES IDX 49 78 51 79 53 80 50 81
REMARK H PARENT 16 5 20 24 70 43 44 54
REMARK Flexibility Score: inf
ROOT
ATOM      1  C   UNL A   1      33.801  31.226  28.002  1.00  0.00     0.118 C 
ENDROOT
BRANCH   1   2
ATOM      2  N   UNL A   1      34.106  32.616  27.706  1.00  0.00    -0.351 N 
ATOM      3  C   UNL A   1      34.725  33.554  28.501  1.00  0.00     0.271 C 
ATOM      4  O   UNL A   1      34.919  34.677  28.038  1.00  0.00    -0.267 OA
ATOM      5  H   UNL A   1      33.832  32.931  26.813  1.00  0.00     0.163 HD
BRANCH   3   6
ATOM      6  C   UNL A   1      35.261  33.143  29.806  1.00  0.00     0.150 A 
ATOM      7  N   UNL A   1      36.571  32.982  31.484  1.00  0.00    -0.267 N 
ATOM      8  C   UNL A   1      35.309  32.861  31.990  1.00  0.00     0.110 A 
ATOM      9  N   UNL A   1      36.569  33.136  30.140  1.00  0.00    -0.167 NA
ATOM     10  C   UNL A   1      34.454  32.818  30.920  1.00  0.00     0.056 A 
BRANCH   7  11
ATOM     11  C   UNL A   1      37.810  33.197  32.236  1.00  0.00     0.185 C 
BRANCH  11  12
ATOM     12  C   UNL A   1      38.466  31.913  32.661  1.00  0.00     0.036 A 
ATOM     13  C   UNL A   1      38.040  31.178  33.767  1.00  0.00     0.218 A 
ATOM     14  N   UNL A   1      38.587  30.005  34.153  1.00  0.00    -0.222 NA
ATOM     15  C   UNL A   1      39.639  29.553  33.437  1.00  0.00     0.115 A 
ATOM     16  C   UNL A   1      39.580  31.421  31.964  1.00  0.00     0.013 A 
ATOM     17  C   UNL A   1      40.188  30.236  32.367  1.00  0.00     0.021 A 
BRANCH  13  18
ATOM     18  O   UNL A   1      37.245  31.768  34.716  1.00  0.00    -0.481 OA
ATOM     19  C   UNL A   1      37.968  32.183  35.863  1.00  0.00     0.280 C 
ENDBRANCH  13  18
ENDBRANCH  11  12
ENDBRANCH   7  11
ENDBRANCH   3   6
ENDBRANCH   1   2
BRANCH   1  20
ATOM     20  C   UNL A   1      34.541  30.273  27.060  1.00  0.00     0.042 C 
BRANCH  20  21
ATOM     21  C   UNL A   1      35.545  29.419  27.815  1.00  0.00     0.118 C 
BRANCH  21  22
ATOM     22  N   UNL A   1      35.607  29.756  29.243  1.00  0.00    -0.352 N 
ATOM     23  C   UNL A   1      36.579  29.430  30.174  1.00  0.00     0.251 C 
ATOM     24  H   UNL A   1      34.853  30.288  29.586  1.00  0.00     0.163 HD
ATOM     25  O   UNL A   1      36.352  29.477  31.368  1.00  0.00    -0.269 OA
BRANCH  23  26
ATOM     26  C   UNL A   1      37.909  29.039  29.676  1.00  0.00     0.039 A 
ATOM     27  C   UNL A   1      38.617  29.821  28.760  1.00  0.00     0.014 A 
ATOM     28  C   UNL A   1      38.456  27.874  30.197  1.00  0.00     0.014 A 
ATOM     29  C   UNL A   1      39.917  29.445  28.434  1.00  0.00     0.010 A 
ATOM     30  C   UNL A   1      39.793  27.642  30.058  1.00  0.00     0.010 A 
ATOM     31  C   UNL A   1      40.501  28.358  29.106  1.00  0.00    -0.014 A 
BRANCH  31  32
ATOM     32  C   UNL A   1      41.899  28.001  28.928  1.00  0.00     0.031 A 
ATOM     33  C   UNL A   1      42.097  26.759  28.141  1.00  0.00     0.074 A 
ATOM     34  C   UNL A   1      42.907  28.850  29.235  1.00  0.00     0.049 A 
ATOM     35  N   UNL A   1      42.504  25.614  28.573  1.00  0.00    -0.248 NA
ATOM     36  C   UNL A   1      41.608  26.729  26.750  1.00  0.00     0.031 C 
ATOM     37  C   UNL A   1      42.826  30.238  29.710  1.00  0.00     0.029 A 
ATOM     38  N   UNL A   1      44.248  28.672  29.091  1.00  0.00    -0.354 N 
ATOM     39  C   UNL A   1      42.564  24.788  27.456  1.00  0.00     0.074 A 
ATOM     40  C   UNL A   1      41.797  25.446  26.431  1.00  0.00     0.031 C 
ATOM     41  C   UNL A   1      44.032  30.837  29.589  1.00  0.00     0.029 A 
ATOM     42  C   UNL A   1      45.007  29.837  29.205  1.00  0.00     0.049 A 
ATOM     43  H   UNL A   1      44.652  27.791  28.919  1.00  0.00     0.167 HD
ATOM     44  C   UNL A   1      43.481  23.784  27.388  1.00  0.00     0.037 A 
ATOM     45  C   UNL A   1      46.339  29.955  28.978  1.00  0.00     0.037 A 
ATOM     46  C   UNL A   1      44.030  23.506  28.695  1.00  0.00     0.049 A 
ATOM     47  C   UNL A   1      46.914  28.588  29.048  1.00  0.00     0.074 A 
ATOM     48  C   UNL A   1      43.501  23.112  29.909  1.00  0.00     0.029 A 
ATOM     49  N   UNL A   1      45.268  24.029  28.980  1.00  0.00    -0.354 N 
ATOM     50  N   UNL A   1      46.966  27.882  30.143  1.00  0.00    -0.248 NA
ATOM     51  C   UNL A   1      46.969  27.828  27.809  1.00  0.00     0.031 C 
ATOM     52  C   UNL A   1      44.225  23.859  30.886  1.00  0.00     0.029 A 
ATOM     53  C   UNL A   1      45.211  24.596  30.226  1.00  0.00     0.049 A 
ATOM     54  H   UNL A   1      46.057  24.002  28.391  1.00  0.00     0.167 HD
ATOM     55  C   UNL A   1      46.611  26.600  29.751  1.00  0.00     0.074 A 
ATOM     56  C   UNL A   1      46.696  26.612  28.291  1.00  0.00     0.031 C 
ATOM     57  C   UNL A   1      45.993  25.746  30.620  1.00  0.00     0.037 A 
BRANCH  44  58
ATOM     58  C   UNL A   1      44.189  23.358  26.122  1.00  0.00     0.057 A 
ATOM     59  C   UNL A   1      44.196  21.993  25.777  1.00  0.00     0.134 A 
ATOM     60  C   UNL A   1      45.103  24.156  25.403  1.00  0.00     0.134 A 
ATOM     61  F   UNL A   1      43.377  21.125  26.389  1.00  0.00    -0.206 F 
ATOM     62  C   UNL A   1      45.107  21.452  24.862  1.00  0.00     0.040 A 
ATOM     63  C   UNL A   1      45.982  23.634  24.449  1.00  0.00     0.040 A 
ATOM     64  F   UNL A   1      45.278  25.458  25.646  1.00  0.00    -0.206 F 
ATOM     65  C   UNL A   1      46.011  22.272  24.201  1.00  0.00     0.006 A 
ENDBRANCH  44  58
BRANCH  45  66
ATOM     66  C   UNL A   1      47.092  31.089  28.392  1.00  0.00     0.057 A 
ATOM     67  C   UNL A   1      46.806  31.561  27.101  1.00  0.00     0.134 A 
ATOM     68  C   UNL A   1      47.892  31.926  29.188  1.00  0.00     0.134 A 
ATOM     69  F   UNL A   1      46.016  30.855  26.279  1.00  0.00    -0.206 F 
ATOM     70  C   UNL A   1      47.261  32.806  26.641  1.00  0.00     0.040 A 
ATOM     71  C   UNL A   1      48.356  33.169  28.741  1.00  0.00     0.040 A 
ATOM     72  F   UNL A   1      48.169  31.608  30.461  1.00  0.00    -0.206 F 
ATOM     73  C   UNL A   1      48.027  33.620  27.468  1.00  0.00     0.006 A 
ENDBRANCH  45  66
BRANCH  57  74
ATOM     74  C   UNL A   1      45.936  26.138  32.074  1.00  0.00     0.057 A 
ATOM     75  C   UNL A   1      44.832  26.746  32.694  1.00  0.00     0.134 A 
ATOM     76  C   UNL A   1      46.986  25.745  32.909  1.00  0.00     0.134 A 
ATOM     77  F   UNL A   1      43.738  27.076  31.998  1.00  0.00    -0.206 F 
ATOM     78  C   UNL A   1      44.795  26.984  34.072  1.00  0.00     0.040 A 
ATOM     79  C   UNL A   1      46.948  25.945  34.291  1.00  0.00     0.040 A 
ATOM     80  F   UNL A   1      48.053  25.109  32.398  1.00  0.00    -0.206 F 
ATOM     81  C   UNL A   1      45.854  26.575  34.877  1.00  0.00     0.006 A 
ENDBRANCH  57  74
ENDBRANCH  31  32
ENDBRANCH  23  26
ENDBRANCH  21  22
ENDBRANCH  20  21
ENDBRANCH   1  20
TORSDOF 13
ENDMDL
MODEL 3
REMARK VINA RESULT:     -11.0      4.022      8.966
REMARK SMILES COc1ncccc1Cn1ccc(C(=O)NCCCNC(=O)c2ccc(-c3c4nc(c(-c5c(F)cccc5F)c5ccc([nH]5)c(-c5c(F)cccc5F)c5nc(c(-c6c(F)cccc6F)c6ccc3[nH]6)C=C5)C=C4)cc2)n1
REMARK SMILES IDX 17 1 16 2 14 3 15 4 13 6 10 7 11 8 77 9 12 10 9 11 8 12 3 13
REMARK SMILES IDX 4 14 5 15 7 16 6 17 2 18 1 19 18 20 19 21 20 22 21 23 22 25
REMARK SMILES IDX 23 26 24 27 76 28 25 29 75 30 26 31 27 32 28 33 69 34 29 35
REMARK SMILES IDX 74 36 68 37 70 38 30 39 73 40 67 41 66 42 31 44 57 45 40 46
REMARK SMILES IDX 56 47 41 48 44 49 55 50 71 51 42 52 43 53 54 55 72 56 45 57
REMARK SMILES IDX 32 58 33 59 38 60 34 61 35 62 37 63 39 64 36 65 58 66 59 67
REMARK SMILES IDX 64 68 60 69 61 70 63 71 65 72 62 73 46 74 47 75 52 76 48 77
REMARK SMILES IDX 49 78 51 79 53 80 50 81
REMARK H PARENT 16 5 20 24 70 43 44 54
REMARK Flexibility Score: inf
ROOT
ATOM      1  C   UNL A   1      31.800  30.482  25.757  1.00  0.00     0.118 C 
ENDROOT
BRANCH   1   2
ATOM      2  N   UNL A   1      30.896  30.222  24.650  1.00  0.00    -0.351 N 
ATOM      3  C   UNL A   1      30.888  29.164  23.769  1.00  0.00     0.271 C 
ATOM      4  O   UNL A   1      30.003  29.119  22.916  1.00  0.00    -0.267 OA
ATOM      5  H   UNL A   1      30.191  30.897  24.509  1.00  0.00     0.163 HD
BRANCH   3   6
ATOM      6  C   UNL A   1      31.837  28.061  23.970  1.00  0.00     0.150 A 
ATOM      7  N   UNL A   1      32.604  26.127  24.453  1.00  0.00    -0.267 N 
ATOM      8  C   UNL A   1      33.401  26.599  23.449  1.00  0.00     0.110 A 
ATOM      9  N   UNL A   1      31.648  27.016  24.804  1.00  0.00    -0.167 NA
ATOM     10  C   UNL A   1      33.021  27.895  23.216  1.00  0.00     0.056 A 
BRANCH   7  11
ATOM     11  C   UNL A   1      32.540  24.755  24.962  1.00  0.00     0.185 C 
BRANCH  11  12
ATOM     12  C   UNL A   1      33.854  24.032  24.859  1.00  0.00     0.036 A 
ATOM     13  C   UNL A   1      34.152  23.154  23.817  1.00  0.00     0.218 A 
ATOM     14  N   UNL A   1      35.335  22.517  23.679  1.00  0.00    -0.222 NA
ATOM     15  C   UNL A   1      36.258  22.722  24.642  1.00  0.00     0.115 A 
ATOM     16  C   UNL A   1      34.832  24.192  25.852  1.00  0.00     0.013 A 
ATOM     17  C   UNL A   1      36.043  23.514  25.754  1.00  0.00     0.021 A 
BRANCH  13  18
ATOM     18  O   UNL A   1      33.143  22.640  23.045  1.00  0.00    -0.481 OA
ATOM     19  C   UNL A   1      32.770  21.325  23.423  1.00  0.00     0.280 C 
ENDBRANCH  13  18
ENDBRANCH  11  12
ENDBRANCH   7  11
ENDBRANCH   3   6
ENDBRANCH   1   2
BRANCH   1  20
ATOM     20  C   UNL A   1      31.413  31.754  26.516  1.00  0.00     0.042 C 
BRANCH  20  21
ATOM     21  C   UNL A   1      32.606  32.345  27.249  1.00  0.00     0.118 C 
BRANCH  21  22
ATOM     22  N   UNL A   1      32.386  33.742  27.641  1.00  0.00    -0.352 N 
ATOM     23  C   UNL A   1      33.048  34.492  28.599  1.00  0.00     0.251 C 
ATOM     24  H   UNL A   1      31.669  34.211  27.157  1.00  0.00     0.163 HD
ATOM     25  O   UNL A   1      32.559  35.508  29.056  1.00  0.00    -0.269 OA
BRANCH  23  26
ATOM     26  C   UNL A   1      34.376  34.033  29.040  1.00  0.00     0.039 A 
ATOM     27  C   UNL A   1      34.552  33.288  30.209  1.00  0.00     0.014 A 
ATOM     28  C   UNL A   1      35.450  34.331  28.212  1.00  0.00     0.014 A 
ATOM     29  C   UNL A   1      35.821  32.789  30.490  1.00  0.00     0.010 A 
ATOM     30  C   UNL A   1      36.624  33.653  28.366  1.00  0.00     0.010 A 
ATOM     31  C   UNL A   1      36.848  32.965  29.548  1.00  0.00    -0.014 A 
BRANCH  31  32
ATOM     32  C   UNL A   1      38.154  32.344  29.704  1.00  0.00     0.031 A 
ATOM     33  C   UNL A   1      38.195  30.933  29.245  1.00  0.00     0.074 A 
ATOM     34  C   UNL A   1      39.263  33.058  30.000  1.00  0.00     0.049 A 
ATOM     35  N   UNL A   1      38.295  29.875  29.976  1.00  0.00    -0.248 NA
ATOM     36  C   UNL A   1      37.905  30.651  27.827  1.00  0.00     0.031 C 
ATOM     37  C   UNL A   1      39.407  34.513  30.149  1.00  0.00     0.029 A 
ATOM     38  N   UNL A   1      40.545  32.626  30.141  1.00  0.00    -0.354 N 
ATOM     39  C   UNL A   1      38.334  28.805  29.087  1.00  0.00     0.074 A 
ATOM     40  C   UNL A   1      37.867  29.316  27.826  1.00  0.00     0.031 C 
ATOM     41  C   UNL A   1      40.715  34.851  30.124  1.00  0.00     0.029 A 
ATOM     42  C   UNL A   1      41.506  33.637  30.142  1.00  0.00     0.049 A 
ATOM     43  H   UNL A   1      40.778  31.674  30.234  1.00  0.00     0.167 HD
ATOM     44  C   UNL A   1      39.024  27.674  29.399  1.00  0.00     0.037 A 
ATOM     45  C   UNL A   1      42.852  33.469  30.138  1.00  0.00     0.037 A 
ATOM     46  C   UNL A   1      39.321  27.631  30.812  1.00  0.00     0.049 A 
ATOM     47  C   UNL A   1      43.117  32.082  30.597  1.00  0.00     0.074 A 
ATOM     48  C   UNL A   1      38.562  27.639  31.967  1.00  0.00     0.029 A 
ATOM     49  N   UNL A   1      40.590  27.990  31.198  1.00  0.00    -0.354 N 
ATOM     50  N   UNL A   1      42.872  31.664  31.808  1.00  0.00    -0.248 NA
ATOM     51  C   UNL A   1      43.182  31.048  29.577  1.00  0.00     0.031 C 
ATOM     52  C   UNL A   1      39.285  28.466  32.878  1.00  0.00     0.029 A 
ATOM     53  C   UNL A   1      40.482  28.842  32.266  1.00  0.00     0.049 A 
ATOM     54  H   UNL A   1      41.428  27.688  30.781  1.00  0.00     0.167 HD
ATOM     55  C   UNL A   1      42.317  30.404  31.639  1.00  0.00     0.074 A 
ATOM     56  C   UNL A   1      42.601  30.049  30.248  1.00  0.00     0.031 C 
ATOM     57  C   UNL A   1      41.423  29.904  32.542  1.00  0.00     0.037 A 
BRANCH  44  58
ATOM     58  C   UNL A   1      39.795  26.841  28.400  1.00  0.00     0.057 A 
ATOM     59  C   UNL A   1      40.709  27.485  27.545  1.00  0.00     0.134 A 
ATOM     60  C   UNL A   1      39.471  25.518  28.033  1.00  0.00     0.134 A 
ATOM     61  F   UNL A   1      41.098  28.748  27.780  1.00  0.00    -0.206 F 
ATOM     62  C   UNL A   1      41.186  26.894  26.369  1.00  0.00     0.040 A 
ATOM     63  C   UNL A   1      39.982  24.900  26.888  1.00  0.00     0.040 A 
ATOM     64  F   UNL A   1      38.572  24.782  28.692  1.00  0.00    -0.206 F 
ATOM     65  C   UNL A   1      40.814  25.601  26.031  1.00  0.00     0.006 A 
ENDBRANCH  44  58
BRANCH  45  66
ATOM     66  C   UNL A   1      43.895  34.283  29.471  1.00  0.00     0.057 A 
ATOM     67  C   UNL A   1      44.076  34.234  28.080  1.00  0.00     0.134 A 
ATOM     68  C   UNL A   1      44.530  35.346  30.135  1.00  0.00     0.134 A 
ATOM     69  F   UNL A   1      43.477  33.282  27.350  1.00  0.00    -0.206 F 
ATOM     70  C   UNL A   1      44.816  35.203  27.387  1.00  0.00     0.040 A 
ATOM     71  C   UNL A   1      45.275  36.319  29.457  1.00  0.00     0.040 A 
ATOM     72  F   UNL A   1      44.369  35.531  31.454  1.00  0.00    -0.206 F 
ATOM     73  C   UNL A   1      45.407  36.258  28.075  1.00  0.00     0.006 A 
ENDBRANCH  45  66
BRANCH  57  74
ATOM     74  C   UNL A   1      41.251  30.639  33.847  1.00  0.00     0.057 A 
ATOM     75  C   UNL A   1      40.303  31.649  34.073  1.00  0.00     0.134 A 
ATOM     76  C   UNL A   1      41.977  30.199  34.958  1.00  0.00     0.134 A 
ATOM     77  F   UNL A   1      39.494  32.076  33.097  1.00  0.00    -0.206 F 
ATOM     78  C   UNL A   1      40.114  32.218  35.338  1.00  0.00     0.040 A 
ATOM     79  C   UNL A   1      41.775  30.734  36.232  1.00  0.00     0.040 A 
ATOM     80  F   UNL A   1      42.865  29.200  34.831  1.00  0.00    -0.206 F 
ATOM     81  C   UNL A   1      40.848  31.754  36.425  1.00  0.00     0.006 A 
ENDBRANCH  57  74
ENDBRANCH  31  32
ENDBRANCH  23  26
ENDBRANCH  21  22
ENDBRANCH  20  21
ENDBRANCH   1  20
TORSDOF 13
ENDMDL
