MODEL 1
REMARK VINA RESULT:     -12.3      0.000      0.000
REMARK SMILES Cc1ccc([C@H](CC(=O)NCCCNC(=O)c2ccc(-c3c4nc(c(-c5c(F)cccc5F)c5ccc([nH]5)c(-c5c(F)cccc5F)c5nc(c(-c6c(F)cccc6F)c6ccc3[nH]6)C=C5)C=C4)cc2)NC(=O)C(F)(F)F)cc1
REMARK SMILES IDX 11 1 10 2 8 3 9 4 7 6 6 7 5 8 1 9 2 10 3 11 79 12 4 13 78 14
REMARK SMILES IDX 71 15 72 16 73 18 74 19 75 20 76 21 77 22 12 23 13 24 14 25
REMARK SMILES IDX 15 26 16 28 17 29 18 30 70 31 19 32 69 33 20 34 21 35 22 36
REMARK SMILES IDX 63 37 23 38 68 39 62 40 64 41 24 42 67 43 61 44 60 45 25 47
REMARK SMILES IDX 51 48 34 49 50 50 35 51 38 52 49 53 65 54 36 55 37 56 48 58
REMARK SMILES IDX 66 59 39 60 26 61 27 62 32 63 28 64 29 65 31 66 33 67 30 68
REMARK SMILES IDX 52 69 53 70 58 71 54 72 55 73 57 74 59 75 56 76 40 77 41 78
REMARK SMILES IDX 46 79 42 80 43 81 45 82 47 83 44 84
REMARK H PARENT 10 5 71 17 14 27 64 46 38 57
REMARK Flexibility Score: inf
ROOT
ATOM      1  C   UNL A   1      31.745  29.737  25.961  1.00  0.00     0.117 C 
ENDROOT
BRANCH   1   2
ATOM      2  N   UNL A   1      32.396  29.705  24.658  1.00  0.00    -0.356 N 
ATOM      3  C   UNL A   1      33.283  28.810  24.132  1.00  0.00     0.222 C 
ATOM      4  O   UNL A   1      33.678  28.974  22.978  1.00  0.00    -0.275 OA
ATOM      5  H   UNL A   1      32.157  30.449  24.059  1.00  0.00     0.163 HD
BRANCH   3   6
ATOM      6  C   UNL A   1      33.787  27.654  24.965  1.00  0.00     0.129 C 
BRANCH   6   7
ATOM      7  C   UNL A   1      32.999  26.375  24.663  1.00  0.00     0.122 C 
BRANCH   7   8
ATOM      8  C   UNL A   1      33.942  25.187  24.569  1.00  0.00    -0.025 A 
ATOM      9  C   UNL A   1      36.876  22.057  24.029  1.00  0.00     0.044 C 
ATOM     10  C   UNL A   1      35.838  23.120  24.240  1.00  0.00    -0.051 A 
ATOM     11  C   UNL A   1      34.977  23.460  23.195  1.00  0.00     0.004 A 
ATOM     12  C   UNL A   1      35.733  23.803  25.456  1.00  0.00     0.004 A 
ATOM     13  C   UNL A   1      34.034  24.474  23.363  1.00  0.00     0.006 A 
ATOM     14  C   UNL A   1      34.797  24.830  25.619  1.00  0.00     0.006 A 
ENDBRANCH   7   8
BRANCH   7  15
ATOM     15  N   UNL A   1      31.931  26.132  25.628  1.00  0.00    -0.341 N 
ATOM     16  C   UNL A   1      30.582  25.990  25.371  1.00  0.00     0.326 C 
ATOM     17  H   UNL A   1      32.205  26.062  26.570  1.00  0.00     0.164 HD
ATOM     18  O   UNL A   1      29.844  25.787  26.341  1.00  0.00    -0.265 OA
BRANCH  16  19
ATOM     19  C   UNL A   1      30.061  26.060  23.914  1.00  0.00     0.471 C 
ATOM     20  F   UNL A   1      30.610  27.087  23.204  1.00  0.00    -0.162 F 
ATOM     21  F   UNL A   1      30.365  24.930  23.208  1.00  0.00    -0.162 F 
ATOM     22  F   UNL A   1      28.710  26.212  23.822  1.00  0.00    -0.162 F 
ENDBRANCH  16  19
ENDBRANCH   7  15
ENDBRANCH   6   7
ENDBRANCH   3   6
ENDBRANCH   1   2
BRANCH   1  23
ATOM     23  C   UNL A   1      32.351  30.773  26.906  1.00  0.00     0.042 C 
BRANCH  23  24
ATOM     24  C   UNL A   1      33.766  30.460  27.361  1.00  0.00     0.118 C 
BRANCH  24  25
ATOM     25  N   UNL A   1      34.334  31.434  28.281  1.00  0.00    -0.352 N 
ATOM     26  C   UNL A   1      35.456  31.336  29.088  1.00  0.00     0.251 C 
ATOM     27  H   UNL A   1      33.849  32.289  28.338  1.00  0.00     0.163 HD
ATOM     28  O   UNL A   1      35.731  32.250  29.850  1.00  0.00    -0.269 OA
BRANCH  26  29
ATOM     29  C   UNL A   1      36.399  30.199  28.920  1.00  0.00     0.039 A 
ATOM     30  C   UNL A   1      36.596  29.348  30.019  1.00  0.00     0.014 A 
ATOM     31  C   UNL A   1      37.224  30.089  27.808  1.00  0.00     0.014 A 
ATOM     32  C   UNL A   1      37.766  28.595  30.104  1.00  0.00     0.010 A 
ATOM     33  C   UNL A   1      38.434  29.445  27.940  1.00  0.00     0.010 A 
ATOM     34  C   UNL A   1      38.734  28.752  29.117  1.00  0.00    -0.014 A 
BRANCH  34  35
ATOM     35  C   UNL A   1      40.120  28.316  29.237  1.00  0.00     0.031 A 
ATOM     36  C   UNL A   1      40.550  27.032  28.648  1.00  0.00     0.074 A 
ATOM     37  C   UNL A   1      41.037  29.195  29.697  1.00  0.00     0.049 A 
ATOM     38  N   UNL A   1      41.702  26.489  28.837  1.00  0.00    -0.248 NA
ATOM     39  C   UNL A   1      39.669  26.228  27.812  1.00  0.00     0.031 C 
ATOM     40  C   UNL A   1      42.483  29.151  29.507  1.00  0.00     0.029 A 
ATOM     41  N   UNL A   1      40.841  30.228  30.626  1.00  0.00    -0.354 N 
ATOM     42  C   UNL A   1      41.820  25.421  27.975  1.00  0.00     0.074 A 
ATOM     43  C   UNL A   1      40.504  25.270  27.401  1.00  0.00     0.031 C 
ATOM     44  C   UNL A   1      43.068  29.879  30.469  1.00  0.00     0.029 A 
ATOM     45  C   UNL A   1      42.026  30.267  31.402  1.00  0.00     0.049 A 
ATOM     46  H   UNL A   1      40.049  30.805  30.719  1.00  0.00     0.167 HD
ATOM     47  C   UNL A   1      43.051  24.862  27.783  1.00  0.00     0.037 A 
ATOM     48  C   UNL A   1      42.004  29.939  32.728  1.00  0.00     0.037 A 
ATOM     49  C   UNL A   1      44.036  25.435  28.702  1.00  0.00     0.049 A 
ATOM     50  C   UNL A   1      42.862  28.750  33.110  1.00  0.00     0.074 A 
ATOM     51  C   UNL A   1      45.003  26.423  28.604  1.00  0.00     0.029 A 
ATOM     52  N   UNL A   1      43.907  25.160  30.049  1.00  0.00    -0.354 N 
ATOM     53  N   UNL A   1      43.491  27.993  32.254  1.00  0.00    -0.248 NA
ATOM     54  C   UNL A   1      42.995  28.261  34.485  1.00  0.00     0.031 C 
ATOM     55  C   UNL A   1      45.424  26.761  29.924  1.00  0.00     0.029 A 
ATOM     56  C   UNL A   1      44.718  25.972  30.814  1.00  0.00     0.049 A 
ATOM     57  H   UNL A   1      43.311  24.468  30.418  1.00  0.00     0.167 HD
ATOM     58  C   UNL A   1      44.020  26.916  32.909  1.00  0.00     0.074 A 
ATOM     59  C   UNL A   1      43.707  27.136  34.307  1.00  0.00     0.031 C 
ATOM     60  C   UNL A   1      44.627  25.886  32.259  1.00  0.00     0.037 A 
BRANCH  47  61
ATOM     61  C   UNL A   1      43.438  23.930  26.652  1.00  0.00     0.057 A 
ATOM     62  C   UNL A   1      43.334  22.533  26.817  1.00  0.00     0.134 A 
ATOM     63  C   UNL A   1      43.957  24.315  25.404  1.00  0.00     0.134 A 
ATOM     64  F   UNL A   1      42.768  21.989  27.903  1.00  0.00    -0.206 F 
ATOM     65  C   UNL A   1      43.802  21.609  25.870  1.00  0.00     0.040 A 
ATOM     66  C   UNL A   1      44.471  23.406  24.467  1.00  0.00     0.040 A 
ATOM     67  F   UNL A   1      43.935  25.582  24.984  1.00  0.00    -0.206 F 
ATOM     68  C   UNL A   1      44.406  22.045  24.703  1.00  0.00     0.006 A 
ENDBRANCH  47  61
BRANCH  48  69
ATOM     69  C   UNL A   1      40.717  30.291  33.382  1.00  0.00     0.057 A 
ATOM     70  C   UNL A   1      40.486  31.630  33.741  1.00  0.00     0.134 A 
ATOM     71  C   UNL A   1      39.604  29.450  33.291  1.00  0.00     0.134 A 
ATOM     72  F   UNL A   1      41.513  32.489  33.842  1.00  0.00    -0.206 F 
ATOM     73  C   UNL A   1      39.194  32.139  33.882  1.00  0.00     0.040 A 
ATOM     74  C   UNL A   1      38.306  29.947  33.446  1.00  0.00     0.040 A 
ATOM     75  F   UNL A   1      39.746  28.166  32.931  1.00  0.00    -0.206 F 
ATOM     76  C   UNL A   1      38.097  31.301  33.700  1.00  0.00     0.006 A 
ENDBRANCH  48  69
BRANCH  60  77
ATOM     77  C   UNL A   1      45.178  24.691  32.966  1.00  0.00     0.057 A 
ATOM     78  C   UNL A   1      44.424  23.527  33.149  1.00  0.00     0.134 A 
ATOM     79  C   UNL A   1      46.430  24.734  33.604  1.00  0.00     0.134 A 
ATOM     80  F   UNL A   1      43.211  23.400  32.588  1.00  0.00    -0.206 F 
ATOM     81  C   UNL A   1      44.887  22.464  33.931  1.00  0.00     0.040 A 
ATOM     82  C   UNL A   1      46.886  23.698  34.421  1.00  0.00     0.040 A 
ATOM     83  F   UNL A   1      47.258  25.778  33.446  1.00  0.00    -0.206 F 
ATOM     84  C   UNL A   1      46.113  22.556  34.586  1.00  0.00     0.006 A 
ENDBRANCH  60  77
ENDBRANCH  34  35
ENDBRANCH  26  29
ENDBRANCH  24  25
ENDBRANCH  23  24
ENDBRANCH   1  23
TORSDOF 14
ENDMDL
MODEL 2
REMARK VINA RESULT:     -12.2      4.066      8.884
REMARK SMILES Cc1ccc([C@H](CC(=O)NCCCNC(=O)c2ccc(-c3c4nc(c(-c5c(F)cccc5F)c5ccc([nH]5)c(-c5c(F)cccc5F)c5nc(c(-c6c(F)cccc6F)c6ccc3[nH]6)C=C5)C=C4)cc2)NC(=O)C(F)(F)F)cc1
REMARK SMILES IDX 11 1 10 2 8 3 9 4 7 6 6 7 5 8 1 9 2 10 3 11 79 12 4 13 78 14
REMARK SMILES IDX 71 15 72 16 73 18 74 19 75 20 76 21 77 22 12 23 13 24 14 25
REMARK SMILES IDX 15 26 16 28 17 29 18 30 70 31 19 32 69 33 20 34 21 35 22 36
REMARK SMILES IDX 63 37 23 38 68 39 62 40 64 41 24 42 67 43 61 44 60 45 25 47
REMARK SMILES IDX 51 48 34 49 50 50 35 51 38 52 49 53 65 54 36 55 37 56 48 58
REMARK SMILES IDX 66 59 39 60 26 61 27 62 32 63 28 64 29 65 31 66 33 67 30 68
REMARK SMILES IDX 52 69 53 70 58 71 54 72 55 73 57 74 59 75 56 76 40 77 41 78
REMARK SMILES IDX 46 79 42 80 43 81 45 82 47 83 44 84
REMARK H PARENT 10 5 71 17 14 27 64 46 38 57
REMARK Flexibility Score: inf
ROOT
ATOM      1  C   UNL A   1      37.029  22.628  24.031  1.00  0.00     0.117 C 
ENDROOT
BRANCH   1   2
ATOM      2  N   UNL A   1      36.181  23.675  24.587  1.00  0.00    -0.356 N 
ATOM      3  C   UNL A   1      34.831  23.863  24.499  1.00  0.00     0.222 C 
ATOM      4  O   UNL A   1      34.325  24.817  25.089  1.00  0.00    -0.275 OA
ATOM      5  H   UNL A   1      36.659  24.357  25.112  1.00  0.00     0.163 HD
BRANCH   3   6
ATOM      6  C   UNL A   1      33.983  22.927  23.670  1.00  0.00     0.129 C 
BRANCH   6   7
ATOM      7  C   UNL A   1      33.013  22.135  24.554  1.00  0.00     0.122 C 
BRANCH   7   8
ATOM      8  C   UNL A   1      33.201  20.644  24.335  1.00  0.00    -0.025 A 
ATOM      9  C   UNL A   1      33.874  16.500  23.299  1.00  0.00     0.044 C 
ATOM     10  C   UNL A   1      33.629  17.927  23.694  1.00  0.00    -0.051 A 
ATOM     11  C   UNL A   1      32.559  18.624  23.132  1.00  0.00     0.004 A 
ATOM     12  C   UNL A   1      34.472  18.587  24.594  1.00  0.00     0.004 A 
ATOM     13  C   UNL A   1      32.342  19.962  23.457  1.00  0.00     0.006 A 
ATOM     14  C   UNL A   1      34.264  19.935  24.909  1.00  0.00     0.006 A 
ENDBRANCH   7   8
BRANCH   7  15
ATOM     15  N   UNL A   1      33.128  22.485  25.966  1.00  0.00    -0.341 N 
ATOM     16  C   UNL A   1      32.117  22.876  26.821  1.00  0.00     0.326 C 
ATOM     17  H   UNL A   1      34.031  22.436  26.354  1.00  0.00     0.164 HD
ATOM     18  O   UNL A   1      32.433  23.126  27.989  1.00  0.00    -0.265 OA
BRANCH  16  19
ATOM     19  C   UNL A   1      30.658  22.957  26.307  1.00  0.00     0.471 C 
ATOM     20  F   UNL A   1      30.158  21.741  25.941  1.00  0.00    -0.162 F 
ATOM     21  F   UNL A   1      29.804  23.424  27.266  1.00  0.00    -0.162 F 
ATOM     22  F   UNL A   1      30.500  23.775  25.230  1.00  0.00    -0.162 F 
ENDBRANCH  16  19
ENDBRANCH   7  15
ENDBRANCH   6   7
ENDBRANCH   3   6
ENDBRANCH   1   2
BRANCH   1  23
ATOM     23  C   UNL A   1      37.815  21.867  25.095  1.00  0.00     0.042 C 
BRANCH  23  24
ATOM     24  C   UNL A   1      38.318  22.725  26.243  1.00  0.00     0.118 C 
BRANCH  24  25
ATOM     25  N   UNL A   1      39.763  22.712  26.419  1.00  0.00    -0.352 N 
ATOM     26  C   UNL A   1      40.634  23.765  26.649  1.00  0.00     0.251 C 
ATOM     27  H   UNL A   1      40.183  21.824  26.366  1.00  0.00     0.163 HD
ATOM     28  O   UNL A   1      41.835  23.553  26.700  1.00  0.00    -0.269 OA
BRANCH  26  29
ATOM     29  C   UNL A   1      40.102  25.115  26.981  1.00  0.00     0.039 A 
ATOM     30  C   UNL A   1      40.533  26.196  26.197  1.00  0.00     0.014 A 
ATOM     31  C   UNL A   1      39.381  25.352  28.143  1.00  0.00     0.014 A 
ATOM     32  C   UNL A   1      40.475  27.488  26.717  1.00  0.00     0.010 A 
ATOM     33  C   UNL A   1      39.432  26.606  28.712  1.00  0.00     0.010 A 
ATOM     34  C   UNL A   1      40.040  27.662  28.026  1.00  0.00    -0.014 A 
BRANCH  34  35
ATOM     35  C   UNL A   1      40.245  28.869  28.816  1.00  0.00     0.031 A 
ATOM     36  C   UNL A   1      39.174  29.882  28.918  1.00  0.00     0.074 A 
ATOM     37  C   UNL A   1      41.329  28.942  29.618  1.00  0.00     0.049 A 
ATOM     38  N   UNL A   1      39.315  31.046  29.453  1.00  0.00    -0.248 NA
ATOM     39  C   UNL A   1      37.842  29.662  28.371  1.00  0.00     0.031 C 
ATOM     40  C   UNL A   1      41.521  29.809  30.776  1.00  0.00     0.029 A 
ATOM     41  N   UNL A   1      42.589  28.361  29.409  1.00  0.00    -0.354 N 
ATOM     42  C   UNL A   1      38.070  31.624  29.555  1.00  0.00     0.074 A 
ATOM     43  C   UNL A   1      37.198  30.743  28.815  1.00  0.00     0.031 C 
ATOM     44  C   UNL A   1      42.836  29.941  31.005  1.00  0.00     0.029 A 
ATOM     45  C   UNL A   1      43.525  29.304  29.898  1.00  0.00     0.049 A 
ATOM     46  H   UNL A   1      42.781  27.483  29.006  1.00  0.00     0.167 HD
ATOM     47  C   UNL A   1      37.919  32.730  30.343  1.00  0.00     0.037 A 
ATOM     48  C   UNL A   1      44.389  29.937  29.049  1.00  0.00     0.037 A 
ATOM     49  C   UNL A   1      39.215  33.207  30.828  1.00  0.00     0.049 A 
ATOM     50  C   UNL A   1      44.249  31.445  28.998  1.00  0.00     0.074 A 
ATOM     51  C   UNL A   1      39.931  33.059  32.006  1.00  0.00     0.029 A 
ATOM     52  N   UNL A   1      40.098  33.742  29.911  1.00  0.00    -0.354 N 
ATOM     53  N   UNL A   1      43.312  32.116  29.605  1.00  0.00    -0.248 NA
ATOM     54  C   UNL A   1      45.102  32.305  28.173  1.00  0.00     0.031 C 
ATOM     55  C   UNL A   1      41.271  33.482  31.764  1.00  0.00     0.029 A 
ATOM     56  C   UNL A   1      41.360  33.892  30.446  1.00  0.00     0.049 A 
ATOM     57  H   UNL A   1      39.855  33.989  28.988  1.00  0.00     0.167 HD
ATOM     58  C   UNL A   1      43.367  33.425  29.212  1.00  0.00     0.074 A 
ATOM     59  C   UNL A   1      44.517  33.504  28.333  1.00  0.00     0.031 C 
ATOM     60  C   UNL A   1      42.435  34.344  29.582  1.00  0.00     0.037 A 
BRANCH  47  61
ATOM     61  C   UNL A   1      36.604  33.293  30.842  1.00  0.00     0.057 A 
ATOM     62  C   UNL A   1      35.693  33.878  29.937  1.00  0.00     0.134 A 
ATOM     63  C   UNL A   1      36.182  33.343  32.181  1.00  0.00     0.134 A 
ATOM     64  F   UNL A   1      35.885  33.832  28.612  1.00  0.00    -0.206 F 
ATOM     65  C   UNL A   1      34.525  34.541  30.341  1.00  0.00     0.040 A 
ATOM     66  C   UNL A   1      35.041  34.042  32.607  1.00  0.00     0.040 A 
ATOM     67  F   UNL A   1      36.800  32.664  33.150  1.00  0.00    -0.206 F 
ATOM     68  C   UNL A   1      34.212  34.656  31.685  1.00  0.00     0.006 A 
ENDBRANCH  47  61
BRANCH  48  69
ATOM     69  C   UNL A   1      44.776  29.090  27.892  1.00  0.00     0.057 A 
ATOM     70  C   UNL A   1      45.749  28.092  28.080  1.00  0.00     0.134 A 
ATOM     71  C   UNL A   1      43.953  28.979  26.768  1.00  0.00     0.134 A 
ATOM     72  F   UNL A   1      46.568  28.140  29.143  1.00  0.00    -0.206 F 
ATOM     73  C   UNL A   1      45.817  26.969  27.255  1.00  0.00     0.040 A 
ATOM     74  C   UNL A   1      44.024  27.865  25.925  1.00  0.00     0.040 A 
ATOM     75  F   UNL A   1      42.988  29.881  26.536  1.00  0.00    -0.206 F 
ATOM     76  C   UNL A   1      44.927  26.837  26.192  1.00  0.00     0.006 A 
ENDBRANCH  48  69
BRANCH  60  77
ATOM     77  C   UNL A   1      42.471  35.767  29.129  1.00  0.00     0.057 A 
ATOM     78  C   UNL A   1      41.800  36.194  27.979  1.00  0.00     0.134 A 
ATOM     79  C   UNL A   1      43.299  36.712  29.759  1.00  0.00     0.134 A 
ATOM     80  F   UNL A   1      40.995  35.359  27.303  1.00  0.00    -0.206 F 
ATOM     81  C   UNL A   1      41.949  37.492  27.477  1.00  0.00     0.040 A 
ATOM     82  C   UNL A   1      43.490  37.996  29.247  1.00  0.00     0.040 A 
ATOM     83  F   UNL A   1      43.942  36.424  30.902  1.00  0.00    -0.206 F 
ATOM     84  C   UNL A   1      42.812  38.391  28.101  1.00  0.00     0.006 A 
ENDBRANCH  60  77
ENDBRANCH  34  35
ENDBRANCH  26  29
ENDBRANCH  24  25
ENDBRANCH  23  24
ENDBRANCH   1  23
TORSDOF 14
ENDMDL
MODEL 3
REMARK VINA RESULT:     -12.2      3.901      9.022
REMARK SMILES Cc1ccc([C@H](CC(=O)NCCCNC(=O)c2ccc(-c3c4nc(c(-c5c(F)cccc5F)c5ccc([nH]5)c(-c5c(F)cccc5F)c5nc(c(-c6c(F)cccc6F)c6ccc3[nH]6)C=C5)C=C4)cc2)NC(=O)C(F)(F)F)cc1
REMARK SMILES IDX 11 1 10 2 8 3 9 4 7 6 6 7 5 8 1 9 2 10 3 11 79 12 4 13 78 14
REMARK SMILES IDX 71 15 72 16 73 18 74 19 75 20 76 21 77 22 12 23 13 24 14 25
REMARK SMILES IDX 15 26 16 28 17 29 18 30 70 31 19 32 69 33 20 34 21 35 22 36
REMARK SMILES IDX 63 37 23 38 68 39 62 40 64 41 24 42 67 43 61 44 60 45 25 47
REMARK SMILES IDX 51 48 34 49 50 50 35 51 38 52 49 53 65 54 36 55 37 56 48 58
REMARK SMILES IDX 66 59 39 60 26 61 27 62 32 63 28 64 29 65 31 66 33 67 30 68
REMARK SMILES IDX 52 69 53 70 58 71 54 72 55 73 57 74 59 75 56 76 40 77 41 78
REMARK SMILES IDX 46 79 42 80 43 81 45 82 47 83 44 84
REMARK H PARENT 10 5 71 17 14 27 64 46 38 57
REMARK Flexibility Score: inf
ROOT
ATOM      1  C   UNL A   1      36.675  21.393  25.038  1.00  0.00     0.117 C 
ENDROOT
BRANCH   1   2
ATOM      2  N   UNL A   1      35.782  21.634  26.165  1.00  0.00    -0.356 N 
ATOM      3  C   UNL A   1      35.050  22.739  26.494  1.00  0.00     0.222 C 
ATOM      4  O   UNL A   1      34.331  22.697  27.493  1.00  0.00    -0.275 OA
ATOM      5  H   UNL A   1      35.692  20.878  26.789  1.00  0.00     0.163 HD
BRANCH   3   6
ATOM      6  C   UNL A   1      35.144  23.995  25.660  1.00  0.00     0.129 C 
BRANCH   6   7
ATOM      7  C   UNL A   1      33.784  24.350  25.047  1.00  0.00     0.122 C 
BRANCH   7   8
ATOM      8  C   UNL A   1      33.239  25.619  25.679  1.00  0.00    -0.025 A 
ATOM      9  C   UNL A   1      31.711  29.417  27.072  1.00  0.00     0.044 C 
ATOM     10  C   UNL A   1      32.238  28.085  26.625  1.00  0.00    -0.051 A 
ATOM     11  C   UNL A   1      33.583  27.958  26.273  1.00  0.00     0.004 A 
ATOM     12  C   UNL A   1      31.401  26.969  26.522  1.00  0.00     0.004 A 
ATOM     13  C   UNL A   1      34.078  26.737  25.816  1.00  0.00     0.006 A 
ATOM     14  C   UNL A   1      31.894  25.748  26.049  1.00  0.00     0.006 A 
ENDBRANCH   7   8
BRANCH   7  15
ATOM     15  N   UNL A   1      33.836  24.458  23.593  1.00  0.00    -0.341 N 
ATOM     16  C   UNL A   1      33.356  23.555  22.665  1.00  0.00     0.326 C 
ATOM     17  H   UNL A   1      34.262  25.268  23.232  1.00  0.00     0.164 HD
ATOM     18  O   UNL A   1      33.501  23.843  21.472  1.00  0.00    -0.265 OA
BRANCH  16  19
ATOM     19  C   UNL A   1      32.646  22.262  23.139  1.00  0.00     0.471 C 
ATOM     20  F   UNL A   1      31.592  22.511  23.967  1.00  0.00    -0.162 F 
ATOM     21  F   UNL A   1      32.124  21.553  22.093  1.00  0.00    -0.162 F 
ATOM     22  F   UNL A   1      33.463  21.402  23.808  1.00  0.00    -0.162 F 
ENDBRANCH  16  19
ENDBRANCH   7  15
ENDBRANCH   6   7
ENDBRANCH   3   6
ENDBRANCH   1   2
BRANCH   1  23
ATOM     23  C   UNL A   1      38.152  21.456  25.422  1.00  0.00     0.042 C 
BRANCH  23  24
ATOM     24  C   UNL A   1      38.560  22.723  26.153  1.00  0.00     0.118 C 
BRANCH  24  25
ATOM     25  N   UNL A   1      39.905  22.693  26.709  1.00  0.00    -0.352 N 
ATOM     26  C   UNL A   1      40.685  23.732  27.189  1.00  0.00     0.251 C 
ATOM     27  H   UNL A   1      40.321  21.802  26.750  1.00  0.00     0.163 HD
ATOM     28  O   UNL A   1      41.827  23.508  27.556  1.00  0.00    -0.269 OA
BRANCH  26  29
ATOM     29  C   UNL A   1      40.087  25.079  27.400  1.00  0.00     0.039 A 
ATOM     30  C   UNL A   1      40.516  26.120  26.562  1.00  0.00     0.014 A 
ATOM     31  C   UNL A   1      39.300  25.366  28.507  1.00  0.00     0.014 A 
ATOM     32  C   UNL A   1      40.385  27.441  26.986  1.00  0.00     0.010 A 
ATOM     33  C   UNL A   1      39.277  26.657  28.987  1.00  0.00     0.010 A 
ATOM     34  C   UNL A   1      39.878  27.687  28.258  1.00  0.00    -0.014 A 
BRANCH  34  35
ATOM     35  C   UNL A   1      39.998  28.954  28.969  1.00  0.00     0.031 A 
ATOM     36  C   UNL A   1      38.947  29.983  28.837  1.00  0.00     0.074 A 
ATOM     37  C   UNL A   1      40.962  29.081  29.906  1.00  0.00     0.049 A 
ATOM     38  N   UNL A   1      39.038  31.185  29.291  1.00  0.00    -0.248 NA
ATOM     39  C   UNL A   1      37.700  29.733  28.127  1.00  0.00     0.031 C 
ATOM     40  C   UNL A   1      41.010  30.039  31.007  1.00  0.00     0.029 A 
ATOM     41  N   UNL A   1      42.225  28.470  29.925  1.00  0.00    -0.354 N 
ATOM     42  C   UNL A   1      37.804  31.784  29.170  1.00  0.00     0.074 A 
ATOM     43  C   UNL A   1      37.024  30.854  28.387  1.00  0.00     0.031 C 
ATOM     44  C   UNL A   1      42.282  30.174  31.407  1.00  0.00     0.029 A 
ATOM     45  C   UNL A   1      43.105  29.440  30.463  1.00  0.00     0.049 A 
ATOM     46  H   UNL A   1      42.451  27.560  29.625  1.00  0.00     0.167 HD
ATOM     47  C   UNL A   1      37.571  32.953  29.837  1.00  0.00     0.037 A 
ATOM     48  C   UNL A   1      44.093  29.991  29.696  1.00  0.00     0.037 A 
ATOM     49  C   UNL A   1      38.797  33.454  30.460  1.00  0.00     0.049 A 
ATOM     50  C   UNL A   1      43.995  31.491  29.505  1.00  0.00     0.074 A 
ATOM     51  C   UNL A   1      39.338  33.397  31.735  1.00  0.00     0.029 A 
ATOM     52  N   UNL A   1      39.810  33.902  29.636  1.00  0.00    -0.354 N 
ATOM     53  N   UNL A   1      42.998  32.221  29.918  1.00  0.00    -0.248 NA
ATOM     54  C   UNL A   1      44.974  32.271  28.741  1.00  0.00     0.031 C 
ATOM     55  C   UNL A   1      40.707  33.784  31.651  1.00  0.00     0.029 A 
ATOM     56  C   UNL A   1      40.988  34.082  30.330  1.00  0.00     0.049 A 
ATOM     57  H   UNL A   1      39.704  34.074  28.671  1.00  0.00     0.167 HD
ATOM     58  C   UNL A   1      43.137  33.492  29.432  1.00  0.00     0.074 A 
ATOM     59  C   UNL A   1      44.400  33.485  28.721  1.00  0.00     0.031 C 
ATOM     60  C   UNL A   1      42.183  34.449  29.592  1.00  0.00     0.037 A 
BRANCH  47  61
ATOM     61  C   UNL A   1      36.212  33.570  30.099  1.00  0.00     0.057 A 
ATOM     62  C   UNL A   1      35.428  34.043  29.026  1.00  0.00     0.134 A 
ATOM     63  C   UNL A   1      35.627  33.778  31.360  1.00  0.00     0.134 A 
ATOM     64  F   UNL A   1      35.782  33.841  27.749  1.00  0.00    -0.206 F 
ATOM     65  C   UNL A   1      34.228  34.748  29.201  1.00  0.00     0.040 A 
ATOM     66  C   UNL A   1      34.453  34.521  31.555  1.00  0.00     0.040 A 
ATOM     67  F   UNL A   1      36.112  33.219  32.471  1.00  0.00    -0.206 F 
ATOM     68  C   UNL A   1      33.753  35.021  30.472  1.00  0.00     0.006 A 
ENDBRANCH  47  61
BRANCH  48  69
ATOM     69  C   UNL A   1      44.618  29.047  28.677  1.00  0.00     0.057 A 
ATOM     70  C   UNL A   1      44.111  29.116  27.367  1.00  0.00     0.134 A 
ATOM     71  C   UNL A   1      45.837  28.387  28.859  1.00  0.00     0.134 A 
ATOM     72  F   UNL A   1      42.946  29.739  27.126  1.00  0.00    -0.206 F 
ATOM     73  C   UNL A   1      44.845  28.659  26.272  1.00  0.00     0.040 A 
ATOM     74  C   UNL A   1      46.572  27.912  27.769  1.00  0.00     0.040 A 
ATOM     75  F   UNL A   1      46.392  28.302  30.076  1.00  0.00    -0.206 F 
ATOM     76  C   UNL A   1      46.097  28.085  26.470  1.00  0.00     0.006 A 
ENDBRANCH  48  69
BRANCH  60  77
ATOM     77  C   UNL A   1      42.315  35.829  29.035  1.00  0.00     0.057 A 
ATOM     78  C   UNL A   1      41.806  36.171  27.779  1.00  0.00     0.134 A 
ATOM     79  C   UNL A   1      43.081  36.809  29.690  1.00  0.00     0.134 A 
ATOM     80  F   UNL A   1      41.072  35.295  27.074  1.00  0.00    -0.206 F 
ATOM     81  C   UNL A   1      42.052  37.420  27.199  1.00  0.00     0.040 A 
ATOM     82  C   UNL A   1      43.369  38.043  29.105  1.00  0.00     0.040 A 
ATOM     83  F   UNL A   1      43.566  36.605  30.925  1.00  0.00    -0.206 F 
ATOM     84  C   UNL A   1      42.852  38.353  27.854  1.00  0.00     0.006 A 
ENDBRANCH  60  77
ENDBRANCH  34  35
ENDBRANCH  26  29
ENDBRANCH  24  25
ENDBRANCH  23  24
ENDBRANCH   1  23
TORSDOF 14
ENDMDL
