MODEL 1
REMARK VINA RESULT:     -12.7      0.000      0.000
REMARK SMILES CC1(C)[C@@](C)(C(=O)NCCCNC(=O)c2ccc(-c3c4nc(c(-c5c(F)cccc5F)c5ccc([nH]5)c(-c5c(F)cccc5F)c5nc(c(-c6c(F)cccc6F)c6ccc3[nH]6)C=C5)C=C4)cc2)CC[C@]1(C)C(=O)Nc1ccc(Cl)cc1Cl
REMARK SMILES IDX 10 1 9 2 8 3 6 4 7 5 4 7 1 8 2 9 3 10 71 11 5 12 69 13 70 14
REMARK SMILES IDX 72 15 73 16 74 17 75 18 76 20 77 21 82 22 78 23 81 24 83 25
REMARK SMILES IDX 79 26 80 27 11 28 12 29 13 30 14 32 15 33 16 34 68 35 17 36
REMARK SMILES IDX 67 37 18 38 19 39 20 40 61 41 21 42 66 43 60 44 62 45 22 46
REMARK SMILES IDX 65 47 59 48 58 49 23 51 49 52 32 53 48 54 33 55 36 56 47 57
REMARK SMILES IDX 63 58 34 59 35 60 46 62 64 63 37 64 24 65 25 66 30 67 26 68
REMARK SMILES IDX 27 69 29 70 31 71 28 72 50 73 51 74 56 75 52 76 53 77 55 78
REMARK SMILES IDX 57 79 54 80 38 81 39 82 44 83 40 84 41 85 43 86 45 87 42 88
REMARK H PARENT 8 6 75 19 12 31 62 50 36 61
REMARK Flexibility Score: inf
ROOT
ATOM      1  C   UNL A   1      37.401  19.746  24.983  1.00  0.00     0.042 C 
ENDROOT
BRANCH   1   2
ATOM      2  C   UNL A   1      36.160  20.648  25.060  1.00  0.00     0.117 C 
BRANCH   2   3
ATOM      3  N   UNL A   1      36.212  21.807  24.171  1.00  0.00    -0.356 N 
ATOM      4  C   UNL A   1      35.611  23.028  24.106  1.00  0.00     0.226 C 
ATOM      5  O   UNL A   1      36.031  23.740  23.184  1.00  0.00    -0.274 OA
ATOM      6  H   UNL A   1      36.843  21.670  23.427  1.00  0.00     0.163 HD
BRANCH   4   7
ATOM      7  C   UNL A   1      34.495  23.545  25.074  1.00  0.00     0.052 C 
ATOM      8  C   UNL A   1      32.917  21.756  24.171  1.00  0.00     0.013 C 
ATOM      9  C   UNL A   1      32.999  23.179  24.685  1.00  0.00    -0.007 C 
ATOM     10  C   UNL A   1      32.098  23.272  25.948  1.00  0.00     0.013 C 
ATOM     11  C   UNL A   1      32.540  24.247  23.597  1.00  0.00     0.053 C 
ATOM     12  C   UNL A   1      34.919  23.166  26.513  1.00  0.00     0.022 C 
ATOM     13  C   UNL A   1      34.448  25.099  25.015  1.00  0.00     0.018 C 
ATOM     14  C   UNL A   1      33.305  25.522  24.086  1.00  0.00     0.018 C 
ATOM     15  C   UNL A   1      33.025  23.990  22.159  1.00  0.00     0.022 C 
BRANCH  11  16
ATOM     16  C   UNL A   1      30.988  24.561  23.574  1.00  0.00     0.230 C 
ATOM     17  O   UNL A   1      30.195  23.752  23.074  1.00  0.00    -0.274 OA
ATOM     18  N   UNL A   1      30.412  25.739  23.975  1.00  0.00    -0.324 N 
ATOM     19  H   UNL A   1      29.499  25.866  23.630  1.00  0.00     0.170 HD
BRANCH  18  20
ATOM     20  C   UNL A   1      30.857  26.799  24.776  1.00  0.00     0.060 A 
ATOM     21  C   UNL A   1      30.989  26.628  26.155  1.00  0.00     0.029 A 
ATOM     22  C   UNL A   1      31.122  28.067  24.219  1.00  0.00     0.066 A 
ATOM     23  C   UNL A   1      31.530  27.650  26.942  1.00  0.00     0.023 A 
ATOM     24  C   UNL A   1      31.724  29.064  24.992  1.00  0.00     0.043 A 
ATOM     25  Cl  UNL A   1      30.878  28.391  22.539  1.00  0.00    -0.082 Cl
ATOM     26  C   UNL A   1      31.943  28.840  26.348  1.00  0.00     0.042 A 
ATOM     27  Cl  UNL A   1      32.747  30.032  27.290  1.00  0.00    -0.084 Cl
ENDBRANCH  18  20
ENDBRANCH  11  16
ENDBRANCH   4   7
ENDBRANCH   2   3
ENDBRANCH   1   2
BRANCH   1  28
ATOM     28  C   UNL A   1      38.702  20.411  25.415  1.00  0.00     0.118 C 
BRANCH  28  29
ATOM     29  N   UNL A   1      39.738  19.430  25.677  1.00  0.00    -0.352 N 
ATOM     30  C   UNL A   1      41.052  19.600  26.042  1.00  0.00     0.251 C 
ATOM     31  H   UNL A   1      39.455  18.492  25.576  1.00  0.00     0.163 HD
ATOM     32  O   UNL A   1      41.822  18.649  25.927  1.00  0.00    -0.269 OA
BRANCH  30  33
ATOM     33  C   UNL A   1      41.568  20.891  26.566  1.00  0.00     0.039 A 
ATOM     34  C   UNL A   1      41.439  21.150  27.937  1.00  0.00     0.014 A 
ATOM     35  C   UNL A   1      42.071  21.891  25.730  1.00  0.00     0.014 A 
ATOM     36  C   UNL A   1      41.827  22.388  28.464  1.00  0.00     0.010 A 
ATOM     37  C   UNL A   1      42.532  23.096  26.267  1.00  0.00     0.010 A 
ATOM     38  C   UNL A   1      42.389  23.371  27.636  1.00  0.00    -0.014 A 
BRANCH  38  39
ATOM     39  C   UNL A   1      42.777  24.704  28.171  1.00  0.00     0.031 A 
ATOM     40  C   UNL A   1      41.732  25.766  28.397  1.00  0.00     0.074 A 
ATOM     41  C   UNL A   1      44.071  24.986  28.420  1.00  0.00     0.049 A 
ATOM     42  N   UNL A   1      41.881  27.008  28.788  1.00  0.00    -0.248 NA
ATOM     43  C   UNL A   1      40.336  25.388  28.125  1.00  0.00     0.031 C 
ATOM     44  C   UNL A   1      45.190  24.065  28.222  1.00  0.00     0.029 A 
ATOM     45  N   UNL A   1      44.663  26.135  28.885  1.00  0.00    -0.354 N 
ATOM     46  C   UNL A   1      40.606  27.562  28.785  1.00  0.00     0.074 A 
ATOM     47  C   UNL A   1      39.702  26.536  28.311  1.00  0.00     0.031 C 
ATOM     48  C   UNL A   1      46.331  24.678  28.579  1.00  0.00     0.029 A 
ATOM     49  C   UNL A   1      46.028  26.043  29.002  1.00  0.00     0.049 A 
ATOM     50  H   UNL A   1      44.156  26.947  29.113  1.00  0.00     0.167 HD
ATOM     51  C   UNL A   1      40.216  28.803  29.162  1.00  0.00     0.037 A 
ATOM     52  C   UNL A   1      46.936  26.954  29.398  1.00  0.00     0.037 A 
ATOM     53  C   UNL A   1      41.103  29.815  29.675  1.00  0.00     0.049 A 
ATOM     54  C   UNL A   1      46.482  28.324  29.814  1.00  0.00     0.074 A 
ATOM     55  C   UNL A   1      40.790  31.080  30.145  1.00  0.00     0.029 A 
ATOM     56  N   UNL A   1      42.477  29.676  29.788  1.00  0.00    -0.354 N 
ATOM     57  N   UNL A   1      45.268  28.817  29.850  1.00  0.00    -0.248 NA
ATOM     58  C   UNL A   1      47.526  29.264  30.250  1.00  0.00     0.031 C 
ATOM     59  C   UNL A   1      41.981  31.717  30.513  1.00  0.00     0.029 A 
ATOM     60  C   UNL A   1      43.029  30.837  30.304  1.00  0.00     0.049 A 
ATOM     61  H   UNL A   1      42.986  28.871  29.538  1.00  0.00     0.167 HD
ATOM     62  C   UNL A   1      45.398  30.111  30.336  1.00  0.00     0.074 A 
ATOM     63  C   UNL A   1      46.807  30.326  30.588  1.00  0.00     0.031 C 
ATOM     64  C   UNL A   1      44.433  31.037  30.554  1.00  0.00     0.037 A 
BRANCH  51  65
ATOM     65  C   UNL A   1      38.758  29.134  29.038  1.00  0.00     0.057 A 
ATOM     66  C   UNL A   1      37.886  29.050  30.132  1.00  0.00     0.134 A 
ATOM     67  C   UNL A   1      38.221  29.560  27.817  1.00  0.00     0.134 A 
ATOM     68  F   UNL A   1      38.333  28.638  31.328  1.00  0.00    -0.206 F 
ATOM     69  C   UNL A   1      36.528  29.348  30.008  1.00  0.00     0.040 A 
ATOM     70  C   UNL A   1      36.870  29.885  27.687  1.00  0.00     0.040 A 
ATOM     71  F   UNL A   1      39.002  29.670  26.732  1.00  0.00    -0.206 F 
ATOM     72  C   UNL A   1      36.018  29.771  28.783  1.00  0.00     0.006 A 
ENDBRANCH  51  65
BRANCH  52  73
ATOM     73  C   UNL A   1      48.371  26.585  29.453  1.00  0.00     0.057 A 
ATOM     74  C   UNL A   1      48.904  25.941  30.574  1.00  0.00     0.134 A 
ATOM     75  C   UNL A   1      49.238  26.858  28.388  1.00  0.00     0.134 A 
ATOM     76  F   UNL A   1      48.124  25.672  31.631  1.00  0.00    -0.206 F 
ATOM     77  C   UNL A   1      50.252  25.587  30.642  1.00  0.00     0.040 A 
ATOM     78  C   UNL A   1      50.586  26.493  28.434  1.00  0.00     0.040 A 
ATOM     79  F   UNL A   1      48.786  27.471  27.285  1.00  0.00    -0.206 F 
ATOM     80  C   UNL A   1      51.096  25.858  29.566  1.00  0.00     0.006 A 
ENDBRANCH  52  73
BRANCH  64  81
ATOM     81  C   UNL A   1      44.865  32.358  31.120  1.00  0.00     0.057 A 
ATOM     82  C   UNL A   1      45.188  33.442  30.296  1.00  0.00     0.134 A 
ATOM     83  C   UNL A   1      44.923  32.555  32.505  1.00  0.00     0.134 A 
ATOM     84  F   UNL A   1      45.165  33.312  28.961  1.00  0.00    -0.206 F 
ATOM     85  C   UNL A   1      45.572  34.673  30.830  1.00  0.00     0.040 A 
ATOM     86  C   UNL A   1      45.286  33.787  33.052  1.00  0.00     0.040 A 
ATOM     87  F   UNL A   1      44.620  31.557  33.350  1.00  0.00    -0.206 F 
ATOM     88  C   UNL A   1      45.616  34.849  32.213  1.00  0.00     0.006 A 
ENDBRANCH  64  81
ENDBRANCH  38  39
ENDBRANCH  30  33
ENDBRANCH  28  29
ENDBRANCH   1  28
TORSDOF 12
ENDMDL
MODEL 2
REMARK VINA RESULT:     -12.7      4.252      5.987
REMARK SMILES CC1(C)[C@@](C)(C(=O)NCCCNC(=O)c2ccc(-c3c4nc(c(-c5c(F)cccc5F)c5ccc([nH]5)c(-c5c(F)cccc5F)c5nc(c(-c6c(F)cccc6F)c6ccc3[nH]6)C=C5)C=C4)cc2)CC[C@]1(C)C(=O)Nc1ccc(Cl)cc1Cl
REMARK SMILES IDX 10 1 9 2 8 3 6 4 7 5 4 7 1 8 2 9 3 10 71 11 5 12 69 13 70 14
REMARK SMILES IDX 72 15 73 16 74 17 75 18 76 20 77 21 82 22 78 23 81 24 83 25
REMARK SMILES IDX 79 26 80 27 11 28 12 29 13 30 14 32 15 33 16 34 68 35 17 36
REMARK SMILES IDX 67 37 18 38 19 39 20 40 61 41 21 42 66 43 60 44 62 45 22 46
REMARK SMILES IDX 65 47 59 48 58 49 23 51 49 52 32 53 48 54 33 55 36 56 47 57
REMARK SMILES IDX 63 58 34 59 35 60 46 62 64 63 37 64 24 65 25 66 30 67 26 68
REMARK SMILES IDX 27 69 29 70 31 71 28 72 50 73 51 74 56 75 52 76 53 77 55 78
REMARK SMILES IDX 57 79 54 80 38 81 39 82 44 83 40 84 41 85 43 86 45 87 42 88
REMARK H PARENT 8 6 75 19 12 31 62 50 36 61
REMARK Flexibility Score: inf
ROOT
ATOM      1  C   UNL A   1      38.737  22.602  26.132  1.00  0.00     0.042 C 
ENDROOT
BRANCH   1   2
ATOM      2  C   UNL A   1      37.469  23.460  26.009  1.00  0.00     0.117 C 
BRANCH   2   3
ATOM      3  N   UNL A   1      36.261  22.809  26.514  1.00  0.00    -0.356 N 
ATOM      4  C   UNL A   1      35.029  22.498  26.022  1.00  0.00     0.226 C 
ATOM      5  O   UNL A   1      34.326  21.856  26.814  1.00  0.00    -0.274 OA
ATOM      6  H   UNL A   1      36.364  22.521  27.450  1.00  0.00     0.163 HD
BRANCH   4   7
ATOM      7  C   UNL A   1      34.493  22.880  24.602  1.00  0.00     0.052 C 
ATOM      8  C   UNL A   1      34.519  25.338  25.281  1.00  0.00     0.013 C 
ATOM      9  C   UNL A   1      33.777  24.291  24.475  1.00  0.00    -0.007 C 
ATOM     10  C   UNL A   1      33.792  24.748  22.989  1.00  0.00     0.013 C 
ATOM     11  C   UNL A   1      32.279  24.086  24.977  1.00  0.00     0.053 C 
ATOM     12  C   UNL A   1      35.637  22.622  23.593  1.00  0.00     0.022 C 
ATOM     13  C   UNL A   1      33.331  21.919  24.219  1.00  0.00     0.018 C 
ATOM     14  C   UNL A   1      31.999  22.624  24.492  1.00  0.00     0.018 C 
ATOM     15  C   UNL A   1      32.079  24.071  26.503  1.00  0.00     0.022 C 
BRANCH  11  16
ATOM     16  C   UNL A   1      31.211  25.054  24.322  1.00  0.00     0.230 C 
ATOM     17  O   UNL A   1      30.290  24.593  23.633  1.00  0.00    -0.274 OA
ATOM     18  N   UNL A   1      31.259  26.424  24.352  1.00  0.00    -0.324 N 
ATOM     19  H   UNL A   1      30.694  26.851  23.669  1.00  0.00     0.170 HD
BRANCH  18  20
ATOM     20  C   UNL A   1      31.948  27.340  25.157  1.00  0.00     0.060 A 
ATOM     21  C   UNL A   1      31.668  27.425  26.522  1.00  0.00     0.029 A 
ATOM     22  C   UNL A   1      32.891  28.229  24.600  1.00  0.00     0.066 A 
ATOM     23  C   UNL A   1      32.425  28.265  27.345  1.00  0.00     0.023 A 
ATOM     24  C   UNL A   1      33.692  29.019  25.430  1.00  0.00     0.043 A 
ATOM     25  Cl  UNL A   1      33.216  28.264  22.902  1.00  0.00    -0.082 Cl
ATOM     26  C   UNL A   1      33.466  29.015  26.803  1.00  0.00     0.042 A 
ATOM     27  Cl  UNL A   1      34.491  29.927  27.838  1.00  0.00    -0.084 Cl
ENDBRANCH  18  20
ENDBRANCH  11  16
ENDBRANCH   4   7
ENDBRANCH   2   3
ENDBRANCH   1   2
BRANCH   1  28
ATOM     28  C   UNL A   1      39.871  23.249  26.917  1.00  0.00     0.118 C 
BRANCH  28  29
ATOM     29  N   UNL A   1      40.806  23.926  26.038  1.00  0.00    -0.352 N 
ATOM     30  C   UNL A   1      41.173  25.249  25.979  1.00  0.00     0.251 C 
ATOM     31  H   UNL A   1      41.247  23.345  25.377  1.00  0.00     0.163 HD
ATOM     32  O   UNL A   1      41.756  25.654  24.977  1.00  0.00    -0.269 OA
BRANCH  30  33
ATOM     33  C   UNL A   1      40.886  26.201  27.085  1.00  0.00     0.039 A 
ATOM     34  C   UNL A   1      41.604  27.403  27.130  1.00  0.00     0.014 A 
ATOM     35  C   UNL A   1      40.014  25.890  28.131  1.00  0.00     0.014 A 
ATOM     36  C   UNL A   1      41.436  28.290  28.200  1.00  0.00     0.010 A 
ATOM     37  C   UNL A   1      39.786  26.811  29.158  1.00  0.00     0.010 A 
ATOM     38  C   UNL A   1      40.515  28.009  29.220  1.00  0.00    -0.014 A 
BRANCH  38  39
ATOM     39  C   UNL A   1      40.346  28.923  30.382  1.00  0.00     0.031 A 
ATOM     40  C   UNL A   1      39.275  29.983  30.366  1.00  0.00     0.074 A 
ATOM     41  C   UNL A   1      41.173  28.835  31.442  1.00  0.00     0.049 A 
ATOM     42  N   UNL A   1      39.016  30.916  31.249  1.00  0.00    -0.248 NA
ATOM     43  C   UNL A   1      38.392  30.012  29.189  1.00  0.00     0.031 C 
ATOM     44  C   UNL A   1      42.269  27.877  31.582  1.00  0.00     0.029 A 
ATOM     45  N   UNL A   1      41.226  29.573  32.599  1.00  0.00    -0.354 N 
ATOM     46  C   UNL A   1      37.962  31.654  30.724  1.00  0.00     0.074 A 
ATOM     47  C   UNL A   1      37.657  31.088  29.427  1.00  0.00     0.031 C 
ATOM     48  C   UNL A   1      42.875  28.073  32.764  1.00  0.00     0.029 A 
ATOM     49  C   UNL A   1      42.232  29.189  33.452  1.00  0.00     0.049 A 
ATOM     50  H   UNL A   1      40.602  30.307  32.799  1.00  0.00     0.167 HD
ATOM     51  C   UNL A   1      37.291  32.693  31.276  1.00  0.00     0.037 A 
ATOM     52  C   UNL A   1      42.599  29.681  34.650  1.00  0.00     0.037 A 
ATOM     53  C   UNL A   1      37.559  33.234  32.583  1.00  0.00     0.049 A 
ATOM     54  C   UNL A   1      41.840  30.833  35.246  1.00  0.00     0.074 A 
ATOM     55  C   UNL A   1      36.889  34.242  33.255  1.00  0.00     0.029 A 
ATOM     56  N   UNL A   1      38.580  32.807  33.419  1.00  0.00    -0.354 N 
ATOM     57  N   UNL A   1      40.816  31.488  34.757  1.00  0.00    -0.248 NA
ATOM     58  C   UNL A   1      42.287  31.310  36.563  1.00  0.00     0.031 C 
ATOM     59  C   UNL A   1      37.526  34.447  34.485  1.00  0.00     0.029 A 
ATOM     60  C   UNL A   1      38.569  33.543  34.593  1.00  0.00     0.049 A 
ATOM     61  H   UNL A   1      39.218  32.087  33.209  1.00  0.00     0.167 HD
ATOM     62  C   UNL A   1      40.479  32.435  35.715  1.00  0.00     0.074 A 
ATOM     63  C   UNL A   1      41.403  32.265  36.817  1.00  0.00     0.031 C 
ATOM     64  C   UNL A   1      39.490  33.361  35.684  1.00  0.00     0.037 A 
BRANCH  51  65
ATOM     65  C   UNL A   1      36.191  33.312  30.464  1.00  0.00     0.057 A 
ATOM     66  C   UNL A   1      34.840  33.080  30.753  1.00  0.00     0.134 A 
ATOM     67  C   UNL A   1      36.485  34.166  29.394  1.00  0.00     0.134 A 
ATOM     68  F   UNL A   1      34.490  32.263  31.759  1.00  0.00    -0.206 F 
ATOM     69  C   UNL A   1      33.821  33.650  29.987  1.00  0.00     0.040 A 
ATOM     70  C   UNL A   1      35.475  34.761  28.636  1.00  0.00     0.040 A 
ATOM     71  F   UNL A   1      37.758  34.437  29.069  1.00  0.00    -0.206 F 
ATOM     72  C   UNL A   1      34.139  34.497  28.928  1.00  0.00     0.006 A 
ENDBRANCH  51  65
BRANCH  52  73
ATOM     73  C   UNL A   1      43.727  29.060  35.384  1.00  0.00     0.057 A 
ATOM     74  C   UNL A   1      45.042  29.488  35.175  1.00  0.00     0.134 A 
ATOM     75  C   UNL A   1      43.519  28.035  36.315  1.00  0.00     0.134 A 
ATOM     76  F   UNL A   1      45.303  30.452  34.280  1.00  0.00    -0.206 F 
ATOM     77  C   UNL A   1      46.116  28.914  35.858  1.00  0.00     0.040 A 
ATOM     78  C   UNL A   1      44.582  27.465  37.020  1.00  0.00     0.040 A 
ATOM     79  F   UNL A   1      42.281  27.584  36.561  1.00  0.00    -0.206 F 
ATOM     80  C   UNL A   1      45.885  27.903  36.789  1.00  0.00     0.006 A 
ENDBRANCH  52  73
BRANCH  64  81
ATOM     81  C   UNL A   1      39.338  34.243  36.888  1.00  0.00     0.057 A 
ATOM     82  C   UNL A   1      38.700  33.797  38.051  1.00  0.00     0.134 A 
ATOM     83  C   UNL A   1      39.868  35.538  36.894  1.00  0.00     0.134 A 
ATOM     84  F   UNL A   1      38.158  32.570  38.103  1.00  0.00    -0.206 F 
ATOM     85  C   UNL A   1      38.577  34.617  39.174  1.00  0.00     0.040 A 
ATOM     86  C   UNL A   1      39.771  36.361  38.018  1.00  0.00     0.040 A 
ATOM     87  F   UNL A   1      40.498  36.023  35.812  1.00  0.00    -0.206 F 
ATOM     88  C   UNL A   1      39.120  35.902  39.160  1.00  0.00     0.006 A 
ENDBRANCH  64  81
ENDBRANCH  38  39
ENDBRANCH  30  33
ENDBRANCH  28  29
ENDBRANCH   1  28
TORSDOF 12
ENDMDL
MODEL 3
REMARK VINA RESULT:     -12.6      3.077      7.531
REMARK SMILES CC1(C)[C@@](C)(C(=O)NCCCNC(=O)c2ccc(-c3c4nc(c(-c5c(F)cccc5F)c5ccc([nH]5)c(-c5c(F)cccc5F)c5nc(c(-c6c(F)cccc6F)c6ccc3[nH]6)C=C5)C=C4)cc2)CC[C@]1(C)C(=O)Nc1ccc(Cl)cc1Cl
REMARK SMILES IDX 10 1 9 2 8 3 6 4 7 5 4 7 1 8 2 9 3 10 71 11 5 12 69 13 70 14
REMARK SMILES IDX 72 15 73 16 74 17 75 18 76 20 77 21 82 22 78 23 81 24 83 25
REMARK SMILES IDX 79 26 80 27 11 28 12 29 13 30 14 32 15 33 16 34 68 35 17 36
REMARK SMILES IDX 67 37 18 38 19 39 20 40 61 41 21 42 66 43 60 44 62 45 22 46
REMARK SMILES IDX 65 47 59 48 58 49 23 51 49 52 32 53 48 54 33 55 36 56 47 57
REMARK SMILES IDX 63 58 34 59 35 60 46 62 64 63 37 64 24 65 25 66 30 67 26 68
REMARK SMILES IDX 27 69 29 70 31 71 28 72 50 73 51 74 56 75 52 76 53 77 55 78
REMARK SMILES IDX 57 79 54 80 38 81 39 82 44 83 40 84 41 85 43 86 45 87 42 88
REMARK H PARENT 8 6 75 19 12 31 62 50 36 61
REMARK Flexibility Score: inf
ROOT
ATOM      1  C   UNL A   1      34.131  30.674  27.600  1.00  0.00     0.042 C 
ENDROOT
BRANCH   1   2
ATOM      2  C   UNL A   1      34.410  29.341  26.890  1.00  0.00     0.117 C 
BRANCH   2   3
ATOM      3  N   UNL A   1      34.052  29.337  25.473  1.00  0.00    -0.356 N 
ATOM      4  C   UNL A   1      33.081  28.771  24.703  1.00  0.00     0.226 C 
ATOM      5  O   UNL A   1      33.126  29.117  23.514  1.00  0.00    -0.274 OA
ATOM      6  H   UNL A   1      34.671  29.885  24.937  1.00  0.00     0.163 HD
BRANCH   4   7
ATOM      7  C   UNL A   1      31.983  27.777  25.207  1.00  0.00     0.052 C 
ATOM      8  C   UNL A   1      33.804  26.068  25.727  1.00  0.00     0.013 C 
ATOM      9  C   UNL A   1      32.382  26.240  25.234  1.00  0.00    -0.007 C 
ATOM     10  C   UNL A   1      31.451  25.480  26.219  1.00  0.00     0.013 C 
ATOM     11  C   UNL A   1      32.183  25.695  23.751  1.00  0.00     0.053 C 
ATOM     12  C   UNL A   1      31.425  28.341  26.535  1.00  0.00     0.022 C 
ATOM     13  C   UNL A   1      30.802  27.763  24.194  1.00  0.00     0.018 C 
ATOM     14  C   UNL A   1      30.949  26.538  23.284  1.00  0.00     0.018 C 
ATOM     15  C   UNL A   1      33.315  26.019  22.759  1.00  0.00     0.022 C 
BRANCH  11  16
ATOM     16  C   UNL A   1      31.819  24.158  23.641  1.00  0.00     0.230 C 
ATOM     17  O   UNL A   1      30.729  23.806  23.171  1.00  0.00    -0.274 OA
ATOM     18  N   UNL A   1      32.580  23.127  24.131  1.00  0.00    -0.324 N 
ATOM     19  H   UNL A   1      32.080  22.285  24.231  1.00  0.00     0.170 HD
BRANCH  18  20
ATOM     20  C   UNL A   1      33.922  23.027  24.517  1.00  0.00     0.060 A 
ATOM     21  C   UNL A   1      34.937  23.168  23.570  1.00  0.00     0.029 A 
ATOM     22  C   UNL A   1      34.273  22.726  25.850  1.00  0.00     0.066 A 
ATOM     23  C   UNL A   1      36.278  23.172  23.969  1.00  0.00     0.023 A 
ATOM     24  C   UNL A   1      35.607  22.795  26.260  1.00  0.00     0.043 A 
ATOM     25  Cl  UNL A   1      33.075  22.427  27.060  1.00  0.00    -0.082 Cl
ATOM     26  C   UNL A   1      36.601  23.039  25.317  1.00  0.00     0.042 A 
ATOM     27  Cl  UNL A   1      38.236  23.197  25.823  1.00  0.00    -0.084 Cl
ENDBRANCH  18  20
ENDBRANCH  11  16
ENDBRANCH   4   7
ENDBRANCH   2   3
ENDBRANCH   1   2
BRANCH   1  28
ATOM     28  C   UNL A   1      35.357  31.341  28.211  1.00  0.00     0.118 C 
BRANCH  28  29
ATOM     29  N   UNL A   1      35.375  31.198  29.654  1.00  0.00    -0.352 N 
ATOM     30  C   UNL A   1      36.226  30.488  30.467  1.00  0.00     0.251 C 
ATOM     31  H   UNL A   1      34.663  31.687  30.127  1.00  0.00     0.163 HD
ATOM     32  O   UNL A   1      35.887  30.272  31.628  1.00  0.00    -0.269 OA
BRANCH  30  33
ATOM     33  C   UNL A   1      37.536  29.976  29.988  1.00  0.00     0.039 A 
ATOM     34  C   UNL A   1      38.464  29.530  30.938  1.00  0.00     0.014 A 
ATOM     35  C   UNL A   1      37.913  30.028  28.643  1.00  0.00     0.014 A 
ATOM     36  C   UNL A   1      39.744  29.123  30.544  1.00  0.00     0.010 A 
ATOM     37  C   UNL A   1      39.162  29.547  28.240  1.00  0.00     0.010 A 
ATOM     38  C   UNL A   1      40.103  29.116  29.188  1.00  0.00    -0.014 A 
BRANCH  38  39
ATOM     39  C   UNL A   1      41.469  28.719  28.751  1.00  0.00     0.031 A 
ATOM     40  C   UNL A   1      41.749  27.301  28.325  1.00  0.00     0.074 A 
ATOM     41  C   UNL A   1      42.476  29.614  28.772  1.00  0.00     0.049 A 
ATOM     42  N   UNL A   1      42.884  26.746  27.979  1.00  0.00    -0.248 NA
ATOM     43  C   UNL A   1      40.602  26.378  28.305  1.00  0.00     0.031 C 
ATOM     44  C   UNL A   1      42.357  31.011  29.187  1.00  0.00     0.029 A 
ATOM     45  N   UNL A   1      43.802  29.476  28.445  1.00  0.00    -0.354 N 
ATOM     46  C   UNL A   1      42.594  25.410  27.727  1.00  0.00     0.074 A 
ATOM     47  C   UNL A   1      41.184  25.228  28.001  1.00  0.00     0.031 C 
ATOM     48  C   UNL A   1      43.555  31.606  29.073  1.00  0.00     0.029 A 
ATOM     49  C   UNL A   1      44.533  30.627  28.607  1.00  0.00     0.049 A 
ATOM     50  H   UNL A   1      44.193  28.631  28.123  1.00  0.00     0.167 HD
ATOM     51  C   UNL A   1      43.415  24.428  27.286  1.00  0.00     0.037 A 
ATOM     52  C   UNL A   1      45.842  30.869  28.410  1.00  0.00     0.037 A 
ATOM     53  C   UNL A   1      44.808  24.611  26.971  1.00  0.00     0.049 A 
ATOM     54  C   UNL A   1      46.736  29.765  27.918  1.00  0.00     0.074 A 
ATOM     55  C   UNL A   1      45.705  23.691  26.455  1.00  0.00     0.029 A 
ATOM     56  N   UNL A   1      45.506  25.797  27.139  1.00  0.00    -0.354 N 
ATOM     57  N   UNL A   1      46.435  28.521  27.640  1.00  0.00    -0.248 NA
ATOM     58  C   UNL A   1      48.152  30.103  27.710  1.00  0.00     0.031 C 
ATOM     59  C   UNL A   1      46.954  24.313  26.342  1.00  0.00     0.029 A 
ATOM     60  C   UNL A   1      46.825  25.629  26.753  1.00  0.00     0.049 A 
ATOM     61  H   UNL A   1      45.119  26.636  27.482  1.00  0.00     0.167 HD
ATOM     62  C   UNL A   1      47.615  27.935  27.199  1.00  0.00     0.074 A 
ATOM     63  C   UNL A   1      48.635  28.961  27.240  1.00  0.00     0.031 C 
ATOM     64  C   UNL A   1      47.830  26.659  26.795  1.00  0.00     0.037 A 
BRANCH  51  65
ATOM     65  C   UNL A   1      42.822  23.060  27.113  1.00  0.00     0.057 A 
ATOM     66  C   UNL A   1      42.563  22.224  28.208  1.00  0.00     0.134 A 
ATOM     67  C   UNL A   1      42.487  22.581  25.841  1.00  0.00     0.134 A 
ATOM     68  F   UNL A   1      42.871  22.619  29.453  1.00  0.00    -0.206 F 
ATOM     69  C   UNL A   1      42.021  20.949  28.040  1.00  0.00     0.040 A 
ATOM     70  C   UNL A   1      41.921  21.317  25.663  1.00  0.00     0.040 A 
ATOM     71  F   UNL A   1      42.701  23.334  24.752  1.00  0.00    -0.206 F 
ATOM     72  C   UNL A   1      41.695  20.494  26.764  1.00  0.00     0.006 A 
ENDBRANCH  51  65
BRANCH  52  73
ATOM     73  C   UNL A   1      46.382  32.229  28.645  1.00  0.00     0.057 A 
ATOM     74  C   UNL A   1      46.877  32.597  29.901  1.00  0.00     0.134 A 
ATOM     75  C   UNL A   1      46.426  33.186  27.625  1.00  0.00     0.134 A 
ATOM     76  F   UNL A   1      46.841  31.727  30.921  1.00  0.00    -0.206 F 
ATOM     77  C   UNL A   1      47.389  33.873  30.140  1.00  0.00     0.040 A 
ATOM     78  C   UNL A   1      46.954  34.461  27.844  1.00  0.00     0.040 A 
ATOM     79  F   UNL A   1      45.970  32.892  26.399  1.00  0.00    -0.206 F 
ATOM     80  C   UNL A   1      47.433  34.808  29.106  1.00  0.00     0.006 A 
ENDBRANCH  52  73
BRANCH  64  81
ATOM     81  C   UNL A   1      49.215  26.310  26.337  1.00  0.00     0.057 A 
ATOM     82  C   UNL A   1      49.684  26.669  25.068  1.00  0.00     0.134 A 
ATOM     83  C   UNL A   1      50.099  25.638  27.190  1.00  0.00     0.134 A 
ATOM     84  F   UNL A   1      48.881  27.301  24.200  1.00  0.00    -0.206 F 
ATOM     85  C   UNL A   1      50.981  26.356  24.656  1.00  0.00     0.040 A 
ATOM     86  C   UNL A   1      51.405  25.338  26.798  1.00  0.00     0.040 A 
ATOM     87  F   UNL A   1      49.713  25.272  28.422  1.00  0.00    -0.206 F 
ATOM     88  C   UNL A   1      51.846  25.693  25.525  1.00  0.00     0.006 A 
ENDBRANCH  64  81
ENDBRANCH  38  39
ENDBRANCH  30  33
ENDBRANCH  28  29
ENDBRANCH   1  28
TORSDOF 12
ENDMDL
