MODEL 1
REMARK VINA RESULT:     -11.9      0.000      0.000
REMARK SMILES O=C(CNC(=O)c1ccco1)Nc1cccc(C(=O)NCCCNC(=O)c2ccc(-c3c4nc(c(-c5c(F)cccc5F)c5ccc([nH]5)c(-c5c(F)cccc5F)c5nc(c(-c6c(F)cccc6F)c6ccc3[nH]6)C=C5)C=C4)cc2)c1
REMARK SMILES IDX 21 1 20 2 18 3 19 4 17 6 13 7 14 8 81 9 15 10 16 11 12 12
REMARK SMILES IDX 1 13 2 14 3 16 4 17 5 18 6 20 7 21 8 22 11 23 9 24 10 25
REMARK SMILES IDX 22 26 23 27 24 28 25 29 26 31 27 32 28 33 80 34 29 35 79 36
REMARK SMILES IDX 30 37 31 38 32 39 73 40 33 41 78 42 72 43 74 44 34 45 77 46
REMARK SMILES IDX 71 47 70 48 35 50 61 51 44 52 60 53 45 54 48 55 59 56 75 57
REMARK SMILES IDX 46 58 47 59 58 61 76 62 49 63 36 64 37 65 42 66 38 67 39 68
REMARK SMILES IDX 41 69 43 70 40 71 62 72 63 73 68 74 64 75 65 76 67 77 69 78
REMARK SMILES IDX 66 79 50 80 51 81 56 82 52 83 53 84 55 85 57 86 54 87
REMARK H PARENT 20 5 12 15 4 19 24 30 74 49 48 60
REMARK Flexibility Score: inf
ROOT
ATOM      1  C   UNL A   1      37.017  20.727  24.605  1.00  0.00     0.118 C 
ENDROOT
BRANCH   1   2
ATOM      2  N   UNL A   1      36.172  20.918  25.780  1.00  0.00    -0.352 N 
ATOM      3  C   UNL A   1      34.857  21.313  25.915  1.00  0.00     0.251 C 
ATOM      4  O   UNL A   1      34.391  21.436  27.046  1.00  0.00    -0.269 OA
ATOM      5  H   UNL A   1      36.625  20.731  26.635  1.00  0.00     0.163 HD
BRANCH   3   6
ATOM      6  C   UNL A   1      34.014  21.660  24.740  1.00  0.00     0.041 A 
ATOM      7  C   UNL A   1      32.996  23.343  23.328  1.00  0.00     0.042 A 
ATOM      8  C   UNL A   1      32.133  22.373  22.809  1.00  0.00     0.026 A 
ATOM      9  C   UNL A   1      34.017  22.937  24.183  1.00  0.00     0.040 A 
ATOM     10  C   UNL A   1      32.241  21.040  23.219  1.00  0.00     0.003 A 
ATOM     11  C   UNL A   1      33.155  20.690  24.216  1.00  0.00     0.014 A 
BRANCH   7  12
ATOM     12  N   UNL A   1      32.704  24.706  23.083  1.00  0.00    -0.325 N 
ATOM     13  O   UNL A   1      33.322  24.915  20.838  1.00  0.00    -0.273 OA
ATOM     14  C   UNL A   1      32.978  25.404  21.913  1.00  0.00     0.243 C 
ATOM     15  H   UNL A   1      32.266  25.206  23.810  1.00  0.00     0.169 HD
BRANCH  14  16
ATOM     16  C   UNL A   1      33.098  26.917  22.111  1.00  0.00     0.216 C 
BRANCH  16  17
ATOM     17  N   UNL A   1      31.869  27.648  21.866  1.00  0.00    -0.340 N 
ATOM     18  C   UNL A   1      30.804  27.867  22.709  1.00  0.00     0.287 C 
ATOM     19  H   UNL A   1      31.786  28.045  20.970  1.00  0.00     0.164 HD
ATOM     20  O   UNL A   1      29.813  28.399  22.210  1.00  0.00    -0.266 OA
BRANCH  18  21
ATOM     21  C   UNL A   1      30.876  27.449  24.094  1.00  0.00     0.191 A 
ATOM     22  C   UNL A   1      31.413  28.014  25.240  1.00  0.00     0.056 A 
ATOM     23  O   UNL A   1      30.282  26.259  24.426  1.00  0.00    -0.459 OA
ATOM     24  C   UNL A   1      31.170  27.109  26.301  1.00  0.00     0.043 A 
ATOM     25  C   UNL A   1      30.475  26.059  25.753  1.00  0.00     0.196 A 
ENDBRANCH  18  21
ENDBRANCH  16  17
ENDBRANCH  14  16
ENDBRANCH   7  12
ENDBRANCH   3   6
ENDBRANCH   1   2
BRANCH   1  26
ATOM     26  C   UNL A   1      38.102  19.676  24.776  1.00  0.00     0.042 C 
BRANCH  26  27
ATOM     27  C   UNL A   1      39.039  19.900  25.950  1.00  0.00     0.118 C 
BRANCH  27  28
ATOM     28  N   UNL A   1      40.293  19.169  25.834  1.00  0.00    -0.352 N 
ATOM     29  C   UNL A   1      41.598  19.547  26.034  1.00  0.00     0.251 C 
ATOM     30  H   UNL A   1      40.185  18.229  25.560  1.00  0.00     0.163 HD
ATOM     31  O   UNL A   1      42.496  18.771  25.714  1.00  0.00    -0.269 OA
BRANCH  29  32
ATOM     32  C   UNL A   1      41.955  20.870  26.601  1.00  0.00     0.039 A 
ATOM     33  C   UNL A   1      42.338  21.890  25.721  1.00  0.00     0.014 A 
ATOM     34  C   UNL A   1      41.973  21.113  27.975  1.00  0.00     0.014 A 
ATOM     35  C   UNL A   1      42.668  23.155  26.214  1.00  0.00     0.010 A 
ATOM     36  C   UNL A   1      42.198  22.401  28.458  1.00  0.00     0.010 A 
ATOM     37  C   UNL A   1      42.561  23.435  27.585  1.00  0.00    -0.014 A 
BRANCH  37  38
ATOM     38  C   UNL A   1      42.840  24.794  28.118  1.00  0.00     0.031 A 
ATOM     39  C   UNL A   1      44.241  25.199  28.490  1.00  0.00     0.074 A 
ATOM     40  C   UNL A   1      41.820  25.652  28.319  1.00  0.00     0.049 A 
ATOM     41  N   UNL A   1      44.670  26.328  28.999  1.00  0.00    -0.248 NA
ATOM     42  C   UNL A   1      45.298  24.193  28.295  1.00  0.00     0.031 C 
ATOM     43  C   UNL A   1      40.408  25.363  28.061  1.00  0.00     0.029 A 
ATOM     44  N   UNL A   1      41.813  26.942  28.786  1.00  0.00    -0.354 N 
ATOM     45  C   UNL A   1      46.036  26.160  29.199  1.00  0.00     0.074 A 
ATOM     46  C   UNL A   1      46.354  24.801  28.815  1.00  0.00     0.031 C 
ATOM     47  C   UNL A   1      39.677  26.454  28.337  1.00  0.00     0.029 A 
ATOM     48  C   UNL A   1      40.562  27.508  28.822  1.00  0.00     0.049 A 
ATOM     49  H   UNL A   1      42.628  27.416  29.070  1.00  0.00     0.167 HD
ATOM     50  C   UNL A   1      46.949  27.060  29.636  1.00  0.00     0.037 A 
ATOM     51  C   UNL A   1      40.172  28.740  29.197  1.00  0.00     0.037 A 
ATOM     52  C   UNL A   1      46.638  28.421  29.990  1.00  0.00     0.049 A 
ATOM     53  C   UNL A   1      41.206  29.731  29.653  1.00  0.00     0.074 A 
ATOM     54  C   UNL A   1      47.499  29.429  30.385  1.00  0.00     0.029 A 
ATOM     55  N   UNL A   1      45.361  28.965  29.987  1.00  0.00    -0.354 N 
ATOM     56  N   UNL A   1      42.502  29.578  29.771  1.00  0.00    -0.248 NA
ATOM     57  C   UNL A   1      40.722  31.069  30.015  1.00  0.00     0.031 C 
ATOM     58  C   UNL A   1      46.740  30.573  30.658  1.00  0.00     0.029 A 
ATOM     59  C   UNL A   1      45.411  30.289  30.389  1.00  0.00     0.049 A 
ATOM     60  H   UNL A   1      44.542  28.480  29.737  1.00  0.00     0.167 HD
ATOM     61  C   UNL A   1      42.992  30.805  30.198  1.00  0.00     0.074 A 
ATOM     62  C   UNL A   1      41.854  31.697  30.298  1.00  0.00     0.031 C 
ATOM     63  C   UNL A   1      44.269  31.162  30.485  1.00  0.00     0.037 A 
BRANCH  50  64
ATOM     64  C   UNL A   1      48.374  26.599  29.747  1.00  0.00     0.057 A 
ATOM     65  C   UNL A   1      49.280  26.738  28.686  1.00  0.00     0.134 A 
ATOM     66  C   UNL A   1      48.854  26.028  30.932  1.00  0.00     0.134 A 
ATOM     67  F   UNL A   1      48.882  27.265  27.518  1.00  0.00    -0.206 F 
ATOM     68  C   UNL A   1      50.600  26.296  28.788  1.00  0.00     0.040 A 
ATOM     69  C   UNL A   1      50.180  25.608  31.056  1.00  0.00     0.040 A 
ATOM     70  F   UNL A   1      48.044  25.871  31.990  1.00  0.00    -0.206 F 
ATOM     71  C   UNL A   1      51.055  25.734  29.979  1.00  0.00     0.006 A 
ENDBRANCH  50  64
BRANCH  51  72
ATOM     72  C   UNL A   1      38.740  29.123  29.113  1.00  0.00     0.057 A 
ATOM     73  C   UNL A   1      38.189  29.590  27.913  1.00  0.00     0.134 A 
ATOM     74  C   UNL A   1      37.891  29.035  30.222  1.00  0.00     0.134 A 
ATOM     75  F   UNL A   1      38.958  29.712  26.822  1.00  0.00    -0.206 F 
ATOM     76  C   UNL A   1      36.850  29.973  27.824  1.00  0.00     0.040 A 
ATOM     77  C   UNL A   1      36.544  29.393  30.140  1.00  0.00     0.040 A 
ATOM     78  F   UNL A   1      38.356  28.586  31.398  1.00  0.00    -0.206 F 
ATOM     79  C   UNL A   1      36.023  29.871  28.939  1.00  0.00     0.006 A 
ENDBRANCH  51  72
BRANCH  63  80
ATOM     80  C   UNL A   1      44.496  32.584  30.907  1.00  0.00     0.057 A 
ATOM     81  C   UNL A   1      44.743  33.601  29.976  1.00  0.00     0.134 A 
ATOM     82  C   UNL A   1      44.458  32.941  32.261  1.00  0.00     0.134 A 
ATOM     83  F   UNL A   1      44.806  33.322  28.666  1.00  0.00    -0.206 F 
ATOM     84  C   UNL A   1      44.978  34.917  30.379  1.00  0.00     0.040 A 
ATOM     85  C   UNL A   1      44.664  34.258  32.674  1.00  0.00     0.040 A 
ATOM     86  F   UNL A   1      44.217  32.017  33.204  1.00  0.00    -0.206 F 
ATOM     87  C   UNL A   1      44.934  35.248  31.732  1.00  0.00     0.006 A 
ENDBRANCH  63  80
ENDBRANCH  37  38
ENDBRANCH  29  32
ENDBRANCH  27  28
ENDBRANCH  26  27
ENDBRANCH   1  26
TORSDOF 14
ENDMDL
MODEL 2
REMARK VINA RESULT:     -11.7      1.298      6.242
REMARK SMILES O=C(CNC(=O)c1ccco1)Nc1cccc(C(=O)NCCCNC(=O)c2ccc(-c3c4nc(c(-c5c(F)cccc5F)c5ccc([nH]5)c(-c5c(F)cccc5F)c5nc(c(-c6c(F)cccc6F)c6ccc3[nH]6)C=C5)C=C4)cc2)c1
REMARK SMILES IDX 21 1 20 2 18 3 19 4 17 6 13 7 14 8 81 9 15 10 16 11 12 12
REMARK SMILES IDX 1 13 2 14 3 16 4 17 5 18 6 20 7 21 8 22 11 23 9 24 10 25
REMARK SMILES IDX 22 26 23 27 24 28 25 29 26 31 27 32 28 33 80 34 29 35 79 36
REMARK SMILES IDX 30 37 31 38 32 39 73 40 33 41 78 42 72 43 74 44 34 45 77 46
REMARK SMILES IDX 71 47 70 48 35 50 61 51 44 52 60 53 45 54 48 55 59 56 75 57
REMARK SMILES IDX 46 58 47 59 58 61 76 62 49 63 36 64 37 65 42 66 38 67 39 68
REMARK SMILES IDX 41 69 43 70 40 71 62 72 63 73 68 74 64 75 65 76 67 77 69 78
REMARK SMILES IDX 66 79 50 80 51 81 56 82 52 83 53 84 55 85 57 86 54 87
REMARK H PARENT 20 5 12 15 4 19 24 30 74 49 48 60
REMARK Flexibility Score: inf
ROOT
ATOM      1  C   UNL A   1      37.411  21.111  24.557  1.00  0.00     0.118 C 
ENDROOT
BRANCH   1   2
ATOM      2  N   UNL A   1      37.932  22.314  25.201  1.00  0.00    -0.352 N 
ATOM      3  C   UNL A   1      37.305  23.436  25.701  1.00  0.00     0.251 C 
ATOM      4  O   UNL A   1      37.996  24.341  26.165  1.00  0.00    -0.269 OA
ATOM      5  H   UNL A   1      38.913  22.325  25.297  1.00  0.00     0.163 HD
BRANCH   3   6
ATOM      6  C   UNL A   1      35.830  23.612  25.630  1.00  0.00     0.041 A 
ATOM      7  C   UNL A   1      33.914  24.832  24.792  1.00  0.00     0.042 A 
ATOM      8  C   UNL A   1      33.116  24.237  25.775  1.00  0.00     0.026 A 
ATOM      9  C   UNL A   1      35.229  24.400  24.649  1.00  0.00     0.040 A 
ATOM     10  C   UNL A   1      33.664  23.296  26.653  1.00  0.00     0.003 A 
ATOM     11  C   UNL A   1      35.031  23.013  26.607  1.00  0.00     0.014 A 
BRANCH   7  12
ATOM     12  N   UNL A   1      33.398  25.948  24.090  1.00  0.00    -0.325 N 
ATOM     13  O   UNL A   1      33.899  25.374  21.880  1.00  0.00    -0.273 OA
ATOM     14  C   UNL A   1      33.518  26.182  22.725  1.00  0.00     0.243 C 
ATOM     15  H   UNL A   1      32.911  26.622  24.618  1.00  0.00     0.169 HD
BRANCH  14  16
ATOM     16  C   UNL A   1      33.400  27.659  22.339  1.00  0.00     0.216 C 
BRANCH  16  17
ATOM     17  N   UNL A   1      32.053  28.081  22.005  1.00  0.00    -0.340 N 
ATOM     18  C   UNL A   1      31.032  28.474  22.840  1.00  0.00     0.287 C 
ATOM     19  H   UNL A   1      31.839  28.087  21.045  1.00  0.00     0.164 HD
ATOM     20  O   UNL A   1      29.933  28.646  22.315  1.00  0.00    -0.266 OA
BRANCH  18  21
ATOM     21  C   UNL A   1      31.276  28.636  24.259  1.00  0.00     0.191 A 
ATOM     22  C   UNL A   1      31.603  29.719  25.059  1.00  0.00     0.056 A 
ATOM     23  O   UNL A   1      31.147  27.525  25.052  1.00  0.00    -0.459 OA
ATOM     24  C   UNL A   1      31.716  29.235  26.385  1.00  0.00     0.043 A 
ATOM     25  C   UNL A   1      31.425  27.894  26.326  1.00  0.00     0.196 A 
ENDBRANCH  18  21
ENDBRANCH  16  17
ENDBRANCH  14  16
ENDBRANCH   7  12
ENDBRANCH   3   6
ENDBRANCH   1   2
BRANCH   1  26
ATOM     26  C   UNL A   1      38.172  19.839  24.895  1.00  0.00     0.042 C 
BRANCH  26  27
ATOM     27  C   UNL A   1      39.131  19.951  26.066  1.00  0.00     0.118 C 
BRANCH  27  28
ATOM     28  N   UNL A   1      40.347  19.168  25.892  1.00  0.00    -0.352 N 
ATOM     29  C   UNL A   1      41.675  19.496  26.012  1.00  0.00     0.251 C 
ATOM     30  H   UNL A   1      40.187  18.229  25.642  1.00  0.00     0.163 HD
ATOM     31  O   UNL A   1      42.523  18.679  25.656  1.00  0.00    -0.269 OA
BRANCH  29  32
ATOM     32  C   UNL A   1      42.116  20.812  26.534  1.00  0.00     0.039 A 
ATOM     33  C   UNL A   1      42.603  21.760  25.626  1.00  0.00     0.014 A 
ATOM     34  C   UNL A   1      42.111  21.114  27.897  1.00  0.00     0.014 A 
ATOM     35  C   UNL A   1      43.014  23.017  26.076  1.00  0.00     0.010 A 
ATOM     36  C   UNL A   1      42.420  22.401  28.333  1.00  0.00     0.010 A 
ATOM     37  C   UNL A   1      42.888  23.365  27.431  1.00  0.00    -0.014 A 
BRANCH  37  38
ATOM     38  C   UNL A   1      43.255  24.721  27.915  1.00  0.00     0.031 A 
ATOM     39  C   UNL A   1      42.191  25.750  28.194  1.00  0.00     0.074 A 
ATOM     40  C   UNL A   1      44.555  25.047  28.056  1.00  0.00     0.049 A 
ATOM     41  N   UNL A   1      42.323  26.991  28.590  1.00  0.00    -0.248 NA
ATOM     42  C   UNL A   1      40.795  25.341  27.966  1.00  0.00     0.031 C 
ATOM     43  C   UNL A   1      45.686  24.166  27.760  1.00  0.00     0.029 A 
ATOM     44  N   UNL A   1      45.145  26.209  28.485  1.00  0.00    -0.354 N 
ATOM     45  C   UNL A   1      41.036  27.513  28.642  1.00  0.00     0.074 A 
ATOM     46  C   UNL A   1      40.142  26.473  28.178  1.00  0.00     0.031 C 
ATOM     47  C   UNL A   1      46.831  24.804  28.050  1.00  0.00     0.029 A 
ATOM     48  C   UNL A   1      46.517  26.149  28.522  1.00  0.00     0.049 A 
ATOM     49  H   UNL A   1      44.634  27.011  28.741  1.00  0.00     0.167 HD
ATOM     50  C   UNL A   1      40.628  28.734  29.062  1.00  0.00     0.037 A 
ATOM     51  C   UNL A   1      47.422  27.071  28.899  1.00  0.00     0.037 A 
ATOM     52  C   UNL A   1      41.515  29.758  29.552  1.00  0.00     0.049 A 
ATOM     53  C   UNL A   1      46.945  28.410  29.388  1.00  0.00     0.074 A 
ATOM     54  C   UNL A   1      41.196  31.006  30.059  1.00  0.00     0.029 A 
ATOM     55  N   UNL A   1      42.897  29.648  29.599  1.00  0.00    -0.354 N 
ATOM     56  N   UNL A   1      45.720  28.863  29.495  1.00  0.00    -0.248 NA
ATOM     57  C   UNL A   1      47.979  29.361  29.818  1.00  0.00     0.031 C 
ATOM     58  C   UNL A   1      42.389  31.667  30.378  1.00  0.00     0.029 A 
ATOM     59  C   UNL A   1      43.446  30.812  30.112  1.00  0.00     0.049 A 
ATOM     60  H   UNL A   1      43.410  28.860  29.311  1.00  0.00     0.167 HD
ATOM     61  C   UNL A   1      45.832  30.141  30.028  1.00  0.00     0.074 A 
ATOM     62  C   UNL A   1      47.246  30.382  30.240  1.00  0.00     0.031 C 
ATOM     63  C   UNL A   1      44.855  31.036  30.313  1.00  0.00     0.037 A 
BRANCH  50  64
ATOM     64  C   UNL A   1      39.155  29.024  29.017  1.00  0.00     0.057 A 
ATOM     65  C   UNL A   1      38.513  29.404  27.829  1.00  0.00     0.134 A 
ATOM     66  C   UNL A   1      38.364  28.904  30.166  1.00  0.00     0.134 A 
ATOM     67  F   UNL A   1      39.215  29.550  26.695  1.00  0.00    -0.206 F 
ATOM     68  C   UNL A   1      37.147  29.687  27.794  1.00  0.00     0.040 A 
ATOM     69  C   UNL A   1      36.991  29.156  30.136  1.00  0.00     0.040 A 
ATOM     70  F   UNL A   1      38.910  28.538  31.335  1.00  0.00    -0.206 F 
ATOM     71  C   UNL A   1      36.380  29.557  28.950  1.00  0.00     0.006 A 
ENDBRANCH  50  64
BRANCH  51  72
ATOM     72  C   UNL A   1      48.870  26.745  28.875  1.00  0.00     0.057 A 
ATOM     73  C   UNL A   1      49.661  27.069  27.766  1.00  0.00     0.134 A 
ATOM     74  C   UNL A   1      49.496  26.103  29.949  1.00  0.00     0.134 A 
ATOM     75  F   UNL A   1      49.114  27.669  26.700  1.00  0.00    -0.206 F 
ATOM     76  C   UNL A   1      51.019  26.750  27.719  1.00  0.00     0.040 A 
ATOM     77  C   UNL A   1      50.858  25.799  29.925  1.00  0.00     0.040 A 
ATOM     78  F   UNL A   1      48.794  25.775  31.045  1.00  0.00    -0.206 F 
ATOM     79  C   UNL A   1      51.622  26.116  28.803  1.00  0.00     0.006 A 
ENDBRANCH  51  72
BRANCH  63  80
ATOM     80  C   UNL A   1      45.287  32.344  30.909  1.00  0.00     0.057 A 
ATOM     81  C   UNL A   1      45.582  33.458  30.113  1.00  0.00     0.134 A 
ATOM     82  C   UNL A   1      45.399  32.492  32.298  1.00  0.00     0.134 A 
ATOM     83  F   UNL A   1      45.508  33.377  28.776  1.00  0.00    -0.206 F 
ATOM     84  C   UNL A   1      46.008  34.664  30.674  1.00  0.00     0.040 A 
ATOM     85  C   UNL A   1      45.797  33.700  32.871  1.00  0.00     0.040 A 
ATOM     86  F   UNL A   1      45.122  31.468  33.118  1.00  0.00    -0.206 F 
ATOM     87  C   UNL A   1      46.112  34.787  32.059  1.00  0.00     0.006 A 
ENDBRANCH  63  80
ENDBRANCH  37  38
ENDBRANCH  29  32
ENDBRANCH  27  28
ENDBRANCH  26  27
ENDBRANCH   1  26
TORSDOF 14
ENDMDL
MODEL 3
REMARK VINA RESULT:     -11.7      1.130      1.865
REMARK SMILES O=C(CNC(=O)c1ccco1)Nc1cccc(C(=O)NCCCNC(=O)c2ccc(-c3c4nc(c(-c5c(F)cccc5F)c5ccc([nH]5)c(-c5c(F)cccc5F)c5nc(c(-c6c(F)cccc6F)c6ccc3[nH]6)C=C5)C=C4)cc2)c1
REMARK SMILES IDX 21 1 20 2 18 3 19 4 17 6 13 7 14 8 81 9 15 10 16 11 12 12
REMARK SMILES IDX 1 13 2 14 3 16 4 17 5 18 6 20 7 21 8 22 11 23 9 24 10 25
REMARK SMILES IDX 22 26 23 27 24 28 25 29 26 31 27 32 28 33 80 34 29 35 79 36
REMARK SMILES IDX 30 37 31 38 32 39 73 40 33 41 78 42 72 43 74 44 34 45 77 46
REMARK SMILES IDX 71 47 70 48 35 50 61 51 44 52 60 53 45 54 48 55 59 56 75 57
REMARK SMILES IDX 46 58 47 59 58 61 76 62 49 63 36 64 37 65 42 66 38 67 39 68
REMARK SMILES IDX 41 69 43 70 40 71 62 72 63 73 68 74 64 75 65 76 67 77 69 78
REMARK SMILES IDX 66 79 50 80 51 81 56 82 52 83 53 84 55 85 57 86 54 87
REMARK H PARENT 20 5 12 15 4 19 24 30 74 49 48 60
REMARK Flexibility Score: inf
ROOT
ATOM      1  C   UNL A   1      37.475  20.852  24.647  1.00  0.00     0.118 C 
ENDROOT
BRANCH   1   2
ATOM      2  N   UNL A   1      38.020  22.077  25.225  1.00  0.00    -0.352 N 
ATOM      3  C   UNL A   1      37.414  23.223  25.695  1.00  0.00     0.251 C 
ATOM      4  O   UNL A   1      38.123  24.142  26.101  1.00  0.00    -0.269 OA
ATOM      5  H   UNL A   1      39.003  22.086  25.293  1.00  0.00     0.163 HD
BRANCH   3   6
ATOM      6  C   UNL A   1      35.938  23.407  25.658  1.00  0.00     0.041 A 
ATOM      7  C   UNL A   1      34.007  24.616  24.838  1.00  0.00     0.042 A 
ATOM      8  C   UNL A   1      33.233  24.052  25.857  1.00  0.00     0.026 A 
ATOM      9  C   UNL A   1      35.316  24.171  24.672  1.00  0.00     0.040 A 
ATOM     10  C   UNL A   1      33.799  23.132  26.746  1.00  0.00     0.003 A 
ATOM     11  C   UNL A   1      35.162  22.840  26.672  1.00  0.00     0.014 A 
BRANCH   7  12
ATOM     12  N   UNL A   1      33.479  25.715  24.120  1.00  0.00    -0.325 N 
ATOM     13  O   UNL A   1      33.713  24.979  21.913  1.00  0.00    -0.273 OA
ATOM     14  C   UNL A   1      33.466  25.858  22.737  1.00  0.00     0.243 C 
ATOM     15  H   UNL A   1      33.086  26.447  24.648  1.00  0.00     0.169 HD
BRANCH  14  16
ATOM     16  C   UNL A   1      33.385  27.313  22.268  1.00  0.00     0.216 C 
BRANCH  16  17
ATOM     17  N   UNL A   1      32.045  27.758  21.937  1.00  0.00    -0.340 N 
ATOM     18  C   UNL A   1      31.045  28.204  22.771  1.00  0.00     0.287 C 
ATOM     19  H   UNL A   1      31.818  27.738  20.980  1.00  0.00     0.164 HD
ATOM     20  O   UNL A   1      29.944  28.386  22.255  1.00  0.00    -0.266 OA
BRANCH  18  21
ATOM     21  C   UNL A   1      31.312  28.405  24.181  1.00  0.00     0.191 A 
ATOM     22  C   UNL A   1      31.713  29.496  24.935  1.00  0.00     0.056 A 
ATOM     23  O   UNL A   1      31.121  27.336  25.018  1.00  0.00    -0.459 OA
ATOM     24  C   UNL A   1      31.809  29.058  26.279  1.00  0.00     0.043 A 
ATOM     25  C   UNL A   1      31.434  27.737  26.275  1.00  0.00     0.196 A 
ENDBRANCH  18  21
ENDBRANCH  16  17
ENDBRANCH  14  16
ENDBRANCH   7  12
ENDBRANCH   3   6
ENDBRANCH   1   2
BRANCH   1  26
ATOM     26  C   UNL A   1      38.368  19.633  24.804  1.00  0.00     0.042 C 
BRANCH  26  27
ATOM     27  C   UNL A   1      39.180  19.586  26.086  1.00  0.00     0.118 C 
BRANCH  27  28
ATOM     28  N   UNL A   1      40.510  19.020  25.905  1.00  0.00    -0.352 N 
ATOM     29  C   UNL A   1      41.764  19.569  26.017  1.00  0.00     0.251 C 
ATOM     30  H   UNL A   1      40.510  18.067  25.656  1.00  0.00     0.163 HD
ATOM     31  O   UNL A   1      42.736  18.907  25.656  1.00  0.00    -0.269 OA
BRANCH  29  32
ATOM     32  C   UNL A   1      41.978  20.941  26.535  1.00  0.00     0.039 A 
ATOM     33  C   UNL A   1      41.865  21.158  27.914  1.00  0.00     0.014 A 
ATOM     34  C   UNL A   1      42.232  22.026  25.694  1.00  0.00     0.014 A 
ATOM     35  C   UNL A   1      42.073  22.434  28.444  1.00  0.00     0.010 A 
ATOM     36  C   UNL A   1      42.544  23.274  26.230  1.00  0.00     0.010 A 
ATOM     37  C   UNL A   1      42.456  23.497  27.611  1.00  0.00    -0.014 A 
BRANCH  37  38
ATOM     38  C   UNL A   1      42.750  24.844  28.166  1.00  0.00     0.031 A 
ATOM     39  C   UNL A   1      44.154  25.226  28.550  1.00  0.00     0.074 A 
ATOM     40  C   UNL A   1      41.739  25.711  28.375  1.00  0.00     0.049 A 
ATOM     41  N   UNL A   1      44.595  26.341  29.078  1.00  0.00    -0.248 NA
ATOM     42  C   UNL A   1      45.199  24.209  28.343  1.00  0.00     0.031 C 
ATOM     43  C   UNL A   1      40.325  25.444  28.107  1.00  0.00     0.029 A 
ATOM     44  N   UNL A   1      41.747  26.994  28.863  1.00  0.00    -0.354 N 
ATOM     45  C   UNL A   1      45.957  26.153  29.281  1.00  0.00     0.074 A 
ATOM     46  C   UNL A   1      46.260  24.797  28.877  1.00  0.00     0.031 C 
ATOM     47  C   UNL A   1      39.606  26.541  28.398  1.00  0.00     0.029 A 
ATOM     48  C   UNL A   1      40.503  27.575  28.903  1.00  0.00     0.049 A 
ATOM     49  H   UNL A   1      42.566  27.454  29.158  1.00  0.00     0.167 HD
ATOM     50  C   UNL A   1      46.880  27.034  29.736  1.00  0.00     0.037 A 
ATOM     51  C   UNL A   1      40.126  28.806  29.295  1.00  0.00     0.037 A 
ATOM     52  C   UNL A   1      46.584  28.393  30.110  1.00  0.00     0.049 A 
ATOM     53  C   UNL A   1      41.171  29.777  29.771  1.00  0.00     0.074 A 
ATOM     54  C   UNL A   1      47.457  29.385  30.524  1.00  0.00     0.029 A 
ATOM     55  N   UNL A   1      45.315  28.953  30.110  1.00  0.00    -0.354 N 
ATOM     56  N   UNL A   1      42.464  29.605  29.892  1.00  0.00    -0.248 NA
ATOM     57  C   UNL A   1      40.702  31.115  30.153  1.00  0.00     0.031 C 
ATOM     58  C   UNL A   1      46.711  30.533  30.811  1.00  0.00     0.029 A 
ATOM     59  C   UNL A   1      45.379  30.271  30.533  1.00  0.00     0.049 A 
ATOM     60  H   UNL A   1      44.491  28.483  29.849  1.00  0.00     0.167 HD
ATOM     61  C   UNL A   1      42.968  30.820  30.340  1.00  0.00     0.074 A 
ATOM     62  C   UNL A   1      41.841  31.724  30.450  1.00  0.00     0.031 C 
ATOM     63  C   UNL A   1      44.248  31.156  30.638  1.00  0.00     0.037 A 
BRANCH  50  64
ATOM     64  C   UNL A   1      48.299  26.554  29.846  1.00  0.00     0.057 A 
ATOM     65  C   UNL A   1      48.784  25.945  31.012  1.00  0.00     0.134 A 
ATOM     66  C   UNL A   1      49.186  26.682  28.770  1.00  0.00     0.134 A 
ATOM     67  F   UNL A   1      47.990  25.802  32.085  1.00  0.00    -0.206 F 
ATOM     68  C   UNL A   1      50.107  25.513  31.115  1.00  0.00     0.040 A 
ATOM     69  C   UNL A   1      50.503  26.228  28.852  1.00  0.00     0.040 A 
ATOM     70  F   UNL A   1      48.787  27.249  27.621  1.00  0.00    -0.206 F 
ATOM     71  C   UNL A   1      50.970  25.648  30.030  1.00  0.00     0.006 A 
ENDBRANCH  50  64
BRANCH  51  72
ATOM     72  C   UNL A   1      38.699  29.208  29.212  1.00  0.00     0.057 A 
ATOM     73  C   UNL A   1      37.863  29.127  30.332  1.00  0.00     0.134 A 
ATOM     74  C   UNL A   1      38.138  29.679  28.020  1.00  0.00     0.134 A 
ATOM     75  F   UNL A   1      38.340  28.667  31.497  1.00  0.00    -0.206 F 
ATOM     76  C   UNL A   1      36.515  29.481  30.265  1.00  0.00     0.040 A 
ATOM     77  C   UNL A   1      36.797  30.059  27.945  1.00  0.00     0.040 A 
ATOM     78  F   UNL A   1      38.890  29.790  26.914  1.00  0.00    -0.206 F 
ATOM     79  C   UNL A   1      35.980  29.953  29.068  1.00  0.00     0.006 A 
ENDBRANCH  51  72
BRANCH  63  80
ATOM     80  C   UNL A   1      44.491  32.568  31.084  1.00  0.00     0.057 A 
ATOM     81  C   UNL A   1      44.760  33.595  30.170  1.00  0.00     0.134 A 
ATOM     82  C   UNL A   1      44.446  32.905  32.442  1.00  0.00     0.134 A 
ATOM     83  F   UNL A   1      44.830  33.335  28.856  1.00  0.00    -0.206 F 
ATOM     84  C   UNL A   1      45.009  34.902  30.595  1.00  0.00     0.040 A 
ATOM     85  C   UNL A   1      44.667  34.213  32.876  1.00  0.00     0.040 A 
ATOM     86  F   UNL A   1      44.184  31.971  33.369  1.00  0.00    -0.206 F 
ATOM     87  C   UNL A   1      44.959  35.214  31.952  1.00  0.00     0.006 A 
ENDBRANCH  63  80
ENDBRANCH  37  38
ENDBRANCH  29  32
ENDBRANCH  27  28
ENDBRANCH  26  27
ENDBRANCH   1  26
TORSDOF 14
ENDMDL
