MODEL 1
REMARK VINA RESULT:     -11.5      0.000      0.000
REMARK SMILES C[C@@H]1Oc2ccccc2N(CC(=O)NCCCNC(=O)c2ccc(-c3c4nc(c(-c5c(F)cccc5F)c5ccc([nH]5)c(-c5c(F)cccc5F)c5nc(c(-c6c(F)cccc6F)c6ccc3[nH]6)C=C5)C=C4)cc2)C1=O
REMARK SMILES IDX 16 1 15 2 14 3 12 4 13 5 11 7 10 8 1 9 2 10 3 11 75 12 4 13
REMARK SMILES IDX 76 14 5 15 9 16 6 17 8 18 7 19 17 20 18 21 19 22 20 24 21 25
REMARK SMILES IDX 22 26 74 27 23 28 73 29 24 30 25 31 26 32 67 33 27 34 72 35
REMARK SMILES IDX 66 36 68 37 28 38 71 39 65 40 64 41 29 43 55 44 38 45 54 46
REMARK SMILES IDX 39 47 42 48 53 49 69 50 40 51 41 52 52 54 70 55 43 56 30 57
REMARK SMILES IDX 31 58 36 59 32 60 33 61 35 62 37 63 34 64 56 65 57 66 62 67
REMARK SMILES IDX 58 68 59 69 61 70 63 71 60 72 44 73 45 74 50 75 46 76 47 77
REMARK SMILES IDX 49 78 51 79 48 80
REMARK H PARENT 14 6 18 23 68 42 42 53
REMARK Flexibility Score: inf
ROOT
ATOM      1  C   UNL A   1      37.685  19.324  25.001  1.00  0.00     0.042 C 
ENDROOT
BRANCH   1   2
ATOM      2  C   UNL A   1      36.484  20.262  24.925  1.00  0.00     0.117 C 
BRANCH   2   3
ATOM      3  N   UNL A   1      36.786  21.551  25.522  1.00  0.00    -0.354 N 
ATOM      4  C   UNL A   1      36.097  22.725  25.492  1.00  0.00     0.240 C 
ATOM      5  O   UNL A   1      36.572  23.670  26.131  1.00  0.00    -0.273 OA
ATOM      6  H   UNL A   1      37.629  21.582  26.031  1.00  0.00     0.163 HD
BRANCH   4   7
ATOM      7  C   UNL A   1      34.751  22.867  24.766  1.00  0.00     0.225 C 
BRANCH   7   8
ATOM      8  N   UNL A   1      33.626  23.352  25.569  1.00  0.00    -0.296 N 
ATOM      9  C   UNL A   1      30.469  22.532  26.091  1.00  0.00     0.064 C 
ATOM     10  C   UNL A   1      31.635  22.956  26.979  1.00  0.00     0.259 C 
ATOM     11  O   UNL A   1      31.496  24.336  27.250  1.00  0.00    -0.479 OA
ATOM     12  C   UNL A   1      32.938  22.443  26.361  1.00  0.00     0.268 C 
ATOM     13  C   UNL A   1      32.206  25.154  26.417  1.00  0.00     0.144 A 
ATOM     14  O   UNL A   1      33.275  21.265  26.490  1.00  0.00    -0.270 OA
ATOM     15  C   UNL A   1      31.810  26.496  26.446  1.00  0.00     0.049 A 
ATOM     16  C   UNL A   1      33.276  24.733  25.615  1.00  0.00     0.087 A 
ATOM     17  C   UNL A   1      32.490  27.445  25.693  1.00  0.00     0.004 A 
ATOM     18  C   UNL A   1      33.985  25.714  24.906  1.00  0.00     0.030 A 
ATOM     19  C   UNL A   1      33.590  27.056  24.938  1.00  0.00     0.002 A 
ENDBRANCH   7   8
ENDBRANCH   4   7
ENDBRANCH   2   3
ENDBRANCH   1   2
BRANCH   1  20
ATOM     20  C   UNL A   1      38.878  19.904  25.756  1.00  0.00     0.118 C 
BRANCH  20  21
ATOM     21  N   UNL A   1      40.042  19.026  25.755  1.00  0.00    -0.352 N 
ATOM     22  C   UNL A   1      41.382  19.259  25.957  1.00  0.00     0.251 C 
ATOM     23  H   UNL A   1      39.828  18.083  25.575  1.00  0.00     0.163 HD
ATOM     24  O   UNL A   1      42.172  18.334  25.752  1.00  0.00    -0.269 OA
BRANCH  22  25
ATOM     25  C   UNL A   1      41.918  20.582  26.368  1.00  0.00     0.039 A 
ATOM     26  C   UNL A   1      42.197  20.900  27.695  1.00  0.00     0.014 A 
ATOM     27  C   UNL A   1      42.213  21.527  25.375  1.00  0.00     0.014 A 
ATOM     28  C   UNL A   1      42.556  22.200  28.047  1.00  0.00     0.010 A 
ATOM     29  C   UNL A   1      42.695  22.797  25.721  1.00  0.00     0.010 A 
ATOM     30  C   UNL A   1      42.815  23.169  27.067  1.00  0.00    -0.014 A 
BRANCH  30  31
ATOM     31  C   UNL A   1      43.207  24.550  27.474  1.00  0.00     0.031 A 
ATOM     32  C   UNL A   1      44.642  25.006  27.381  1.00  0.00     0.074 A 
ATOM     33  C   UNL A   1      42.263  25.422  27.882  1.00  0.00     0.049 A 
ATOM     34  N   UNL A   1      45.161  26.177  27.665  1.00  0.00    -0.248 NA
ATOM     35  C   UNL A   1      45.625  24.017  26.917  1.00  0.00     0.031 C 
ATOM     36  C   UNL A   1      40.836  25.124  28.011  1.00  0.00     0.029 A 
ATOM     37  N   UNL A   1      42.356  26.745  28.235  1.00  0.00    -0.354 N 
ATOM     38  C   UNL A   1      46.527  26.057  27.435  1.00  0.00     0.074 A 
ATOM     39  C   UNL A   1      46.761  24.687  27.031  1.00  0.00     0.031 C 
ATOM     40  C   UNL A   1      40.179  26.245  28.343  1.00  0.00     0.029 A 
ATOM     41  C   UNL A   1      41.144  27.323  28.528  1.00  0.00     0.049 A 
ATOM     42  H   UNL A   1      43.210  27.234  28.276  1.00  0.00     0.167 HD
ATOM     43  C   UNL A   1      47.498  26.999  27.534  1.00  0.00     0.037 A 
ATOM     44  C   UNL A   1      40.839  28.575  28.915  1.00  0.00     0.037 A 
ATOM     45  C   UNL A   1      47.268  28.365  27.933  1.00  0.00     0.049 A 
ATOM     46  C   UNL A   1      41.942  29.578  29.098  1.00  0.00     0.074 A 
ATOM     47  C   UNL A   1      48.182  29.401  28.039  1.00  0.00     0.029 A 
ATOM     48  N   UNL A   1      46.037  28.885  28.304  1.00  0.00    -0.354 N 
ATOM     49  N   UNL A   1      43.224  29.455  28.854  1.00  0.00    -0.248 NA
ATOM     50  C   UNL A   1      41.552  30.893  29.625  1.00  0.00     0.031 C 
ATOM     51  C   UNL A   1      47.514  30.528  28.531  1.00  0.00     0.029 A 
ATOM     52  C   UNL A   1      46.172  30.215  28.674  1.00  0.00     0.049 A 
ATOM     53  H   UNL A   1      45.189  28.383  28.304  1.00  0.00     0.167 HD
ATOM     54  C   UNL A   1      43.791  30.681  29.177  1.00  0.00     0.074 A 
ATOM     55  C   UNL A   1      42.709  31.539  29.615  1.00  0.00     0.031 C 
ATOM     56  C   UNL A   1      45.092  31.060  29.119  1.00  0.00     0.037 A 
BRANCH  43  57
ATOM     57  C   UNL A   1      48.907  26.560  27.242  1.00  0.00     0.057 A 
ATOM     58  C   UNL A   1      49.731  26.078  28.267  1.00  0.00     0.134 A 
ATOM     59  C   UNL A   1      49.446  26.595  25.948  1.00  0.00     0.134 A 
ATOM     60  F   UNL A   1      49.288  26.028  29.532  1.00  0.00    -0.206 F 
ATOM     61  C   UNL A   1      51.030  25.629  28.014  1.00  0.00     0.040 A 
ATOM     62  C   UNL A   1      50.731  26.118  25.677  1.00  0.00     0.040 A 
ATOM     63  F   UNL A   1      48.710  27.035  24.915  1.00  0.00    -0.206 F 
ATOM     64  C   UNL A   1      51.527  25.635  26.713  1.00  0.00     0.006 A 
ENDBRANCH  43  57
BRANCH  44  65
ATOM     65  C   UNL A   1      39.425  28.957  29.158  1.00  0.00     0.057 A 
ATOM     66  C   UNL A   1      38.833  28.823  30.420  1.00  0.00     0.134 A 
ATOM     67  C   UNL A   1      38.633  29.475  28.126  1.00  0.00     0.134 A 
ATOM     68  F   UNL A   1      39.538  28.330  31.449  1.00  0.00    -0.206 F 
ATOM     69  C   UNL A   1      37.502  29.176  30.645  1.00  0.00     0.040 A 
ATOM     70  C   UNL A   1      37.309  29.860  28.344  1.00  0.00     0.040 A 
ATOM     71  F   UNL A   1      39.149  29.648  26.901  1.00  0.00    -0.206 F 
ATOM     72  C   UNL A   1      36.739  29.703  29.606  1.00  0.00     0.006 A 
ENDBRANCH  44  65
BRANCH  56  73
ATOM     73  C   UNL A   1      45.406  32.475  29.511  1.00  0.00     0.057 A 
ATOM     74  C   UNL A   1      45.335  33.510  28.569  1.00  0.00     0.134 A 
ATOM     75  C   UNL A   1      45.778  32.819  30.819  1.00  0.00     0.134 A 
ATOM     76  F   UNL A   1      44.991  33.252  27.299  1.00  0.00    -0.206 F 
ATOM     77  C   UNL A   1      45.619  34.832  28.913  1.00  0.00     0.040 A 
ATOM     78  C   UNL A   1      46.034  34.143  31.181  1.00  0.00     0.040 A 
ATOM     79  F   UNL A   1      45.848  31.880  31.775  1.00  0.00    -0.206 F 
ATOM     80  C   UNL A   1      45.960  35.153  30.226  1.00  0.00     0.006 A 
ENDBRANCH  56  73
ENDBRANCH  30  31
ENDBRANCH  22  25
ENDBRANCH  20  21
ENDBRANCH   1  20
TORSDOF 11
ENDMDL
MODEL 2
REMARK VINA RESULT:     -11.4      5.098     10.098
REMARK SMILES C[C@@H]1Oc2ccccc2N(CC(=O)NCCCNC(=O)c2ccc(-c3c4nc(c(-c5c(F)cccc5F)c5ccc([nH]5)c(-c5c(F)cccc5F)c5nc(c(-c6c(F)cccc6F)c6ccc3[nH]6)C=C5)C=C4)cc2)C1=O
REMARK SMILES IDX 16 1 15 2 14 3 12 4 13 5 11 7 10 8 1 9 2 10 3 11 75 12 4 13
REMARK SMILES IDX 76 14 5 15 9 16 6 17 8 18 7 19 17 20 18 21 19 22 20 24 21 25
REMARK SMILES IDX 22 26 74 27 23 28 73 29 24 30 25 31 26 32 67 33 27 34 72 35
REMARK SMILES IDX 66 36 68 37 28 38 71 39 65 40 64 41 29 43 55 44 38 45 54 46
REMARK SMILES IDX 39 47 42 48 53 49 69 50 40 51 41 52 52 54 70 55 43 56 30 57
REMARK SMILES IDX 31 58 36 59 32 60 33 61 35 62 37 63 34 64 56 65 57 66 62 67
REMARK SMILES IDX 58 68 59 69 61 70 63 71 60 72 44 73 45 74 50 75 46 76 47 77
REMARK SMILES IDX 49 78 51 79 48 80
REMARK H PARENT 14 6 18 23 68 42 42 53
REMARK Flexibility Score: inf
ROOT
ATOM      1  C   UNL A   1      31.251  32.017  26.501  1.00  0.00     0.042 C 
ENDROOT
BRANCH   1   2
ATOM      2  C   UNL A   1      31.400  30.655  25.830  1.00  0.00     0.117 C 
BRANCH   2   3
ATOM      3  N   UNL A   1      32.700  30.071  26.108  1.00  0.00    -0.354 N 
ATOM      4  C   UNL A   1      33.151  28.796  25.952  1.00  0.00     0.240 C 
ATOM      5  O   UNL A   1      34.335  28.581  26.235  1.00  0.00    -0.273 OA
ATOM      6  H   UNL A   1      33.365  30.701  26.471  1.00  0.00     0.163 HD
BRANCH   4   7
ATOM      7  C   UNL A   1      32.266  27.678  25.381  1.00  0.00     0.225 C 
BRANCH   7   8
ATOM      8  N   UNL A   1      32.820  26.922  24.255  1.00  0.00    -0.296 N 
ATOM      9  C   UNL A   1      31.842  25.955  21.251  1.00  0.00     0.064 C 
ATOM     10  C   UNL A   1      33.123  26.547  21.830  1.00  0.00     0.259 C 
ATOM     11  O   UNL A   1      34.028  25.487  22.061  1.00  0.00    -0.479 OA
ATOM     12  C   UNL A   1      32.755  27.481  22.986  1.00  0.00     0.268 C 
ATOM     13  C   UNL A   1      34.019  24.997  23.337  1.00  0.00     0.144 A 
ATOM     14  O   UNL A   1      32.334  28.618  22.767  1.00  0.00    -0.270 OA
ATOM     15  C   UNL A   1      34.635  23.749  23.482  1.00  0.00     0.049 A 
ATOM     16  C   UNL A   1      33.483  25.674  24.442  1.00  0.00     0.087 A 
ATOM     17  C   UNL A   1      34.748  23.165  24.738  1.00  0.00     0.004 A 
ATOM     18  C   UNL A   1      33.658  25.095  25.707  1.00  0.00     0.030 A 
ATOM     19  C   UNL A   1      34.277  23.848  25.853  1.00  0.00     0.002 A 
ENDBRANCH   7   8
ENDBRANCH   4   7
ENDBRANCH   2   3
ENDBRANCH   1   2
BRANCH   1  20
ATOM     20  C   UNL A   1      32.578  32.670  26.878  1.00  0.00     0.118 C 
BRANCH  20  21
ATOM     21  N   UNL A   1      32.418  33.965  27.527  1.00  0.00    -0.352 N 
ATOM     22  C   UNL A   1      33.075  34.567  28.574  1.00  0.00     0.251 C 
ATOM     23  H   UNL A   1      31.701  34.517  27.141  1.00  0.00     0.163 HD
ATOM     24  O   UNL A   1      32.624  35.630  29.012  1.00  0.00    -0.269 OA
BRANCH  22  25
ATOM     25  C   UNL A   1      34.271  33.974  29.225  1.00  0.00     0.039 A 
ATOM     26  C   UNL A   1      35.564  34.421  28.968  1.00  0.00     0.014 A 
ATOM     27  C   UNL A   1      34.087  32.966  30.182  1.00  0.00     0.014 A 
ATOM     28  C   UNL A   1      36.662  33.736  29.488  1.00  0.00     0.010 A 
ATOM     29  C   UNL A   1      35.188  32.360  30.800  1.00  0.00     0.010 A 
ATOM     30  C   UNL A   1      36.494  32.697  30.415  1.00  0.00    -0.014 A 
BRANCH  30  31
ATOM     31  C   UNL A   1      37.688  31.989  30.961  1.00  0.00     0.031 A 
ATOM     32  C   UNL A   1      38.179  32.266  32.361  1.00  0.00     0.074 A 
ATOM     33  C   UNL A   1      38.309  31.050  30.218  1.00  0.00     0.049 A 
ATOM     34  N   UNL A   1      39.182  31.726  33.010  1.00  0.00    -0.248 NA
ATOM     35  C   UNL A   1      37.454  33.288  33.129  1.00  0.00     0.031 C 
ATOM     36  C   UNL A   1      37.938  30.671  28.854  1.00  0.00     0.029 A 
ATOM     37  N   UNL A   1      39.364  30.224  30.515  1.00  0.00    -0.354 N 
ATOM     38  C   UNL A   1      39.221  32.357  34.249  1.00  0.00     0.074 A 
ATOM     39  C   UNL A   1      38.169  33.350  34.242  1.00  0.00     0.031 C 
ATOM     40  C   UNL A   1      38.702  29.642  28.460  1.00  0.00     0.029 A 
ATOM     41  C   UNL A   1      39.669  29.338  29.509  1.00  0.00     0.049 A 
ATOM     42  H   UNL A   1      39.856  30.262  31.367  1.00  0.00     0.167 HD
ATOM     43  C   UNL A   1      40.044  32.125  35.302  1.00  0.00     0.037 A 
ATOM     44  C   UNL A   1      40.625  28.396  29.430  1.00  0.00     0.037 A 
ATOM     45  C   UNL A   1      41.091  31.134  35.314  1.00  0.00     0.049 A 
ATOM     46  C   UNL A   1      41.577  28.214  30.577  1.00  0.00     0.074 A 
ATOM     47  C   UNL A   1      41.960  30.806  36.342  1.00  0.00     0.029 A 
ATOM     48  N   UNL A   1      41.420  30.318  34.242  1.00  0.00    -0.354 N 
ATOM     49  N   UNL A   1      41.586  28.802  31.748  1.00  0.00    -0.248 NA
ATOM     50  C   UNL A   1      42.663  27.244  30.381  1.00  0.00     0.031 C 
ATOM     51  C   UNL A   1      42.852  29.835  35.870  1.00  0.00     0.029 A 
ATOM     52  C   UNL A   1      42.502  29.513  34.569  1.00  0.00     0.049 A 
ATOM     53  H   UNL A   1      40.954  30.310  33.374  1.00  0.00     0.167 HD
ATOM     54  C   UNL A   1      42.662  28.259  32.438  1.00  0.00     0.074 A 
ATOM     55  C   UNL A   1      43.269  27.280  31.560  1.00  0.00     0.031 C 
ATOM     56  C   UNL A   1      43.108  28.548  33.686  1.00  0.00     0.037 A 
BRANCH  43  57
ATOM     57  C   UNL A   1      39.860  32.995  36.516  1.00  0.00     0.057 A 
ATOM     58  C   UNL A   1      40.630  34.153  36.686  1.00  0.00     0.134 A 
ATOM     59  C   UNL A   1      38.913  32.702  37.508  1.00  0.00     0.134 A 
ATOM     60  F   UNL A   1      41.565  34.490  35.784  1.00  0.00    -0.206 F 
ATOM     61  C   UNL A   1      40.452  34.997  37.785  1.00  0.00     0.040 A 
ATOM     62  C   UNL A   1      38.703  33.556  38.594  1.00  0.00     0.040 A 
ATOM     63  F   UNL A   1      38.134  31.614  37.406  1.00  0.00    -0.206 F 
ATOM     64  C   UNL A   1      39.475  34.707  38.735  1.00  0.00     0.006 A 
ENDBRANCH  43  57
BRANCH  44  65
ATOM     65  C   UNL A   1      40.736  27.546  28.217  1.00  0.00     0.057 A 
ATOM     66  C   UNL A   1      40.063  26.322  28.114  1.00  0.00     0.134 A 
ATOM     67  C   UNL A   1      41.515  27.948  27.126  1.00  0.00     0.134 A 
ATOM     68  F   UNL A   1      39.303  25.879  29.126  1.00  0.00    -0.206 F 
ATOM     69  C   UNL A   1      40.173  25.521  26.977  1.00  0.00     0.040 A 
ATOM     70  C   UNL A   1      41.610  27.170  25.971  1.00  0.00     0.040 A 
ATOM     71  F   UNL A   1      42.165  29.119  27.156  1.00  0.00    -0.206 F 
ATOM     72  C   UNL A   1      40.943  25.949  25.898  1.00  0.00     0.006 A 
ENDBRANCH  44  65
BRANCH  56  73
ATOM     73  C   UNL A   1      44.294  27.770  34.181  1.00  0.00     0.057 A 
ATOM     74  C   UNL A   1      45.594  28.259  33.999  1.00  0.00     0.134 A 
ATOM     75  C   UNL A   1      44.154  26.539  34.835  1.00  0.00     0.134 A 
ATOM     76  F   UNL A   1      45.801  29.429  33.377  1.00  0.00    -0.206 F 
ATOM     77  C   UNL A   1      46.710  27.555  34.453  1.00  0.00     0.040 A 
ATOM     78  C   UNL A   1      45.261  25.840  35.321  1.00  0.00     0.040 A 
ATOM     79  F   UNL A   1      42.936  26.021  35.058  1.00  0.00    -0.206 F 
ATOM     80  C   UNL A   1      46.544  26.345  35.126  1.00  0.00     0.006 A 
ENDBRANCH  56  73
ENDBRANCH  30  31
ENDBRANCH  22  25
ENDBRANCH  20  21
ENDBRANCH   1  20
TORSDOF 11
ENDMDL
MODEL 3
REMARK VINA RESULT:     -11.4      5.260     10.538
REMARK SMILES C[C@@H]1Oc2ccccc2N(CC(=O)NCCCNC(=O)c2ccc(-c3c4nc(c(-c5c(F)cccc5F)c5ccc([nH]5)c(-c5c(F)cccc5F)c5nc(c(-c6c(F)cccc6F)c6ccc3[nH]6)C=C5)C=C4)cc2)C1=O
REMARK SMILES IDX 16 1 15 2 14 3 12 4 13 5 11 7 10 8 1 9 2 10 3 11 75 12 4 13
REMARK SMILES IDX 76 14 5 15 9 16 6 17 8 18 7 19 17 20 18 21 19 22 20 24 21 25
REMARK SMILES IDX 22 26 74 27 23 28 73 29 24 30 25 31 26 32 67 33 27 34 72 35
REMARK SMILES IDX 66 36 68 37 28 38 71 39 65 40 64 41 29 43 55 44 38 45 54 46
REMARK SMILES IDX 39 47 42 48 53 49 69 50 40 51 41 52 52 54 70 55 43 56 30 57
REMARK SMILES IDX 31 58 36 59 32 60 33 61 35 62 37 63 34 64 56 65 57 66 62 67
REMARK SMILES IDX 58 68 59 69 61 70 63 71 60 72 44 73 45 74 50 75 46 76 47 77
REMARK SMILES IDX 49 78 51 79 48 80
REMARK H PARENT 14 6 18 23 68 42 42 53
REMARK Flexibility Score: inf
ROOT
ATOM      1  C   UNL A   1      40.011  22.002  27.143  1.00  0.00     0.042 C 
ENDROOT
BRANCH   1   2
ATOM      2  C   UNL A   1      41.262  21.915  28.012  1.00  0.00     0.117 C 
BRANCH   2   3
ATOM      3  N   UNL A   1      41.706  20.540  28.157  1.00  0.00    -0.354 N 
ATOM      4  C   UNL A   1      42.175  19.658  27.232  1.00  0.00     0.240 C 
ATOM      5  O   UNL A   1      42.526  18.546  27.644  1.00  0.00    -0.273 OA
ATOM      6  H   UNL A   1      41.660  20.187  29.076  1.00  0.00     0.163 HD
BRANCH   4   7
ATOM      7  C   UNL A   1      42.337  20.032  25.751  1.00  0.00     0.225 C 
BRANCH   7   8
ATOM      8  N   UNL A   1      43.711  20.205  25.271  1.00  0.00    -0.296 N 
ATOM      9  C   UNL A   1      46.656  18.786  25.744  1.00  0.00     0.064 C 
ATOM     10  C   UNL A   1      45.883  19.288  24.530  1.00  0.00     0.259 C 
ATOM     11  O   UNL A   1      46.368  20.576  24.206  1.00  0.00    -0.479 OA
ATOM     12  C   UNL A   1      44.386  19.095  24.783  1.00  0.00     0.268 C 
ATOM     13  C   UNL A   1      45.643  21.607  24.735  1.00  0.00     0.144 A 
ATOM     14  O   UNL A   1      43.863  17.987  24.651  1.00  0.00    -0.270 OA
ATOM     15  C   UNL A   1      46.297  22.843  24.720  1.00  0.00     0.049 A 
ATOM     16  C   UNL A   1      44.334  21.486  25.225  1.00  0.00     0.087 A 
ATOM     17  C   UNL A   1      45.648  23.986  25.172  1.00  0.00     0.004 A 
ATOM     18  C   UNL A   1      43.677  22.659  25.623  1.00  0.00     0.030 A 
ATOM     19  C   UNL A   1      44.331  23.897  25.605  1.00  0.00     0.002 A 
ENDBRANCH   7   8
ENDBRANCH   4   7
ENDBRANCH   2   3
ENDBRANCH   1   2
BRANCH   1  20
ATOM     20  C   UNL A   1      39.534  23.428  26.884  1.00  0.00     0.118 C 
BRANCH  20  21
ATOM     21  N   UNL A   1      40.393  24.165  25.964  1.00  0.00    -0.352 N 
ATOM     22  C   UNL A   1      40.970  25.411  26.029  1.00  0.00     0.251 C 
ATOM     23  H   UNL A   1      40.600  23.675  25.137  1.00  0.00     0.163 HD
ATOM     24  O   UNL A   1      41.542  25.841  25.023  1.00  0.00    -0.269 OA
BRANCH  22  25
ATOM     25  C   UNL A   1      40.898  26.273  27.236  1.00  0.00     0.039 A 
ATOM     26  C   UNL A   1      40.031  26.012  28.293  1.00  0.00     0.014 A 
ATOM     27  C   UNL A   1      41.779  27.358  27.342  1.00  0.00     0.014 A 
ATOM     28  C   UNL A   1      39.892  26.930  29.334  1.00  0.00     0.010 A 
ATOM     29  C   UNL A   1      41.726  28.213  28.451  1.00  0.00     0.010 A 
ATOM     30  C   UNL A   1      40.739  28.043  29.433  1.00  0.00    -0.014 A 
BRANCH  30  31
ATOM     31  C   UNL A   1      40.574  29.004  30.562  1.00  0.00     0.031 A 
ATOM     32  C   UNL A   1      39.484  30.047  30.538  1.00  0.00     0.074 A 
ATOM     33  C   UNL A   1      41.372  28.910  31.645  1.00  0.00     0.049 A 
ATOM     34  N   UNL A   1      39.176  30.946  31.442  1.00  0.00    -0.248 NA
ATOM     35  C   UNL A   1      38.636  30.093  29.339  1.00  0.00     0.031 C 
ATOM     36  C   UNL A   1      42.460  27.944  31.812  1.00  0.00     0.029 A 
ATOM     37  N   UNL A   1      41.375  29.616  32.823  1.00  0.00    -0.354 N 
ATOM     38  C   UNL A   1      38.116  31.674  30.912  1.00  0.00     0.074 A 
ATOM     39  C   UNL A   1      37.866  31.141  29.590  1.00  0.00     0.031 C 
ATOM     40  C   UNL A   1      42.976  28.069  33.043  1.00  0.00     0.029 A 
ATOM     41  C   UNL A   1      42.311  29.173  33.727  1.00  0.00     0.049 A 
ATOM     42  H   UNL A   1      40.765  30.368  33.002  1.00  0.00     0.167 HD
ATOM     43  C   UNL A   1      37.405  32.683  31.474  1.00  0.00     0.037 A 
ATOM     44  C   UNL A   1      42.614  29.612  34.962  1.00  0.00     0.037 A 
ATOM     45  C   UNL A   1      37.649  33.215  32.791  1.00  0.00     0.049 A 
ATOM     46  C   UNL A   1      41.867  30.784  35.530  1.00  0.00     0.074 A 
ATOM     47  C   UNL A   1      36.967  34.219  33.459  1.00  0.00     0.029 A 
ATOM     48  N   UNL A   1      38.664  32.795  33.639  1.00  0.00    -0.354 N 
ATOM     49  N   UNL A   1      40.854  31.446  35.026  1.00  0.00    -0.248 NA
ATOM     50  C   UNL A   1      42.320  31.279  36.837  1.00  0.00     0.031 C 
ATOM     51  C   UNL A   1      37.607  34.446  34.684  1.00  0.00     0.029 A 
ATOM     52  C   UNL A   1      38.650  33.543  34.807  1.00  0.00     0.049 A 
ATOM     53  H   UNL A   1      39.301  32.071  33.441  1.00  0.00     0.167 HD
ATOM     54  C   UNL A   1      40.533  32.421  35.962  1.00  0.00     0.074 A 
ATOM     55  C   UNL A   1      41.448  32.249  37.072  1.00  0.00     0.031 C 
ATOM     56  C   UNL A   1      39.570  33.374  35.904  1.00  0.00     0.037 A 
BRANCH  43  57
ATOM     57  C   UNL A   1      36.318  33.301  30.637  1.00  0.00     0.057 A 
ATOM     58  C   UNL A   1      36.636  34.137  29.559  1.00  0.00     0.134 A 
ATOM     59  C   UNL A   1      34.958  33.058  30.881  1.00  0.00     0.134 A 
ATOM     60  F   UNL A   1      37.915  34.426  29.273  1.00  0.00    -0.206 F 
ATOM     61  C   UNL A   1      35.645  34.691  28.744  1.00  0.00     0.040 A 
ATOM     62  C   UNL A   1      33.961  33.579  30.054  1.00  0.00     0.040 A 
ATOM     63  F   UNL A   1      34.581  32.258  31.891  1.00  0.00    -0.206 F 
ATOM     64  C   UNL A   1      34.304  34.400  28.982  1.00  0.00     0.006 A 
ENDBRANCH  43  57
BRANCH  44  65
ATOM     65  C   UNL A   1      43.676  28.940  35.753  1.00  0.00     0.057 A 
ATOM     66  C   UNL A   1      43.390  27.869  36.609  1.00  0.00     0.134 A 
ATOM     67  C   UNL A   1      45.010  29.352  35.660  1.00  0.00     0.134 A 
ATOM     68  F   UNL A   1      42.130  27.429  36.744  1.00  0.00    -0.206 F 
ATOM     69  C   UNL A   1      44.387  27.243  37.356  1.00  0.00     0.040 A 
ATOM     70  C   UNL A   1      46.023  28.716  36.379  1.00  0.00     0.040 A 
ATOM     71  F   UNL A   1      45.351  30.357  34.841  1.00  0.00    -0.206 F 
ATOM     72  C   UNL A   1      45.711  27.662  37.236  1.00  0.00     0.006 A 
ENDBRANCH  44  65
BRANCH  56  73
ATOM     73  C   UNL A   1      39.441  34.283  37.093  1.00  0.00     0.057 A 
ATOM     74  C   UNL A   1      40.004  35.566  37.075  1.00  0.00     0.134 A 
ATOM     75  C   UNL A   1      38.764  33.893  38.257  1.00  0.00     0.134 A 
ATOM     76  F   UNL A   1      40.670  36.002  35.996  1.00  0.00    -0.206 F 
ATOM     77  C   UNL A   1      39.894  36.428  38.167  1.00  0.00     0.040 A 
ATOM     78  C   UNL A   1      38.621  34.758  39.344  1.00  0.00     0.040 A 
ATOM     79  F   UNL A   1      38.187  32.684  38.335  1.00  0.00    -0.206 F 
ATOM     80  C   UNL A   1      39.191  36.027  39.303  1.00  0.00     0.006 A 
ENDBRANCH  56  73
ENDBRANCH  30  31
ENDBRANCH  22  25
ENDBRANCH  20  21
ENDBRANCH   1  20
TORSDOF 11
ENDMDL
