MODEL 1
REMARK VINA RESULT:     -11.0      0.000      0.000
REMARK SMILES O=C(NCCCNC(=O)c1ccnc(Oc2cccc(C(F)(F)F)c2)c1)c1ccc(-c2c3nc(c(-c4c(F)cccc4F)c4ccc([nH]4)c(-c4c(F)cccc4F)c4nc(c(-c5c(F)cccc5F)c5ccc2[nH]5)C=C4)C=C3)cc1
REMARK SMILES IDX 5 1 4 2 3 3 1 4 2 5 27 7 28 8 80 9 29 10 79 11 30 12 31 13
REMARK SMILES IDX 32 14 73 15 33 16 78 17 72 18 74 19 34 20 77 21 71 22 70 23
REMARK SMILES IDX 35 25 61 26 44 27 60 28 45 29 48 30 59 31 75 32 46 33 47 34
REMARK SMILES IDX 58 36 76 37 49 38 36 39 37 40 42 41 38 42 39 43 41 44 43 45
REMARK SMILES IDX 40 46 62 47 63 48 68 49 64 50 65 51 67 52 69 53 66 54 50 55
REMARK SMILES IDX 51 56 56 57 52 58 53 59 55 60 57 61 54 62 6 63 7 64 8 65
REMARK SMILES IDX 9 67 10 68 11 69 26 70 12 71 14 72 13 73 15 74 16 75 17 76
REMARK SMILES IDX 25 77 18 78 20 79 19 80 21 81 22 82 23 83 24 84
REMARK H PARENT 3 6 74 24 48 35 7 66
REMARK Flexibility Score: inf
ROOT
ATOM      1  C   UNL A   1      35.106  33.492  27.997  1.00  0.00     0.042 C 
ENDROOT
BRANCH   1   2
ATOM      2  C   UNL A   1      34.998  32.428  29.082  1.00  0.00     0.118 C 
BRANCH   2   3
ATOM      3  N   UNL A   1      34.427  31.176  28.599  1.00  0.00    -0.352 N 
ATOM      4  O   UNL A   1      34.341  29.118  27.697  1.00  0.00    -0.269 OA
ATOM      5  C   UNL A   1      35.018  29.987  28.241  1.00  0.00     0.251 C 
ATOM      6  H   UNL A   1      33.446  31.183  28.516  1.00  0.00     0.163 HD
BRANCH   5   7
ATOM      7  C   UNL A   1      36.461  29.752  28.471  1.00  0.00     0.039 A 
ATOM      8  C   UNL A   1      37.406  30.040  27.489  1.00  0.00     0.014 A 
ATOM      9  C   UNL A   1      36.883  29.255  29.710  1.00  0.00     0.014 A 
ATOM     10  C   UNL A   1      38.728  29.646  27.663  1.00  0.00     0.010 A 
ATOM     11  C   UNL A   1      38.234  28.963  29.925  1.00  0.00     0.010 A 
ATOM     12  C   UNL A   1      39.162  29.104  28.883  1.00  0.00    -0.014 A 
BRANCH  12  13
ATOM     13  C   UNL A   1      40.588  28.711  29.035  1.00  0.00     0.031 A 
ATOM     14  C   UNL A   1      41.077  27.363  28.575  1.00  0.00     0.074 A 
ATOM     15  C   UNL A   1      41.461  29.604  29.542  1.00  0.00     0.049 A 
ATOM     16  N   UNL A   1      42.299  26.886  28.572  1.00  0.00    -0.248 NA
ATOM     17  C   UNL A   1      40.071  26.424  28.058  1.00  0.00     0.031 C 
ATOM     18  C   UNL A   1      41.110  30.938  30.037  1.00  0.00     0.029 A 
ATOM     19  N   UNL A   1      42.822  29.542  29.695  1.00  0.00    -0.354 N 
ATOM     20  C   UNL A   1      42.202  25.590  28.083  1.00  0.00     0.074 A 
ATOM     21  C   UNL A   1      40.800  25.343  27.822  1.00  0.00     0.031 C 
ATOM     22  C   UNL A   1      42.232  31.589  30.377  1.00  0.00     0.029 A 
ATOM     23  C   UNL A   1      43.373  30.703  30.182  1.00  0.00     0.049 A 
ATOM     24  H   UNL A   1      43.355  28.743  29.478  1.00  0.00     0.167 HD
ATOM     25  C   UNL A   1      43.191  24.690  27.862  1.00  0.00     0.037 A 
ATOM     26  C   UNL A   1      44.653  31.021  30.447  1.00  0.00     0.037 A 
ATOM     27  C   UNL A   1      44.590  24.947  28.092  1.00  0.00     0.049 A 
ATOM     28  C   UNL A   1      45.728  30.006  30.190  1.00  0.00     0.074 A 
ATOM     29  C   UNL A   1      45.670  24.112  27.858  1.00  0.00     0.029 A 
ATOM     30  N   UNL A   1      45.103  26.126  28.610  1.00  0.00    -0.354 N 
ATOM     31  N   UNL A   1      45.622  28.798  29.692  1.00  0.00    -0.248 NA
ATOM     32  C   UNL A   1      47.101  30.399  30.534  1.00  0.00     0.031 C 
ATOM     33  C   UNL A   1      46.833  24.772  28.273  1.00  0.00     0.029 A 
ATOM     34  C   UNL A   1      46.481  26.034  28.721  1.00  0.00     0.049 A 
ATOM     35  H   UNL A   1      44.567  26.913  28.862  1.00  0.00     0.167 HD
ATOM     36  C   UNL A   1      46.915  28.296  29.638  1.00  0.00     0.074 A 
ATOM     37  C   UNL A   1      47.789  29.337  30.139  1.00  0.00     0.031 C 
ATOM     38  C   UNL A   1      47.340  27.082  29.212  1.00  0.00     0.037 A 
BRANCH  25  39
ATOM     39  C   UNL A   1      42.795  23.332  27.357  1.00  0.00     0.057 A 
ATOM     40  C   UNL A   1      42.357  22.316  28.217  1.00  0.00     0.134 A 
ATOM     41  C   UNL A   1      42.815  23.049  25.985  1.00  0.00     0.134 A 
ATOM     42  F   UNL A   1      42.325  22.516  29.543  1.00  0.00    -0.206 F 
ATOM     43  C   UNL A   1      41.974  21.063  27.733  1.00  0.00     0.040 A 
ATOM     44  C   UNL A   1      42.412  21.809  25.487  1.00  0.00     0.040 A 
ATOM     45  F   UNL A   1      43.217  23.978  25.105  1.00  0.00    -0.206 F 
ATOM     46  C   UNL A   1      41.995  20.809  26.363  1.00  0.00     0.006 A 
ENDBRANCH  25  39
BRANCH  26  47
ATOM     47  C   UNL A   1      44.987  32.368  30.971  1.00  0.00     0.057 A 
ATOM     48  C   UNL A   1      44.992  32.628  32.346  1.00  0.00     0.134 A 
ATOM     49  C   UNL A   1      45.313  33.425  30.113  1.00  0.00     0.134 A 
ATOM     50  F   UNL A   1      44.671  31.660  33.218  1.00  0.00    -0.206 F 
ATOM     51  C   UNL A   1      45.293  33.895  32.849  1.00  0.00     0.040 A 
ATOM     52  C   UNL A   1      45.644  34.688  30.603  1.00  0.00     0.040 A 
ATOM     53  F   UNL A   1      45.334  33.236  28.785  1.00  0.00    -0.206 F 
ATOM     54  C   UNL A   1      45.626  34.928  31.975  1.00  0.00     0.006 A 
ENDBRANCH  26  47
BRANCH  38  55
ATOM     55  C   UNL A   1      48.819  26.834  29.230  1.00  0.00     0.057 A 
ATOM     56  C   UNL A   1      49.458  26.239  30.324  1.00  0.00     0.134 A 
ATOM     57  C   UNL A   1      49.611  27.183  28.128  1.00  0.00     0.134 A 
ATOM     58  F   UNL A   1      48.759  25.894  31.416  1.00  0.00    -0.206 F 
ATOM     59  C   UNL A   1      50.839  26.026  30.335  1.00  0.00     0.040 A 
ATOM     60  C   UNL A   1      50.987  26.952  28.116  1.00  0.00     0.040 A 
ATOM     61  F   UNL A   1      49.059  27.749  27.045  1.00  0.00    -0.206 F 
ATOM     62  C   UNL A   1      51.605  26.379  29.226  1.00  0.00     0.006 A 
ENDBRANCH  38  55
ENDBRANCH  12  13
ENDBRANCH   5   7
ENDBRANCH   2   3
ENDBRANCH   1   2
BRANCH   1  63
ATOM     63  C   UNL A   1      35.110  34.921  28.524  1.00  0.00     0.118 C 
BRANCH  63  64
ATOM     64  N   UNL A   1      33.815  35.573  28.382  1.00  0.00    -0.352 N 
ATOM     65  C   UNL A   1      32.983  36.109  29.330  1.00  0.00     0.251 C 
ATOM     66  H   UNL A   1      33.485  35.641  27.456  1.00  0.00     0.163 HD
ATOM     67  O   UNL A   1      31.841  36.445  29.029  1.00  0.00    -0.269 OA
BRANCH  65  68
ATOM     68  C   UNL A   1      33.436  36.254  30.726  1.00  0.00     0.046 A 
ATOM     69  C   UNL A   1      33.340  37.470  31.393  1.00  0.00     0.034 A 
ATOM     70  C   UNL A   1      33.939  35.129  31.377  1.00  0.00     0.082 A 
ATOM     71  C   UNL A   1      33.855  37.533  32.668  1.00  0.00     0.116 A 
ATOM     72  C   UNL A   1      34.451  35.288  32.655  1.00  0.00     0.219 A 
ATOM     73  N   UNL A   1      34.423  36.482  33.295  1.00  0.00    -0.222 NA
BRANCH  72  74
ATOM     74  O   UNL A   1      35.033  34.294  33.410  1.00  0.00    -0.439 OA
BRANCH  74  75
ATOM     75  C   UNL A   1      36.071  33.564  32.890  1.00  0.00     0.130 A 
ATOM     76  C   UNL A   1      36.420  32.387  33.550  1.00  0.00     0.047 A 
ATOM     77  C   UNL A   1      36.820  34.013  31.799  1.00  0.00     0.060 A 
ATOM     78  C   UNL A   1      37.487  31.622  33.085  1.00  0.00     0.004 A 
ATOM     79  C   UNL A   1      37.873  33.232  31.301  1.00  0.00     0.059 A 
ATOM     80  C   UNL A   1      38.202  32.034  31.959  1.00  0.00     0.013 A 
BRANCH  79  81
ATOM     81  C   UNL A   1      38.640  33.651  30.072  1.00  0.00     0.416 C 
ATOM     82  F   UNL A   1      38.186  34.820  29.543  1.00  0.00    -0.166 F 
ATOM     83  F   UNL A   1      39.964  33.845  30.329  1.00  0.00    -0.166 F 
ATOM     84  F   UNL A   1      38.590  32.736  29.063  1.00  0.00    -0.166 F 
ENDBRANCH  79  81
ENDBRANCH  74  75
ENDBRANCH  72  74
ENDBRANCH  65  68
ENDBRANCH  63  64
ENDBRANCH   1  63
TORSDOF 13
ENDMDL
MODEL 2
REMARK VINA RESULT:     -10.9      5.085     11.067
REMARK SMILES O=C(NCCCNC(=O)c1ccnc(Oc2cccc(C(F)(F)F)c2)c1)c1ccc(-c2c3nc(c(-c4c(F)cccc4F)c4ccc([nH]4)c(-c4c(F)cccc4F)c4nc(c(-c5c(F)cccc5F)c5ccc2[nH]5)C=C4)C=C3)cc1
REMARK SMILES IDX 5 1 4 2 3 3 1 4 2 5 27 7 28 8 80 9 29 10 79 11 30 12 31 13
REMARK SMILES IDX 32 14 73 15 33 16 78 17 72 18 74 19 34 20 77 21 71 22 70 23
REMARK SMILES IDX 35 25 61 26 44 27 60 28 45 29 48 30 59 31 75 32 46 33 47 34
REMARK SMILES IDX 58 36 76 37 49 38 36 39 37 40 42 41 38 42 39 43 41 44 43 45
REMARK SMILES IDX 40 46 62 47 63 48 68 49 64 50 65 51 67 52 69 53 66 54 50 55
REMARK SMILES IDX 51 56 56 57 52 58 53 59 55 60 57 61 54 62 6 63 7 64 8 65
REMARK SMILES IDX 9 67 10 68 11 69 26 70 12 71 14 72 13 73 15 74 16 75 17 76
REMARK SMILES IDX 25 77 18 78 20 79 19 80 21 81 22 82 23 83 24 84
REMARK H PARENT 3 6 74 24 48 35 7 66
REMARK Flexibility Score: inf
ROOT
ATOM      1  C   UNL A   1      38.572  20.094  24.988  1.00  0.00     0.042 C 
ENDROOT
BRANCH   1   2
ATOM      2  C   UNL A   1      39.285  19.377  26.128  1.00  0.00     0.118 C 
BRANCH   2   3
ATOM      3  N   UNL A   1      40.629  18.935  25.774  1.00  0.00    -0.352 N 
ATOM      4  O   UNL A   1      42.822  19.061  25.295  1.00  0.00    -0.269 OA
ATOM      5  C   UNL A   1      41.838  19.589  25.808  1.00  0.00     0.251 C 
ATOM      6  H   UNL A   1      40.679  18.005  25.456  1.00  0.00     0.163 HD
BRANCH   5   7
ATOM      7  C   UNL A   1      41.964  20.930  26.422  1.00  0.00     0.039 A 
ATOM      8  C   UNL A   1      42.103  22.073  25.639  1.00  0.00     0.014 A 
ATOM      9  C   UNL A   1      41.917  21.049  27.816  1.00  0.00     0.014 A 
ATOM     10  C   UNL A   1      42.398  23.293  26.240  1.00  0.00     0.010 A 
ATOM     11  C   UNL A   1      42.100  22.298  28.419  1.00  0.00     0.010 A 
ATOM     12  C   UNL A   1      42.399  23.423  27.638  1.00  0.00    -0.014 A 
BRANCH  12  13
ATOM     13  C   UNL A   1      42.700  24.748  28.241  1.00  0.00     0.031 A 
ATOM     14  C   UNL A   1      44.113  25.145  28.582  1.00  0.00     0.074 A 
ATOM     15  C   UNL A   1      41.694  25.624  28.430  1.00  0.00     0.049 A 
ATOM     16  N   UNL A   1      44.559  26.285  29.051  1.00  0.00    -0.248 NA
ATOM     17  C   UNL A   1      45.161  24.133  28.379  1.00  0.00     0.031 C 
ATOM     18  C   UNL A   1      40.280  25.356  28.154  1.00  0.00     0.029 A 
ATOM     19  N   UNL A   1      41.705  26.925  28.865  1.00  0.00    -0.354 N 
ATOM     20  C   UNL A   1      45.927  26.118  29.224  1.00  0.00     0.074 A 
ATOM     21  C   UNL A   1      46.237  24.760  28.834  1.00  0.00     0.031 C 
ATOM     22  C   UNL A   1      39.572  26.476  28.364  1.00  0.00     0.029 A 
ATOM     23  C   UNL A   1      40.467  27.520  28.846  1.00  0.00     0.049 A 
ATOM     24  H   UNL A   1      42.521  27.388  29.164  1.00  0.00     0.167 HD
ATOM     25  C   UNL A   1      46.843  27.017  29.658  1.00  0.00     0.037 A 
ATOM     26  C   UNL A   1      40.090  28.767  29.181  1.00  0.00     0.037 A 
ATOM     27  C   UNL A   1      46.539  28.379  30.017  1.00  0.00     0.049 A 
ATOM     28  C   UNL A   1      41.126  29.743  29.657  1.00  0.00     0.074 A 
ATOM     29  C   UNL A   1      47.407  29.377  30.428  1.00  0.00     0.029 A 
ATOM     30  N   UNL A   1      45.269  28.935  30.008  1.00  0.00    -0.354 N 
ATOM     31  N   UNL A   1      42.421  29.579  29.779  1.00  0.00    -0.248 NA
ATOM     32  C   UNL A   1      40.648  31.077  30.043  1.00  0.00     0.031 C 
ATOM     33  C   UNL A   1      46.656  30.525  30.707  1.00  0.00     0.029 A 
ATOM     34  C   UNL A   1      45.327  30.255  30.424  1.00  0.00     0.049 A 
ATOM     35  H   UNL A   1      44.447  28.461  29.745  1.00  0.00     0.167 HD
ATOM     36  C   UNL A   1      42.916  30.795  30.231  1.00  0.00     0.074 A 
ATOM     37  C   UNL A   1      41.783  31.691  30.345  1.00  0.00     0.031 C 
ATOM     38  C   UNL A   1      44.193  31.139  30.524  1.00  0.00     0.037 A 
BRANCH  25  39
ATOM     39  C   UNL A   1      48.266  26.553  29.788  1.00  0.00     0.057 A 
ATOM     40  C   UNL A   1      48.733  25.890  30.931  1.00  0.00     0.134 A 
ATOM     41  C   UNL A   1      49.172  26.736  28.734  1.00  0.00     0.134 A 
ATOM     42  F   UNL A   1      47.921  25.693  31.980  1.00  0.00    -0.206 F 
ATOM     43  C   UNL A   1      50.054  25.448  31.030  1.00  0.00     0.040 A 
ATOM     44  C   UNL A   1      50.488  26.276  28.812  1.00  0.00     0.040 A 
ATOM     45  F   UNL A   1      48.790  27.356  27.608  1.00  0.00    -0.206 F 
ATOM     46  C   UNL A   1      50.934  25.634  29.966  1.00  0.00     0.006 A 
ENDBRANCH  25  39
BRANCH  26  47
ATOM     47  C   UNL A   1      38.666  29.167  29.062  1.00  0.00     0.057 A 
ATOM     48  C   UNL A   1      38.130  29.574  27.835  1.00  0.00     0.134 A 
ATOM     49  C   UNL A   1      37.808  29.147  30.167  1.00  0.00     0.134 A 
ATOM     50  F   UNL A   1      38.907  29.630  26.744  1.00  0.00    -0.206 F 
ATOM     51  C   UNL A   1      36.794  29.963  27.715  1.00  0.00     0.040 A 
ATOM     52  C   UNL A   1      36.464  29.505  30.056  1.00  0.00     0.040 A 
ATOM     53  F   UNL A   1      38.261  28.758  31.368  1.00  0.00    -0.206 F 
ATOM     54  C   UNL A   1      35.956  29.923  28.828  1.00  0.00     0.006 A 
ENDBRANCH  26  47
BRANCH  38  55
ATOM     55  C   UNL A   1      44.435  32.555  30.954  1.00  0.00     0.057 A 
ATOM     56  C   UNL A   1      44.692  33.577  30.032  1.00  0.00     0.134 A 
ATOM     57  C   UNL A   1      44.395  32.901  32.312  1.00  0.00     0.134 A 
ATOM     58  F   UNL A   1      44.758  33.308  28.719  1.00  0.00    -0.206 F 
ATOM     59  C   UNL A   1      44.930  34.889  30.446  1.00  0.00     0.040 A 
ATOM     60  C   UNL A   1      44.605  34.214  32.736  1.00  0.00     0.040 A 
ATOM     61  F   UNL A   1      44.146  31.970  33.244  1.00  0.00    -0.206 F 
ATOM     62  C   UNL A   1      44.882  35.210  31.802  1.00  0.00     0.006 A 
ENDBRANCH  38  55
ENDBRANCH  12  13
ENDBRANCH   5   7
ENDBRANCH   2   3
ENDBRANCH   1   2
BRANCH   1  63
ATOM     63  C   UNL A   1      37.873  21.382  25.404  1.00  0.00     0.118 C 
BRANCH  63  64
ATOM     64  N   UNL A   1      37.677  22.298  24.289  1.00  0.00    -0.352 N 
ATOM     65  C   UNL A   1      36.543  22.931  23.849  1.00  0.00     0.251 C 
ATOM     66  H   UNL A   1      38.489  22.495  23.767  1.00  0.00     0.163 HD
ATOM     67  O   UNL A   1      36.544  23.516  22.770  1.00  0.00    -0.269 OA
BRANCH  65  68
ATOM     68  C   UNL A   1      35.305  22.883  24.647  1.00  0.00     0.046 A 
ATOM     69  C   UNL A   1      35.083  23.779  25.687  1.00  0.00     0.034 A 
ATOM     70  C   UNL A   1      34.339  21.934  24.314  1.00  0.00     0.082 A 
ATOM     71  C   UNL A   1      33.933  23.615  26.426  1.00  0.00     0.116 A 
ATOM     72  C   UNL A   1      33.220  21.830  25.123  1.00  0.00     0.219 A 
ATOM     73  N   UNL A   1      33.019  22.653  26.180  1.00  0.00    -0.222 NA
BRANCH  72  74
ATOM     74  O   UNL A   1      32.206  20.911  24.966  1.00  0.00    -0.439 OA
BRANCH  74  75
ATOM     75  C   UNL A   1      32.448  19.736  24.302  1.00  0.00     0.130 A 
ATOM     76  C   UNL A   1      32.177  19.704  22.936  1.00  0.00     0.047 A 
ATOM     77  C   UNL A   1      32.861  18.579  24.969  1.00  0.00     0.060 A 
ATOM     78  C   UNL A   1      32.374  18.527  22.217  1.00  0.00     0.004 A 
ATOM     79  C   UNL A   1      33.098  17.399  24.248  1.00  0.00     0.059 A 
ATOM     80  C   UNL A   1      32.844  17.384  22.866  1.00  0.00     0.013 A 
BRANCH  79  81
ATOM     81  C   UNL A   1      33.628  16.163  24.931  1.00  0.00     0.416 C 
ATOM     82  F   UNL A   1      34.859  15.801  24.480  1.00  0.00    -0.166 F 
ATOM     83  F   UNL A   1      33.755  16.329  26.277  1.00  0.00    -0.166 F 
ATOM     84  F   UNL A   1      32.830  15.070  24.767  1.00  0.00    -0.166 F 
ENDBRANCH  79  81
ENDBRANCH  74  75
ENDBRANCH  72  74
ENDBRANCH  65  68
ENDBRANCH  63  64
ENDBRANCH   1  63
TORSDOF 13
ENDMDL
MODEL 3
REMARK VINA RESULT:     -10.9      5.039      9.718
REMARK SMILES O=C(NCCCNC(=O)c1ccnc(Oc2cccc(C(F)(F)F)c2)c1)c1ccc(-c2c3nc(c(-c4c(F)cccc4F)c4ccc([nH]4)c(-c4c(F)cccc4F)c4nc(c(-c5c(F)cccc5F)c5ccc2[nH]5)C=C4)C=C3)cc1
REMARK SMILES IDX 5 1 4 2 3 3 1 4 2 5 27 7 28 8 80 9 29 10 79 11 30 12 31 13
REMARK SMILES IDX 32 14 73 15 33 16 78 17 72 18 74 19 34 20 77 21 71 22 70 23
REMARK SMILES IDX 35 25 61 26 44 27 60 28 45 29 48 30 59 31 75 32 46 33 47 34
REMARK SMILES IDX 58 36 76 37 49 38 36 39 37 40 42 41 38 42 39 43 41 44 43 45
REMARK SMILES IDX 40 46 62 47 63 48 68 49 64 50 65 51 67 52 69 53 66 54 50 55
REMARK SMILES IDX 51 56 56 57 52 58 53 59 55 60 57 61 54 62 6 63 7 64 8 65
REMARK SMILES IDX 9 67 10 68 11 69 26 70 12 71 14 72 13 73 15 74 16 75 17 76
REMARK SMILES IDX 25 77 18 78 20 79 19 80 21 81 22 82 23 83 24 84
REMARK H PARENT 3 6 74 24 48 35 7 66
REMARK Flexibility Score: inf
ROOT
ATOM      1  C   UNL A   1      31.356  32.033  26.938  1.00  0.00     0.042 C 
ENDROOT
BRANCH   1   2
ATOM      2  C   UNL A   1      32.494  33.030  26.759  1.00  0.00     0.118 C 
BRANCH   2   3
ATOM      3  N   UNL A   1      32.376  34.195  27.627  1.00  0.00    -0.352 N 
ATOM      4  O   UNL A   1      32.693  35.522  29.414  1.00  0.00    -0.269 OA
ATOM      5  C   UNL A   1      33.090  34.575  28.740  1.00  0.00     0.251 C 
ATOM      6  H   UNL A   1      31.659  34.820  27.372  1.00  0.00     0.163 HD
BRANCH   5   7
ATOM      7  C   UNL A   1      34.306  33.841  29.154  1.00  0.00     0.039 A 
ATOM      8  C   UNL A   1      34.222  32.626  29.831  1.00  0.00     0.014 A 
ATOM      9  C   UNL A   1      35.563  34.367  28.835  1.00  0.00     0.014 A 
ATOM     10  C   UNL A   1      35.370  32.049  30.363  1.00  0.00     0.010 A 
ATOM     11  C   UNL A   1      36.725  33.724  29.274  1.00  0.00     0.010 A 
ATOM     12  C   UNL A   1      36.637  32.588  30.091  1.00  0.00    -0.014 A 
BRANCH  12  13
ATOM     13  C   UNL A   1      37.842  31.930  30.664  1.00  0.00     0.031 A 
ATOM     14  C   UNL A   1      38.298  32.229  32.068  1.00  0.00     0.074 A 
ATOM     15  C   UNL A   1      38.497  31.011  29.927  1.00  0.00     0.049 A 
ATOM     16  N   UNL A   1      39.287  31.696  32.744  1.00  0.00    -0.248 NA
ATOM     17  C   UNL A   1      37.559  33.262  32.808  1.00  0.00     0.031 C 
ATOM     18  C   UNL A   1      38.163  30.642  28.549  1.00  0.00     0.029 A 
ATOM     19  N   UNL A   1      39.554  30.196  30.241  1.00  0.00    -0.354 N 
ATOM     20  C   UNL A   1      39.304  32.346  33.972  1.00  0.00     0.074 A 
ATOM     21  C   UNL A   1      38.244  33.331  33.941  1.00  0.00     0.031 C 
ATOM     22  C   UNL A   1      38.956  29.632  28.161  1.00  0.00     0.029 A 
ATOM     23  C   UNL A   1      39.891  29.322  29.235  1.00  0.00     0.049 A 
ATOM     24  H   UNL A   1      40.028  30.234  31.103  1.00  0.00     0.167 HD
ATOM     25  C   UNL A   1      40.121  32.135  35.032  1.00  0.00     0.037 A 
ATOM     26  C   UNL A   1      40.847  28.378  29.180  1.00  0.00     0.037 A 
ATOM     27  C   UNL A   1      41.156  31.134  35.075  1.00  0.00     0.049 A 
ATOM     28  C   UNL A   1      41.736  28.164  30.370  1.00  0.00     0.074 A 
ATOM     29  C   UNL A   1      42.007  30.817  36.121  1.00  0.00     0.029 A 
ATOM     30  N   UNL A   1      41.481  30.287  34.026  1.00  0.00    -0.354 N 
ATOM     31  N   UNL A   1      41.714  28.763  31.536  1.00  0.00    -0.248 NA
ATOM     32  C   UNL A   1      42.784  27.145  30.235  1.00  0.00     0.031 C 
ATOM     33  C   UNL A   1      42.874  29.806  35.690  1.00  0.00     0.029 A 
ATOM     34  C   UNL A   1      42.531  29.461  34.393  1.00  0.00     0.049 A 
ATOM     35  H   UNL A   1      41.031  30.274  33.150  1.00  0.00     0.167 HD
ATOM     36  C   UNL A   1      42.726  28.176  32.283  1.00  0.00     0.074 A 
ATOM     37  C   UNL A   1      43.331  27.162  31.442  1.00  0.00     0.031 C 
ATOM     38  C   UNL A   1      43.118  28.450  33.550  1.00  0.00     0.037 A 
BRANCH  25  39
ATOM     39  C   UNL A   1      39.942  33.018  36.235  1.00  0.00     0.057 A 
ATOM     40  C   UNL A   1      40.666  34.206  36.402  1.00  0.00     0.134 A 
ATOM     41  C   UNL A   1      39.000  32.694  37.220  1.00  0.00     0.134 A 
ATOM     42  F   UNL A   1      41.592  34.569  35.501  1.00  0.00    -0.206 F 
ATOM     43  C   UNL A   1      40.476  35.027  37.516  1.00  0.00     0.040 A 
ATOM     44  C   UNL A   1      38.784  33.519  38.326  1.00  0.00     0.040 A 
ATOM     45  F   UNL A   1      38.267  31.575  37.120  1.00  0.00    -0.206 F 
ATOM     46  C   UNL A   1      39.527  34.687  38.478  1.00  0.00     0.006 A 
ENDBRANCH  25  39
BRANCH  26  47
ATOM     47  C   UNL A   1      41.000  27.552  27.957  1.00  0.00     0.057 A 
ATOM     48  C   UNL A   1      40.324  26.334  27.817  1.00  0.00     0.134 A 
ATOM     49  C   UNL A   1      41.820  27.960  26.899  1.00  0.00     0.134 A 
ATOM     50  F   UNL A   1      39.537  25.882  28.804  1.00  0.00    -0.206 F 
ATOM     51  C   UNL A   1      40.470  25.544  26.676  1.00  0.00     0.040 A 
ATOM     52  C   UNL A   1      41.955  27.194  25.741  1.00  0.00     0.040 A 
ATOM     53  F   UNL A   1      42.488  29.121  26.970  1.00  0.00    -0.206 F 
ATOM     54  C   UNL A   1      41.284  25.978  25.631  1.00  0.00     0.006 A 
ENDBRANCH  26  47
BRANCH  38  55
ATOM     55  C   UNL A   1      44.226  27.613  34.116  1.00  0.00     0.057 A 
ATOM     56  C   UNL A   1      45.567  28.010  34.043  1.00  0.00     0.134 A 
ATOM     57  C   UNL A   1      43.943  26.399  34.756  1.00  0.00     0.134 A 
ATOM     58  F   UNL A   1      45.906  29.154  33.430  1.00  0.00    -0.206 F 
ATOM     59  C   UNL A   1      46.591  27.214  34.561  1.00  0.00     0.040 A 
ATOM     60  C   UNL A   1      44.955  25.608  35.301  1.00  0.00     0.040 A 
ATOM     61  F   UNL A   1      42.678  25.966  34.866  1.00  0.00    -0.206 F 
ATOM     62  C   UNL A   1      46.285  26.012  35.196  1.00  0.00     0.006 A 
ENDBRANCH  38  55
ENDBRANCH  12  13
ENDBRANCH   5   7
ENDBRANCH   2   3
ENDBRANCH   1   2
BRANCH   1  63
ATOM     63  C   UNL A   1      31.781  30.575  26.816  1.00  0.00     0.118 C 
BRANCH  63  64
ATOM     64  N   UNL A   1      33.205  30.386  27.054  1.00  0.00    -0.352 N 
ATOM     65  C   UNL A   1      34.038  29.360  26.687  1.00  0.00     0.251 C 
ATOM     66  H   UNL A   1      33.641  31.111  27.559  1.00  0.00     0.163 HD
ATOM     67  O   UNL A   1      35.173  29.292  27.149  1.00  0.00    -0.269 OA
BRANCH  65  68
ATOM     68  C   UNL A   1      33.567  28.311  25.764  1.00  0.00     0.046 A 
ATOM     69  C   UNL A   1      33.882  26.973  25.973  1.00  0.00     0.034 A 
ATOM     70  C   UNL A   1      32.767  28.688  24.687  1.00  0.00     0.082 A 
ATOM     71  C   UNL A   1      33.464  26.070  25.021  1.00  0.00     0.116 A 
ATOM     72  C   UNL A   1      32.405  27.715  23.770  1.00  0.00     0.219 A 
ATOM     73  N   UNL A   1      32.758  26.416  23.925  1.00  0.00    -0.222 NA
BRANCH  72  74
ATOM     74  O   UNL A   1      31.669  27.932  22.625  1.00  0.00    -0.439 OA
BRANCH  74  75
ATOM     75  C   UNL A   1      30.379  28.388  22.721  1.00  0.00     0.130 A 
ATOM     76  C   UNL A   1      29.423  27.505  23.217  1.00  0.00     0.047 A 
ATOM     77  C   UNL A   1      30.003  29.651  22.256  1.00  0.00     0.060 A 
ATOM     78  C   UNL A   1      28.091  27.903  23.305  1.00  0.00     0.004 A 
ATOM     79  C   UNL A   1      28.672  30.076  22.375  1.00  0.00     0.059 A 
ATOM     80  C   UNL A   1      27.719  29.186  22.900  1.00  0.00     0.013 A 
BRANCH  79  81
ATOM     81  C   UNL A   1      28.258  31.466  21.963  1.00  0.00     0.416 C 
ATOM     82  F   UNL A   1      27.711  31.503  20.718  1.00  0.00    -0.166 F 
ATOM     83  F   UNL A   1      27.323  31.998  22.800  1.00  0.00    -0.166 F 
ATOM     84  F   UNL A   1      29.290  32.357  21.948  1.00  0.00    -0.166 F 
ENDBRANCH  79  81
ENDBRANCH  74  75
ENDBRANCH  72  74
ENDBRANCH  65  68
ENDBRANCH  63  64
ENDBRANCH   1  63
TORSDOF 13
ENDMDL
