MODEL 1
REMARK VINA RESULT:     -11.4      0.000      0.000
REMARK SMILES COc1cccc(/C=C(/C#N)c2ccc(Br)cc2)c1O[C@@H](C)C(=O)NCCCNC(=O)c1ccc(-c2c3nc(c(-c4c(F)cccc4F)c4ccc([nH]4)c(-c4c(F)cccc4F)c4nc(c(-c5c(F)cccc5F)c5ccc2[nH]5)C=C4)C=C3)cc1
REMARK SMILES IDX 26 1 25 2 23 3 24 4 21 6 22 7 20 8 19 9 3 10 4 11 5 12 7 13
REMARK SMILES IDX 6 14 2 15 1 16 8 17 9 18 10 19 11 20 12 21 13 22 18 23 14 24
REMARK SMILES IDX 17 25 15 26 16 27 27 28 28 29 29 30 30 31 31 33 32 34 33 35
REMARK SMILES IDX 85 36 34 37 84 38 35 39 36 40 37 41 78 42 38 43 83 44 77 45
REMARK SMILES IDX 79 46 39 47 82 48 76 49 75 50 40 52 66 53 49 54 65 55 50 56
REMARK SMILES IDX 53 57 64 58 80 59 51 60 52 61 63 63 81 64 54 65 41 66 42 67
REMARK SMILES IDX 47 68 43 69 44 70 46 71 48 72 45 73 67 74 68 75 73 76 69 77
REMARK SMILES IDX 70 78 72 79 74 80 71 81 55 82 56 83 61 84 57 85 58 86 60 87
REMARK SMILES IDX 62 88 59 89
REMARK H PARENT 25 5 29 32 79 51 53 62
REMARK Flexibility Score: inf
ROOT
ATOM      1  C   UNL A   1      33.746  26.362  24.969  1.00  0.00     0.118 C 
ENDROOT
BRANCH   1   2
ATOM      2  N   UNL A   1      34.203  26.656  23.630  1.00  0.00    -0.353 N 
ATOM      3  C   UNL A   1      33.620  26.584  22.409  1.00  0.00     0.260 C 
ATOM      4  O   UNL A   1      34.028  27.462  21.627  1.00  0.00    -0.271 OA
ATOM      5  H   UNL A   1      35.133  26.976  23.598  1.00  0.00     0.163 HD
BRANCH   3   6
ATOM      6  C   UNL A   1      32.602  25.503  21.850  1.00  0.00     0.259 C 
ATOM      7  C   UNL A   1      32.527  25.575  20.311  1.00  0.00     0.064 C 
BRANCH   6   8
ATOM      8  O   UNL A   1      31.464  24.812  22.316  1.00  0.00    -0.476 OA
BRANCH   8   9
ATOM      9  C   UNL A   1      30.910  25.098  23.524  1.00  0.00     0.169 A 
ATOM     10  C   UNL A   1      30.217  26.289  23.795  1.00  0.00     0.161 A 
ATOM     11  C   UNL A   1      29.709  26.518  25.075  1.00  0.00     0.050 A 
ATOM     12  C   UNL A   1      29.925  25.583  26.086  1.00  0.00     0.005 A 
ATOM     13  C   UNL A   1      30.952  24.059  24.489  1.00  0.00     0.022 A 
ATOM     14  C   UNL A   1      30.561  24.372  25.796  1.00  0.00     0.012 A 
BRANCH  10  15
ATOM     15  O   UNL A   1      29.884  27.130  22.768  1.00  0.00    -0.493 OA
ATOM     16  C   UNL A   1      29.201  28.328  23.128  1.00  0.00     0.278 C 
ENDBRANCH  10  15
BRANCH  13  17
ATOM     17  C   UNL A   1      31.325  22.673  24.071  1.00  0.00     0.032 C 
ATOM     18  C   UNL A   1      32.498  22.000  24.181  1.00  0.00     0.060 C 
BRANCH  18  19
ATOM     19  C   UNL A   1      32.526  20.607  23.830  1.00  0.00     0.100 C 
ATOM     20  N   UNL A   1      32.536  19.482  23.549  1.00  0.00    -0.192 NA
ENDBRANCH  18  19
BRANCH  18  21
ATOM     21  C   UNL A   1      33.773  22.606  24.619  1.00  0.00    -0.008 A 
ATOM     22  C   UNL A   1      34.036  22.731  25.994  1.00  0.00     0.010 A 
ATOM     23  C   UNL A   1      34.771  22.971  23.702  1.00  0.00     0.010 A 
ATOM     24  C   UNL A   1      35.300  23.118  26.443  1.00  0.00     0.016 A 
ATOM     25  C   UNL A   1      36.045  23.331  24.153  1.00  0.00     0.016 A 
ATOM     26  C   UNL A   1      36.307  23.388  25.519  1.00  0.00     0.018 A 
ATOM     27  Br  UNL A   1      38.047  23.802  26.125  1.00  0.00    -0.051 Br
ENDBRANCH  18  21
ENDBRANCH  13  17
ENDBRANCH   8   9
ENDBRANCH   6   8
ENDBRANCH   3   6
ENDBRANCH   1   2
BRANCH   1  28
ATOM     28  C   UNL A   1      33.159  27.552  25.700  1.00  0.00     0.042 C 
BRANCH  28  29
ATOM     29  C   UNL A   1      33.635  28.894  25.171  1.00  0.00     0.118 C 
BRANCH  29  30
ATOM     30  N   UNL A   1      32.966  30.042  25.791  1.00  0.00    -0.352 N 
ATOM     31  C   UNL A   1      33.325  30.831  26.863  1.00  0.00     0.251 C 
ATOM     32  H   UNL A   1      32.114  30.293  25.369  1.00  0.00     0.163 HD
ATOM     33  O   UNL A   1      32.531  31.660  27.300  1.00  0.00    -0.269 OA
BRANCH  31  34
ATOM     34  C   UNL A   1      34.645  30.667  27.515  1.00  0.00     0.039 A 
ATOM     35  C   UNL A   1      35.504  31.763  27.656  1.00  0.00     0.014 A 
ATOM     36  C   UNL A   1      35.036  29.423  28.003  1.00  0.00     0.014 A 
ATOM     37  C   UNL A   1      36.698  31.625  28.374  1.00  0.00     0.010 A 
ATOM     38  C   UNL A   1      36.132  29.326  28.842  1.00  0.00     0.010 A 
ATOM     39  C   UNL A   1      36.996  30.416  29.019  1.00  0.00    -0.014 A 
BRANCH  39  40
ATOM     40  C   UNL A   1      38.221  30.198  29.832  1.00  0.00     0.031 A 
ATOM     41  C   UNL A   1      39.289  29.274  29.298  1.00  0.00     0.074 A 
ATOM     42  C   UNL A   1      38.323  30.703  31.077  1.00  0.00     0.049 A 
ATOM     43  N   UNL A   1      40.307  28.734  29.918  1.00  0.00    -0.248 NA
ATOM     44  C   UNL A   1      39.156  28.851  27.891  1.00  0.00     0.031 C 
ATOM     45  C   UNL A   1      37.346  31.579  31.726  1.00  0.00     0.029 A 
ATOM     46  N   UNL A   1      39.291  30.523  32.036  1.00  0.00    -0.354 N 
ATOM     47  C   UNL A   1      40.895  27.878  28.995  1.00  0.00     0.074 A 
ATOM     48  C   UNL A   1      40.089  27.917  27.798  1.00  0.00     0.031 C 
ATOM     49  C   UNL A   1      37.773  31.871  32.966  1.00  0.00     0.029 A 
ATOM     50  C   UNL A   1      39.018  31.160  33.223  1.00  0.00     0.049 A 
ATOM     51  H   UNL A   1      40.104  29.988  31.885  1.00  0.00     0.167 HD
ATOM     52  C   UNL A   1      42.024  27.144  29.124  1.00  0.00     0.037 A 
ATOM     53  C   UNL A   1      39.684  31.151  34.394  1.00  0.00     0.037 A 
ATOM     54  C   UNL A   1      42.858  27.165  30.293  1.00  0.00     0.049 A 
ATOM     55  C   UNL A   1      40.947  30.337  34.508  1.00  0.00     0.074 A 
ATOM     56  C   UNL A   1      44.067  26.525  30.498  1.00  0.00     0.029 A 
ATOM     57  N   UNL A   1      42.573  27.872  31.451  1.00  0.00    -0.354 N 
ATOM     58  N   UNL A   1      41.520  29.572  33.610  1.00  0.00    -0.248 NA
ATOM     59  C   UNL A   1      41.658  30.387  35.793  1.00  0.00     0.031 C 
ATOM     60  C   UNL A   1      44.489  26.804  31.800  1.00  0.00     0.029 A 
ATOM     61  C   UNL A   1      43.578  27.672  32.380  1.00  0.00     0.049 A 
ATOM     62  H   UNL A   1      41.777  28.434  31.590  1.00  0.00     0.167 HD
ATOM     63  C   UNL A   1      42.681  29.094  34.203  1.00  0.00     0.074 A 
ATOM     64  C   UNL A   1      42.730  29.650  35.538  1.00  0.00     0.031 C 
ATOM     65  C   UNL A   1      43.625  28.270  33.688  1.00  0.00     0.037 A 
BRANCH  52  66
ATOM     66  C   UNL A   1      42.437  26.274  27.973  1.00  0.00     0.057 A 
ATOM     67  C   UNL A   1      41.960  24.966  27.820  1.00  0.00     0.134 A 
ATOM     68  C   UNL A   1      43.279  26.775  26.970  1.00  0.00     0.134 A 
ATOM     69  F   UNL A   1      41.162  24.420  28.749  1.00  0.00    -0.206 F 
ATOM     70  C   UNL A   1      42.319  24.181  26.723  1.00  0.00     0.040 A 
ATOM     71  C   UNL A   1      43.618  26.012  25.852  1.00  0.00     0.040 A 
ATOM     72  F   UNL A   1      43.769  28.021  27.051  1.00  0.00    -0.206 F 
ATOM     73  C   UNL A   1      43.142  24.708  25.729  1.00  0.00     0.006 A 
ENDBRANCH  52  66
BRANCH  53  74
ATOM     74  C   UNL A   1      39.186  31.933  35.557  1.00  0.00     0.057 A 
ATOM     75  C   UNL A   1      38.317  31.360  36.495  1.00  0.00     0.134 A 
ATOM     76  C   UNL A   1      39.530  33.277  35.741  1.00  0.00     0.134 A 
ATOM     77  F   UNL A   1      37.933  30.081  36.366  1.00  0.00    -0.206 F 
ATOM     78  C   UNL A   1      37.781  32.103  37.549  1.00  0.00     0.040 A 
ATOM     79  C   UNL A   1      39.027  34.024  36.808  1.00  0.00     0.040 A 
ATOM     80  F   UNL A   1      40.369  33.885  34.887  1.00  0.00    -0.206 F 
ATOM     81  C   UNL A   1      38.140  33.440  37.709  1.00  0.00     0.006 A 
ENDBRANCH  53  74
BRANCH  65  82
ATOM     82  C   UNL A   1      44.836  27.986  34.525  1.00  0.00     0.057 A 
ATOM     83  C   UNL A   1      44.901  26.893  35.397  1.00  0.00     0.134 A 
ATOM     84  C   UNL A   1      45.987  28.773  34.383  1.00  0.00     0.134 A 
ATOM     85  F   UNL A   1      43.830  26.107  35.585  1.00  0.00    -0.206 F 
ATOM     86  C   UNL A   1      46.065  26.602  36.109  1.00  0.00     0.040 A 
ATOM     87  C   UNL A   1      47.164  28.474  35.065  1.00  0.00     0.040 A 
ATOM     88  F   UNL A   1      45.992  29.828  33.553  1.00  0.00    -0.206 F 
ATOM     89  C   UNL A   1      47.205  27.387  35.935  1.00  0.00     0.006 A 
ENDBRANCH  65  82
ENDBRANCH  39  40
ENDBRANCH  31  34
ENDBRANCH  29  30
ENDBRANCH  28  29
ENDBRANCH   1  28
TORSDOF 16
ENDMDL
MODEL 2
REMARK VINA RESULT:     -11.3      4.423      9.119
REMARK SMILES COc1cccc(/C=C(/C#N)c2ccc(Br)cc2)c1O[C@@H](C)C(=O)NCCCNC(=O)c1ccc(-c2c3nc(c(-c4c(F)cccc4F)c4ccc([nH]4)c(-c4c(F)cccc4F)c4nc(c(-c5c(F)cccc5F)c5ccc2[nH]5)C=C4)C=C3)cc1
REMARK SMILES IDX 26 1 25 2 23 3 24 4 21 6 22 7 20 8 19 9 3 10 4 11 5 12 7 13
REMARK SMILES IDX 6 14 2 15 1 16 8 17 9 18 10 19 11 20 12 21 13 22 18 23 14 24
REMARK SMILES IDX 17 25 15 26 16 27 27 28 28 29 29 30 30 31 31 33 32 34 33 35
REMARK SMILES IDX 85 36 34 37 84 38 35 39 36 40 37 41 78 42 38 43 83 44 77 45
REMARK SMILES IDX 79 46 39 47 82 48 76 49 75 50 40 52 66 53 49 54 65 55 50 56
REMARK SMILES IDX 53 57 64 58 80 59 51 60 52 61 63 63 81 64 54 65 41 66 42 67
REMARK SMILES IDX 47 68 43 69 44 70 46 71 48 72 45 73 67 74 68 75 73 76 69 77
REMARK SMILES IDX 70 78 72 79 74 80 71 81 55 82 56 83 61 84 57 85 58 86 60 87
REMARK SMILES IDX 62 88 59 89
REMARK H PARENT 25 5 29 32 79 51 53 62
REMARK Flexibility Score: inf
ROOT
ATOM      1  C   UNL A   1      36.331  20.357  24.967  1.00  0.00     0.118 C 
ENDROOT
BRANCH   1   2
ATOM      2  N   UNL A   1      36.620  21.755  25.197  1.00  0.00    -0.353 N 
ATOM      3  C   UNL A   1      36.106  22.687  26.036  1.00  0.00     0.260 C 
ATOM      4  O   UNL A   1      36.953  23.518  26.410  1.00  0.00    -0.271 OA
ATOM      5  H   UNL A   1      37.340  22.102  24.625  1.00  0.00     0.163 HD
BRANCH   3   6
ATOM      6  C   UNL A   1      34.602  22.897  26.497  1.00  0.00     0.259 C 
ATOM      7  C   UNL A   1      34.207  21.845  27.554  1.00  0.00     0.064 C 
BRANCH   6   8
ATOM      8  O   UNL A   1      33.420  23.447  25.958  1.00  0.00    -0.476 OA
BRANCH   8   9
ATOM      9  C   UNL A   1      33.246  23.568  24.615  1.00  0.00     0.169 A 
ATOM     10  C   UNL A   1      32.618  22.591  23.825  1.00  0.00     0.161 A 
ATOM     11  C   UNL A   1      32.512  22.781  22.446  1.00  0.00     0.050 A 
ATOM     12  C   UNL A   1      33.064  23.917  21.856  1.00  0.00     0.005 A 
ATOM     13  C   UNL A   1      33.622  24.813  24.049  1.00  0.00     0.022 A 
ATOM     14  C   UNL A   1      33.633  24.914  22.653  1.00  0.00     0.012 A 
BRANCH  10  15
ATOM     15  O   UNL A   1      31.955  21.556  24.425  1.00  0.00    -0.493 OA
ATOM     16  C   UNL A   1      32.577  20.276  24.344  1.00  0.00     0.278 C 
ENDBRANCH  10  15
BRANCH  13  17
ATOM     17  C   UNL A   1      33.909  25.978  24.942  1.00  0.00     0.032 C 
ATOM     18  C   UNL A   1      33.212  27.121  25.160  1.00  0.00     0.060 C 
BRANCH  18  19
ATOM     19  C   UNL A   1      33.652  28.007  26.202  1.00  0.00     0.100 C 
ATOM     20  N   UNL A   1      34.003  28.712  27.052  1.00  0.00    -0.192 NA
ENDBRANCH  18  19
BRANCH  18  21
ATOM     21  C   UNL A   1      32.030  27.542  24.377  1.00  0.00    -0.008 A 
ATOM     22  C   UNL A   1      30.796  26.912  24.608  1.00  0.00     0.010 A 
ATOM     23  C   UNL A   1      32.084  28.621  23.480  1.00  0.00     0.010 A 
ATOM     24  C   UNL A   1      29.626  27.409  24.031  1.00  0.00     0.016 A 
ATOM     25  C   UNL A   1      30.908  29.136  22.926  1.00  0.00     0.016 A 
ATOM     26  C   UNL A   1      29.685  28.538  23.216  1.00  0.00     0.018 A 
ATOM     27  Br  UNL A   1      28.090  29.280  22.527  1.00  0.00    -0.051 Br
ENDBRANCH  18  21
ENDBRANCH  13  17
ENDBRANCH   8   9
ENDBRANCH   6   8
ENDBRANCH   3   6
ENDBRANCH   1   2
BRANCH   1  28
ATOM     28  C   UNL A   1      37.555  19.465  24.959  1.00  0.00     0.042 C 
BRANCH  28  29
ATOM     29  C   UNL A   1      38.746  20.048  25.700  1.00  0.00     0.118 C 
BRANCH  29  30
ATOM     30  N   UNL A   1      39.923  19.175  25.702  1.00  0.00    -0.352 N 
ATOM     31  C   UNL A   1      41.246  19.435  25.995  1.00  0.00     0.251 C 
ATOM     32  H   UNL A   1      39.739  18.241  25.450  1.00  0.00     0.163 HD
ATOM     33  O   UNL A   1      42.094  18.571  25.790  1.00  0.00    -0.269 OA
BRANCH  31  34
ATOM     34  C   UNL A   1      41.658  20.755  26.523  1.00  0.00     0.039 A 
ATOM     35  C   UNL A   1      42.012  20.898  27.870  1.00  0.00     0.014 A 
ATOM     36  C   UNL A   1      41.707  21.863  25.681  1.00  0.00     0.014 A 
ATOM     37  C   UNL A   1      42.510  22.121  28.334  1.00  0.00     0.010 A 
ATOM     38  C   UNL A   1      42.343  23.019  26.099  1.00  0.00     0.010 A 
ATOM     39  C   UNL A   1      42.729  23.177  27.438  1.00  0.00    -0.014 A 
BRANCH  39  40
ATOM     40  C   UNL A   1      43.290  24.495  27.840  1.00  0.00     0.031 A 
ATOM     41  C   UNL A   1      42.337  25.592  28.249  1.00  0.00     0.074 A 
ATOM     42  C   UNL A   1      44.606  24.752  27.715  1.00  0.00     0.049 A 
ATOM     43  N   UNL A   1      42.558  26.873  28.392  1.00  0.00    -0.248 NA
ATOM     44  C   UNL A   1      40.931  25.202  28.465  1.00  0.00     0.031 C 
ATOM     45  C   UNL A   1      45.628  23.792  27.295  1.00  0.00     0.029 A 
ATOM     46  N   UNL A   1      45.308  25.918  27.902  1.00  0.00    -0.354 N 
ATOM     47  C   UNL A   1      41.317  27.438  28.662  1.00  0.00     0.074 A 
ATOM     48  C   UNL A   1      40.339  26.378  28.599  1.00  0.00     0.031 C 
ATOM     49  C   UNL A   1      46.824  24.404  27.273  1.00  0.00     0.029 A 
ATOM     50  C   UNL A   1      46.649  25.809  27.617  1.00  0.00     0.049 A 
ATOM     51  H   UNL A   1      44.889  26.754  28.212  1.00  0.00     0.167 HD
ATOM     52  C   UNL A   1      41.022  28.723  28.963  1.00  0.00     0.037 A 
ATOM     53  C   UNL A   1      47.621  26.742  27.610  1.00  0.00     0.037 A 
ATOM     54  C   UNL A   1      42.010  29.758  29.092  1.00  0.00     0.049 A 
ATOM     55  C   UNL A   1      47.269  28.163  27.964  1.00  0.00     0.074 A 
ATOM     56  C   UNL A   1      41.830  31.075  29.475  1.00  0.00     0.029 A 
ATOM     57  N   UNL A   1      43.364  29.588  28.852  1.00  0.00    -0.354 N 
ATOM     58  N   UNL A   1      46.100  28.674  28.267  1.00  0.00    -0.248 NA
ATOM     59  C   UNL A   1      48.369  29.138  27.978  1.00  0.00     0.031 C 
ATOM     60  C   UNL A   1      43.070  31.715  29.417  1.00  0.00     0.029 A 
ATOM     61  C   UNL A   1      44.030  30.781  29.065  1.00  0.00     0.049 A 
ATOM     62  H   UNL A   1      43.788  28.744  28.574  1.00  0.00     0.167 HD
ATOM     63  C   UNL A   1      46.333  30.012  28.557  1.00  0.00     0.074 A 
ATOM     64  C   UNL A   1      47.753  30.236  28.390  1.00  0.00     0.031 C 
ATOM     65  C   UNL A   1      45.451  30.969  28.932  1.00  0.00     0.037 A 
BRANCH  52  66
ATOM     66  C   UNL A   1      39.583  29.083  29.193  1.00  0.00     0.057 A 
ATOM     67  C   UNL A   1      38.730  29.447  28.144  1.00  0.00     0.134 A 
ATOM     68  C   UNL A   1      39.028  29.006  30.478  1.00  0.00     0.134 A 
ATOM     69  F   UNL A   1      39.198  29.553  26.891  1.00  0.00    -0.206 F 
ATOM     70  C   UNL A   1      37.383  29.739  28.365  1.00  0.00     0.040 A 
ATOM     71  C   UNL A   1      37.676  29.264  30.707  1.00  0.00     0.040 A 
ATOM     72  F   UNL A   1      39.787  28.661  31.529  1.00  0.00    -0.206 F 
ATOM     73  C   UNL A   1      36.850  29.637  29.648  1.00  0.00     0.006 A 
ENDBRANCH  52  66
BRANCH  53  74
ATOM     74  C   UNL A   1      49.021  26.377  27.264  1.00  0.00     0.057 A 
ATOM     75  C   UNL A   1      49.460  26.379  25.934  1.00  0.00     0.134 A 
ATOM     76  C   UNL A   1      49.941  25.979  28.242  1.00  0.00     0.134 A 
ATOM     77  F   UNL A   1      48.623  26.731  24.947  1.00  0.00    -0.206 F 
ATOM     78  C   UNL A   1      50.748  25.966  25.586  1.00  0.00     0.040 A 
ATOM     79  C   UNL A   1      51.241  25.595  27.912  1.00  0.00     0.040 A 
ATOM     80  F   UNL A   1      49.590  25.967  29.537  1.00  0.00    -0.206 F 
ATOM     81  C   UNL A   1      51.645  25.576  26.579  1.00  0.00     0.006 A 
ENDBRANCH  53  74
BRANCH  65  82
ATOM     82  C   UNL A   1      45.995  32.324  29.275  1.00  0.00     0.057 A 
ATOM     83  C   UNL A   1      46.068  33.359  28.337  1.00  0.00     0.134 A 
ATOM     84  C   UNL A   1      46.366  32.616  30.595  1.00  0.00     0.134 A 
ATOM     85  F   UNL A   1      45.736  33.141  27.055  1.00  0.00    -0.206 F 
ATOM     86  C   UNL A   1      46.505  34.634  28.696  1.00  0.00     0.040 A 
ATOM     87  C   UNL A   1      46.775  33.893  30.973  1.00  0.00     0.040 A 
ATOM     88  F   UNL A   1      46.307  31.669  31.545  1.00  0.00    -0.206 F 
ATOM     89  C   UNL A   1      46.848  34.907  30.020  1.00  0.00     0.006 A 
ENDBRANCH  65  82
ENDBRANCH  39  40
ENDBRANCH  31  34
ENDBRANCH  29  30
ENDBRANCH  28  29
ENDBRANCH   1  28
TORSDOF 16
ENDMDL
MODEL 3
REMARK VINA RESULT:     -11.0      3.106      6.436
REMARK SMILES COc1cccc(/C=C(/C#N)c2ccc(Br)cc2)c1O[C@@H](C)C(=O)NCCCNC(=O)c1ccc(-c2c3nc(c(-c4c(F)cccc4F)c4ccc([nH]4)c(-c4c(F)cccc4F)c4nc(c(-c5c(F)cccc5F)c5ccc2[nH]5)C=C4)C=C3)cc1
REMARK SMILES IDX 26 1 25 2 23 3 24 4 21 6 22 7 20 8 19 9 3 10 4 11 5 12 7 13
REMARK SMILES IDX 6 14 2 15 1 16 8 17 9 18 10 19 11 20 12 21 13 22 18 23 14 24
REMARK SMILES IDX 17 25 15 26 16 27 27 28 28 29 29 30 30 31 31 33 32 34 33 35
REMARK SMILES IDX 85 36 34 37 84 38 35 39 36 40 37 41 78 42 38 43 83 44 77 45
REMARK SMILES IDX 79 46 39 47 82 48 76 49 75 50 40 52 66 53 49 54 65 55 50 56
REMARK SMILES IDX 53 57 64 58 80 59 51 60 52 61 63 63 81 64 54 65 41 66 42 67
REMARK SMILES IDX 47 68 43 69 44 70 46 71 48 72 45 73 67 74 68 75 73 76 69 77
REMARK SMILES IDX 70 78 72 79 74 80 71 81 55 82 56 83 61 84 57 85 58 86 60 87
REMARK SMILES IDX 62 88 59 89
REMARK H PARENT 25 5 29 32 79 51 53 62
REMARK Flexibility Score: inf
ROOT
ATOM      1  C   UNL A   1      34.423  23.920  25.727  1.00  0.00     0.118 C 
ENDROOT
BRANCH   1   2
ATOM      2  N   UNL A   1      33.670  23.652  26.932  1.00  0.00    -0.353 N 
ATOM      3  C   UNL A   1      32.459  23.093  27.169  1.00  0.00     0.260 C 
ATOM      4  O   UNL A   1      32.419  22.466  28.243  1.00  0.00    -0.271 OA
ATOM      5  H   UNL A   1      34.136  23.933  27.751  1.00  0.00     0.163 HD
BRANCH   3   6
ATOM      6  C   UNL A   1      31.117  23.223  26.332  1.00  0.00     0.259 C 
ATOM      7  C   UNL A   1      29.889  23.028  27.244  1.00  0.00     0.064 C 
BRANCH   6   8
ATOM      8  O   UNL A   1      30.708  23.040  24.994  1.00  0.00    -0.476 OA
BRANCH   8   9
ATOM      9  C   UNL A   1      31.607  23.041  23.974  1.00  0.00     0.169 A 
ATOM     10  C   UNL A   1      32.427  21.943  23.664  1.00  0.00     0.161 A 
ATOM     11  C   UNL A   1      33.349  22.043  22.620  1.00  0.00     0.050 A 
ATOM     12  C   UNL A   1      33.479  23.240  21.919  1.00  0.00     0.005 A 
ATOM     13  C   UNL A   1      31.592  24.183  23.133  1.00  0.00     0.022 A 
ATOM     14  C   UNL A   1      32.619  24.308  22.190  1.00  0.00     0.012 A 
BRANCH  10  15
ATOM     15  O   UNL A   1      32.194  20.733  24.257  1.00  0.00    -0.493 OA
ATOM     16  C   UNL A   1      33.295  20.143  24.943  1.00  0.00     0.278 C 
ENDBRANCH  10  15
BRANCH  13  17
ATOM     17  C   UNL A   1      30.460  25.156  23.223  1.00  0.00     0.032 C 
ATOM     18  C   UNL A   1      30.380  26.369  23.824  1.00  0.00     0.060 C 
BRANCH  18  19
ATOM     19  C   UNL A   1      29.200  27.163  23.615  1.00  0.00     0.100 C 
ATOM     20  N   UNL A   1      28.241  27.794  23.453  1.00  0.00    -0.192 NA
ENDBRANCH  18  19
BRANCH  18  21
ATOM     21  C   UNL A   1      31.419  26.935  24.711  1.00  0.00    -0.008 A 
ATOM     22  C   UNL A   1      32.521  27.594  24.141  1.00  0.00     0.010 A 
ATOM     23  C   UNL A   1      31.288  26.917  26.109  1.00  0.00     0.010 A 
ATOM     24  C   UNL A   1      33.417  28.303  24.944  1.00  0.00     0.016 A 
ATOM     25  C   UNL A   1      32.169  27.651  26.909  1.00  0.00     0.016 A 
ATOM     26  C   UNL A   1      33.219  28.352  26.322  1.00  0.00     0.018 A 
ATOM     27  Br  UNL A   1      34.363  29.402  27.397  1.00  0.00    -0.051 Br
ENDBRANCH  18  21
ENDBRANCH  13  17
ENDBRANCH   8   9
ENDBRANCH   6   8
ENDBRANCH   3   6
ENDBRANCH   1   2
BRANCH   1  28
ATOM     28  C   UNL A   1      35.594  22.986  25.506  1.00  0.00     0.042 C 
BRANCH  28  29
ATOM     29  C   UNL A   1      36.917  23.701  25.287  1.00  0.00     0.118 C 
BRANCH  29  30
ATOM     30  N   UNL A   1      38.090  22.866  25.565  1.00  0.00    -0.352 N 
ATOM     31  C   UNL A   1      39.264  23.145  26.232  1.00  0.00     0.251 C 
ATOM     32  H   UNL A   1      38.029  21.948  25.217  1.00  0.00     0.163 HD
ATOM     33  O   UNL A   1      40.178  22.324  26.222  1.00  0.00    -0.269 OA
BRANCH  31  34
ATOM     34  C   UNL A   1      39.448  24.437  26.933  1.00  0.00     0.039 A 
ATOM     35  C   UNL A   1      39.003  24.594  28.251  1.00  0.00     0.014 A 
ATOM     36  C   UNL A   1      40.075  25.500  26.291  1.00  0.00     0.014 A 
ATOM     37  C   UNL A   1      39.282  25.778  28.945  1.00  0.00     0.010 A 
ATOM     38  C   UNL A   1      40.486  26.601  27.022  1.00  0.00     0.010 A 
ATOM     39  C   UNL A   1      40.074  26.771  28.351  1.00  0.00    -0.014 A 
BRANCH  39  40
ATOM     40  C   UNL A   1      40.449  28.039  29.030  1.00  0.00     0.031 A 
ATOM     41  C   UNL A   1      41.791  28.123  29.716  1.00  0.00     0.074 A 
ATOM     42  C   UNL A   1      39.562  29.046  29.152  1.00  0.00     0.049 A 
ATOM     43  N   UNL A   1      42.233  29.007  30.573  1.00  0.00    -0.248 NA
ATOM     44  C   UNL A   1      42.743  27.029  29.446  1.00  0.00     0.031 C 
ATOM     45  C   UNL A   1      38.219  29.077  28.570  1.00  0.00     0.029 A 
ATOM     46  N   UNL A   1      39.650  30.234  29.837  1.00  0.00    -0.354 N 
ATOM     47  C   UNL A   1      43.480  28.546  30.976  1.00  0.00     0.074 A 
ATOM     48  C   UNL A   1      43.700  27.276  30.325  1.00  0.00     0.031 C 
ATOM     49  C   UNL A   1      37.619  30.229  28.909  1.00  0.00     0.029 A 
ATOM     50  C   UNL A   1      38.505  30.993  29.779  1.00  0.00     0.049 A 
ATOM     51  H   UNL A   1      40.459  30.515  30.324  1.00  0.00     0.167 HD
ATOM     52  C   UNL A   1      44.375  29.142  31.797  1.00  0.00     0.037 A 
ATOM     53  C   UNL A   1      38.196  32.159  30.378  1.00  0.00     0.037 A 
ATOM     54  C   UNL A   1      44.178  30.437  32.386  1.00  0.00     0.049 A 
ATOM     55  C   UNL A   1      39.217  32.809  31.275  1.00  0.00     0.074 A 
ATOM     56  C   UNL A   1      45.055  31.170  33.164  1.00  0.00     0.029 A 
ATOM     57  N   UNL A   1      43.026  31.196  32.250  1.00  0.00    -0.354 N 
ATOM     58  N   UNL A   1      40.413  32.387  31.608  1.00  0.00    -0.248 NA
ATOM     59  C   UNL A   1      38.848  34.098  31.879  1.00  0.00     0.031 C 
ATOM     60  C   UNL A   1      44.414  32.351  33.543  1.00  0.00     0.029 A 
ATOM     61  C   UNL A   1      43.165  32.384  32.944  1.00  0.00     0.049 A 
ATOM     62  H   UNL A   1      42.230  30.929  31.736  1.00  0.00     0.167 HD
ATOM     63  C   UNL A   1      40.956  33.380  32.413  1.00  0.00     0.074 A 
ATOM     64  C   UNL A   1      39.959  34.422  32.523  1.00  0.00     0.031 C 
ATOM     65  C   UNL A   1      42.174  33.426  33.006  1.00  0.00     0.037 A 
BRANCH  52  66
ATOM     66  C   UNL A   1      45.656  28.415  32.093  1.00  0.00     0.057 A 
ATOM     67  C   UNL A   1      46.809  28.595  31.318  1.00  0.00     0.134 A 
ATOM     68  C   UNL A   1      45.752  27.568  33.205  1.00  0.00     0.134 A 
ATOM     69  F   UNL A   1      46.783  29.381  30.232  1.00  0.00    -0.206 F 
ATOM     70  C   UNL A   1      48.006  27.946  31.628  1.00  0.00     0.040 A 
ATOM     71  C   UNL A   1      46.950  26.939  33.543  1.00  0.00     0.040 A 
ATOM     72  F   UNL A   1      44.686  27.353  33.992  1.00  0.00    -0.206 F 
ATOM     73  C   UNL A   1      48.081  27.124  32.750  1.00  0.00     0.006 A 
ENDBRANCH  52  66
BRANCH  53  74
ATOM     74  C   UNL A   1      36.871  32.798  30.158  1.00  0.00     0.057 A 
ATOM     75  C   UNL A   1      35.801  32.563  31.029  1.00  0.00     0.134 A 
ATOM     76  C   UNL A   1      36.629  33.626  29.054  1.00  0.00     0.134 A 
ATOM     77  F   UNL A   1      35.961  31.764  32.095  1.00  0.00    -0.206 F 
ATOM     78  C   UNL A   1      34.532  33.095  30.793  1.00  0.00     0.040 A 
ATOM     79  C   UNL A   1      35.374  34.191  28.823  1.00  0.00     0.040 A 
ATOM     80  F   UNL A   1      37.615  33.904  28.187  1.00  0.00    -0.206 F 
ATOM     81  C   UNL A   1      34.317  33.916  29.688  1.00  0.00     0.006 A 
ENDBRANCH  53  74
BRANCH  65  82
ATOM     82  C   UNL A   1      42.540  34.673  33.753  1.00  0.00     0.057 A 
ATOM     83  C   UNL A   1      43.073  35.797  33.113  1.00  0.00     0.134 A 
ATOM     84  C   UNL A   1      42.268  34.773  35.124  1.00  0.00     0.134 A 
ATOM     85  F   UNL A   1      43.364  35.761  31.804  1.00  0.00    -0.206 F 
ATOM     86  C   UNL A   1      43.334  36.975  33.814  1.00  0.00     0.040 A 
ATOM     87  C   UNL A   1      42.496  35.953  35.829  1.00  0.00     0.040 A 
ATOM     88  F   UNL A   1      41.746  33.733  35.793  1.00  0.00    -0.206 F 
ATOM     89  C   UNL A   1      43.035  37.059  35.174  1.00  0.00     0.006 A 
ENDBRANCH  65  82
ENDBRANCH  39  40
ENDBRANCH  31  34
ENDBRANCH  29  30
ENDBRANCH  28  29
ENDBRANCH   1  28
TORSDOF 16
ENDMDL
