MODEL 1
REMARK VINA RESULT:     -10.2      0.000      0.000
REMARK SMILES CS(=O)(=O)CC(=O)N1CCO[C@@H](CC(=O)NCCCNC(=O)c2ccc(-c3c4nc(c(-c5c(F)cccc5F)c5ccc([nH]5)c(-c5c(F)cccc5F)c5nc(c(-c6c(F)cccc6F)c6ccc3[nH]6)C=C5)C=C4)cc2)C1
REMARK SMILES IDX 17 1 16 2 14 3 15 4 13 6 12 7 8 8 9 9 77 10 10 11 11 12 6 13
REMARK SMILES IDX 7 14 5 15 2 16 1 17 3 18 4 19 18 20 19 21 20 22 21 23 22 25
REMARK SMILES IDX 23 26 24 27 76 28 25 29 75 30 26 31 27 32 28 33 69 34 29 35
REMARK SMILES IDX 74 36 68 37 70 38 30 39 73 40 67 41 66 42 31 44 57 45 40 46
REMARK SMILES IDX 56 47 41 48 44 49 55 50 71 51 42 52 43 53 54 55 72 56 45 57
REMARK SMILES IDX 32 58 33 59 38 60 34 61 35 62 37 63 39 64 36 65 58 66 59 67
REMARK SMILES IDX 64 68 60 69 61 70 63 71 65 72 62 73 46 74 47 75 52 76 48 77
REMARK SMILES IDX 49 78 51 79 53 80 50 81
REMARK H PARENT 16 5 20 24 70 43 44 54
REMARK Flexibility Score: inf
ROOT
ATOM      1  C   UNL A   1      31.754  30.772  26.877  1.00  0.00     0.117 C 
ENDROOT
BRANCH   1   2
ATOM      2  N   UNL A   1      33.110  30.426  27.287  1.00  0.00    -0.356 N 
ATOM      3  C   UNL A   1      33.750  29.224  27.365  1.00  0.00     0.222 C 
ATOM      4  O   UNL A   1      34.894  29.205  27.822  1.00  0.00    -0.275 OA
ATOM      5  H   UNL A   1      33.661  31.196  27.555  1.00  0.00     0.163 HD
BRANCH   3   6
ATOM      6  C   UNL A   1      33.067  27.945  26.943  1.00  0.00     0.133 C 
BRANCH   6   7
ATOM      7  C   UNL A   1      33.246  27.646  25.453  1.00  0.00     0.147 C 
ATOM      8  N   UNL A   1      31.969  27.569  23.296  1.00  0.00    -0.337 N 
ATOM      9  C   UNL A   1      32.804  28.664  22.813  1.00  0.00     0.148 C 
ATOM     10  C   UNL A   1      31.883  27.552  24.747  1.00  0.00     0.152 C 
ATOM     11  C   UNL A   1      34.175  28.612  23.478  1.00  0.00     0.182 C 
ATOM     12  O   UNL A   1      34.035  28.725  24.903  1.00  0.00    -0.374 OA
BRANCH   8  13
ATOM     13  C   UNL A   1      30.812  27.251  22.598  1.00  0.00     0.237 C 
ATOM     14  O   UNL A   1      30.839  26.731  21.483  1.00  0.00    -0.274 OA
BRANCH  13  15
ATOM     15  C   UNL A   1      29.532  27.734  23.205  1.00  0.00     0.236 C 
BRANCH  15  16
ATOM     16  S   UNL A   1      29.026  29.304  22.581  1.00  0.00     0.156 S 
ATOM     17  C   UNL A   1      29.591  30.516  23.755  1.00  0.00     0.158 C 
ATOM     18  O   UNL A   1      27.579  29.332  22.594  1.00  0.00    -0.229 OA
ATOM     19  O   UNL A   1      29.732  29.544  21.330  1.00  0.00    -0.229 OA
ENDBRANCH  15  16
ENDBRANCH  13  15
ENDBRANCH   8  13
ENDBRANCH   6   7
ENDBRANCH   3   6
ENDBRANCH   1   2
BRANCH   1  20
ATOM     20  C   UNL A   1      31.507  32.282  26.907  1.00  0.00     0.042 C 
BRANCH  20  21
ATOM     21  C   UNL A   1      32.770  33.132  26.898  1.00  0.00     0.118 C 
BRANCH  21  22
ATOM     22  N   UNL A   1      32.611  34.340  27.686  1.00  0.00    -0.352 N 
ATOM     23  C   UNL A   1      33.184  34.701  28.881  1.00  0.00     0.251 C 
ATOM     24  H   UNL A   1      31.995  35.007  27.303  1.00  0.00     0.163 HD
ATOM     25  O   UNL A   1      32.712  35.655  29.497  1.00  0.00    -0.269 OA
BRANCH  23  26
ATOM     26  C   UNL A   1      34.347  33.972  29.450  1.00  0.00     0.039 A 
ATOM     27  C   UNL A   1      35.632  34.366  29.061  1.00  0.00     0.014 A 
ATOM     28  C   UNL A   1      34.201  32.860  30.284  1.00  0.00     0.014 A 
ATOM     29  C   UNL A   1      36.755  33.676  29.530  1.00  0.00     0.010 A 
ATOM     30  C   UNL A   1      35.324  32.223  30.819  1.00  0.00     0.010 A 
ATOM     31  C   UNL A   1      36.615  32.610  30.431  1.00  0.00    -0.014 A 
BRANCH  31  32
ATOM     32  C   UNL A   1      37.807  31.881  30.947  1.00  0.00     0.031 A 
ATOM     33  C   UNL A   1      38.364  32.193  32.313  1.00  0.00     0.074 A 
ATOM     34  C   UNL A   1      38.412  30.955  30.178  1.00  0.00     0.049 A 
ATOM     35  N   UNL A   1      39.407  31.683  32.918  1.00  0.00    -0.248 NA
ATOM     36  C   UNL A   1      37.670  33.231  33.093  1.00  0.00     0.031 C 
ATOM     37  C   UNL A   1      38.005  30.584  28.821  1.00  0.00     0.029 A 
ATOM     38  N   UNL A   1      39.502  30.157  30.427  1.00  0.00    -0.354 N 
ATOM     39  C   UNL A   1      39.503  32.345  34.137  1.00  0.00     0.074 A 
ATOM     40  C   UNL A   1      38.443  33.328  34.165  1.00  0.00     0.031 C 
ATOM     41  C   UNL A   1      38.816  29.615  28.368  1.00  0.00     0.029 A 
ATOM     42  C   UNL A   1      39.822  29.320  29.385  1.00  0.00     0.049 A 
ATOM     43  H   UNL A   1      40.007  30.183  31.271  1.00  0.00     0.167 HD
ATOM     44  C   UNL A   1      40.377  32.137  35.152  1.00  0.00     0.037 A 
ATOM     45  C   UNL A   1      40.815  28.419  29.258  1.00  0.00     0.037 A 
ATOM     46  C   UNL A   1      41.414  31.139  35.142  1.00  0.00     0.049 A 
ATOM     47  C   UNL A   1      41.773  28.209  30.398  1.00  0.00     0.074 A 
ATOM     48  C   UNL A   1      42.308  30.813  36.147  1.00  0.00     0.029 A 
ATOM     49  N   UNL A   1      41.698  30.306  34.070  1.00  0.00    -0.354 N 
ATOM     50  N   UNL A   1      41.806  28.796  31.570  1.00  0.00    -0.248 NA
ATOM     51  C   UNL A   1      42.830  27.206  30.199  1.00  0.00     0.031 C 
ATOM     52  C   UNL A   1      43.160  29.813  35.669  1.00  0.00     0.029 A 
ATOM     53  C   UNL A   1      42.767  29.482  34.383  1.00  0.00     0.049 A 
ATOM     54  H   UNL A   1      41.212  30.300  33.214  1.00  0.00     0.167 HD
ATOM     55  C   UNL A   1      42.867  28.218  32.255  1.00  0.00     0.074 A 
ATOM     56  C   UNL A   1      43.441  27.221  31.375  1.00  0.00     0.031 C 
ATOM     57  C   UNL A   1      43.326  28.490  33.502  1.00  0.00     0.037 A 
BRANCH  44  58
ATOM     58  C   UNL A   1      40.247  33.007  36.370  1.00  0.00     0.057 A 
ATOM     59  C   UNL A   1      41.024  34.162  36.541  1.00  0.00     0.134 A 
ATOM     60  C   UNL A   1      39.301  32.713  37.361  1.00  0.00     0.134 A 
ATOM     61  F   UNL A   1      41.954  34.494  35.634  1.00  0.00    -0.206 F 
ATOM     62  C   UNL A   1      40.882  34.978  37.665  1.00  0.00     0.040 A 
ATOM     63  C   UNL A   1      39.132  33.537  38.476  1.00  0.00     0.040 A 
ATOM     64  F   UNL A   1      38.518  31.629  37.257  1.00  0.00    -0.206 F 
ATOM     65  C   UNL A   1      39.929  34.670  38.633  1.00  0.00     0.006 A 
ENDBRANCH  44  58
BRANCH  45  66
ATOM     66  C   UNL A   1      40.947  27.628  28.008  1.00  0.00     0.057 A 
ATOM     67  C   UNL A   1      40.325  26.382  27.870  1.00  0.00     0.134 A 
ATOM     68  C   UNL A   1      41.710  28.091  26.929  1.00  0.00     0.134 A 
ATOM     69  F   UNL A   1      39.597  25.876  28.878  1.00  0.00    -0.206 F 
ATOM     70  C   UNL A   1      40.472  25.615  26.714  1.00  0.00     0.040 A 
ATOM     71  C   UNL A   1      41.845  27.346  25.757  1.00  0.00     0.040 A 
ATOM     72  F   UNL A   1      42.323  29.282  26.996  1.00  0.00    -0.206 F 
ATOM     73  C   UNL A   1      41.232  26.099  25.651  1.00  0.00     0.006 A 
ENDBRANCH  45  66
BRANCH  57  74
ATOM     74  C   UNL A   1      44.485  27.677  34.000  1.00  0.00     0.057 A 
ATOM     75  C   UNL A   1      45.809  28.112  33.858  1.00  0.00     0.134 A 
ATOM     76  C   UNL A   1      44.272  26.458  34.655  1.00  0.00     0.134 A 
ATOM     77  F   UNL A   1      46.082  29.265  33.228  1.00  0.00    -0.206 F 
ATOM     78  C   UNL A   1      46.880  27.352  34.329  1.00  0.00     0.040 A 
ATOM     79  C   UNL A   1      45.335  25.701  35.154  1.00  0.00     0.040 A 
ATOM     80  F   UNL A   1      43.029  25.987  34.832  1.00  0.00    -0.206 F 
ATOM     81  C   UNL A   1      46.643  26.146  34.986  1.00  0.00     0.006 A 
ENDBRANCH  57  74
ENDBRANCH  31  32
ENDBRANCH  23  26
ENDBRANCH  21  22
ENDBRANCH  20  21
ENDBRANCH   1  20
TORSDOF 14
ENDMDL
MODEL 2
REMARK VINA RESULT:     -10.1      4.233      7.961
REMARK SMILES CS(=O)(=O)CC(=O)N1CCO[C@@H](CC(=O)NCCCNC(=O)c2ccc(-c3c4nc(c(-c5c(F)cccc5F)c5ccc([nH]5)c(-c5c(F)cccc5F)c5nc(c(-c6c(F)cccc6F)c6ccc3[nH]6)C=C5)C=C4)cc2)C1
REMARK SMILES IDX 17 1 16 2 14 3 15 4 13 6 12 7 8 8 9 9 77 10 10 11 11 12 6 13
REMARK SMILES IDX 7 14 5 15 2 16 1 17 3 18 4 19 18 20 19 21 20 22 21 23 22 25
REMARK SMILES IDX 23 26 24 27 76 28 25 29 75 30 26 31 27 32 28 33 69 34 29 35
REMARK SMILES IDX 74 36 68 37 70 38 30 39 73 40 67 41 66 42 31 44 57 45 40 46
REMARK SMILES IDX 56 47 41 48 44 49 55 50 71 51 42 52 43 53 54 55 72 56 45 57
REMARK SMILES IDX 32 58 33 59 38 60 34 61 35 62 37 63 39 64 36 65 58 66 59 67
REMARK SMILES IDX 64 68 60 69 61 70 63 71 65 72 62 73 46 74 47 75 52 76 48 77
REMARK SMILES IDX 49 78 51 79 53 80 50 81
REMARK H PARENT 16 5 20 24 70 43 44 54
REMARK Flexibility Score: inf
ROOT
ATOM      1  C   UNL A   1      36.108  33.367  31.365  1.00  0.00     0.117 C 
ENDROOT
BRANCH   1   2
ATOM      2  N   UNL A   1      35.724  34.699  31.820  1.00  0.00    -0.356 N 
ATOM      3  C   UNL A   1      35.285  35.147  33.030  1.00  0.00     0.222 C 
ATOM      4  O   UNL A   1      34.954  36.331  33.125  1.00  0.00    -0.275 OA
ATOM      5  H   UNL A   1      35.794  35.398  31.130  1.00  0.00     0.163 HD
BRANCH   3   6
ATOM      6  C   UNL A   1      35.167  34.217  34.214  1.00  0.00     0.133 C 
BRANCH   6   7
ATOM      7  C   UNL A   1      36.502  34.004  34.931  1.00  0.00     0.147 C 
ATOM      8  N   UNL A   1      38.269  32.269  35.323  1.00  0.00    -0.337 N 
ATOM      9  C   UNL A   1      39.204  33.118  34.590  1.00  0.00     0.148 C 
ATOM     10  C   UNL A   1      36.891  32.517  34.933  1.00  0.00     0.152 C 
ATOM     11  C   UNL A   1      38.810  34.583  34.739  1.00  0.00     0.182 C 
ATOM     12  O   UNL A   1      37.486  34.791  34.222  1.00  0.00    -0.374 OA
BRANCH   8  13
ATOM     13  C   UNL A   1      38.620  30.950  35.574  1.00  0.00     0.237 C 
ATOM     14  O   UNL A   1      38.228  30.344  36.573  1.00  0.00    -0.274 OA
BRANCH  13  15
ATOM     15  C   UNL A   1      39.638  30.359  34.651  1.00  0.00     0.236 C 
BRANCH  15  16
ATOM     16  S   UNL A   1      38.919  29.638  33.209  1.00  0.00     0.156 S 
ATOM     17  C   UNL A   1      40.135  28.521  32.549  1.00  0.00     0.158 C 
ATOM     18  O   UNL A   1      38.733  30.697  32.240  1.00  0.00    -0.229 OA
ATOM     19  O   UNL A   1      37.773  28.842  33.623  1.00  0.00    -0.229 OA
ENDBRANCH  15  16
ENDBRANCH  13  15
ENDBRANCH   8  13
ENDBRANCH   6   7
ENDBRANCH   3   6
ENDBRANCH   1   2
BRANCH   1  20
ATOM     20  C   UNL A   1      34.938  32.613  30.728  1.00  0.00     0.042 C 
BRANCH  20  21
ATOM     21  C   UNL A   1      34.934  32.619  29.206  1.00  0.00     0.118 C 
BRANCH  21  22
ATOM     22  N   UNL A   1      34.219  31.477  28.666  1.00  0.00    -0.352 N 
ATOM     23  C   UNL A   1      34.697  30.314  28.112  1.00  0.00     0.251 C 
ATOM     24  H   UNL A   1      33.237  31.547  28.703  1.00  0.00     0.163 HD
ATOM     25  O   UNL A   1      33.919  29.597  27.486  1.00  0.00    -0.269 OA
BRANCH  23  26
ATOM     26  C   UNL A   1      36.119  29.904  28.243  1.00  0.00     0.039 A 
ATOM     27  C   UNL A   1      36.534  29.324  29.447  1.00  0.00     0.014 A 
ATOM     28  C   UNL A   1      37.067  30.155  27.248  1.00  0.00     0.014 A 
ATOM     29  C   UNL A   1      37.874  28.970  29.636  1.00  0.00     0.010 A 
ATOM     30  C   UNL A   1      38.388  29.725  27.403  1.00  0.00     0.010 A 
ATOM     31  C   UNL A   1      38.813  29.146  28.608  1.00  0.00    -0.014 A 
BRANCH  31  32
ATOM     32  C   UNL A   1      40.238  28.757  28.795  1.00  0.00     0.031 A 
ATOM     33  C   UNL A   1      41.226  29.730  29.389  1.00  0.00     0.074 A 
ATOM     34  C   UNL A   1      40.658  27.537  28.405  1.00  0.00     0.049 A 
ATOM     35  N   UNL A   1      42.509  29.579  29.603  1.00  0.00    -0.248 NA
ATOM     36  C   UNL A   1      40.708  31.053  29.773  1.00  0.00     0.031 C 
ATOM     37  C   UNL A   1      39.819  26.515  27.777  1.00  0.00     0.029 A 
ATOM     38  N   UNL A   1      41.897  26.951  28.477  1.00  0.00    -0.354 N 
ATOM     39  C   UNL A   1      42.952  30.787  30.130  1.00  0.00     0.074 A 
ATOM     40  C   UNL A   1      41.812  31.677  30.156  1.00  0.00     0.031 C 
ATOM     41  C   UNL A   1      40.560  25.420  27.546  1.00  0.00     0.029 A 
ATOM     42  C   UNL A   1      41.933  25.672  27.975  1.00  0.00     0.049 A 
ATOM     43  H   UNL A   1      42.686  27.405  28.852  1.00  0.00     0.167 HD
ATOM     44  C   UNL A   1      44.189  31.119  30.574  1.00  0.00     0.037 A 
ATOM     45  C   UNL A   1      42.955  24.802  27.866  1.00  0.00     0.037 A 
ATOM     46  C   UNL A   1      45.319  30.227  30.579  1.00  0.00     0.049 A 
ATOM     47  C   UNL A   1      44.318  25.196  28.365  1.00  0.00     0.074 A 
ATOM     48  C   UNL A   1      46.595  30.453  31.066  1.00  0.00     0.029 A 
ATOM     49  N   UNL A   1      45.309  28.937  30.070  1.00  0.00    -0.354 N 
ATOM     50  N   UNL A   1      44.702  26.318  28.923  1.00  0.00    -0.248 NA
ATOM     51  C   UNL A   1      45.389  24.198  28.224  1.00  0.00     0.031 C 
ATOM     52  C   UNL A   1      47.369  29.316  30.813  1.00  0.00     0.029 A 
ATOM     53  C   UNL A   1      46.563  28.364  30.211  1.00  0.00     0.049 A 
ATOM     54  H   UNL A   1      44.527  28.494  29.667  1.00  0.00     0.167 HD
ATOM     55  C   UNL A   1      46.049  26.152  29.221  1.00  0.00     0.074 A 
ATOM     56  C   UNL A   1      46.410  24.815  28.800  1.00  0.00     0.031 C 
ATOM     57  C   UNL A   1      46.909  27.031  29.793  1.00  0.00     0.037 A 
BRANCH  44  58
ATOM     58  C   UNL A   1      44.387  32.511  31.103  1.00  0.00     0.057 A 
ATOM     59  C   UNL A   1      44.198  32.822  32.457  1.00  0.00     0.134 A 
ATOM     60  C   UNL A   1      44.815  33.543  30.258  1.00  0.00     0.134 A 
ATOM     61  F   UNL A   1      43.778  31.882  33.317  1.00  0.00    -0.206 F 
ATOM     62  C   UNL A   1      44.404  34.113  32.946  1.00  0.00     0.040 A 
ATOM     63  C   UNL A   1      45.051  34.833  30.741  1.00  0.00     0.040 A 
ATOM     64  F   UNL A   1      45.023  33.314  28.953  1.00  0.00    -0.206 F 
ATOM     65  C   UNL A   1      44.839  35.121  32.088  1.00  0.00     0.006 A 
ENDBRANCH  44  58
BRANCH  45  66
ATOM     66  C   UNL A   1      42.728  23.459  27.275  1.00  0.00     0.057 A 
ATOM     67  C   UNL A   1      42.297  22.385  28.061  1.00  0.00     0.134 A 
ATOM     68  C   UNL A   1      42.952  23.214  25.915  1.00  0.00     0.134 A 
ATOM     69  F   UNL A   1      42.085  22.553  29.375  1.00  0.00    -0.206 F 
ATOM     70  C   UNL A   1      42.116  21.110  27.522  1.00  0.00     0.040 A 
ATOM     71  C   UNL A   1      42.750  21.950  25.356  1.00  0.00     0.040 A 
ATOM     72  F   UNL A   1      43.356  24.204  25.107  1.00  0.00    -0.206 F 
ATOM     73  C   UNL A   1      42.339  20.891  26.164  1.00  0.00     0.006 A 
ENDBRANCH  45  66
BRANCH  57  74
ATOM     74  C   UNL A   1      48.317  26.562  30.024  1.00  0.00     0.057 A 
ATOM     75  C   UNL A   1      48.687  25.881  31.190  1.00  0.00     0.134 A 
ATOM     76  C   UNL A   1      49.305  26.769  29.054  1.00  0.00     0.134 A 
ATOM     77  F   UNL A   1      47.791  25.663  32.164  1.00  0.00    -0.206 F 
ATOM     78  C   UNL A   1      49.997  25.444  31.394  1.00  0.00     0.040 A 
ATOM     79  C   UNL A   1      50.613  26.313  29.234  1.00  0.00     0.040 A 
ATOM     80  F   UNL A   1      49.015  27.407  27.910  1.00  0.00    -0.206 F 
ATOM     81  C   UNL A   1      50.962  25.655  30.410  1.00  0.00     0.006 A 
ENDBRANCH  57  74
ENDBRANCH  31  32
ENDBRANCH  23  26
ENDBRANCH  21  22
ENDBRANCH  20  21
ENDBRANCH   1  20
TORSDOF 14
ENDMDL
MODEL 3
REMARK VINA RESULT:     -10.1      1.414      2.333
REMARK SMILES CS(=O)(=O)CC(=O)N1CCO[C@@H](CC(=O)NCCCNC(=O)c2ccc(-c3c4nc(c(-c5c(F)cccc5F)c5ccc([nH]5)c(-c5c(F)cccc5F)c5nc(c(-c6c(F)cccc6F)c6ccc3[nH]6)C=C5)C=C4)cc2)C1
REMARK SMILES IDX 17 1 16 2 14 3 15 4 13 6 12 7 8 8 9 9 77 10 10 11 11 12 6 13
REMARK SMILES IDX 7 14 5 15 2 16 1 17 3 18 4 19 18 20 19 21 20 22 21 23 22 25
REMARK SMILES IDX 23 26 24 27 76 28 25 29 75 30 26 31 27 32 28 33 69 34 29 35
REMARK SMILES IDX 74 36 68 37 70 38 30 39 73 40 67 41 66 42 31 44 57 45 40 46
REMARK SMILES IDX 56 47 41 48 44 49 55 50 71 51 42 52 43 53 54 55 72 56 45 57
REMARK SMILES IDX 32 58 33 59 38 60 34 61 35 62 37 63 39 64 36 65 58 66 59 67
REMARK SMILES IDX 64 68 60 69 61 70 63 71 65 72 62 73 46 74 47 75 52 76 48 77
REMARK SMILES IDX 49 78 51 79 53 80 50 81
REMARK H PARENT 16 5 20 24 70 43 44 54
REMARK Flexibility Score: inf
ROOT
ATOM      1  C   UNL A   1      31.493  30.791  26.293  1.00  0.00     0.117 C 
ENDROOT
BRANCH   1   2
ATOM      2  N   UNL A   1      32.807  30.219  26.561  1.00  0.00    -0.356 N 
ATOM      3  C   UNL A   1      33.178  29.018  27.091  1.00  0.00     0.222 C 
ATOM      4  O   UNL A   1      34.378  28.813  27.278  1.00  0.00    -0.275 OA
ATOM      5  H   UNL A   1      33.561  30.802  26.314  1.00  0.00     0.163 HD
BRANCH   3   6
ATOM      6  C   UNL A   1      32.149  27.982  27.477  1.00  0.00     0.133 C 
BRANCH   6   7
ATOM      7  C   UNL A   1      31.649  27.174  26.278  1.00  0.00     0.147 C 
ATOM      8  N   UNL A   1      32.351  25.349  24.707  1.00  0.00    -0.337 N 
ATOM      9  C   UNL A   1      31.281  24.522  25.258  1.00  0.00     0.148 C 
ATOM     10  C   UNL A   1      32.794  26.362  25.650  1.00  0.00     0.152 C 
ATOM     11  C   UNL A   1      30.138  25.402  25.750  1.00  0.00     0.182 C 
ATOM     12  O   UNL A   1      30.610  26.297  26.770  1.00  0.00    -0.374 OA
BRANCH   8  13
ATOM     13  C   UNL A   1      33.331  24.745  23.931  1.00  0.00     0.237 C 
ATOM     14  O   UNL A   1      34.475  24.559  24.346  1.00  0.00    -0.274 OA
BRANCH  13  15
ATOM     15  C   UNL A   1      32.966  24.489  22.503  1.00  0.00     0.236 C 
BRANCH  15  16
ATOM     16  S   UNL A   1      32.937  25.959  21.528  1.00  0.00     0.156 S 
ATOM     17  C   UNL A   1      31.390  26.763  21.880  1.00  0.00     0.158 C 
ATOM     18  O   UNL A   1      32.909  25.558  20.137  1.00  0.00    -0.229 OA
ATOM     19  O   UNL A   1      34.002  26.835  21.995  1.00  0.00    -0.229 OA
ENDBRANCH  15  16
ENDBRANCH  13  15
ENDBRANCH   8  13
ENDBRANCH   6   7
ENDBRANCH   3   6
ENDBRANCH   1   2
BRANCH   1  20
ATOM     20  C   UNL A   1      31.373  32.230  26.799  1.00  0.00     0.042 C 
BRANCH  20  21
ATOM     21  C   UNL A   1      32.694  32.983  26.887  1.00  0.00     0.118 C 
BRANCH  21  22
ATOM     22  N   UNL A   1      32.558  34.223  27.629  1.00  0.00    -0.352 N 
ATOM     23  C   UNL A   1      33.147  34.622  28.804  1.00  0.00     0.251 C 
ATOM     24  H   UNL A   1      31.947  34.882  27.226  1.00  0.00     0.163 HD
ATOM     25  O   UNL A   1      32.694  35.605  29.386  1.00  0.00    -0.269 OA
BRANCH  23  26
ATOM     26  C   UNL A   1      34.305  33.899  29.390  1.00  0.00     0.039 A 
ATOM     27  C   UNL A   1      35.592  34.249  28.961  1.00  0.00     0.014 A 
ATOM     28  C   UNL A   1      34.153  32.834  30.281  1.00  0.00     0.014 A 
ATOM     29  C   UNL A   1      36.709  33.561  29.446  1.00  0.00     0.010 A 
ATOM     30  C   UNL A   1      35.274  32.203  30.829  1.00  0.00     0.010 A 
ATOM     31  C   UNL A   1      36.565  32.544  30.402  1.00  0.00    -0.014 A 
BRANCH  31  32
ATOM     32  C   UNL A   1      37.751  31.819  30.934  1.00  0.00     0.031 A 
ATOM     33  C   UNL A   1      38.302  32.151  32.299  1.00  0.00     0.074 A 
ATOM     34  C   UNL A   1      38.357  30.880  30.182  1.00  0.00     0.049 A 
ATOM     35  N   UNL A   1      39.341  31.646  32.916  1.00  0.00    -0.248 NA
ATOM     36  C   UNL A   1      37.609  33.202  33.059  1.00  0.00     0.031 C 
ATOM     37  C   UNL A   1      37.955  30.490  28.829  1.00  0.00     0.029 A 
ATOM     38  N   UNL A   1      39.443  30.082  30.449  1.00  0.00    -0.354 N 
ATOM     39  C   UNL A   1      39.433  32.326  34.125  1.00  0.00     0.074 A 
ATOM     40  C   UNL A   1      38.376  33.313  34.133  1.00  0.00     0.031 C 
ATOM     41  C   UNL A   1      38.765  29.512  28.395  1.00  0.00     0.029 A 
ATOM     42  C   UNL A   1      39.765  29.228  29.421  1.00  0.00     0.049 A 
ATOM     43  H   UNL A   1      39.944  30.119  31.295  1.00  0.00     0.167 HD
ATOM     44  C   UNL A   1      40.302  32.130  35.147  1.00  0.00     0.037 A 
ATOM     45  C   UNL A   1      40.755  28.322  29.313  1.00  0.00     0.037 A 
ATOM     46  C   UNL A   1      41.335  31.128  35.157  1.00  0.00     0.049 A 
ATOM     47  C   UNL A   1      41.707  28.126  30.460  1.00  0.00     0.074 A 
ATOM     48  C   UNL A   1      42.223  30.815  36.172  1.00  0.00     0.029 A 
ATOM     49  N   UNL A   1      41.621  30.278  34.100  1.00  0.00    -0.354 N 
ATOM     50  N   UNL A   1      41.737  28.731  31.623  1.00  0.00    -0.248 NA
ATOM     51  C   UNL A   1      42.762  27.117  30.282  1.00  0.00     0.031 C 
ATOM     52  C   UNL A   1      43.074  29.804  35.714  1.00  0.00     0.029 A 
ATOM     53  C   UNL A   1      42.686  29.455  34.431  1.00  0.00     0.049 A 
ATOM     54  H   UNL A   1      41.139  30.261  33.242  1.00  0.00     0.167 HD
ATOM     55  C   UNL A   1      42.792  28.159  32.322  1.00  0.00     0.074 A 
ATOM     56  C   UNL A   1      43.366  27.147  31.461  1.00  0.00     0.031 C 
ATOM     57  C   UNL A   1      43.246  28.448  33.567  1.00  0.00     0.037 A 
BRANCH  44  58
ATOM     58  C   UNL A   1      40.168  33.019  36.352  1.00  0.00     0.057 A 
ATOM     59  C   UNL A   1      39.309  32.702  37.413  1.00  0.00     0.134 A 
ATOM     60  C   UNL A   1      40.942  34.181  36.474  1.00  0.00     0.134 A 
ATOM     61  F   UNL A   1      38.533  31.609  37.355  1.00  0.00    -0.206 F 
ATOM     62  C   UNL A   1      39.205  33.520  38.539  1.00  0.00     0.040 A 
ATOM     63  C   UNL A   1      40.867  34.993  37.608  1.00  0.00     0.040 A 
ATOM     64  F   UNL A   1      41.792  34.539  35.500  1.00  0.00    -0.206 F 
ATOM     65  C   UNL A   1      39.991  34.666  38.641  1.00  0.00     0.006 A 
ENDBRANCH  44  58
BRANCH  45  66
ATOM     66  C   UNL A   1      40.890  27.512  28.075  1.00  0.00     0.057 A 
ATOM     67  C   UNL A   1      40.240  26.280  27.941  1.00  0.00     0.134 A 
ATOM     68  C   UNL A   1      41.685  27.941  27.006  1.00  0.00     0.134 A 
ATOM     69  F   UNL A   1      39.480  25.806  28.940  1.00  0.00    -0.206 F 
ATOM     70  C   UNL A   1      40.390  25.495  26.798  1.00  0.00     0.040 A 
ATOM     71  C   UNL A   1      41.824  27.178  25.845  1.00  0.00     0.040 A 
ATOM     72  F   UNL A   1      42.327  29.117  27.070  1.00  0.00    -0.206 F 
ATOM     73  C   UNL A   1      41.181  25.946  25.743  1.00  0.00     0.006 A 
ENDBRANCH  45  66
BRANCH  57  74
ATOM     74  C   UNL A   1      44.400  27.639  34.083  1.00  0.00     0.057 A 
ATOM     75  C   UNL A   1      44.209  26.424  34.753  1.00  0.00     0.134 A 
ATOM     76  C   UNL A   1      45.718  28.065  33.880  1.00  0.00     0.134 A 
ATOM     77  F   UNL A   1      42.972  25.965  34.992  1.00  0.00    -0.206 F 
ATOM     78  C   UNL A   1      45.289  25.675  35.224  1.00  0.00     0.040 A 
ATOM     79  C   UNL A   1      46.806  27.312  34.323  1.00  0.00     0.040 A 
ATOM     80  F   UNL A   1      45.971  29.216  33.238  1.00  0.00    -0.206 F 
ATOM     81  C   UNL A   1      46.592  26.116  35.004  1.00  0.00     0.006 A 
ENDBRANCH  57  74
ENDBRANCH  31  32
ENDBRANCH  23  26
ENDBRANCH  21  22
ENDBRANCH  20  21
ENDBRANCH   1  20
TORSDOF 14
ENDMDL
