MODEL 1
REMARK VINA RESULT:     -12.9      0.000      0.000
REMARK SMILES Cc1ccc(S(=O)(=O)n2cc(C(=O)C(=O)NCC(=O)NCC(=O)NCCCNC(=O)c3ccc(-c4c5nc(c(-c6c(F)cccc6F)c6ccc([nH]6)c(-c6c(F)cccc6F)c6nc(c(-c7c(F)cccc7F)c7ccc4[nH]7)C=C6)C=C5)cc3)c3ccccc32)cc1
REMARK SMILES IDX 22 1 23 2 24 3 21 5 20 6 18 7 19 8 17 10 16 11 14 12 15 13
REMARK SMILES IDX 12 15 13 16 11 17 9 18 10 19 90 20 85 21 89 22 86 23 88 24
REMARK SMILES IDX 87 25 6 26 7 27 8 28 5 29 1 30 2 31 3 32 92 33 4 34 91 35
REMARK SMILES IDX 25 36 26 37 27 38 28 39 29 40 30 42 31 43 32 44 84 45 33 46
REMARK SMILES IDX 83 47 34 48 35 49 36 50 77 51 37 52 82 53 76 54 78 55 38 56
REMARK SMILES IDX 81 57 75 58 74 59 39 61 65 62 48 63 64 64 49 65 52 66 63 67
REMARK SMILES IDX 79 68 50 69 51 70 62 72 80 73 53 74 40 75 41 76 46 77 42 78
REMARK SMILES IDX 43 79 45 80 47 81 44 82 66 83 67 84 72 85 68 86 69 87 71 88
REMARK SMILES IDX 73 89 70 90 54 91 55 92 60 93 56 94 57 95 59 96 61 97 58 98
REMARK H PARENT 24 4 20 9 16 14 28 41 78 60 52 71
REMARK Flexibility Score: inf
ROOT
ATOM      1  C   UNL A   1      32.895  33.235  27.669  1.00  0.00     0.239 C 
ATOM      2  O   UNL A   1      31.941  32.802  27.021  1.00  0.00    -0.273 OA
ATOM      3  N   UNL A   1      33.135  34.584  27.642  1.00  0.00    -0.355 N 
ATOM      4  H   UNL A   1      32.666  35.099  26.946  1.00  0.00     0.163 HD
ENDROOT
BRANCH   1   5
ATOM      5  C   UNL A   1      33.722  32.312  28.589  1.00  0.00     0.216 C 
BRANCH   5   6
ATOM      6  N   UNL A   1      34.536  31.359  27.846  1.00  0.00    -0.346 N 
ATOM      7  C   UNL A   1      34.309  30.087  27.428  1.00  0.00     0.239 C 
ATOM      8  O   UNL A   1      35.252  29.500  26.888  1.00  0.00    -0.273 OA
ATOM      9  H   UNL A   1      35.424  31.706  27.599  1.00  0.00     0.164 HD
BRANCH   7  10
ATOM     10  C   UNL A   1      32.952  29.382  27.585  1.00  0.00     0.216 C 
BRANCH  10  11
ATOM     11  N   UNL A   1      31.982  29.613  26.514  1.00  0.00    -0.340 N 
ATOM     12  C   UNL A   1      31.910  29.123  25.222  1.00  0.00     0.292 C 
ATOM     13  O   UNL A   1      31.048  29.564  24.469  1.00  0.00    -0.265 OA
ATOM     14  H   UNL A   1      31.251  30.226  26.756  1.00  0.00     0.164 HD
BRANCH  12  15
ATOM     15  C   UNL A   1      32.915  28.066  24.728  1.00  0.00     0.252 C 
ATOM     16  O   UNL A   1      33.704  28.413  23.853  1.00  0.00    -0.283 OA
BRANCH  15  17
ATOM     17  C   UNL A   1      32.969  26.693  25.242  1.00  0.00     0.054 A 
ATOM     18  N   UNL A   1      33.607  24.657  25.905  1.00  0.00    -0.240 N 
ATOM     19  C   UNL A   1      34.061  25.859  25.410  1.00  0.00     0.117 A 
ATOM     20  C   UNL A   1      32.240  24.670  26.078  1.00  0.00     0.065 A 
ATOM     21  C   UNL A   1      31.816  25.939  25.668  1.00  0.00     0.012 A 
ATOM     22  C   UNL A   1      31.324  23.695  26.514  1.00  0.00     0.028 A 
ATOM     23  C   UNL A   1      30.436  26.237  25.712  1.00  0.00     0.011 A 
ATOM     24  C   UNL A   1      29.963  24.014  26.517  1.00  0.00     0.002 A 
ATOM     25  C   UNL A   1      29.522  25.270  26.126  1.00  0.00     0.001 A 
BRANCH  18  26
ATOM     26  S   UNL A   1      34.600  23.293  26.160  1.00  0.00     0.268 S 
ATOM     27  O   UNL A   1      34.436  22.958  27.557  1.00  0.00    -0.201 OA
ATOM     28  O   UNL A   1      35.896  23.641  25.594  1.00  0.00    -0.201 OA
BRANCH  26  29
ATOM     29  C   UNL A   1      33.947  21.952  25.197  1.00  0.00     0.088 A 
ATOM     30  C   UNL A   1      32.158  18.618  23.147  1.00  0.00     0.044 C 
ATOM     31  C   UNL A   1      32.798  19.778  23.851  1.00  0.00    -0.051 A 
ATOM     32  C   UNL A   1      33.297  19.621  25.150  1.00  0.00     0.005 A 
ATOM     33  C   UNL A   1      32.905  21.027  23.226  1.00  0.00     0.005 A 
ATOM     34  C   UNL A   1      33.864  20.703  25.825  1.00  0.00     0.022 A 
ATOM     35  C   UNL A   1      33.490  22.110  23.888  1.00  0.00     0.022 A 
ENDBRANCH  26  29
ENDBRANCH  18  26
ENDBRANCH  15  17
ENDBRANCH  12  15
ENDBRANCH  10  11
ENDBRANCH   7  10
ENDBRANCH   5   6
ENDBRANCH   1   5
BRANCH   3  36
ATOM     36  C   UNL A   1      34.001  35.334  28.522  1.00  0.00     0.117 C 
BRANCH  36  37
ATOM     37  C   UNL A   1      33.262  36.327  29.402  1.00  0.00     0.042 C 
BRANCH  37  38
ATOM     38  C   UNL A   1      32.951  35.749  30.760  1.00  0.00     0.118 C 
BRANCH  38  39
ATOM     39  N   UNL A   1      33.944  36.058  31.782  1.00  0.00    -0.352 N 
ATOM     40  C   UNL A   1      34.848  35.234  32.428  1.00  0.00     0.251 C 
ATOM     41  H   UNL A   1      33.975  37.003  32.056  1.00  0.00     0.163 HD
ATOM     42  O   UNL A   1      35.523  35.697  33.345  1.00  0.00    -0.269 OA
BRANCH  40  43
ATOM     43  C   UNL A   1      35.170  33.881  31.890  1.00  0.00     0.039 A 
ATOM     44  C   UNL A   1      35.219  32.854  32.844  1.00  0.00     0.014 A 
ATOM     45  C   UNL A   1      35.905  33.765  30.725  1.00  0.00     0.014 A 
ATOM     46  C   UNL A   1      36.281  31.965  32.817  1.00  0.00     0.010 A 
ATOM     47  C   UNL A   1      37.078  33.074  30.809  1.00  0.00     0.010 A 
ATOM     48  C   UNL A   1      37.277  32.210  31.886  1.00  0.00    -0.014 A 
BRANCH  48  49
ATOM     49  C   UNL A   1      38.550  31.540  31.829  1.00  0.00     0.031 A 
ATOM     50  C   UNL A   1      38.580  30.312  31.023  1.00  0.00     0.074 A 
ATOM     51  C   UNL A   1      39.631  32.219  32.270  1.00  0.00     0.049 A 
ATOM     52  N   UNL A   1      39.523  29.451  31.062  1.00  0.00    -0.248 NA
ATOM     53  C   UNL A   1      37.506  29.938  30.095  1.00  0.00     0.031 C 
ATOM     54  C   UNL A   1      41.041  31.980  31.995  1.00  0.00     0.029 A 
ATOM     55  N   UNL A   1      39.645  33.216  33.256  1.00  0.00    -0.354 N 
ATOM     56  C   UNL A   1      39.364  28.623  29.974  1.00  0.00     0.074 A 
ATOM     57  C   UNL A   1      38.052  28.901  29.455  1.00  0.00     0.031 C 
ATOM     58  C   UNL A   1      41.775  32.530  32.982  1.00  0.00     0.029 A 
ATOM     59  C   UNL A   1      40.841  33.017  33.983  1.00  0.00     0.049 A 
ATOM     60  H   UNL A   1      38.964  33.910  33.410  1.00  0.00     0.167 HD
ATOM     61  C   UNL A   1      40.448  27.915  29.557  1.00  0.00     0.037 A 
ATOM     62  C   UNL A   1      40.774  32.568  35.273  1.00  0.00     0.037 A 
ATOM     63  C   UNL A   1      41.566  28.167  30.461  1.00  0.00     0.049 A 
ATOM     64  C   UNL A   1      41.355  31.176  35.410  1.00  0.00     0.074 A 
ATOM     65  C   UNL A   1      42.601  29.087  30.422  1.00  0.00     0.029 A 
ATOM     66  N   UNL A   1      41.449  27.757  31.782  1.00  0.00    -0.354 N 
ATOM     67  N   UNL A   1      41.404  30.303  34.437  1.00  0.00    -0.248 NA
ATOM     68  C   UNL A   1      42.011  30.697  36.622  1.00  0.00     0.031 C 
ATOM     69  C   UNL A   1      43.073  29.264  31.750  1.00  0.00     0.029 A 
ATOM     70  C   UNL A   1      42.330  28.449  32.587  1.00  0.00     0.049 A 
ATOM     71  H   UNL A   1      40.823  27.067  32.101  1.00  0.00     0.167 HD
ATOM     72  C   UNL A   1      42.121  29.204  34.842  1.00  0.00     0.074 A 
ATOM     73  C   UNL A   1      42.470  29.498  36.220  1.00  0.00     0.031 C 
ATOM     74  C   UNL A   1      42.405  28.154  34.009  1.00  0.00     0.037 A 
BRANCH  61  75
ATOM     75  C   UNL A   1      40.576  27.234  28.225  1.00  0.00     0.057 A 
ATOM     76  C   UNL A   1      39.979  25.975  28.015  1.00  0.00     0.134 A 
ATOM     77  C   UNL A   1      41.263  27.752  27.114  1.00  0.00     0.134 A 
ATOM     78  F   UNL A   1      39.273  25.361  28.971  1.00  0.00    -0.206 F 
ATOM     79  C   UNL A   1      40.084  25.271  26.811  1.00  0.00     0.040 A 
ATOM     80  C   UNL A   1      41.409  27.040  25.913  1.00  0.00     0.040 A 
ATOM     81  F   UNL A   1      41.785  28.985  27.124  1.00  0.00    -0.206 F 
ATOM     82  C   UNL A   1      40.814  25.795  25.757  1.00  0.00     0.006 A 
ENDBRANCH  61  75
BRANCH  62  83
ATOM     83  C   UNL A   1      39.590  33.144  35.986  1.00  0.00     0.057 A 
ATOM     84  C   UNL A   1      38.514  32.263  36.233  1.00  0.00     0.134 A 
ATOM     85  C   UNL A   1      39.709  34.242  36.841  1.00  0.00     0.134 A 
ATOM     86  F   UNL A   1      38.317  31.206  35.427  1.00  0.00    -0.206 F 
ATOM     87  C   UNL A   1      37.740  32.345  37.393  1.00  0.00     0.040 A 
ATOM     88  C   UNL A   1      38.907  34.354  37.989  1.00  0.00     0.040 A 
ATOM     89  F   UNL A   1      40.691  35.138  36.673  1.00  0.00    -0.206 F 
ATOM     90  C   UNL A   1      37.974  33.367  38.305  1.00  0.00     0.006 A 
ENDBRANCH  62  83
BRANCH  74  91
ATOM     91  C   UNL A   1      42.856  26.762  34.413  1.00  0.00     0.057 A 
ATOM     92  C   UNL A   1      44.188  26.328  34.408  1.00  0.00     0.134 A 
ATOM     93  C   UNL A   1      41.944  25.849  35.004  1.00  0.00     0.134 A 
ATOM     94  F   UNL A   1      45.188  27.113  33.994  1.00  0.00    -0.206 F 
ATOM     95  C   UNL A   1      44.573  25.072  34.897  1.00  0.00     0.040 A 
ATOM     96  C   UNL A   1      42.331  24.633  35.571  1.00  0.00     0.040 A 
ATOM     97  F   UNL A   1      40.630  26.099  35.095  1.00  0.00    -0.206 F 
ATOM     98  C   UNL A   1      43.650  24.228  35.501  1.00  0.00     0.006 A 
ENDBRANCH  74  91
ENDBRANCH  48  49
ENDBRANCH  40  43
ENDBRANCH  38  39
ENDBRANCH  37  38
ENDBRANCH  36  37
ENDBRANCH   3  36
TORSDOF 17
ENDMDL
MODEL 2
REMARK VINA RESULT:     -12.7      1.421      2.122
REMARK SMILES Cc1ccc(S(=O)(=O)n2cc(C(=O)C(=O)NCC(=O)NCC(=O)NCCCNC(=O)c3ccc(-c4c5nc(c(-c6c(F)cccc6F)c6ccc([nH]6)c(-c6c(F)cccc6F)c6nc(c(-c7c(F)cccc7F)c7ccc4[nH]7)C=C6)C=C5)cc3)c3ccccc32)cc1
REMARK SMILES IDX 22 1 23 2 24 3 21 5 20 6 18 7 19 8 17 10 16 11 14 12 15 13
REMARK SMILES IDX 12 15 13 16 11 17 9 18 10 19 90 20 85 21 89 22 86 23 88 24
REMARK SMILES IDX 87 25 6 26 7 27 8 28 5 29 1 30 2 31 3 32 92 33 4 34 91 35
REMARK SMILES IDX 25 36 26 37 27 38 28 39 29 40 30 42 31 43 32 44 84 45 33 46
REMARK SMILES IDX 83 47 34 48 35 49 36 50 77 51 37 52 82 53 76 54 78 55 38 56
REMARK SMILES IDX 81 57 75 58 74 59 39 61 65 62 48 63 64 64 49 65 52 66 63 67
REMARK SMILES IDX 79 68 50 69 51 70 62 72 80 73 53 74 40 75 41 76 46 77 42 78
REMARK SMILES IDX 43 79 45 80 47 81 44 82 66 83 67 84 72 85 68 86 69 87 71 88
REMARK SMILES IDX 73 89 70 90 54 91 55 92 60 93 56 94 57 95 59 96 61 97 58 98
REMARK H PARENT 24 4 20 9 16 14 28 41 78 60 52 71
REMARK Flexibility Score: inf
ROOT
ATOM      1  C   UNL A   1      32.573  33.043  27.475  1.00  0.00     0.239 C 
ATOM      2  O   UNL A   1      31.482  32.612  27.099  1.00  0.00    -0.273 OA
ATOM      3  N   UNL A   1      32.650  34.353  27.868  1.00  0.00    -0.355 N 
ATOM      4  H   UNL A   1      31.885  34.927  27.630  1.00  0.00     0.163 HD
ENDROOT
BRANCH   1   5
ATOM      5  C   UNL A   1      33.794  32.108  27.623  1.00  0.00     0.216 C 
BRANCH   5   6
ATOM      6  N   UNL A   1      33.416  30.722  27.861  1.00  0.00    -0.346 N 
ATOM      7  C   UNL A   1      32.891  29.762  27.056  1.00  0.00     0.239 C 
ATOM      8  O   UNL A   1      32.590  28.689  27.589  1.00  0.00    -0.273 OA
ATOM      9  H   UNL A   1      33.571  30.423  28.786  1.00  0.00     0.164 HD
BRANCH   7  10
ATOM     10  C   UNL A   1      32.682  29.957  25.546  1.00  0.00     0.216 C 
BRANCH  10  11
ATOM     11  N   UNL A   1      31.311  30.241  25.119  1.00  0.00    -0.340 N 
ATOM     12  C   UNL A   1      30.576  29.788  24.039  1.00  0.00     0.292 C 
ATOM     13  O   UNL A   1      29.468  30.272  23.833  1.00  0.00    -0.265 OA
ATOM     14  H   UNL A   1      30.827  30.867  25.705  1.00  0.00     0.164 HD
BRANCH  12  15
ATOM     15  C   UNL A   1      31.151  28.718  23.092  1.00  0.00     0.252 C 
ATOM     16  O   UNL A   1      31.438  29.077  21.954  1.00  0.00    -0.283 OA
BRANCH  15  17
ATOM     17  C   UNL A   1      31.364  27.319  23.481  1.00  0.00     0.054 A 
ATOM     18  N   UNL A   1      31.527  25.384  24.584  1.00  0.00    -0.240 N 
ATOM     19  C   UNL A   1      31.168  26.707  24.706  1.00  0.00     0.117 A 
ATOM     20  C   UNL A   1      31.952  25.095  23.305  1.00  0.00     0.065 A 
ATOM     21  C   UNL A   1      31.858  26.296  22.593  1.00  0.00     0.012 A 
ATOM     22  C   UNL A   1      32.442  23.921  22.704  1.00  0.00     0.028 A 
ATOM     23  C   UNL A   1      32.255  26.310  21.237  1.00  0.00     0.011 A 
ATOM     24  C   UNL A   1      32.855  23.978  21.370  1.00  0.00     0.002 A 
ATOM     25  C   UNL A   1      32.760  25.156  20.641  1.00  0.00     0.001 A 
BRANCH  18  26
ATOM     26  S   UNL A   1      31.551  24.276  25.882  1.00  0.00     0.268 S 
ATOM     27  O   UNL A   1      30.560  23.278  25.550  1.00  0.00    -0.201 OA
ATOM     28  O   UNL A   1      31.460  25.086  27.089  1.00  0.00    -0.201 OA
BRANCH  26  29
ATOM     29  C   UNL A   1      33.139  23.484  25.898  1.00  0.00     0.088 A 
ATOM     30  C   UNL A   1      36.889  21.386  25.637  1.00  0.00     0.044 C 
ATOM     31  C   UNL A   1      35.583  22.119  25.747  1.00  0.00    -0.051 A 
ATOM     32  C   UNL A   1      34.376  21.419  25.637  1.00  0.00     0.005 A 
ATOM     33  C   UNL A   1      35.553  23.503  25.960  1.00  0.00     0.005 A 
ATOM     34  C   UNL A   1      33.158  22.097  25.705  1.00  0.00     0.022 A 
ATOM     35  C   UNL A   1      34.336  24.185  26.049  1.00  0.00     0.022 A 
ENDBRANCH  26  29
ENDBRANCH  18  26
ENDBRANCH  15  17
ENDBRANCH  12  15
ENDBRANCH  10  11
ENDBRANCH   7  10
ENDBRANCH   5   6
ENDBRANCH   1   5
BRANCH   3  36
ATOM     36  C   UNL A   1      33.727  34.985  28.592  1.00  0.00     0.117 C 
BRANCH  36  37
ATOM     37  C   UNL A   1      33.280  36.154  29.452  1.00  0.00     0.042 C 
BRANCH  37  38
ATOM     38  C   UNL A   1      32.908  35.714  30.846  1.00  0.00     0.118 C 
BRANCH  38  39
ATOM     39  N   UNL A   1      33.908  36.031  31.858  1.00  0.00    -0.352 N 
ATOM     40  C   UNL A   1      34.821  35.212  32.499  1.00  0.00     0.251 C 
ATOM     41  H   UNL A   1      33.938  36.977  32.130  1.00  0.00     0.163 HD
ATOM     42  O   UNL A   1      35.502  35.680  33.409  1.00  0.00    -0.269 OA
BRANCH  40  43
ATOM     43  C   UNL A   1      35.144  33.858  31.962  1.00  0.00     0.039 A 
ATOM     44  C   UNL A   1      35.207  32.834  32.919  1.00  0.00     0.014 A 
ATOM     45  C   UNL A   1      35.867  33.742  30.790  1.00  0.00     0.014 A 
ATOM     46  C   UNL A   1      36.273  31.951  32.883  1.00  0.00     0.010 A 
ATOM     47  C   UNL A   1      37.044  33.056  30.864  1.00  0.00     0.010 A 
ATOM     48  C   UNL A   1      37.258  32.197  31.942  1.00  0.00    -0.014 A 
BRANCH  48  49
ATOM     49  C   UNL A   1      38.534  31.532  31.874  1.00  0.00     0.031 A 
ATOM     50  C   UNL A   1      38.562  30.305  31.066  1.00  0.00     0.074 A 
ATOM     51  C   UNL A   1      39.615  32.216  32.306  1.00  0.00     0.049 A 
ATOM     52  N   UNL A   1      39.509  29.448  31.097  1.00  0.00    -0.248 NA
ATOM     53  C   UNL A   1      37.483  29.927  30.147  1.00  0.00     0.031 C 
ATOM     54  C   UNL A   1      41.024  31.983  32.020  1.00  0.00     0.029 A 
ATOM     55  N   UNL A   1      39.633  33.212  33.293  1.00  0.00    -0.354 N 
ATOM     56  C   UNL A   1      39.345  28.620  30.010  1.00  0.00     0.074 A 
ATOM     57  C   UNL A   1      38.028  28.893  29.501  1.00  0.00     0.031 C 
ATOM     58  C   UNL A   1      41.763  32.536  33.001  1.00  0.00     0.029 A 
ATOM     59  C   UNL A   1      40.835  33.018  34.010  1.00  0.00     0.049 A 
ATOM     60  H   UNL A   1      38.950  33.903  33.453  1.00  0.00     0.167 HD
ATOM     61  C   UNL A   1      40.429  27.918  29.583  1.00  0.00     0.037 A 
ATOM     62  C   UNL A   1      40.781  32.567  35.300  1.00  0.00     0.037 A 
ATOM     63  C   UNL A   1      41.552  28.174  30.479  1.00  0.00     0.049 A 
ATOM     64  C   UNL A   1      41.369  31.178  35.432  1.00  0.00     0.074 A 
ATOM     65  C   UNL A   1      42.584  29.098  30.432  1.00  0.00     0.029 A 
ATOM     66  N   UNL A   1      41.448  27.762  31.800  1.00  0.00    -0.354 N 
ATOM     67  N   UNL A   1      41.414  30.306  34.458  1.00  0.00    -0.248 NA
ATOM     68  C   UNL A   1      42.036  30.701  36.638  1.00  0.00     0.031 C 
ATOM     69  C   UNL A   1      43.066  29.277  31.756  1.00  0.00     0.029 A 
ATOM     70  C   UNL A   1      42.333  28.457  32.599  1.00  0.00     0.049 A 
ATOM     71  H   UNL A   1      40.828  27.069  32.124  1.00  0.00     0.167 HD
ATOM     72  C   UNL A   1      42.139  29.209  34.855  1.00  0.00     0.074 A 
ATOM     73  C   UNL A   1      42.498  29.504  36.231  1.00  0.00     0.031 C 
ATOM     74  C   UNL A   1      42.420  28.162  34.019  1.00  0.00     0.037 A 
BRANCH  61  75
ATOM     75  C   UNL A   1      40.549  27.238  28.250  1.00  0.00     0.057 A 
ATOM     76  C   UNL A   1      39.928  25.991  28.034  1.00  0.00     0.134 A 
ATOM     77  C   UNL A   1      41.250  27.745  27.144  1.00  0.00     0.134 A 
ATOM     78  F   UNL A   1      39.206  25.388  28.986  1.00  0.00    -0.206 F 
ATOM     79  C   UNL A   1      40.024  25.289  26.828  1.00  0.00     0.040 A 
ATOM     80  C   UNL A   1      41.387  27.034  25.941  1.00  0.00     0.040 A 
ATOM     81  F   UNL A   1      41.796  28.968  27.159  1.00  0.00    -0.206 F 
ATOM     82  C   UNL A   1      40.768  25.802  25.779  1.00  0.00     0.006 A 
ENDBRANCH  61  75
BRANCH  62  83
ATOM     83  C   UNL A   1      39.600  33.137  36.024  1.00  0.00     0.057 A 
ATOM     84  C   UNL A   1      38.546  32.244  36.310  1.00  0.00     0.134 A 
ATOM     85  C   UNL A   1      39.715  34.256  36.852  1.00  0.00     0.134 A 
ATOM     86  F   UNL A   1      38.352  31.165  35.532  1.00  0.00    -0.206 F 
ATOM     87  C   UNL A   1      37.792  32.337  37.483  1.00  0.00     0.040 A 
ATOM     88  C   UNL A   1      38.933  34.380  38.012  1.00  0.00     0.040 A 
ATOM     89  F   UNL A   1      40.677  35.166  36.645  1.00  0.00    -0.206 F 
ATOM     90  C   UNL A   1      38.024  33.383  38.368  1.00  0.00     0.006 A 
ENDBRANCH  62  83
BRANCH  74  91
ATOM     91  C   UNL A   1      42.881  26.771  34.418  1.00  0.00     0.057 A 
ATOM     92  C   UNL A   1      42.103  25.853  35.135  1.00  0.00     0.134 A 
ATOM     93  C   UNL A   1      44.101  26.242  33.919  1.00  0.00     0.134 A 
ATOM     94  F   UNL A   1      40.877  26.154  35.575  1.00  0.00    -0.206 F 
ATOM     95  C   UNL A   1      42.525  24.540  35.384  1.00  0.00     0.040 A 
ATOM     96  C   UNL A   1      44.489  24.911  34.088  1.00  0.00     0.040 A 
ATOM     97  F   UNL A   1      44.970  26.977  33.210  1.00  0.00    -0.206 F 
ATOM     98  C   UNL A   1      43.709  24.057  34.843  1.00  0.00     0.006 A 
ENDBRANCH  74  91
ENDBRANCH  48  49
ENDBRANCH  40  43
ENDBRANCH  38  39
ENDBRANCH  37  38
ENDBRANCH  36  37
ENDBRANCH   3  36
TORSDOF 17
ENDMDL
MODEL 3
REMARK VINA RESULT:     -12.6      1.756      2.484
REMARK SMILES Cc1ccc(S(=O)(=O)n2cc(C(=O)C(=O)NCC(=O)NCC(=O)NCCCNC(=O)c3ccc(-c4c5nc(c(-c6c(F)cccc6F)c6ccc([nH]6)c(-c6c(F)cccc6F)c6nc(c(-c7c(F)cccc7F)c7ccc4[nH]7)C=C6)C=C5)cc3)c3ccccc32)cc1
REMARK SMILES IDX 22 1 23 2 24 3 21 5 20 6 18 7 19 8 17 10 16 11 14 12 15 13
REMARK SMILES IDX 12 15 13 16 11 17 9 18 10 19 90 20 85 21 89 22 86 23 88 24
REMARK SMILES IDX 87 25 6 26 7 27 8 28 5 29 1 30 2 31 3 32 92 33 4 34 91 35
REMARK SMILES IDX 25 36 26 37 27 38 28 39 29 40 30 42 31 43 32 44 84 45 33 46
REMARK SMILES IDX 83 47 34 48 35 49 36 50 77 51 37 52 82 53 76 54 78 55 38 56
REMARK SMILES IDX 81 57 75 58 74 59 39 61 65 62 48 63 64 64 49 65 52 66 63 67
REMARK SMILES IDX 79 68 50 69 51 70 62 72 80 73 53 74 40 75 41 76 46 77 42 78
REMARK SMILES IDX 43 79 45 80 47 81 44 82 66 83 67 84 72 85 68 86 69 87 71 88
REMARK SMILES IDX 73 89 70 90 54 91 55 92 60 93 56 94 57 95 59 96 61 97 58 98
REMARK H PARENT 24 4 20 9 16 14 28 41 78 60 52 71
REMARK Flexibility Score: inf
ROOT
ATOM      1  C   UNL A   1      34.264  34.725  28.175  1.00  0.00     0.239 C 
ATOM      2  O   UNL A   1      34.880  34.956  27.133  1.00  0.00    -0.273 OA
ATOM      3  N   UNL A   1      33.909  35.787  28.964  1.00  0.00    -0.355 N 
ATOM      4  H   UNL A   1      34.344  36.648  28.764  1.00  0.00     0.163 HD
ENDROOT
BRANCH   1   5
ATOM      5  C   UNL A   1      33.792  33.297  28.525  1.00  0.00     0.216 C 
BRANCH   5   6
ATOM      6  N   UNL A   1      34.803  32.286  28.251  1.00  0.00    -0.346 N 
ATOM      7  C   UNL A   1      34.750  31.079  27.629  1.00  0.00     0.239 C 
ATOM      8  O   UNL A   1      35.783  30.402  27.637  1.00  0.00    -0.273 OA
ATOM      9  H   UNL A   1      35.700  32.524  28.582  1.00  0.00     0.164 HD
BRANCH   7  10
ATOM     10  C   UNL A   1      33.491  30.555  26.922  1.00  0.00     0.216 C 
BRANCH  10  11
ATOM     11  N   UNL A   1      32.643  29.656  27.705  1.00  0.00    -0.340 N 
ATOM     12  C   UNL A   1      31.739  28.683  27.319  1.00  0.00     0.292 C 
ATOM     13  O   UNL A   1      31.056  28.136  28.179  1.00  0.00    -0.265 OA
ATOM     14  H   UNL A   1      32.732  29.762  28.679  1.00  0.00     0.164 HD
BRANCH  12  15
ATOM     15  C   UNL A   1      31.568  28.316  25.833  1.00  0.00     0.252 C 
ATOM     16  O   UNL A   1      31.087  29.175  25.099  1.00  0.00    -0.283 OA
BRANCH  15  17
ATOM     17  C   UNL A   1      31.943  27.015  25.269  1.00  0.00     0.054 A 
ATOM     18  N   UNL A   1      32.862  25.355  24.089  1.00  0.00    -0.240 N 
ATOM     19  C   UNL A   1      32.886  26.715  24.302  1.00  0.00     0.117 A 
ATOM     20  C   UNL A   1      31.930  24.738  24.897  1.00  0.00     0.065 A 
ATOM     21  C   UNL A   1      31.340  25.762  25.647  1.00  0.00     0.012 A 
ATOM     22  C   UNL A   1      31.515  23.400  25.024  1.00  0.00     0.028 A 
ATOM     23  C   UNL A   1      30.315  25.425  26.559  1.00  0.00     0.011 A 
ATOM     24  C   UNL A   1      30.477  23.107  25.914  1.00  0.00     0.002 A 
ATOM     25  C   UNL A   1      29.886  24.104  26.677  1.00  0.00     0.001 A 
BRANCH  18  26
ATOM     26  S   UNL A   1      33.787  24.557  22.898  1.00  0.00     0.268 S 
ATOM     27  O   UNL A   1      34.253  25.601  22.014  1.00  0.00    -0.201 OA
ATOM     28  O   UNL A   1      32.953  23.459  22.427  1.00  0.00    -0.201 OA
BRANCH  26  29
ATOM     29  C   UNL A   1      35.203  23.840  23.692  1.00  0.00     0.088 A 
ATOM     30  C   UNL A   1      38.433  22.063  25.913  1.00  0.00     0.044 C 
ATOM     31  C   UNL A   1      37.320  22.693  25.128  1.00  0.00    -0.051 A 
ATOM     32  C   UNL A   1      36.565  23.729  25.690  1.00  0.00     0.005 A 
ATOM     33  C   UNL A   1      37.021  22.257  23.831  1.00  0.00     0.005 A 
ATOM     34  C   UNL A   1      35.507  24.298  24.980  1.00  0.00     0.022 A 
ATOM     35  C   UNL A   1      35.975  22.835  23.106  1.00  0.00     0.022 A 
ENDBRANCH  26  29
ENDBRANCH  18  26
ENDBRANCH  15  17
ENDBRANCH  12  15
ENDBRANCH  10  11
ENDBRANCH   7  10
ENDBRANCH   5   6
ENDBRANCH   1   5
BRANCH   3  36
ATOM     36  C   UNL A   1      32.966  35.785  30.058  1.00  0.00     0.117 C 
BRANCH  36  37
ATOM     37  C   UNL A   1      33.383  36.663  31.224  1.00  0.00     0.042 C 
BRANCH  37  38
ATOM     38  C   UNL A   1      33.709  35.849  32.451  1.00  0.00     0.118 C 
BRANCH  38  39
ATOM     39  N   UNL A   1      33.548  34.410  32.272  1.00  0.00    -0.352 N 
ATOM     40  C   UNL A   1      34.496  33.403  32.235  1.00  0.00     0.251 C 
ATOM     41  H   UNL A   1      32.618  34.108  32.158  1.00  0.00     0.163 HD
ATOM     42  O   UNL A   1      34.137  32.260  31.960  1.00  0.00    -0.269 OA
BRANCH  40  43
ATOM     43  C   UNL A   1      35.882  33.638  32.734  1.00  0.00     0.039 A 
ATOM     44  C   UNL A   1      36.767  34.198  31.801  1.00  0.00     0.014 A 
ATOM     45  C   UNL A   1      36.378  32.861  33.764  1.00  0.00     0.014 A 
ATOM     46  C   UNL A   1      38.032  33.652  31.668  1.00  0.00     0.010 A 
ATOM     47  C   UNL A   1      37.510  32.147  33.499  1.00  0.00     0.010 A 
ATOM     48  C   UNL A   1      38.307  32.521  32.418  1.00  0.00    -0.014 A 
BRANCH  48  49
ATOM     49  C   UNL A   1      39.472  31.687  32.276  1.00  0.00     0.031 A 
ATOM     50  C   UNL A   1      39.286  30.479  31.459  1.00  0.00     0.074 A 
ATOM     51  C   UNL A   1      40.660  32.207  32.653  1.00  0.00     0.049 A 
ATOM     52  N   UNL A   1      40.104  29.498  31.432  1.00  0.00    -0.248 NA
ATOM     53  C   UNL A   1      38.117  30.268  30.598  1.00  0.00     0.031 C 
ATOM     54  C   UNL A   1      42.005  31.785  32.289  1.00  0.00     0.029 A 
ATOM     55  N   UNL A   1      40.869  33.176  33.645  1.00  0.00    -0.354 N 
ATOM     56  C   UNL A   1      39.770  28.717  30.350  1.00  0.00     0.074 A 
ATOM     57  C   UNL A   1      38.478  29.178  29.916  1.00  0.00     0.031 C 
ATOM     58  C   UNL A   1      42.866  32.215  33.231  1.00  0.00     0.029 A 
ATOM     59  C   UNL A   1      42.069  32.807  34.293  1.00  0.00     0.049 A 
ATOM     60  H   UNL A   1      40.298  33.953  33.847  1.00  0.00     0.167 HD
ATOM     61  C   UNL A   1      40.720  27.878  29.860  1.00  0.00     0.037 A 
ATOM     62  C   UNL A   1      42.021  32.349  35.581  1.00  0.00     0.037 A 
ATOM     63  C   UNL A   1      41.914  27.962  30.694  1.00  0.00     0.049 A 
ATOM     64  C   UNL A   1      42.416  30.890  35.670  1.00  0.00     0.074 A 
ATOM     65  C   UNL A   1      43.061  28.734  30.597  1.00  0.00     0.029 A 
ATOM     66  N   UNL A   1      41.824  27.550  32.016  1.00  0.00    -0.354 N 
ATOM     67  N   UNL A   1      42.287  30.035  34.689  1.00  0.00    -0.248 NA
ATOM     68  C   UNL A   1      43.074  30.308  36.835  1.00  0.00     0.031 C 
ATOM     69  C   UNL A   1      43.633  28.825  31.894  1.00  0.00     0.029 A 
ATOM     70  C   UNL A   1      42.839  28.104  32.770  1.00  0.00     0.049 A 
ATOM     71  H   UNL A   1      41.132  26.945  32.368  1.00  0.00     0.167 HD
ATOM     72  C   UNL A   1      42.873  28.842  35.039  1.00  0.00     0.074 A 
ATOM     73  C   UNL A   1      43.342  29.064  36.394  1.00  0.00     0.031 C 
ATOM     74  C   UNL A   1      42.960  27.778  34.181  1.00  0.00     0.037 A 
BRANCH  61  75
ATOM     75  C   UNL A   1      40.673  27.207  28.517  1.00  0.00     0.057 A 
ATOM     76  C   UNL A   1      39.854  26.078  28.319  1.00  0.00     0.134 A 
ATOM     77  C   UNL A   1      41.398  27.613  27.384  1.00  0.00     0.134 A 
ATOM     78  F   UNL A   1      39.086  25.583  29.298  1.00  0.00    -0.206 F 
ATOM     79  C   UNL A   1      39.785  25.388  27.104  1.00  0.00     0.040 A 
ATOM     80  C   UNL A   1      41.368  26.907  26.171  1.00  0.00     0.040 A 
ATOM     81  F   UNL A   1      42.131  28.734  27.385  1.00  0.00    -0.206 F 
ATOM     82  C   UNL A   1      40.555  25.791  26.027  1.00  0.00     0.006 A 
ENDBRANCH  61  75
BRANCH  62  83
ATOM     83  C   UNL A   1      40.971  33.067  36.372  1.00  0.00     0.057 A 
ATOM     84  C   UNL A   1      41.194  34.440  36.612  1.00  0.00     0.134 A 
ATOM     85  C   UNL A   1      39.643  32.634  36.395  1.00  0.00     0.134 A 
ATOM     86  F   UNL A   1      42.448  34.921  36.641  1.00  0.00    -0.206 F 
ATOM     87  C   UNL A   1      40.147  35.366  36.648  1.00  0.00     0.040 A 
ATOM     88  C   UNL A   1      38.585  33.554  36.473  1.00  0.00     0.040 A 
ATOM     89  F   UNL A   1      39.340  31.344  36.193  1.00  0.00    -0.206 F 
ATOM     90  C   UNL A   1      38.835  34.925  36.524  1.00  0.00     0.006 A 
ENDBRANCH  62  83
BRANCH  74  91
ATOM     91  C   UNL A   1      43.243  26.332  34.545  1.00  0.00     0.057 A 
ATOM     92  C   UNL A   1      42.282  25.431  35.022  1.00  0.00     0.134 A 
ATOM     93  C   UNL A   1      44.501  25.743  34.246  1.00  0.00     0.134 A 
ATOM     94  F   UNL A   1      41.015  25.797  35.243  1.00  0.00    -0.206 F 
ATOM     95  C   UNL A   1      42.562  24.074  35.237  1.00  0.00     0.040 A 
ATOM     96  C   UNL A   1      44.762  24.377  34.375  1.00  0.00     0.040 A 
ATOM     97  F   UNL A   1      45.537  26.454  33.779  1.00  0.00    -0.206 F 
ATOM     98  C   UNL A   1      43.795  23.537  34.894  1.00  0.00     0.006 A 
ENDBRANCH  74  91
ENDBRANCH  48  49
ENDBRANCH  40  43
ENDBRANCH  38  39
ENDBRANCH  37  38
ENDBRANCH  36  37
ENDBRANCH   3  36
TORSDOF 17
ENDMDL
