MODEL 1
REMARK VINA RESULT:      -9.6      0.000      0.000
REMARK SMILES O=C(CCCc1csc2ccccc12)NCCCNC(=O)c1ccc(-c2c3nc(c(-c4c(F)cccc4F)c4ccc([nH]4)c(-c4c(F)cccc4F)c4nc(c(-c5c(F)cccc5F)c5ccc2[nH]5)C=C4)C=C3)cc1
REMARK SMILES IDX 16 1 15 2 1 3 2 4 3 6 4 7 5 8 6 9 7 10 14 11 8 12 9 13 13 14
REMARK SMILES IDX 10 15 12 16 11 17 17 18 18 19 19 20 20 21 21 23 22 24 23 25
REMARK SMILES IDX 75 26 24 27 74 28 25 29 26 30 27 31 68 32 28 33 73 34 67 35
REMARK SMILES IDX 69 36 29 37 72 38 66 39 65 40 30 42 56 43 39 44 55 45 40 46
REMARK SMILES IDX 43 47 54 48 70 49 41 50 42 51 53 53 71 54 44 55 31 56 32 57
REMARK SMILES IDX 37 58 33 59 34 60 36 61 38 62 35 63 57 64 58 65 63 66 59 67
REMARK SMILES IDX 60 68 62 69 64 70 61 71 45 72 46 73 51 74 47 75 48 76 50 77
REMARK SMILES IDX 52 78 49 79
REMARK H PARENT 15 5 19 22 69 41 43 52
REMARK Flexibility Score: inf
ROOT
ATOM      1  C   UNL A   1      32.610  35.686  32.402  1.00  0.00     0.117 C 
ENDROOT
BRANCH   1   2
ATOM      2  N   UNL A   1      33.852  35.271  33.020  1.00  0.00    -0.356 N 
ATOM      3  O   UNL A   1      33.313  33.057  33.250  1.00  0.00    -0.275 OA
ATOM      4  C   UNL A   1      34.121  33.972  33.375  1.00  0.00     0.220 C 
ATOM      5  H   UNL A   1      34.539  35.955  33.197  1.00  0.00     0.163 HD
BRANCH   4   6
ATOM      6  C   UNL A   1      35.494  33.750  33.985  1.00  0.00     0.100 C 
BRANCH   6   7
ATOM      7  C   UNL A   1      36.206  32.471  33.537  1.00  0.00     0.015 C 
BRANCH   7   8
ATOM      8  C   UNL A   1      37.410  31.978  34.352  1.00  0.00     0.037 C 
BRANCH   8   9
ATOM      9  C   UNL A   1      38.142  30.766  33.817  1.00  0.00    -0.029 A 
ATOM     10  C   UNL A   1      37.647  29.876  32.881  1.00  0.00     0.069 A 
ATOM     11  C   UNL A   1      39.455  30.332  34.277  1.00  0.00    -0.004 A 
ATOM     12  S   UNL A   1      38.702  28.595  32.521  1.00  0.00    -0.144 S 
ATOM     13  C   UNL A   1      39.874  29.158  33.639  1.00  0.00     0.035 A 
ATOM     14  C   UNL A   1      40.334  30.888  35.246  1.00  0.00     0.010 A 
ATOM     15  C   UNL A   1      41.113  28.550  33.924  1.00  0.00     0.019 A 
ATOM     16  C   UNL A   1      41.562  30.283  35.538  1.00  0.00     0.001 A 
ATOM     17  C   UNL A   1      41.948  29.127  34.880  1.00  0.00     0.001 A 
ENDBRANCH   8   9
ENDBRANCH   7   8
ENDBRANCH   6   7
ENDBRANCH   4   6
ENDBRANCH   1   2
BRANCH   1  18
ATOM     18  C   UNL A   1      32.805  36.856  31.440  1.00  0.00     0.042 C 
BRANCH  18  19
ATOM     19  C   UNL A   1      33.533  36.526  30.137  1.00  0.00     0.118 C 
BRANCH  19  20
ATOM     20  N   UNL A   1      32.746  35.724  29.214  1.00  0.00    -0.352 N 
ATOM     21  C   UNL A   1      33.041  34.526  28.612  1.00  0.00     0.251 C 
ATOM     22  H   UNL A   1      31.865  36.098  28.987  1.00  0.00     0.163 HD
ATOM     23  O   UNL A   1      32.263  34.067  27.773  1.00  0.00    -0.269 OA
BRANCH  21  24
ATOM     24  C   UNL A   1      34.294  33.795  28.918  1.00  0.00     0.039 A 
ATOM     25  C   UNL A   1      35.416  34.044  28.121  1.00  0.00     0.014 A 
ATOM     26  C   UNL A   1      34.374  32.858  29.951  1.00  0.00     0.014 A 
ATOM     27  C   UNL A   1      36.632  33.416  28.408  1.00  0.00     0.010 A 
ATOM     28  C   UNL A   1      35.605  32.281  30.278  1.00  0.00     0.010 A 
ATOM     29  C   UNL A   1      36.748  32.559  29.514  1.00  0.00    -0.014 A 
BRANCH  29  30
ATOM     30  C   UNL A   1      38.070  31.991  29.895  1.00  0.00     0.031 A 
ATOM     31  C   UNL A   1      39.000  32.735  30.813  1.00  0.00     0.074 A 
ATOM     32  C   UNL A   1      38.454  30.808  29.375  1.00  0.00     0.049 A 
ATOM     33  N   UNL A   1      40.188  32.388  31.244  1.00  0.00    -0.248 NA
ATOM     34  C   UNL A   1      38.549  34.049  31.293  1.00  0.00     0.031 C 
ATOM     35  C   UNL A   1      37.674  30.008  28.428  1.00  0.00     0.029 A 
ATOM     36  N   UNL A   1      39.598  30.073  29.566  1.00  0.00    -0.354 N 
ATOM     37  C   UNL A   1      40.629  33.439  32.037  1.00  0.00     0.074 A 
ATOM     38  C   UNL A   1      39.601  34.459  31.989  1.00  0.00     0.031 C 
ATOM     39  C   UNL A   1      38.348  28.882  28.146  1.00  0.00     0.029 A 
ATOM     40  C   UNL A   1      39.618  28.891  28.865  1.00  0.00     0.049 A 
ATOM     41  H   UNL A   1      40.335  30.365  30.151  1.00  0.00     0.167 HD
ATOM     42  C   UNL A   1      41.772  33.540  32.757  1.00  0.00     0.037 A 
ATOM     43  C   UNL A   1      40.551  27.923  28.807  1.00  0.00     0.037 A 
ATOM     44  C   UNL A   1      42.789  32.521  32.822  1.00  0.00     0.049 A 
ATOM     45  C   UNL A   1      41.804  28.053  29.624  1.00  0.00     0.074 A 
ATOM     46  C   UNL A   1      43.955  32.512  33.568  1.00  0.00     0.029 A 
ATOM     47  N   UNL A   1      42.763  31.331  32.112  1.00  0.00    -0.354 N 
ATOM     48  N   UNL A   1      42.172  29.022  30.426  1.00  0.00    -0.248 NA
ATOM     49  C   UNL A   1      42.767  26.945  29.537  1.00  0.00     0.031 C 
ATOM     50  C   UNL A   1      44.654  31.335  33.280  1.00  0.00     0.029 A 
ATOM     51  C   UNL A   1      43.901  30.588  32.389  1.00  0.00     0.049 A 
ATOM     52  H   UNL A   1      42.044  31.053  31.500  1.00  0.00     0.167 HD
ATOM     53  C   UNL A   1      43.394  28.631  30.959  1.00  0.00     0.074 A 
ATOM     54  C   UNL A   1      43.695  27.328  30.402  1.00  0.00     0.031 C 
ATOM     55  C   UNL A   1      44.192  29.292  31.832  1.00  0.00     0.037 A 
BRANCH  42  56
ATOM     56  C   UNL A   1      41.985  34.802  33.543  1.00  0.00     0.057 A 
ATOM     57  C   UNL A   1      41.434  34.976  34.819  1.00  0.00     0.134 A 
ATOM     58  C   UNL A   1      42.784  35.835  33.038  1.00  0.00     0.134 A 
ATOM     59  F   UNL A   1      40.651  34.029  35.357  1.00  0.00    -0.206 F 
ATOM     60  C   UNL A   1      41.649  36.143  35.555  1.00  0.00     0.040 A 
ATOM     61  C   UNL A   1      43.029  36.995  33.775  1.00  0.00     0.040 A 
ATOM     62  F   UNL A   1      43.351  35.730  31.827  1.00  0.00    -0.206 F 
ATOM     63  C   UNL A   1      42.455  37.154  35.036  1.00  0.00     0.006 A 
ENDBRANCH  42  56
BRANCH  43  64
ATOM     64  C   UNL A   1      40.319  26.721  27.966  1.00  0.00     0.057 A 
ATOM     65  C   UNL A   1      39.522  25.666  28.423  1.00  0.00     0.134 A 
ATOM     66  C   UNL A   1      40.893  26.595  26.696  1.00  0.00     0.134 A 
ATOM     67  F   UNL A   1      38.961  25.720  29.640  1.00  0.00    -0.206 F 
ATOM     68  C   UNL A   1      39.319  24.517  27.656  1.00  0.00     0.040 A 
ATOM     69  C   UNL A   1      40.679  25.463  25.908  1.00  0.00     0.040 A 
ATOM     70  F   UNL A   1      41.662  27.577  26.200  1.00  0.00    -0.206 F 
ATOM     71  C   UNL A   1      39.896  24.417  26.391  1.00  0.00     0.006 A 
ENDBRANCH  43  64
BRANCH  55  72
ATOM     72  C   UNL A   1      45.453  28.600  32.262  1.00  0.00     0.057 A 
ATOM     73  C   UNL A   1      45.464  27.653  33.295  1.00  0.00     0.134 A 
ATOM     74  C   UNL A   1      46.671  28.880  31.629  1.00  0.00     0.134 A 
ATOM     75  F   UNL A   1      44.334  27.350  33.952  1.00  0.00    -0.206 F 
ATOM     76  C   UNL A   1      46.646  27.033  33.703  1.00  0.00     0.040 A 
ATOM     77  C   UNL A   1      47.854  28.247  32.011  1.00  0.00     0.040 A 
ATOM     78  F   UNL A   1      46.730  29.771  30.628  1.00  0.00    -0.206 F 
ATOM     79  C   UNL A   1      47.846  27.326  33.057  1.00  0.00     0.006 A 
ENDBRANCH  55  72
ENDBRANCH  29  30
ENDBRANCH  21  24
ENDBRANCH  19  20
ENDBRANCH  18  19
ENDBRANCH   1  18
TORSDOF 13
ENDMDL
MODEL 2
REMARK VINA RESULT:      -9.3      0.782      6.593
REMARK SMILES O=C(CCCc1csc2ccccc12)NCCCNC(=O)c1ccc(-c2c3nc(c(-c4c(F)cccc4F)c4ccc([nH]4)c(-c4c(F)cccc4F)c4nc(c(-c5c(F)cccc5F)c5ccc2[nH]5)C=C4)C=C3)cc1
REMARK SMILES IDX 16 1 15 2 1 3 2 4 3 6 4 7 5 8 6 9 7 10 14 11 8 12 9 13 13 14
REMARK SMILES IDX 10 15 12 16 11 17 17 18 18 19 19 20 20 21 21 23 22 24 23 25
REMARK SMILES IDX 75 26 24 27 74 28 25 29 26 30 27 31 68 32 28 33 73 34 67 35
REMARK SMILES IDX 69 36 29 37 72 38 66 39 65 40 30 42 56 43 39 44 55 45 40 46
REMARK SMILES IDX 43 47 54 48 70 49 41 50 42 51 53 53 71 54 44 55 31 56 32 57
REMARK SMILES IDX 37 58 33 59 34 60 36 61 38 62 35 63 57 64 58 65 63 66 59 67
REMARK SMILES IDX 60 68 62 69 64 70 61 71 45 72 46 73 51 74 47 75 48 76 50 77
REMARK SMILES IDX 52 78 49 79
REMARK H PARENT 15 5 19 22 69 41 43 52
REMARK Flexibility Score: inf
ROOT
ATOM      1  C   UNL A   1      32.862  35.568  32.146  1.00  0.00     0.117 C 
ENDROOT
BRANCH   1   2
ATOM      2  N   UNL A   1      34.071  35.349  32.912  1.00  0.00    -0.356 N 
ATOM      3  O   UNL A   1      33.774  33.103  33.248  1.00  0.00    -0.275 OA
ATOM      4  C   UNL A   1      34.451  34.116  33.385  1.00  0.00     0.220 C 
ATOM      5  H   UNL A   1      34.650  36.122  33.105  1.00  0.00     0.163 HD
BRANCH   4   6
ATOM      6  C   UNL A   1      35.768  34.103  34.142  1.00  0.00     0.100 C 
BRANCH   6   7
ATOM      7  C   UNL A   1      36.563  32.799  34.043  1.00  0.00     0.015 C 
BRANCH   7   8
ATOM      8  C   UNL A   1      37.904  32.700  34.781  1.00  0.00     0.037 C 
BRANCH   8   9
ATOM      9  C   UNL A   1      38.781  31.514  34.442  1.00  0.00    -0.029 A 
ATOM     10  C   UNL A   1      40.081  31.326  34.874  1.00  0.00     0.069 A 
ATOM     11  C   UNL A   1      38.389  30.435  33.544  1.00  0.00    -0.004 A 
ATOM     12  S   UNL A   1      40.807  29.909  34.281  1.00  0.00    -0.144 S 
ATOM     13  C   UNL A   1      39.410  29.491  33.379  1.00  0.00     0.035 A 
ATOM     14  C   UNL A   1      37.182  30.210  32.827  1.00  0.00     0.010 A 
ATOM     15  C   UNL A   1      39.259  28.358  32.555  1.00  0.00     0.019 A 
ATOM     16  C   UNL A   1      37.030  29.091  32.001  1.00  0.00     0.001 A 
ATOM     17  C   UNL A   1      38.059  28.173  31.870  1.00  0.00     0.001 A 
ENDBRANCH   8   9
ENDBRANCH   7   8
ENDBRANCH   6   7
ENDBRANCH   4   6
ENDBRANCH   1   2
BRANCH   1  18
ATOM     18  C   UNL A   1      32.947  36.821  31.278  1.00  0.00     0.042 C 
BRANCH  18  19
ATOM     19  C   UNL A   1      33.529  36.619  29.879  1.00  0.00     0.118 C 
BRANCH  19  20
ATOM     20  N   UNL A   1      32.736  35.738  29.037  1.00  0.00    -0.352 N 
ATOM     21  C   UNL A   1      33.041  34.506  28.513  1.00  0.00     0.251 C 
ATOM     22  H   UNL A   1      31.841  36.077  28.808  1.00  0.00     0.163 HD
ATOM     23  O   UNL A   1      32.251  33.974  27.731  1.00  0.00    -0.269 OA
BRANCH  21  24
ATOM     24  C   UNL A   1      34.316  33.824  28.836  1.00  0.00     0.039 A 
ATOM     25  C   UNL A   1      35.410  34.033  27.989  1.00  0.00     0.014 A 
ATOM     26  C   UNL A   1      34.446  32.969  29.934  1.00  0.00     0.014 A 
ATOM     27  C   UNL A   1      36.646  33.451  28.285  1.00  0.00     0.010 A 
ATOM     28  C   UNL A   1      35.696  32.442  30.266  1.00  0.00     0.010 A 
ATOM     29  C   UNL A   1      36.811  32.682  29.449  1.00  0.00    -0.014 A 
BRANCH  29  30
ATOM     30  C   UNL A   1      38.155  32.169  29.832  1.00  0.00     0.031 A 
ATOM     31  C   UNL A   1      38.649  30.838  29.335  1.00  0.00     0.074 A 
ATOM     32  C   UNL A   1      38.923  32.892  30.670  1.00  0.00     0.049 A 
ATOM     33  N   UNL A   1      39.791  30.239  29.573  1.00  0.00    -0.248 NA
ATOM     34  C   UNL A   1      37.736  30.069  28.477  1.00  0.00     0.031 C 
ATOM     35  C   UNL A   1      38.544  34.173  31.272  1.00  0.00     0.029 A 
ATOM     36  N   UNL A   1      40.183  32.655  31.164  1.00  0.00    -0.354 N 
ATOM     37  C   UNL A   1      39.731  29.024  28.902  1.00  0.00     0.074 A 
ATOM     38  C   UNL A   1      38.421  28.949  28.289  1.00  0.00     0.031 C 
ATOM     39  C   UNL A   1      39.559  34.621  32.027  1.00  0.00     0.029 A 
ATOM     40  C   UNL A   1      40.648  33.650  31.990  1.00  0.00     0.049 A 
ATOM     41  H   UNL A   1      40.704  31.848  30.946  1.00  0.00     0.167 HD
ATOM     42  C   UNL A   1      40.684  28.068  28.790  1.00  0.00     0.037 A 
ATOM     43  C   UNL A   1      41.818  33.770  32.644  1.00  0.00     0.037 A 
ATOM     44  C   UNL A   1      41.995  28.146  29.385  1.00  0.00     0.049 A 
ATOM     45  C   UNL A   1      42.863  32.701  32.492  1.00  0.00     0.074 A 
ATOM     46  C   UNL A   1      43.045  27.251  29.279  1.00  0.00     0.029 A 
ATOM     47  N   UNL A   1      42.433  29.179  30.199  1.00  0.00    -0.354 N 
ATOM     48  N   UNL A   1      42.818  31.592  31.795  1.00  0.00    -0.248 NA
ATOM     49  C   UNL A   1      44.130  32.910  33.209  1.00  0.00     0.031 C 
ATOM     50  C   UNL A   1      44.106  27.721  30.061  1.00  0.00     0.029 A 
ATOM     51  C   UNL A   1      43.733  28.934  30.617  1.00  0.00     0.049 A 
ATOM     52  H   UNL A   1      41.901  29.969  30.446  1.00  0.00     0.167 HD
ATOM     53  C   UNL A   1      44.054  30.984  31.968  1.00  0.00     0.074 A 
ATOM     54  C   UNL A   1      44.834  31.857  32.821  1.00  0.00     0.031 C 
ATOM     55  C   UNL A   1      44.502  29.809  31.464  1.00  0.00     0.037 A 
BRANCH  42  56
ATOM     56  C   UNL A   1      40.346  26.847  27.984  1.00  0.00     0.057 A 
ATOM     57  C   UNL A   1      40.844  26.659  26.688  1.00  0.00     0.134 A 
ATOM     58  C   UNL A   1      39.551  25.828  28.524  1.00  0.00     0.134 A 
ATOM     59  F   UNL A   1      41.604  27.600  26.108  1.00  0.00    -0.206 F 
ATOM     60  C   UNL A   1      40.542  25.514  25.948  1.00  0.00     0.040 A 
ATOM     61  C   UNL A   1      39.264  24.667  27.805  1.00  0.00     0.040 A 
ATOM     62  F   UNL A   1      39.049  25.939  29.763  1.00  0.00    -0.206 F 
ATOM     63  C   UNL A   1      39.756  24.510  26.510  1.00  0.00     0.006 A 
ENDBRANCH  42  56
BRANCH  43  64
ATOM     64  C   UNL A   1      42.081  34.969  33.478  1.00  0.00     0.057 A 
ATOM     65  C   UNL A   1      41.594  35.057  34.787  1.00  0.00     0.134 A 
ATOM     66  C   UNL A   1      42.816  36.055  32.987  1.00  0.00     0.134 A 
ATOM     67  F   UNL A   1      40.866  34.057  35.306  1.00  0.00    -0.206 F 
ATOM     68  C   UNL A   1      41.809  36.191  35.572  1.00  0.00     0.040 A 
ATOM     69  C   UNL A   1      43.059  37.184  33.769  1.00  0.00     0.040 A 
ATOM     70  F   UNL A   1      43.315  36.027  31.742  1.00  0.00    -0.206 F 
ATOM     71  C   UNL A   1      42.549  37.257  35.064  1.00  0.00     0.006 A 
ENDBRANCH  43  64
BRANCH  55  72
ATOM     72  C   UNL A   1      45.913  29.417  31.796  1.00  0.00     0.057 A 
ATOM     73  C   UNL A   1      46.998  29.801  30.997  1.00  0.00     0.134 A 
ATOM     74  C   UNL A   1      46.190  28.651  32.936  1.00  0.00     0.134 A 
ATOM     75  F   UNL A   1      46.800  30.523  29.884  1.00  0.00    -0.206 F 
ATOM     76  C   UNL A   1      48.303  29.412  31.303  1.00  0.00     0.040 A 
ATOM     77  C   UNL A   1      47.493  28.277  33.266  1.00  0.00     0.040 A 
ATOM     78  F   UNL A   1      45.198  28.255  33.749  1.00  0.00    -0.206 F 
ATOM     79  C   UNL A   1      48.554  28.650  32.443  1.00  0.00     0.006 A 
ENDBRANCH  55  72
ENDBRANCH  29  30
ENDBRANCH  21  24
ENDBRANCH  19  20
ENDBRANCH  18  19
ENDBRANCH   1  18
TORSDOF 13
ENDMDL
MODEL 3
REMARK VINA RESULT:      -8.3      2.458      4.190
REMARK SMILES O=C(CCCc1csc2ccccc12)NCCCNC(=O)c1ccc(-c2c3nc(c(-c4c(F)cccc4F)c4ccc([nH]4)c(-c4c(F)cccc4F)c4nc(c(-c5c(F)cccc5F)c5ccc2[nH]5)C=C4)C=C3)cc1
REMARK SMILES IDX 16 1 15 2 1 3 2 4 3 6 4 7 5 8 6 9 7 10 14 11 8 12 9 13 13 14
REMARK SMILES IDX 10 15 12 16 11 17 17 18 18 19 19 20 20 21 21 23 22 24 23 25
REMARK SMILES IDX 75 26 24 27 74 28 25 29 26 30 27 31 68 32 28 33 73 34 67 35
REMARK SMILES IDX 69 36 29 37 72 38 66 39 65 40 30 42 56 43 39 44 55 45 40 46
REMARK SMILES IDX 43 47 54 48 70 49 41 50 42 51 53 53 71 54 44 55 31 56 32 57
REMARK SMILES IDX 37 58 33 59 34 60 36 61 38 62 35 63 57 64 58 65 63 66 59 67
REMARK SMILES IDX 60 68 62 69 64 70 61 71 45 72 46 73 51 74 47 75 48 76 50 77
REMARK SMILES IDX 52 78 49 79
REMARK H PARENT 15 5 19 22 69 41 43 52
REMARK Flexibility Score: inf
ROOT
ATOM      1  C   UNL A   1      33.504  35.038  29.912  1.00  0.00     0.117 C 
ENDROOT
BRANCH   1   2
ATOM      2  N   UNL A   1      33.673  34.321  31.159  1.00  0.00    -0.356 N 
ATOM      3  O   UNL A   1      34.410  36.102  32.396  1.00  0.00    -0.275 OA
ATOM      4  C   UNL A   1      34.091  34.920  32.322  1.00  0.00     0.220 C 
ATOM      5  H   UNL A   1      33.479  33.355  31.174  1.00  0.00     0.163 HD
BRANCH   4   6
ATOM      6  C   UNL A   1      34.175  33.991  33.522  1.00  0.00     0.100 C 
BRANCH   6   7
ATOM      7  C   UNL A   1      35.443  34.132  34.367  1.00  0.00     0.015 C 
BRANCH   7   8
ATOM      8  C   UNL A   1      36.575  33.116  34.165  1.00  0.00     0.037 C 
BRANCH   8   9
ATOM      9  C   UNL A   1      37.854  33.638  33.547  1.00  0.00    -0.029 A 
ATOM     10  C   UNL A   1      38.942  34.130  34.246  1.00  0.00     0.069 A 
ATOM     11  C   UNL A   1      38.082  33.759  32.112  1.00  0.00    -0.004 A 
ATOM     12  S   UNL A   1      40.208  34.679  33.255  1.00  0.00    -0.144 S 
ATOM     13  C   UNL A   1      39.337  34.310  31.825  1.00  0.00     0.035 A 
ATOM     14  C   UNL A   1      37.254  33.429  31.006  1.00  0.00     0.010 A 
ATOM     15  C   UNL A   1      39.778  34.522  30.503  1.00  0.00     0.019 A 
ATOM     16  C   UNL A   1      37.684  33.645  29.692  1.00  0.00     0.001 A 
ATOM     17  C   UNL A   1      38.936  34.184  29.445  1.00  0.00     0.001 A 
ENDBRANCH   8   9
ENDBRANCH   7   8
ENDBRANCH   6   7
ENDBRANCH   4   6
ENDBRANCH   1   2
BRANCH   1  18
ATOM     18  C   UNL A   1      33.516  34.105  28.703  1.00  0.00     0.042 C 
BRANCH  18  19
ATOM     19  C   UNL A   1      34.295  32.802  28.880  1.00  0.00     0.118 C 
BRANCH  19  20
ATOM     20  N   UNL A   1      33.879  31.744  27.974  1.00  0.00    -0.352 N 
ATOM     21  C   UNL A   1      34.536  30.601  27.589  1.00  0.00     0.251 C 
ATOM     22  H   UNL A   1      32.988  31.865  27.575  1.00  0.00     0.163 HD
ATOM     23  O   UNL A   1      34.037  29.885  26.720  1.00  0.00    -0.269 OA
BRANCH  21  24
ATOM     24  C   UNL A   1      35.851  30.235  28.167  1.00  0.00     0.039 A 
ATOM     25  C   UNL A   1      35.870  29.572  29.399  1.00  0.00     0.014 A 
ATOM     26  C   UNL A   1      37.056  30.552  27.533  1.00  0.00     0.014 A 
ATOM     27  C   UNL A   1      37.086  29.162  29.954  1.00  0.00     0.010 A 
ATOM     28  C   UNL A   1      38.265  30.083  28.055  1.00  0.00     0.010 A 
ATOM     29  C   UNL A   1      38.292  29.378  29.268  1.00  0.00    -0.014 A 
BRANCH  29  30
ATOM     30  C   UNL A   1      39.571  28.830  29.796  1.00  0.00     0.031 A 
ATOM     31  C   UNL A   1      40.229  29.425  31.010  1.00  0.00     0.074 A 
ATOM     32  C   UNL A   1      40.167  27.808  29.151  1.00  0.00     0.049 A 
ATOM     33  N   UNL A   1      41.345  29.073  31.602  1.00  0.00    -0.248 NA
ATOM     34  C   UNL A   1      39.561  30.579  31.629  1.00  0.00     0.031 C 
ATOM     35  C   UNL A   1      39.668  27.174  27.928  1.00  0.00     0.029 A 
ATOM     36  N   UNL A   1      41.325  27.124  29.428  1.00  0.00    -0.354 N 
ATOM     37  C   UNL A   1      41.516  29.963  32.654  1.00  0.00     0.074 A 
ATOM     38  C   UNL A   1      40.415  30.902  32.591  1.00  0.00     0.031 C 
ATOM     39  C   UNL A   1      40.496  26.176  27.581  1.00  0.00     0.029 A 
ATOM     40  C   UNL A   1      41.600  26.118  28.534  1.00  0.00     0.049 A 
ATOM     41  H   UNL A   1      41.905  27.335  30.196  1.00  0.00     0.167 HD
ATOM     42  C   UNL A   1      42.487  29.985  33.599  1.00  0.00     0.037 A 
ATOM     43  C   UNL A   1      42.623  25.245  28.485  1.00  0.00     0.037 A 
ATOM     44  C   UNL A   1      43.575  29.042  33.675  1.00  0.00     0.049 A 
ATOM     45  C   UNL A   1      43.680  25.283  29.552  1.00  0.00     0.074 A 
ATOM     46  C   UNL A   1      44.574  28.954  34.630  1.00  0.00     0.029 A 
ATOM     47  N   UNL A   1      43.807  28.027  32.761  1.00  0.00    -0.354 N 
ATOM     48  N   UNL A   1      43.787  26.085  30.582  1.00  0.00    -0.248 NA
ATOM     49  C   UNL A   1      44.752  24.281  29.454  1.00  0.00     0.031 C 
ATOM     50  C   UNL A   1      45.434  27.909  34.272  1.00  0.00     0.029 A 
ATOM     51  C   UNL A   1      44.943  27.318  33.120  1.00  0.00     0.049 A 
ATOM     52  H   UNL A   1      43.248  27.837  31.973  1.00  0.00     0.167 HD
ATOM     53  C   UNL A   1      44.921  25.672  31.269  1.00  0.00     0.074 A 
ATOM     54  C   UNL A   1      45.456  24.535  30.548  1.00  0.00     0.031 C 
ATOM     55  C   UNL A   1      45.468  26.187  32.397  1.00  0.00     0.037 A 
BRANCH  42  56
ATOM     56  C   UNL A   1      42.415  31.067  34.638  1.00  0.00     0.057 A 
ATOM     57  C   UNL A   1      43.072  32.294  34.472  1.00  0.00     0.134 A 
ATOM     58  C   UNL A   1      41.648  30.898  35.797  1.00  0.00     0.134 A 
ATOM     59  F   UNL A   1      43.831  32.517  33.389  1.00  0.00    -0.206 F 
ATOM     60  C   UNL A   1      42.987  33.304  35.432  1.00  0.00     0.040 A 
ATOM     61  C   UNL A   1      41.534  31.910  36.752  1.00  0.00     0.040 A 
ATOM     62  F   UNL A   1      40.985  29.752  36.016  1.00  0.00    -0.206 F 
ATOM     63  C   UNL A   1      42.210  33.116  36.573  1.00  0.00     0.006 A 
ENDBRANCH  42  56
BRANCH  43  64
ATOM     64  C   UNL A   1      42.681  24.232  27.401  1.00  0.00     0.057 A 
ATOM     65  C   UNL A   1      42.181  22.939  27.597  1.00  0.00     0.134 A 
ATOM     66  C   UNL A   1      43.241  24.526  26.153  1.00  0.00     0.134 A 
ATOM     67  F   UNL A   1      41.650  22.591  28.779  1.00  0.00    -0.206 F 
ATOM     68  C   UNL A   1      42.254  21.967  26.598  1.00  0.00     0.040 A 
ATOM     69  C   UNL A   1      43.299  23.572  25.136  1.00  0.00     0.040 A 
ATOM     70  F   UNL A   1      43.730  25.750  25.903  1.00  0.00    -0.206 F 
ATOM     71  C   UNL A   1      42.811  22.286  25.360  1.00  0.00     0.006 A 
ENDBRANCH  43  64
BRANCH  55  72
ATOM     72  C   UNL A   1      46.690  25.503  32.937  1.00  0.00     0.057 A 
ATOM     73  C   UNL A   1      47.979  25.823  32.488  1.00  0.00     0.134 A 
ATOM     74  C   UNL A   1      46.577  24.517  33.925  1.00  0.00     0.134 A 
ATOM     75  F   UNL A   1      48.155  26.748  31.533  1.00  0.00    -0.206 F 
ATOM     76  C   UNL A   1      49.107  25.165  32.980  1.00  0.00     0.040 A 
ATOM     77  C   UNL A   1      47.700  23.870  34.444  1.00  0.00     0.040 A 
ATOM     78  F   UNL A   1      45.374  24.167  34.405  1.00  0.00    -0.206 F 
ATOM     79  C   UNL A   1      48.970  24.187  33.965  1.00  0.00     0.006 A 
ENDBRANCH  55  72
ENDBRANCH  29  30
ENDBRANCH  21  24
ENDBRANCH  19  20
ENDBRANCH  18  19
ENDBRANCH   1  18
TORSDOF 13
ENDMDL
