MODEL 1
REMARK VINA RESULT:     -11.6      0.000      0.000
REMARK SMILES O=C(NCCCNC(=O)c1cc2ncc(Cl)cn2n1)c1ccc(-c2c3nc(c(-c4c(F)cccc4F)c4ccc([nH]4)c(-c4c(F)cccc4F)c4nc(c(-c5c(F)cccc5F)c5ccc2[nH]5)C=C4)C=C3)cc1
REMARK SMILES IDX 4 1 3 2 1 3 2 4 20 6 21 7 73 8 22 9 72 10 23 11 24 12 25 13
REMARK SMILES IDX 66 14 26 15 71 16 65 17 67 18 27 19 70 20 64 21 63 22 28 24
REMARK SMILES IDX 54 25 37 26 53 27 38 28 41 29 52 30 68 31 39 32 40 33 51 35
REMARK SMILES IDX 69 36 42 37 29 38 30 39 35 40 31 41 32 42 34 43 36 44 33 45
REMARK SMILES IDX 55 46 56 47 61 48 57 49 58 50 60 51 62 52 59 53 43 54 44 55
REMARK SMILES IDX 49 56 45 57 46 58 48 59 50 60 47 61 5 62 6 63 7 64 8 65 9 67
REMARK SMILES IDX 10 68 11 69 19 70 12 71 18 72 13 73 17 74 14 75 15 76 16 77
REMARK H PARENT 3 5 67 23 41 34 7 66
REMARK Flexibility Score: inf
ROOT
ATOM      1  C   UNL A   1      34.140  33.659  28.580  1.00  0.00     0.118 C 
ENDROOT
BRANCH   1   2
ATOM      2  N   UNL A   1      33.839  32.457  27.827  1.00  0.00    -0.352 N 
ATOM      3  O   UNL A   1      33.693  30.366  27.153  1.00  0.00    -0.269 OA
ATOM      4  C   UNL A   1      34.389  31.211  27.724  1.00  0.00     0.251 C 
ATOM      5  H   UNL A   1      33.048  32.566  27.252  1.00  0.00     0.163 HD
BRANCH   4   6
ATOM      6  C   UNL A   1      35.759  30.821  28.157  1.00  0.00     0.039 A 
ATOM      7  C   UNL A   1      36.711  31.658  28.739  1.00  0.00     0.014 A 
ATOM      8  C   UNL A   1      36.118  29.483  27.893  1.00  0.00     0.014 A 
ATOM      9  C   UNL A   1      38.009  31.194  28.963  1.00  0.00     0.010 A 
ATOM     10  C   UNL A   1      37.408  29.014  28.116  1.00  0.00     0.010 A 
ATOM     11  C   UNL A   1      38.368  29.884  28.615  1.00  0.00    -0.014 A 
BRANCH  11  12
ATOM     12  C   UNL A   1      39.709  29.407  28.955  1.00  0.00     0.031 A 
ATOM     13  C   UNL A   1      39.901  29.136  30.409  1.00  0.00     0.074 A 
ATOM     14  C   UNL A   1      40.667  29.089  28.058  1.00  0.00     0.049 A 
ATOM     15  N   UNL A   1      40.699  29.735  31.231  1.00  0.00    -0.248 NA
ATOM     16  C   UNL A   1      39.009  28.158  31.051  1.00  0.00     0.031 C 
ATOM     17  C   UNL A   1      40.550  29.011  26.599  1.00  0.00     0.029 A 
ATOM     18  N   UNL A   1      41.955  28.685  28.277  1.00  0.00    -0.354 N 
ATOM     19  C   UNL A   1      40.548  29.089  32.457  1.00  0.00     0.074 A 
ATOM     20  C   UNL A   1      39.397  28.237  32.325  1.00  0.00     0.031 C 
ATOM     21  C   UNL A   1      41.644  28.396  26.089  1.00  0.00     0.029 A 
ATOM     22  C   UNL A   1      42.599  28.161  27.160  1.00  0.00     0.049 A 
ATOM     23  H   UNL A   1      42.392  28.760  29.157  1.00  0.00     0.167 HD
ATOM     24  C   UNL A   1      41.519  29.146  33.410  1.00  0.00     0.037 A 
ATOM     25  C   UNL A   1      43.814  27.552  27.127  1.00  0.00     0.037 A 
ATOM     26  C   UNL A   1      42.413  30.249  33.171  1.00  0.00     0.049 A 
ATOM     27  C   UNL A   1      44.549  27.963  28.344  1.00  0.00     0.074 A 
ATOM     28  C   UNL A   1      42.290  31.623  33.116  1.00  0.00     0.029 A 
ATOM     29  N   UNL A   1      43.627  29.961  32.600  1.00  0.00    -0.354 N 
ATOM     30  N   UNL A   1      44.993  29.166  28.560  1.00  0.00    -0.248 NA
ATOM     31  C   UNL A   1      44.444  27.111  29.517  1.00  0.00     0.031 C 
ATOM     32  C   UNL A   1      43.206  32.038  32.104  1.00  0.00     0.029 A 
ATOM     33  C   UNL A   1      43.871  30.902  31.638  1.00  0.00     0.049 A 
ATOM     34  H   UNL A   1      44.216  29.210  32.840  1.00  0.00     0.167 HD
ATOM     35  C   UNL A   1      44.797  29.369  29.916  1.00  0.00     0.074 A 
ATOM     36  C   UNL A   1      44.560  28.038  30.469  1.00  0.00     0.031 C 
ATOM     37  C   UNL A   1      44.566  30.621  30.406  1.00  0.00     0.037 A 
BRANCH  24  38
ATOM     38  C   UNL A   1      41.911  27.988  34.307  1.00  0.00     0.057 A 
ATOM     39  C   UNL A   1      41.715  28.108  35.698  1.00  0.00     0.134 A 
ATOM     40  C   UNL A   1      42.748  26.923  33.920  1.00  0.00     0.134 A 
ATOM     41  F   UNL A   1      40.937  29.077  36.205  1.00  0.00    -0.206 F 
ATOM     42  C   UNL A   1      42.387  27.305  36.629  1.00  0.00     0.040 A 
ATOM     43  C   UNL A   1      43.385  26.084  34.839  1.00  0.00     0.040 A 
ATOM     44  F   UNL A   1      43.080  26.691  32.645  1.00  0.00    -0.206 F 
ATOM     45  C   UNL A   1      43.238  26.296  36.199  1.00  0.00     0.006 A 
ENDBRANCH  24  38
BRANCH  25  46
ATOM     46  C   UNL A   1      44.297  26.421  26.294  1.00  0.00     0.057 A 
ATOM     47  C   UNL A   1      45.457  26.540  25.509  1.00  0.00     0.134 A 
ATOM     48  C   UNL A   1      43.826  25.113  26.494  1.00  0.00     0.134 A 
ATOM     49  F   UNL A   1      46.010  27.741  25.286  1.00  0.00    -0.206 F 
ATOM     50  C   UNL A   1      46.134  25.423  24.997  1.00  0.00     0.040 A 
ATOM     51  C   UNL A   1      44.488  23.991  25.983  1.00  0.00     0.040 A 
ATOM     52  F   UNL A   1      42.763  24.875  27.276  1.00  0.00    -0.206 F 
ATOM     53  C   UNL A   1      45.658  24.142  25.247  1.00  0.00     0.006 A 
ENDBRANCH  25  46
BRANCH  37  54
ATOM     54  C   UNL A   1      44.826  31.793  29.500  1.00  0.00     0.057 A 
ATOM     55  C   UNL A   1      43.889  32.315  28.595  1.00  0.00     0.134 A 
ATOM     56  C   UNL A   1      46.011  32.515  29.673  1.00  0.00     0.134 A 
ATOM     57  F   UNL A   1      42.690  31.742  28.425  1.00  0.00    -0.206 F 
ATOM     58  C   UNL A   1      44.135  33.490  27.878  1.00  0.00     0.040 A 
ATOM     59  C   UNL A   1      46.254  33.708  28.990  1.00  0.00     0.040 A 
ATOM     60  F   UNL A   1      46.933  32.100  30.557  1.00  0.00    -0.206 F 
ATOM     61  C   UNL A   1      45.317  34.197  28.083  1.00  0.00     0.006 A 
ENDBRANCH  37  54
ENDBRANCH  11  12
ENDBRANCH   4   6
ENDBRANCH   1   2
BRANCH   1  62
ATOM     62  C   UNL A   1      33.030  34.709  28.602  1.00  0.00     0.042 C 
BRANCH  62  63
ATOM     63  C   UNL A   1      33.409  36.043  29.253  1.00  0.00     0.118 C 
BRANCH  63  64
ATOM     64  N   UNL A   1      32.524  36.403  30.348  1.00  0.00    -0.351 N 
ATOM     65  C   UNL A   1      32.545  36.046  31.678  1.00  0.00     0.271 C 
ATOM     66  H   UNL A   1      31.785  37.003  30.097  1.00  0.00     0.163 HD
ATOM     67  O   UNL A   1      31.567  36.346  32.361  1.00  0.00    -0.267 OA
BRANCH  65  68
ATOM     68  C   UNL A   1      33.678  35.302  32.252  1.00  0.00     0.152 A 
ATOM     69  C   UNL A   1      34.778  35.892  32.924  1.00  0.00     0.085 A 
ATOM     70  N   UNL A   1      33.842  33.972  32.138  1.00  0.00    -0.161 NA
ATOM     71  C   UNL A   1      35.608  34.857  33.274  1.00  0.00     0.155 A 
ATOM     72  N   UNL A   1      35.019  33.704  32.750  1.00  0.00    -0.220 N 
ATOM     73  N   UNL A   1      36.787  34.827  33.970  1.00  0.00    -0.235 NA
ATOM     74  C   UNL A   1      35.632  32.465  32.894  1.00  0.00     0.137 A 
ATOM     75  C   UNL A   1      37.333  33.652  34.101  1.00  0.00     0.135 A 
ATOM     76  C   UNL A   1      36.789  32.375  33.557  1.00  0.00     0.077 A 
ATOM     77  Cl  UNL A   1      37.643  30.922  33.813  1.00  0.00    -0.081 Cl
ENDBRANCH  65  68
ENDBRANCH  63  64
ENDBRANCH  62  63
ENDBRANCH   1  62
TORSDOF 10
ENDMDL
MODEL 2
REMARK VINA RESULT:     -11.4      1.136      2.075
REMARK SMILES O=C(NCCCNC(=O)c1cc2ncc(Cl)cn2n1)c1ccc(-c2c3nc(c(-c4c(F)cccc4F)c4ccc([nH]4)c(-c4c(F)cccc4F)c4nc(c(-c5c(F)cccc5F)c5ccc2[nH]5)C=C4)C=C3)cc1
REMARK SMILES IDX 4 1 3 2 1 3 2 4 20 6 21 7 73 8 22 9 72 10 23 11 24 12 25 13
REMARK SMILES IDX 66 14 26 15 71 16 65 17 67 18 27 19 70 20 64 21 63 22 28 24
REMARK SMILES IDX 54 25 37 26 53 27 38 28 41 29 52 30 68 31 39 32 40 33 51 35
REMARK SMILES IDX 69 36 42 37 29 38 30 39 35 40 31 41 32 42 34 43 36 44 33 45
REMARK SMILES IDX 55 46 56 47 61 48 57 49 58 50 60 51 62 52 59 53 43 54 44 55
REMARK SMILES IDX 49 56 45 57 46 58 48 59 50 60 47 61 5 62 6 63 7 64 8 65 9 67
REMARK SMILES IDX 10 68 11 69 19 70 12 71 18 72 13 73 17 74 14 75 15 76 16 77
REMARK H PARENT 3 5 67 23 41 34 7 66
REMARK Flexibility Score: inf
ROOT
ATOM      1  C   UNL A   1      35.285  34.261  28.388  1.00  0.00     0.118 C 
ENDROOT
BRANCH   1   2
ATOM      2  N   UNL A   1      34.627  33.028  28.001  1.00  0.00    -0.352 N 
ATOM      3  O   UNL A   1      33.944  30.937  27.903  1.00  0.00    -0.269 OA
ATOM      4  C   UNL A   1      34.881  31.696  28.167  1.00  0.00     0.251 C 
ATOM      5  H   UNL A   1      33.797  33.191  27.497  1.00  0.00     0.163 HD
BRANCH   4   6
ATOM      6  C   UNL A   1      36.189  31.097  28.550  1.00  0.00     0.039 A 
ATOM      7  C   UNL A   1      37.274  31.771  29.110  1.00  0.00     0.014 A 
ATOM      8  C   UNL A   1      36.332  29.725  28.258  1.00  0.00     0.014 A 
ATOM      9  C   UNL A   1      38.493  31.113  29.285  1.00  0.00     0.010 A 
ATOM     10  C   UNL A   1      37.544  29.063  28.431  1.00  0.00     0.010 A 
ATOM     11  C   UNL A   1      38.639  29.769  28.909  1.00  0.00    -0.014 A 
BRANCH  11  12
ATOM     12  C   UNL A   1      39.902  29.089  29.198  1.00  0.00     0.031 A 
ATOM     13  C   UNL A   1      40.221  29.005  30.653  1.00  0.00     0.074 A 
ATOM     14  C   UNL A   1      40.667  28.457  28.283  1.00  0.00     0.049 A 
ATOM     15  N   UNL A   1      41.211  29.548  31.283  1.00  0.00    -0.248 NA
ATOM     16  C   UNL A   1      39.252  28.331  31.532  1.00  0.00     0.031 C 
ATOM     17  C   UNL A   1      40.358  28.189  26.876  1.00  0.00     0.029 A 
ATOM     18  N   UNL A   1      41.877  27.841  28.446  1.00  0.00    -0.354 N 
ATOM     19  C   UNL A   1      41.097  29.134  32.610  1.00  0.00     0.074 A 
ATOM     20  C   UNL A   1      39.803  28.519  32.732  1.00  0.00     0.031 C 
ATOM     21  C   UNL A   1      41.249  27.299  26.378  1.00  0.00     0.029 A 
ATOM     22  C   UNL A   1      42.271  27.039  27.379  1.00  0.00     0.049 A 
ATOM     23  H   UNL A   1      42.426  27.957  29.256  1.00  0.00     0.167 HD
ATOM     24  C   UNL A   1      42.174  29.136  33.445  1.00  0.00     0.037 A 
ATOM     25  C   UNL A   1      43.340  26.202  27.336  1.00  0.00     0.037 A 
ATOM     26  C   UNL A   1      43.217  29.990  32.939  1.00  0.00     0.049 A 
ATOM     27  C   UNL A   1      44.284  26.633  28.392  1.00  0.00     0.074 A 
ATOM     28  C   UNL A   1      43.340  31.338  32.664  1.00  0.00     0.029 A 
ATOM     29  N   UNL A   1      44.277  29.384  32.315  1.00  0.00    -0.354 N 
ATOM     30  N   UNL A   1      44.963  27.742  28.359  1.00  0.00    -0.248 NA
ATOM     31  C   UNL A   1      44.172  26.003  29.697  1.00  0.00     0.031 C 
ATOM     32  C   UNL A   1      44.184  31.406  31.516  1.00  0.00     0.029 A 
ATOM     33  C   UNL A   1      44.567  30.104  31.189  1.00  0.00     0.049 A 
ATOM     34  H   UNL A   1      44.744  28.575  32.623  1.00  0.00     0.167 HD
ATOM     35  C   UNL A   1      44.977  28.179  29.673  1.00  0.00     0.074 A 
ATOM     36  C   UNL A   1      44.572  27.019  30.463  1.00  0.00     0.031 C 
ATOM     37  C   UNL A   1      45.041  29.510  29.963  1.00  0.00     0.037 A 
BRANCH  24  38
ATOM     38  C   UNL A   1      42.456  28.069  34.484  1.00  0.00     0.057 A 
ATOM     39  C   UNL A   1      42.785  26.768  34.052  1.00  0.00     0.134 A 
ATOM     40  C   UNL A   1      42.113  28.168  35.847  1.00  0.00     0.134 A 
ATOM     41  F   UNL A   1      43.134  26.530  32.778  1.00  0.00    -0.206 F 
ATOM     42  C   UNL A   1      42.670  25.644  34.881  1.00  0.00     0.040 A 
ATOM     43  C   UNL A   1      42.044  27.060  36.696  1.00  0.00     0.040 A 
ATOM     44  F   UNL A   1      41.730  29.318  36.414  1.00  0.00    -0.206 F 
ATOM     45  C   UNL A   1      42.285  25.788  36.206  1.00  0.00     0.006 A 
ENDBRANCH  24  38
BRANCH  25  46
ATOM     46  C   UNL A   1      43.502  24.886  26.665  1.00  0.00     0.057 A 
ATOM     47  C   UNL A   1      42.714  23.782  27.032  1.00  0.00     0.134 A 
ATOM     48  C   UNL A   1      44.192  24.767  25.448  1.00  0.00     0.134 A 
ATOM     49  F   UNL A   1      41.986  23.806  28.159  1.00  0.00    -0.206 F 
ATOM     50  C   UNL A   1      42.583  22.649  26.215  1.00  0.00     0.040 A 
ATOM     51  C   UNL A   1      44.075  23.640  24.627  1.00  0.00     0.040 A 
ATOM     52  F   UNL A   1      44.925  25.782  24.968  1.00  0.00    -0.206 F 
ATOM     53  C   UNL A   1      43.253  22.583  24.999  1.00  0.00     0.006 A 
ENDBRANCH  25  46
BRANCH  37  54
ATOM     54  C   UNL A   1      45.395  30.459  28.851  1.00  0.00     0.057 A 
ATOM     55  C   UNL A   1      46.707  30.752  28.451  1.00  0.00     0.134 A 
ATOM     56  C   UNL A   1      44.361  30.963  28.055  1.00  0.00     0.134 A 
ATOM     57  F   UNL A   1      47.763  30.243  29.098  1.00  0.00    -0.206 F 
ATOM     58  C   UNL A   1      46.974  31.533  27.322  1.00  0.00     0.040 A 
ATOM     59  C   UNL A   1      44.615  31.714  26.906  1.00  0.00     0.040 A 
ATOM     60  F   UNL A   1      43.082  30.683  28.351  1.00  0.00    -0.206 F 
ATOM     61  C   UNL A   1      45.926  32.007  26.539  1.00  0.00     0.006 A 
ENDBRANCH  37  54
ENDBRANCH  11  12
ENDBRANCH   4   6
ENDBRANCH   1   2
BRANCH   1  62
ATOM     62  C   UNL A   1      34.378  35.490  28.455  1.00  0.00     0.042 C 
BRANCH  62  63
ATOM     63  C   UNL A   1      32.960  35.225  28.969  1.00  0.00     0.118 C 
BRANCH  63  64
ATOM     64  N   UNL A   1      32.534  36.197  29.962  1.00  0.00    -0.351 N 
ATOM     65  C   UNL A   1      32.820  36.297  31.305  1.00  0.00     0.271 C 
ATOM     66  H   UNL A   1      31.940  36.903  29.617  1.00  0.00     0.163 HD
ATOM     67  O   UNL A   1      32.181  37.117  31.962  1.00  0.00    -0.267 OA
BRANCH  65  68
ATOM     68  C   UNL A   1      33.829  35.432  31.938  1.00  0.00     0.152 A 
ATOM     69  C   UNL A   1      34.839  35.880  32.828  1.00  0.00     0.085 A 
ATOM     70  N   UNL A   1      33.959  34.117  31.686  1.00  0.00    -0.161 NA
ATOM     71  C   UNL A   1      35.570  34.767  33.162  1.00  0.00     0.155 A 
ATOM     72  N   UNL A   1      35.023  33.717  32.421  1.00  0.00    -0.220 N 
ATOM     73  N   UNL A   1      36.631  34.593  34.009  1.00  0.00    -0.235 NA
ATOM     74  C   UNL A   1      35.563  32.438  32.497  1.00  0.00     0.137 A 
ATOM     75  C   UNL A   1      37.109  33.382  34.070  1.00  0.00     0.135 A 
ATOM     76  C   UNL A   1      36.605  32.209  33.302  1.00  0.00     0.077 A 
ATOM     77  Cl  UNL A   1      37.358  30.693  33.495  1.00  0.00    -0.081 Cl
ENDBRANCH  65  68
ENDBRANCH  63  64
ENDBRANCH  62  63
ENDBRANCH   1  62
TORSDOF 10
ENDMDL
MODEL 3
REMARK VINA RESULT:     -11.4      4.242     11.141
REMARK SMILES O=C(NCCCNC(=O)c1cc2ncc(Cl)cn2n1)c1ccc(-c2c3nc(c(-c4c(F)cccc4F)c4ccc([nH]4)c(-c4c(F)cccc4F)c4nc(c(-c5c(F)cccc5F)c5ccc2[nH]5)C=C4)C=C3)cc1
REMARK SMILES IDX 4 1 3 2 1 3 2 4 20 6 21 7 73 8 22 9 72 10 23 11 24 12 25 13
REMARK SMILES IDX 66 14 26 15 71 16 65 17 67 18 27 19 70 20 64 21 63 22 28 24
REMARK SMILES IDX 54 25 37 26 53 27 38 28 41 29 52 30 68 31 39 32 40 33 51 35
REMARK SMILES IDX 69 36 42 37 29 38 30 39 35 40 31 41 32 42 34 43 36 44 33 45
REMARK SMILES IDX 55 46 56 47 61 48 57 49 58 50 60 51 62 52 59 53 43 54 44 55
REMARK SMILES IDX 49 56 45 57 46 58 48 59 50 60 47 61 5 62 6 63 7 64 8 65 9 67
REMARK SMILES IDX 10 68 11 69 19 70 12 71 18 72 13 73 17 74 14 75 15 76 16 77
REMARK H PARENT 3 5 67 23 41 34 7 66
REMARK Flexibility Score: inf
ROOT
ATOM      1  C   UNL A   1      41.812  20.487  26.553  1.00  0.00     0.118 C 
ENDROOT
BRANCH   1   2
ATOM      2  N   UNL A   1      40.403  20.815  26.447  1.00  0.00    -0.352 N 
ATOM      3  O   UNL A   1      38.496  21.867  26.126  1.00  0.00    -0.269 OA
ATOM      4  C   UNL A   1      39.663  21.960  26.518  1.00  0.00     0.251 C 
ATOM      5  H   UNL A   1      39.847  20.019  26.284  1.00  0.00     0.163 HD
BRANCH   4   6
ATOM      6  C   UNL A   1      40.113  23.257  27.096  1.00  0.00     0.039 A 
ATOM      7  C   UNL A   1      41.280  23.475  27.826  1.00  0.00     0.014 A 
ATOM      8  C   UNL A   1      39.226  24.338  26.914  1.00  0.00     0.014 A 
ATOM      9  C   UNL A   1      41.506  24.712  28.433  1.00  0.00     0.010 A 
ATOM     10  C   UNL A   1      39.446  25.573  27.515  1.00  0.00     0.010 A 
ATOM     11  C   UNL A   1      40.570  25.749  28.310  1.00  0.00    -0.014 A 
BRANCH  11  12
ATOM     12  C   UNL A   1      40.889  27.059  28.879  1.00  0.00     0.031 A 
ATOM     13  C   UNL A   1      42.082  27.709  28.262  1.00  0.00     0.074 A 
ATOM     14  C   UNL A   1      40.124  27.720  29.774  1.00  0.00     0.049 A 
ATOM     15  N   UNL A   1      43.208  28.001  28.826  1.00  0.00    -0.248 NA
ATOM     16  C   UNL A   1      42.060  27.954  26.812  1.00  0.00     0.031 C 
ATOM     17  C   UNL A   1      38.787  27.368  30.256  1.00  0.00     0.029 A 
ATOM     18  N   UNL A   1      40.362  28.915  30.395  1.00  0.00    -0.354 N 
ATOM     19  C   UNL A   1      43.975  28.637  27.850  1.00  0.00     0.074 A 
ATOM     20  C   UNL A   1      43.283  28.445  26.604  1.00  0.00     0.031 C 
ATOM     21  C   UNL A   1      38.255  28.418  30.925  1.00  0.00     0.029 A 
ATOM     22  C   UNL A   1      39.258  29.464  31.042  1.00  0.00     0.049 A 
ATOM     23  H   UNL A   1      41.244  29.353  30.386  1.00  0.00     0.167 HD
ATOM     24  C   UNL A   1      45.007  29.460  28.187  1.00  0.00     0.037 A 
ATOM     25  C   UNL A   1      39.169  30.699  31.603  1.00  0.00     0.037 A 
ATOM     26  C   UNL A   1      45.439  29.218  29.540  1.00  0.00     0.049 A 
ATOM     27  C   UNL A   1      40.548  31.173  31.853  1.00  0.00     0.074 A 
ATOM     28  C   UNL A   1      45.978  28.148  30.225  1.00  0.00     0.029 A 
ATOM     29  N   UNL A   1      45.019  30.103  30.500  1.00  0.00    -0.354 N 
ATOM     30  N   UNL A   1      41.348  30.663  32.743  1.00  0.00    -0.248 NA
ATOM     31  C   UNL A   1      41.186  31.973  30.820  1.00  0.00     0.031 C 
ATOM     32  C   UNL A   1      45.429  28.235  31.539  1.00  0.00     0.029 A 
ATOM     33  C   UNL A   1      44.631  29.379  31.594  1.00  0.00     0.049 A 
ATOM     34  H   UNL A   1      44.999  31.083  30.415  1.00  0.00     0.167 HD
ATOM     35  C   UNL A   1      42.597  30.695  32.146  1.00  0.00     0.074 A 
ATOM     36  C   UNL A   1      42.454  31.608  31.014  1.00  0.00     0.031 C 
ATOM     37  C   UNL A   1      43.543  29.763  32.459  1.00  0.00     0.037 A 
BRANCH  24  38
ATOM     38  C   UNL A   1      45.351  30.747  27.463  1.00  0.00     0.057 A 
ATOM     39  C   UNL A   1      46.672  30.940  27.011  1.00  0.00     0.134 A 
ATOM     40  C   UNL A   1      44.556  31.910  27.474  1.00  0.00     0.134 A 
ATOM     41  F   UNL A   1      47.538  29.916  26.946  1.00  0.00    -0.206 F 
ATOM     42  C   UNL A   1      47.189  32.206  26.705  1.00  0.00     0.040 A 
ATOM     43  C   UNL A   1      45.048  33.170  27.124  1.00  0.00     0.040 A 
ATOM     44  F   UNL A   1      43.293  31.917  27.917  1.00  0.00    -0.206 F 
ATOM     45  C   UNL A   1      46.378  33.330  26.775  1.00  0.00     0.006 A 
ENDBRANCH  24  38
BRANCH  25  46
ATOM     46  C   UNL A   1      38.018  31.635  31.682  1.00  0.00     0.057 A 
ATOM     47  C   UNL A   1      37.504  32.253  30.530  1.00  0.00     0.134 A 
ATOM     48  C   UNL A   1      37.203  31.695  32.824  1.00  0.00     0.134 A 
ATOM     49  F   UNL A   1      38.187  32.223  29.376  1.00  0.00    -0.206 F 
ATOM     50  C   UNL A   1      36.234  32.851  30.502  1.00  0.00     0.040 A 
ATOM     51  C   UNL A   1      35.938  32.293  32.811  1.00  0.00     0.040 A 
ATOM     52  F   UNL A   1      37.564  31.087  33.963  1.00  0.00    -0.206 F 
ATOM     53  C   UNL A   1      35.440  32.858  31.642  1.00  0.00     0.006 A 
ENDBRANCH  25  46
BRANCH  37  54
ATOM     54  C   UNL A   1      43.309  28.899  33.667  1.00  0.00     0.057 A 
ATOM     55  C   UNL A   1      43.650  29.265  34.978  1.00  0.00     0.134 A 
ATOM     56  C   UNL A   1      42.562  27.727  33.510  1.00  0.00     0.134 A 
ATOM     57  F   UNL A   1      44.289  30.413  35.237  1.00  0.00    -0.206 F 
ATOM     58  C   UNL A   1      43.284  28.483  36.078  1.00  0.00     0.040 A 
ATOM     59  C   UNL A   1      42.160  26.956  34.602  1.00  0.00     0.040 A 
ATOM     60  F   UNL A   1      42.160  27.341  32.288  1.00  0.00    -0.206 F 
ATOM     61  C   UNL A   1      42.526  27.330  35.893  1.00  0.00     0.006 A 
ENDBRANCH  37  54
ENDBRANCH  11  12
ENDBRANCH   4   6
ENDBRANCH   1   2
BRANCH   1  62
ATOM     62  C   UNL A   1      42.240  19.210  25.832  1.00  0.00     0.042 C 
BRANCH  62  63
ATOM     63  C   UNL A   1      43.576  18.620  26.292  1.00  0.00     0.118 C 
BRANCH  63  64
ATOM     64  N   UNL A   1      44.507  18.418  25.194  1.00  0.00    -0.351 N 
ATOM     65  C   UNL A   1      45.206  19.324  24.428  1.00  0.00     0.271 C 
ATOM     66  H   UNL A   1      44.663  17.475  24.957  1.00  0.00     0.163 HD
ATOM     67  O   UNL A   1      45.792  18.894  23.435  1.00  0.00    -0.267 OA
BRANCH  65  68
ATOM     68  C   UNL A   1      45.224  20.756  24.764  1.00  0.00     0.152 A 
ATOM     69  C   UNL A   1      44.438  21.749  24.125  1.00  0.00     0.085 A 
ATOM     70  N   UNL A   1      46.049  21.308  25.672  1.00  0.00    -0.161 NA
ATOM     71  C   UNL A   1      44.774  22.940  24.720  1.00  0.00     0.155 A 
ATOM     72  N   UNL A   1      45.782  22.634  25.637  1.00  0.00    -0.220 N 
ATOM     73  N   UNL A   1      44.309  24.215  24.538  1.00  0.00    -0.235 NA
ATOM     74  C   UNL A   1      46.381  23.635  26.393  1.00  0.00     0.137 A 
ATOM     75  C   UNL A   1      44.879  25.130  25.268  1.00  0.00     0.135 A 
ATOM     76  C   UNL A   1      45.974  24.900  26.253  1.00  0.00     0.077 A 
ATOM     77  Cl  UNL A   1      46.615  26.221  27.118  1.00  0.00    -0.081 Cl
ENDBRANCH  65  68
ENDBRANCH  63  64
ENDBRANCH  62  63
ENDBRANCH   1  62
TORSDOF 10
ENDMDL
