MODEL 1
REMARK VINA RESULT:     -10.7      0.000      0.000
REMARK SMILES C=CC[N@@H+](CC(=O)NCCCNC(=O)c1ccc(-c2c3nc(c(-c4c(F)cccc4F)c4ccc([nH]4)c(-c4c(F)cccc4F)c4nc(c(-c5c(F)cccc5F)c5ccc2[nH]5)C=C4)C=C3)cc1)[C@@H](C)c1c(F)cccc1F
REMARK SMILES IDX 9 1 8 2 6 3 7 4 5 6 4 7 3 9 2 10 1 11 69 12 70 13 71 14
REMARK SMILES IDX 72 15 77 16 73 17 74 18 76 19 78 20 75 21 10 22 11 23 12 24
REMARK SMILES IDX 13 25 14 27 15 28 16 29 68 30 17 31 67 32 18 33 19 34 20 35
REMARK SMILES IDX 61 36 21 37 66 38 60 39 62 40 22 41 65 42 59 43 58 44 23 46
REMARK SMILES IDX 49 47 32 48 48 49 33 50 36 51 47 52 63 53 34 54 35 55 46 57
REMARK SMILES IDX 64 58 37 59 24 60 25 61 30 62 26 63 27 64 29 65 31 66 28 67
REMARK SMILES IDX 50 68 51 69 56 70 52 71 53 72 55 73 57 74 54 75 38 76 39 77
REMARK SMILES IDX 44 78 40 79 41 80 43 81 45 82 42 83
REMARK H PARENT 8 5 4 8 12 26 62 45 36 56
REMARK Flexibility Score: inf
ROOT
ATOM      1  C   UNL A   1      31.551  27.023  26.206  1.00  0.00     0.118 C 
ENDROOT
BRANCH   1   2
ATOM      2  N   UNL A   1      30.996  25.780  26.719  1.00  0.00    -0.351 N 
ATOM      3  C   UNL A   1      31.126  24.478  26.343  1.00  0.00     0.275 C 
ATOM      4  O   UNL A   1      30.676  23.651  27.151  1.00  0.00    -0.269 OA
ATOM      5  H   UNL A   1      30.406  25.907  27.497  1.00  0.00     0.163 HD
BRANCH   3   6
ATOM      6  C   UNL A   1      31.833  23.988  25.065  1.00  0.00     0.364 C 
BRANCH   6   7
ATOM      7  N   UNL A   1      33.023  23.099  25.194  1.00  0.00    -0.318 N 
ATOM      8  H   UNL A   1      32.711  22.229  25.626  1.00  0.00     0.349 HD
BRANCH   7   9
ATOM      9  C   UNL A   1      33.977  23.630  26.149  1.00  0.00     0.291 C 
BRANCH   9  10
ATOM     10  C   UNL A   1      34.164  22.962  27.474  1.00  0.00     0.025 C 
ATOM     11  C   UNL A   1      33.584  21.792  27.782  1.00  0.00     0.010 C 
ENDBRANCH   9  10
ENDBRANCH   7   9
BRANCH   7  12
ATOM     12  C   UNL A   1      33.532  22.496  23.928  1.00  0.00     0.218 C 
ATOM     13  C   UNL A   1      34.909  22.992  23.450  1.00  0.00     0.081 C 
BRANCH  12  14
ATOM     14  C   UNL A   1      33.418  20.969  23.891  1.00  0.00     0.080 A 
ATOM     15  C   UNL A   1      34.235  20.101  24.634  1.00  0.00     0.135 A 
ATOM     16  C   UNL A   1      32.408  20.370  23.125  1.00  0.00     0.135 A 
ATOM     17  F   UNL A   1      35.218  20.568  25.418  1.00  0.00    -0.206 F 
ATOM     18  C   UNL A   1      34.041  18.717  24.636  1.00  0.00     0.040 A 
ATOM     19  C   UNL A   1      32.183  18.991  23.143  1.00  0.00     0.040 A 
ATOM     20  F   UNL A   1      31.585  21.131  22.387  1.00  0.00    -0.206 F 
ATOM     21  C   UNL A   1      33.000  18.160  23.902  1.00  0.00     0.006 A 
ENDBRANCH  12  14
ENDBRANCH   7  12
ENDBRANCH   6   7
ENDBRANCH   3   6
ENDBRANCH   1   2
BRANCH   1  22
ATOM     22  C   UNL A   1      31.869  28.029  27.319  1.00  0.00     0.042 C 
BRANCH  22  23
ATOM     23  C   UNL A   1      33.305  28.527  27.351  1.00  0.00     0.118 C 
BRANCH  23  24
ATOM     24  N   UNL A   1      33.406  29.931  27.695  1.00  0.00    -0.352 N 
ATOM     25  C   UNL A   1      34.437  30.689  28.196  1.00  0.00     0.251 C 
ATOM     26  H   UNL A   1      32.577  30.439  27.540  1.00  0.00     0.163 HD
ATOM     27  O   UNL A   1      34.178  31.836  28.560  1.00  0.00    -0.269 OA
BRANCH  25  28
ATOM     28  C   UNL A   1      35.833  30.190  28.342  1.00  0.00     0.039 A 
ATOM     29  C   UNL A   1      36.201  29.634  29.577  1.00  0.00     0.014 A 
ATOM     30  C   UNL A   1      36.816  30.345  27.364  1.00  0.00     0.014 A 
ATOM     31  C   UNL A   1      37.517  29.214  29.812  1.00  0.00     0.010 A 
ATOM     32  C   UNL A   1      38.108  29.842  27.564  1.00  0.00     0.010 A 
ATOM     33  C   UNL A   1      38.482  29.292  28.798  1.00  0.00    -0.014 A 
BRANCH  33  34
ATOM     34  C   UNL A   1      39.888  28.854  29.031  1.00  0.00     0.031 A 
ATOM     35  C   UNL A   1      40.879  29.781  29.688  1.00  0.00     0.074 A 
ATOM     36  C   UNL A   1      40.294  27.637  28.618  1.00  0.00     0.049 A 
ATOM     37  N   UNL A   1      42.158  29.604  29.913  1.00  0.00    -0.248 NA
ATOM     38  C   UNL A   1      40.372  31.091  30.129  1.00  0.00     0.031 C 
ATOM     39  C   UNL A   1      39.457  26.649  27.937  1.00  0.00     0.029 A 
ATOM     40  N   UNL A   1      41.522  27.026  28.707  1.00  0.00    -0.354 N 
ATOM     41  C   UNL A   1      42.610  30.785  30.493  1.00  0.00     0.074 A 
ATOM     42  C   UNL A   1      41.480  31.686  30.546  1.00  0.00     0.031 C 
ATOM     43  C   UNL A   1      40.186  25.549  27.691  1.00  0.00     0.029 A 
ATOM     44  C   UNL A   1      41.552  25.764  28.163  1.00  0.00     0.049 A 
ATOM     45  H   UNL A   1      42.307  27.451  29.120  1.00  0.00     0.167 HD
ATOM     46  C   UNL A   1      43.847  31.086  30.959  1.00  0.00     0.037 A 
ATOM     47  C   UNL A   1      42.561  24.879  28.053  1.00  0.00     0.037 A 
ATOM     48  C   UNL A   1      44.964  30.180  30.954  1.00  0.00     0.049 A 
ATOM     49  C   UNL A   1      43.920  25.230  28.594  1.00  0.00     0.074 A 
ATOM     50  C   UNL A   1      46.236  30.375  31.466  1.00  0.00     0.029 A 
ATOM     51  N   UNL A   1      44.942  28.904  30.414  1.00  0.00    -0.354 N 
ATOM     52  N   UNL A   1      44.314  26.331  29.184  1.00  0.00    -0.248 NA
ATOM     53  C   UNL A   1      44.972  24.212  28.454  1.00  0.00     0.031 C 
ATOM     54  C   UNL A   1      46.993  29.228  31.207  1.00  0.00     0.029 A 
ATOM     55  C   UNL A   1      46.182  28.305  30.568  1.00  0.00     0.049 A 
ATOM     56  H   UNL A   1      44.161  28.484  29.985  1.00  0.00     0.167 HD
ATOM     57  C   UNL A   1      45.649  26.130  29.509  1.00  0.00     0.074 A 
ATOM     58  C   UNL A   1      45.995  24.797  29.060  1.00  0.00     0.031 C 
ATOM     59  C   UNL A   1      46.511  26.976  30.124  1.00  0.00     0.037 A 
BRANCH  46  60
ATOM     60  C   UNL A   1      44.055  32.460  31.527  1.00  0.00     0.057 A 
ATOM     61  C   UNL A   1      44.469  33.535  30.729  1.00  0.00     0.134 A 
ATOM     62  C   UNL A   1      43.803  32.721  32.881  1.00  0.00     0.134 A 
ATOM     63  F   UNL A   1      44.738  33.350  29.428  1.00  0.00    -0.206 F 
ATOM     64  C   UNL A   1      44.653  34.811  31.262  1.00  0.00     0.040 A 
ATOM     65  C   UNL A   1      43.959  33.999  33.419  1.00  0.00     0.040 A 
ATOM     66  F   UNL A   1      43.395  31.739  33.699  1.00  0.00    -0.206 F 
ATOM     67  C   UNL A   1      44.391  35.048  32.610  1.00  0.00     0.006 A 
ENDBRANCH  46  60
BRANCH  47  68
ATOM     68  C   UNL A   1      42.321  23.557  27.423  1.00  0.00     0.057 A 
ATOM     69  C   UNL A   1      41.958  22.448  28.195  1.00  0.00     0.134 A 
ATOM     70  C   UNL A   1      42.453  23.368  26.043  1.00  0.00     0.134 A 
ATOM     71  F   UNL A   1      41.837  22.563  29.527  1.00  0.00    -0.206 F 
ATOM     72  C   UNL A   1      41.749  21.193  27.620  1.00  0.00     0.040 A 
ATOM     73  C   UNL A   1      42.227  22.125  25.452  1.00  0.00     0.040 A 
ATOM     74  F   UNL A   1      42.794  24.394  25.249  1.00  0.00    -0.206 F 
ATOM     75  C   UNL A   1      41.879  21.031  26.242  1.00  0.00     0.006 A 
ENDBRANCH  47  68
BRANCH  59  76
ATOM     76  C   UNL A   1      47.902  26.475  30.377  1.00  0.00     0.057 A 
ATOM     77  C   UNL A   1      48.932  26.659  29.447  1.00  0.00     0.134 A 
ATOM     78  C   UNL A   1      48.221  25.837  31.582  1.00  0.00     0.134 A 
ATOM     79  F   UNL A   1      48.686  27.251  28.269  1.00  0.00    -0.206 F 
ATOM     80  C   UNL A   1      50.229  26.209  29.699  1.00  0.00     0.040 A 
ATOM     81  C   UNL A   1      49.520  25.402  31.855  1.00  0.00     0.040 A 
ATOM     82  F   UNL A   1      47.282  25.636  32.518  1.00  0.00    -0.206 F 
ATOM     83  C   UNL A   1      50.526  25.584  30.909  1.00  0.00     0.006 A 
ENDBRANCH  59  76
ENDBRANCH  33  34
ENDBRANCH  25  28
ENDBRANCH  23  24
ENDBRANCH  22  23
ENDBRANCH   1  22
TORSDOF 15
ENDMDL
MODEL 2
REMARK VINA RESULT:     -10.5      4.012      5.929
REMARK SMILES C=CC[N@@H+](CC(=O)NCCCNC(=O)c1ccc(-c2c3nc(c(-c4c(F)cccc4F)c4ccc([nH]4)c(-c4c(F)cccc4F)c4nc(c(-c5c(F)cccc5F)c5ccc2[nH]5)C=C4)C=C3)cc1)[C@@H](C)c1c(F)cccc1F
REMARK SMILES IDX 9 1 8 2 6 3 7 4 5 6 4 7 3 9 2 10 1 11 69 12 70 13 71 14
REMARK SMILES IDX 72 15 77 16 73 17 74 18 76 19 78 20 75 21 10 22 11 23 12 24
REMARK SMILES IDX 13 25 14 27 15 28 16 29 68 30 17 31 67 32 18 33 19 34 20 35
REMARK SMILES IDX 61 36 21 37 66 38 60 39 62 40 22 41 65 42 59 43 58 44 23 46
REMARK SMILES IDX 49 47 32 48 48 49 33 50 36 51 47 52 63 53 34 54 35 55 46 57
REMARK SMILES IDX 64 58 37 59 24 60 25 61 30 62 26 63 27 64 29 65 31 66 28 67
REMARK SMILES IDX 50 68 51 69 56 70 52 71 53 72 55 73 57 74 54 75 38 76 39 77
REMARK SMILES IDX 44 78 40 79 41 80 43 81 45 82 42 83
REMARK H PARENT 8 5 4 8 12 26 62 45 36 56
REMARK Flexibility Score: inf
ROOT
ATOM      1  C   UNL A   1      30.945  31.023  25.424  1.00  0.00     0.118 C 
ENDROOT
BRANCH   1   2
ATOM      2  N   UNL A   1      32.191  30.272  25.413  1.00  0.00    -0.351 N 
ATOM      3  C   UNL A   1      32.478  28.945  25.522  1.00  0.00     0.275 C 
ATOM      4  O   UNL A   1      33.648  28.638  25.250  1.00  0.00    -0.269 OA
ATOM      5  H   UNL A   1      32.988  30.839  25.304  1.00  0.00     0.163 HD
BRANCH   3   6
ATOM      6  C   UNL A   1      31.463  27.842  25.877  1.00  0.00     0.364 C 
BRANCH   6   7
ATOM      7  N   UNL A   1      31.112  26.826  24.845  1.00  0.00    -0.318 N 
ATOM      8  H   UNL A   1      30.108  26.653  24.913  1.00  0.00     0.349 HD
BRANCH   7   9
ATOM      9  C   UNL A   1      31.701  25.536  25.152  1.00  0.00     0.291 C 
BRANCH   9  10
ATOM     10  C   UNL A   1      30.873  24.465  25.787  1.00  0.00     0.025 C 
ATOM     11  C   UNL A   1      31.360  23.629  26.717  1.00  0.00     0.010 C 
ENDBRANCH   9  10
ENDBRANCH   7   9
BRANCH   7  12
ATOM     12  C   UNL A   1      31.113  27.298  23.430  1.00  0.00     0.218 C 
ATOM     13  C   UNL A   1      31.458  26.241  22.365  1.00  0.00     0.081 C 
BRANCH  12  14
ATOM     14  C   UNL A   1      29.872  28.115  23.058  1.00  0.00     0.080 A 
ATOM     15  C   UNL A   1      28.560  27.759  23.413  1.00  0.00     0.135 A 
ATOM     16  C   UNL A   1      30.024  29.329  22.374  1.00  0.00     0.135 A 
ATOM     17  F   UNL A   1      28.303  26.629  24.088  1.00  0.00    -0.206 F 
ATOM     18  C   UNL A   1      27.465  28.577  23.127  1.00  0.00     0.040 A 
ATOM     19  C   UNL A   1      28.941  30.172  22.109  1.00  0.00     0.040 A 
ATOM     20  F   UNL A   1      31.245  29.741  22.000  1.00  0.00    -0.206 F 
ATOM     21  C   UNL A   1      27.656  29.797  22.488  1.00  0.00     0.006 A 
ENDBRANCH  12  14
ENDBRANCH   7  12
ENDBRANCH   6   7
ENDBRANCH   3   6
ENDBRANCH   1   2
BRANCH   1  22
ATOM     22  C   UNL A   1      31.024  32.280  26.300  1.00  0.00     0.042 C 
BRANCH  22  23
ATOM     23  C   UNL A   1      32.398  32.584  26.876  1.00  0.00     0.118 C 
BRANCH  23  24
ATOM     24  N   UNL A   1      32.503  33.931  27.399  1.00  0.00    -0.352 N 
ATOM     25  C   UNL A   1      33.280  34.480  28.390  1.00  0.00     0.251 C 
ATOM     26  H   UNL A   1      31.903  34.576  26.959  1.00  0.00     0.163 HD
ATOM     27  O   UNL A   1      33.027  35.633  28.741  1.00  0.00    -0.269 OA
BRANCH  25  28
ATOM     28  C   UNL A   1      34.388  33.752  29.069  1.00  0.00     0.039 A 
ATOM     29  C   UNL A   1      35.702  34.149  28.781  1.00  0.00     0.014 A 
ATOM     30  C   UNL A   1      34.195  32.635  29.884  1.00  0.00     0.014 A 
ATOM     31  C   UNL A   1      36.796  33.460  29.323  1.00  0.00     0.010 A 
ATOM     32  C   UNL A   1      35.283  32.004  30.500  1.00  0.00     0.010 A 
ATOM     33  C   UNL A   1      36.598  32.392  30.209  1.00  0.00    -0.014 A 
BRANCH  33  34
ATOM     34  C   UNL A   1      37.749  31.645  30.793  1.00  0.00     0.031 A 
ATOM     35  C   UNL A   1      38.198  31.915  32.208  1.00  0.00     0.074 A 
ATOM     36  C   UNL A   1      38.423  30.749  30.045  1.00  0.00     0.049 A 
ATOM     37  N   UNL A   1      39.216  31.416  32.864  1.00  0.00    -0.248 NA
ATOM     38  C   UNL A   1      37.413  32.894  32.978  1.00  0.00     0.031 C 
ATOM     39  C   UNL A   1      38.126  30.412  28.652  1.00  0.00     0.029 A 
ATOM     40  N   UNL A   1      39.507  29.962  30.353  1.00  0.00    -0.354 N 
ATOM     41  C   UNL A   1      39.209  32.039  34.108  1.00  0.00     0.074 A 
ATOM     42  C   UNL A   1      38.112  32.982  34.099  1.00  0.00     0.031 C 
ATOM     43  C   UNL A   1      38.988  29.472  28.234  1.00  0.00     0.029 A 
ATOM     44  C   UNL A   1      39.922  29.163  29.314  1.00  0.00     0.049 A 
ATOM     45  H   UNL A   1      39.945  29.969  31.234  1.00  0.00     0.167 HD
ATOM     46  C   UNL A   1      40.025  31.831  35.170  1.00  0.00     0.037 A 
ATOM     47  C   UNL A   1      40.939  28.285  29.235  1.00  0.00     0.037 A 
ATOM     48  C   UNL A   1      41.088  30.862  35.204  1.00  0.00     0.049 A 
ATOM     49  C   UNL A   1      41.821  28.059  30.432  1.00  0.00     0.074 A 
ATOM     50  C   UNL A   1      41.923  30.533  36.258  1.00  0.00     0.029 A 
ATOM     51  N   UNL A   1      41.458  30.059  34.137  1.00  0.00    -0.354 N 
ATOM     52  N   UNL A   1      41.767  28.619  31.615  1.00  0.00    -0.248 NA
ATOM     53  C   UNL A   1      42.903  27.074  30.282  1.00  0.00     0.031 C 
ATOM     54  C   UNL A   1      42.820  29.554  35.819  1.00  0.00     0.029 A 
ATOM     55  C   UNL A   1      42.519  29.246  34.503  1.00  0.00     0.049 A 
ATOM     56  H   UNL A   1      41.030  30.064  33.249  1.00  0.00     0.167 HD
ATOM     57  C   UNL A   1      42.788  28.040  32.357  1.00  0.00     0.074 A 
ATOM     58  C   UNL A   1      43.439  27.075  31.495  1.00  0.00     0.031 C 
ATOM     59  C   UNL A   1      43.152  28.285  33.639  1.00  0.00     0.037 A 
BRANCH  46  60
ATOM     60  C   UNL A   1      39.793  32.667  36.394  1.00  0.00     0.057 A 
ATOM     61  C   UNL A   1      40.535  33.829  36.647  1.00  0.00     0.134 A 
ATOM     62  C   UNL A   1      38.792  32.328  37.314  1.00  0.00     0.134 A 
ATOM     63  F   UNL A   1      41.516  34.203  35.811  1.00  0.00    -0.206 F 
ATOM     64  C   UNL A   1      40.309  34.607  37.783  1.00  0.00     0.040 A 
ATOM     65  C   UNL A   1      38.539  33.113  38.441  1.00  0.00     0.040 A 
ATOM     66  F   UNL A   1      38.038  31.234  37.128  1.00  0.00    -0.206 F 
ATOM     67  C   UNL A   1      39.303  34.253  38.681  1.00  0.00     0.006 A 
ENDBRANCH  46  60
BRANCH  47  68
ATOM     68  C   UNL A   1      41.169  27.529  27.979  1.00  0.00     0.057 A 
ATOM     69  C   UNL A   1      41.944  28.068  26.947  1.00  0.00     0.134 A 
ATOM     70  C   UNL A   1      40.620  26.257  27.778  1.00  0.00     0.134 A 
ATOM     71  F   UNL A   1      42.479  29.293  27.074  1.00  0.00    -0.206 F 
ATOM     72  C   UNL A   1      42.152  27.379  25.751  1.00  0.00     0.040 A 
ATOM     73  C   UNL A   1      40.837  25.547  26.597  1.00  0.00     0.040 A 
ATOM     74  F   UNL A   1      39.873  25.684  28.733  1.00  0.00    -0.206 F 
ATOM     75  C   UNL A   1      41.601  26.111  25.576  1.00  0.00     0.006 A 
ENDBRANCH  47  68
BRANCH  59  76
ATOM     76  C   UNL A   1      44.286  27.478  34.197  1.00  0.00     0.057 A 
ATOM     77  C   UNL A   1      44.082  26.213  34.763  1.00  0.00     0.134 A 
ATOM     78  C   UNL A   1      45.601  27.955  34.133  1.00  0.00     0.134 A 
ATOM     79  F   UNL A   1      42.844  25.707  34.866  1.00  0.00    -0.206 F 
ATOM     80  C   UNL A   1      45.145  25.458  35.262  1.00  0.00     0.040 A 
ATOM     81  C   UNL A   1      46.675  27.200  34.609  1.00  0.00     0.040 A 
ATOM     82  F   UNL A   1      45.865  29.156  33.597  1.00  0.00    -0.206 F 
ATOM     83  C   UNL A   1      46.446  25.950  35.179  1.00  0.00     0.006 A 
ENDBRANCH  59  76
ENDBRANCH  33  34
ENDBRANCH  25  28
ENDBRANCH  23  24
ENDBRANCH  22  23
ENDBRANCH   1  22
TORSDOF 15
ENDMDL
MODEL 3
REMARK VINA RESULT:     -10.5      3.965      8.110
REMARK SMILES C=CC[N@@H+](CC(=O)NCCCNC(=O)c1ccc(-c2c3nc(c(-c4c(F)cccc4F)c4ccc([nH]4)c(-c4c(F)cccc4F)c4nc(c(-c5c(F)cccc5F)c5ccc2[nH]5)C=C4)C=C3)cc1)[C@@H](C)c1c(F)cccc1F
REMARK SMILES IDX 9 1 8 2 6 3 7 4 5 6 4 7 3 9 2 10 1 11 69 12 70 13 71 14
REMARK SMILES IDX 72 15 77 16 73 17 74 18 76 19 78 20 75 21 10 22 11 23 12 24
REMARK SMILES IDX 13 25 14 27 15 28 16 29 68 30 17 31 67 32 18 33 19 34 20 35
REMARK SMILES IDX 61 36 21 37 66 38 60 39 62 40 22 41 65 42 59 43 58 44 23 46
REMARK SMILES IDX 49 47 32 48 48 49 33 50 36 51 47 52 63 53 34 54 35 55 46 57
REMARK SMILES IDX 64 58 37 59 24 60 25 61 30 62 26 63 27 64 29 65 31 66 28 67
REMARK SMILES IDX 50 68 51 69 56 70 52 71 53 72 55 73 57 74 54 75 38 76 39 77
REMARK SMILES IDX 44 78 40 79 41 80 43 81 45 82 42 83
REMARK H PARENT 8 5 4 8 12 26 62 45 36 56
REMARK Flexibility Score: inf
ROOT
ATOM      1  C   UNL A   1      31.061  30.831  25.427  1.00  0.00     0.118 C 
ENDROOT
BRANCH   1   2
ATOM      2  N   UNL A   1      32.299  30.069  25.394  1.00  0.00    -0.351 N 
ATOM      3  C   UNL A   1      32.573  28.735  25.441  1.00  0.00     0.275 C 
ATOM      4  O   UNL A   1      33.743  28.430  25.167  1.00  0.00    -0.269 OA
ATOM      5  H   UNL A   1      33.104  30.632  25.322  1.00  0.00     0.163 HD
BRANCH   3   6
ATOM      6  C   UNL A   1      31.543  27.627  25.729  1.00  0.00     0.364 C 
BRANCH   6   7
ATOM      7  N   UNL A   1      31.133  26.717  24.622  1.00  0.00    -0.318 N 
ATOM      8  H   UNL A   1      30.124  26.579  24.696  1.00  0.00     0.349 HD
BRANCH   7   9
ATOM      9  C   UNL A   1      31.673  25.384  24.807  1.00  0.00     0.291 C 
BRANCH   9  10
ATOM     10  C   UNL A   1      31.600  24.723  26.147  1.00  0.00     0.025 C 
ATOM     11  C   UNL A   1      30.634  23.851  26.472  1.00  0.00     0.010 C 
ENDBRANCH   9  10
ENDBRANCH   7   9
BRANCH   7  12
ATOM     12  C   UNL A   1      31.129  27.309  23.252  1.00  0.00     0.218 C 
ATOM     13  C   UNL A   1      31.486  26.350  22.102  1.00  0.00     0.081 C 
BRANCH  12  14
ATOM     14  C   UNL A   1      29.880  28.141  22.950  1.00  0.00     0.080 A 
ATOM     15  C   UNL A   1      28.576  27.766  23.318  1.00  0.00     0.135 A 
ATOM     16  C   UNL A   1      30.015  29.388  22.323  1.00  0.00     0.135 A 
ATOM     17  F   UNL A   1      28.336  26.604  23.943  1.00  0.00    -0.206 F 
ATOM     18  C   UNL A   1      27.474  28.595  23.098  1.00  0.00     0.040 A 
ATOM     19  C   UNL A   1      28.925  30.240  22.126  1.00  0.00     0.040 A 
ATOM     20  F   UNL A   1      31.226  29.818  21.941  1.00  0.00    -0.206 F 
ATOM     21  C   UNL A   1      27.650  29.845  22.516  1.00  0.00     0.006 A 
ENDBRANCH  12  14
ENDBRANCH   7  12
ENDBRANCH   6   7
ENDBRANCH   3   6
ENDBRANCH   1   2
BRANCH   1  22
ATOM     22  C   UNL A   1      31.082  31.940  26.487  1.00  0.00     0.042 C 
BRANCH  22  23
ATOM     23  C   UNL A   1      32.462  32.464  26.850  1.00  0.00     0.118 C 
BRANCH  23  24
ATOM     24  N   UNL A   1      32.431  33.813  27.377  1.00  0.00    -0.352 N 
ATOM     25  C   UNL A   1      33.130  34.428  28.388  1.00  0.00     0.251 C 
ATOM     26  H   UNL A   1      31.786  34.403  26.923  1.00  0.00     0.163 HD
ATOM     27  O   UNL A   1      32.764  35.551  28.733  1.00  0.00    -0.269 OA
BRANCH  25  28
ATOM     28  C   UNL A   1      34.281  33.801  29.095  1.00  0.00     0.039 A 
ATOM     29  C   UNL A   1      35.573  34.202  28.720  1.00  0.00     0.014 A 
ATOM     30  C   UNL A   1      34.150  32.766  30.022  1.00  0.00     0.014 A 
ATOM     31  C   UNL A   1      36.705  33.601  29.288  1.00  0.00     0.010 A 
ATOM     32  C   UNL A   1      35.277  32.229  30.657  1.00  0.00     0.010 A 
ATOM     33  C   UNL A   1      36.569  32.621  30.281  1.00  0.00    -0.014 A 
BRANCH  33  34
ATOM     34  C   UNL A   1      37.761  31.968  30.893  1.00  0.00     0.031 A 
ATOM     35  C   UNL A   1      38.499  30.878  30.155  1.00  0.00     0.074 A 
ATOM     36  C   UNL A   1      38.165  32.319  32.130  1.00  0.00     0.049 A 
ATOM     37  N   UNL A   1      39.513  30.148  30.551  1.00  0.00    -0.248 NA
ATOM     38  C   UNL A   1      38.020  30.550  28.803  1.00  0.00     0.031 C 
ATOM     39  C   UNL A   1      37.527  33.329  32.975  1.00  0.00     0.029 A 
ATOM     40  N   UNL A   1      39.208  31.857  32.895  1.00  0.00    -0.354 N 
ATOM     41  C   UNL A   1      39.771  29.260  29.513  1.00  0.00     0.074 A 
ATOM     42  C   UNL A   1      38.782  29.513  28.488  1.00  0.00     0.031 C 
ATOM     43  C   UNL A   1      38.205  33.428  34.130  1.00  0.00     0.029 A 
ATOM     44  C   UNL A   1      39.303  32.465  34.124  1.00  0.00     0.049 A 
ATOM     45  H   UNL A   1      39.830  31.156  32.593  1.00  0.00     0.167 HD
ATOM     46  C   UNL A   1      40.754  28.332  29.409  1.00  0.00     0.037 A 
ATOM     47  C   UNL A   1      40.172  32.270  35.135  1.00  0.00     0.037 A 
ATOM     48  C   UNL A   1      41.770  28.106  30.402  1.00  0.00     0.049 A 
ATOM     49  C   UNL A   1      41.264  31.247  34.990  1.00  0.00     0.074 A 
ATOM     50  C   UNL A   1      42.845  27.235  30.355  1.00  0.00     0.029 A 
ATOM     51  N   UNL A   1      41.841  28.760  31.622  1.00  0.00    -0.354 N 
ATOM     52  N   UNL A   1      41.523  30.453  33.981  1.00  0.00    -0.248 NA
ATOM     53  C   UNL A   1      42.187  31.096  36.125  1.00  0.00     0.031 C 
ATOM     54  C   UNL A   1      43.548  27.340  31.559  1.00  0.00     0.029 A 
ATOM     55  C   UNL A   1      42.933  28.302  32.341  1.00  0.00     0.049 A 
ATOM     56  H   UNL A   1      41.209  29.450  31.932  1.00  0.00     0.167 HD
ATOM     57  C   UNL A   1      42.650  29.728  34.346  1.00  0.00     0.074 A 
ATOM     58  C   UNL A   1      43.033  30.184  35.667  1.00  0.00     0.031 C 
ATOM     59  C   UNL A   1      43.308  28.770  33.650  1.00  0.00     0.037 A 
BRANCH  46  60
ATOM     60  C   UNL A   1      40.783  27.492  28.166  1.00  0.00     0.057 A 
ATOM     61  C   UNL A   1      41.537  27.859  27.044  1.00  0.00     0.134 A 
ATOM     62  C   UNL A   1      40.077  26.283  28.102  1.00  0.00     0.134 A 
ATOM     63  F   UNL A   1      42.227  29.010  27.036  1.00  0.00    -0.206 F 
ATOM     64  C   UNL A   1      41.566  27.068  25.894  1.00  0.00     0.040 A 
ATOM     65  C   UNL A   1      40.120  25.471  26.967  1.00  0.00     0.040 A 
ATOM     66  F   UNL A   1      39.343  25.867  29.145  1.00  0.00    -0.206 F 
ATOM     67  C   UNL A   1      40.861  25.867  25.856  1.00  0.00     0.006 A 
ENDBRANCH  46  60
BRANCH  47  68
ATOM     68  C   UNL A   1      40.062  33.081  36.373  1.00  0.00     0.057 A 
ATOM     69  C   UNL A   1      39.172  32.721  37.391  1.00  0.00     0.134 A 
ATOM     70  C   UNL A   1      40.834  34.232  36.567  1.00  0.00     0.134 A 
ATOM     71  F   UNL A   1      38.390  31.639  37.253  1.00  0.00    -0.206 F 
ATOM     72  C   UNL A   1      39.042  33.484  38.552  1.00  0.00     0.040 A 
ATOM     73  C   UNL A   1      40.730  34.993  37.731  1.00  0.00     0.040 A 
ATOM     74  F   UNL A   1      41.709  34.626  35.629  1.00  0.00    -0.206 F 
ATOM     75  C   UNL A   1      39.827  34.623  38.727  1.00  0.00     0.006 A 
ENDBRANCH  47  68
BRANCH  59  76
ATOM     76  C   UNL A   1      44.527  28.173  34.286  1.00  0.00     0.057 A 
ATOM     77  C   UNL A   1      45.794  28.751  34.137  1.00  0.00     0.134 A 
ATOM     78  C   UNL A   1      44.426  27.030  35.088  1.00  0.00     0.134 A 
ATOM     79  F   UNL A   1      45.959  29.839  33.370  1.00  0.00    -0.206 F 
ATOM     80  C   UNL A   1      46.922  28.202  34.750  1.00  0.00     0.040 A 
ATOM     81  C   UNL A   1      45.543  26.484  35.724  1.00  0.00     0.040 A 
ATOM     82  F   UNL A   1      43.240  26.432  35.277  1.00  0.00    -0.206 F 
ATOM     83  C   UNL A   1      46.795  27.068  35.551  1.00  0.00     0.006 A 
ENDBRANCH  59  76
ENDBRANCH  33  34
ENDBRANCH  25  28
ENDBRANCH  23  24
ENDBRANCH  22  23
ENDBRANCH   1  22
TORSDOF 15
ENDMDL
