MODEL 1
REMARK VINA RESULT:     -10.7      0.000      0.000
REMARK SMILES CC[NH2+]C(C)(C)C(=O)N[C@@](C)(C(=O)NCCCNC(=O)c1ccc(-c2c3nc(c(-c4c(F)cccc4F)c4ccc([nH]4)c(-c4c(F)cccc4F)c4nc(c(-c5c(F)cccc5F)c5ccc2[nH]5)C=C4)C=C3)cc1)C(F)(F)F
REMARK SMILES IDX 15 1 14 2 12 3 13 4 10 6 11 7 9 8 7 9 8 10 4 12 5 13 6 14
REMARK SMILES IDX 3 15 2 18 1 19 75 20 76 21 77 22 78 23 16 24 17 25 18 26
REMARK SMILES IDX 19 27 20 29 21 30 22 31 74 32 23 33 73 34 24 35 25 36 26 37
REMARK SMILES IDX 67 38 27 39 72 40 66 41 68 42 28 43 71 44 65 45 64 46 29 48
REMARK SMILES IDX 55 49 38 50 54 51 39 52 42 53 53 54 69 55 40 56 41 57 52 59
REMARK SMILES IDX 70 60 43 61 30 62 31 63 36 64 32 65 33 66 35 67 37 68 34 69
REMARK SMILES IDX 56 70 57 71 62 72 58 73 59 74 61 75 63 76 60 77 44 78 45 79
REMARK SMILES IDX 50 80 46 81 47 82 49 83 51 84 48 85
REMARK H PARENT 14 5 9 11 3 16 3 17 18 28 68 47 42 58
REMARK Flexibility Score: inf
ROOT
ATOM      1  C   UNL A   1      36.356  20.683  24.998  1.00  0.00     0.117 C 
ENDROOT
BRANCH   1   2
ATOM      2  N   UNL A   1      35.141  19.919  25.228  1.00  0.00    -0.354 N 
ATOM      3  C   UNL A   1      33.827  20.245  25.387  1.00  0.00     0.254 C 
ATOM      4  O   UNL A   1      33.087  19.280  25.593  1.00  0.00    -0.272 OA
ATOM      5  H   UNL A   1      35.303  18.949  25.277  1.00  0.00     0.163 HD
BRANCH   3   6
ATOM      6  C   UNL A   1      33.303  21.701  25.382  1.00  0.00     0.212 C 
ATOM      7  C   UNL A   1      31.759  21.767  25.420  1.00  0.00     0.056 C 
BRANCH   6   8
ATOM      8  N   UNL A   1      33.754  22.274  24.044  1.00  0.00    -0.329 N 
ATOM      9  C   UNL A   1      33.753  23.407  23.289  1.00  0.00     0.281 C 
ATOM     10  O   UNL A   1      34.513  23.341  22.314  1.00  0.00    -0.268 OA
ATOM     11  H   UNL A   1      34.216  21.565  23.541  1.00  0.00     0.165 HD
BRANCH   9  12
ATOM     12  C   UNL A   1      32.879  24.655  23.581  1.00  0.00     0.169 C 
ATOM     13  C   UNL A   1      31.431  24.366  23.170  1.00  0.00     0.090 C 
ATOM     14  C   UNL A   1      33.527  25.835  22.823  1.00  0.00     0.090 C 
BRANCH  12  15
ATOM     15  N   UNL A   1      32.937  25.135  24.994  1.00  0.00    -0.334 N 
ATOM     16  H   UNL A   1      32.019  25.517  25.218  1.00  0.00     0.347 HD
ATOM     17  H   UNL A   1      33.229  24.310  25.519  1.00  0.00     0.347 HD
BRANCH  15  18
ATOM     18  C   UNL A   1      33.923  26.149  25.358  1.00  0.00     0.257 C 
ATOM     19  C   UNL A   1      33.239  27.188  26.245  1.00  0.00     0.071 C 
ENDBRANCH  15  18
ENDBRANCH  12  15
ENDBRANCH   9  12
ENDBRANCH   6   8
BRANCH   6  20
ATOM     20  C   UNL A   1      33.724  22.270  26.776  1.00  0.00     0.420 C 
ATOM     21  F   UNL A   1      32.805  23.010  27.412  1.00  0.00    -0.168 F 
ATOM     22  F   UNL A   1      34.088  21.282  27.630  1.00  0.00    -0.168 F 
ATOM     23  F   UNL A   1      34.836  23.049  26.657  1.00  0.00    -0.168 F 
ENDBRANCH   6  20
ENDBRANCH   3   6
ENDBRANCH   1   2
BRANCH   1  24
ATOM     24  C   UNL A   1      37.589  19.797  24.921  1.00  0.00     0.042 C 
BRANCH  24  25
ATOM     25  C   UNL A   1      38.807  20.343  25.652  1.00  0.00     0.118 C 
BRANCH  25  26
ATOM     26  N   UNL A   1      39.892  19.376  25.748  1.00  0.00    -0.352 N 
ATOM     27  C   UNL A   1      41.211  19.560  26.079  1.00  0.00     0.251 C 
ATOM     28  H   UNL A   1      39.640  18.447  25.544  1.00  0.00     0.163 HD
ATOM     29  O   UNL A   1      42.012  18.640  25.920  1.00  0.00    -0.269 OA
BRANCH  27  30
ATOM     30  C   UNL A   1      41.678  20.861  26.600  1.00  0.00     0.039 A 
ATOM     31  C   UNL A   1      42.190  21.804  25.707  1.00  0.00     0.014 A 
ATOM     32  C   UNL A   1      41.616  21.153  27.965  1.00  0.00     0.014 A 
ATOM     33  C   UNL A   1      42.567  23.066  26.173  1.00  0.00     0.010 A 
ATOM     34  C   UNL A   1      41.898  22.439  28.412  1.00  0.00     0.010 A 
ATOM     35  C   UNL A   1      42.381  23.409  27.522  1.00  0.00    -0.014 A 
BRANCH  35  36
ATOM     36  C   UNL A   1      42.682  24.775  28.022  1.00  0.00     0.031 A 
ATOM     37  C   UNL A   1      44.083  25.141  28.426  1.00  0.00     0.074 A 
ATOM     38  C   UNL A   1      41.681  25.663  28.177  1.00  0.00     0.049 A 
ATOM     39  N   UNL A   1      44.529  26.254  28.951  1.00  0.00    -0.248 NA
ATOM     40  C   UNL A   1      45.119  24.111  28.242  1.00  0.00     0.031 C 
ATOM     41  C   UNL A   1      40.270  25.413  27.870  1.00  0.00     0.029 A 
ATOM     42  N   UNL A   1      41.693  26.953  28.644  1.00  0.00    -0.354 N 
ATOM     43  C   UNL A   1      45.885  26.052  29.173  1.00  0.00     0.074 A 
ATOM     44  C   UNL A   1      46.180  24.692  28.780  1.00  0.00     0.031 C 
ATOM     45  C   UNL A   1      39.560  26.522  28.129  1.00  0.00     0.029 A 
ATOM     46  C   UNL A   1      40.453  27.545  28.664  1.00  0.00     0.049 A 
ATOM     47  H   UNL A   1      42.513  27.412  28.937  1.00  0.00     0.167 HD
ATOM     48  C   UNL A   1      46.807  26.928  29.639  1.00  0.00     0.037 A 
ATOM     49  C   UNL A   1      40.076  28.771  29.075  1.00  0.00     0.037 A 
ATOM     50  C   UNL A   1      46.513  28.288  30.009  1.00  0.00     0.049 A 
ATOM     51  C   UNL A   1      41.118  29.720  29.602  1.00  0.00     0.074 A 
ATOM     52  C   UNL A   1      47.389  29.272  30.435  1.00  0.00     0.029 A 
ATOM     53  N   UNL A   1      45.247  28.854  30.002  1.00  0.00    -0.354 N 
ATOM     54  N   UNL A   1      42.409  29.539  29.737  1.00  0.00    -0.248 NA
ATOM     55  C   UNL A   1      40.648  31.045  30.029  1.00  0.00     0.031 C 
ATOM     56  C   UNL A   1      46.645  30.417  30.736  1.00  0.00     0.029 A 
ATOM     57  C   UNL A   1      45.314  30.166  30.441  1.00  0.00     0.049 A 
ATOM     58  H   UNL A   1      44.424  28.391  29.727  1.00  0.00     0.167 HD
ATOM     59  C   UNL A   1      42.911  30.736  30.233  1.00  0.00     0.074 A 
ATOM     60  C   UNL A   1      41.786  31.639  30.361  1.00  0.00     0.031 C 
ATOM     61  C   UNL A   1      44.187  31.057  30.553  1.00  0.00     0.037 A 
BRANCH  48  62
ATOM     62  C   UNL A   1      48.222  26.443  29.772  1.00  0.00     0.057 A 
ATOM     63  C   UNL A   1      49.161  26.606  28.745  1.00  0.00     0.134 A 
ATOM     64  C   UNL A   1      48.663  25.841  30.958  1.00  0.00     0.134 A 
ATOM     65  F   UNL A   1      48.803  27.165  27.578  1.00  0.00    -0.206 F 
ATOM     66  C   UNL A   1      50.479  26.167  28.882  1.00  0.00     0.040 A 
ATOM     67  C   UNL A   1      49.986  25.424  31.118  1.00  0.00     0.040 A 
ATOM     68  F   UNL A   1      47.819  25.659  31.984  1.00  0.00    -0.206 F 
ATOM     69  C   UNL A   1      50.896  25.581  30.075  1.00  0.00     0.006 A 
ENDBRANCH  48  62
BRANCH  49  70
ATOM     70  C   UNL A   1      38.652  29.182  28.988  1.00  0.00     0.057 A 
ATOM     71  C   UNL A   1      37.806  29.101  30.100  1.00  0.00     0.134 A 
ATOM     72  C   UNL A   1      38.096  29.651  27.791  1.00  0.00     0.134 A 
ATOM     73  F   UNL A   1      38.275  28.644  31.271  1.00  0.00    -0.206 F 
ATOM     74  C   UNL A   1      36.457  29.447  30.022  1.00  0.00     0.040 A 
ATOM     75  C   UNL A   1      36.754  30.027  27.705  1.00  0.00     0.040 A 
ATOM     76  F   UNL A   1      38.854  29.761  26.689  1.00  0.00    -0.206 F 
ATOM     77  C   UNL A   1      35.928  29.916  28.821  1.00  0.00     0.006 A 
ENDBRANCH  49  70
BRANCH  61  78
ATOM     78  C   UNL A   1      44.447  32.458  31.029  1.00  0.00     0.057 A 
ATOM     79  C   UNL A   1      44.444  32.792  32.390  1.00  0.00     0.134 A 
ATOM     80  C   UNL A   1      44.744  33.476  30.113  1.00  0.00     0.134 A 
ATOM     81  F   UNL A   1      44.155  31.867  33.317  1.00  0.00    -0.206 F 
ATOM     82  C   UNL A   1      44.700  34.095  32.820  1.00  0.00     0.040 A 
ATOM     83  C   UNL A   1      45.033  34.774  30.534  1.00  0.00     0.040 A 
ATOM     84  F   UNL A   1      44.774  33.220  28.797  1.00  0.00    -0.206 F 
ATOM     85  C   UNL A   1      45.004  35.088  31.891  1.00  0.00     0.006 A 
ENDBRANCH  61  78
ENDBRANCH  35  36
ENDBRANCH  27  30
ENDBRANCH  25  26
ENDBRANCH  24  25
ENDBRANCH   1  24
TORSDOF 15
ENDMDL
MODEL 2
REMARK VINA RESULT:     -10.7      0.503      1.793
REMARK SMILES CC[NH2+]C(C)(C)C(=O)N[C@@](C)(C(=O)NCCCNC(=O)c1ccc(-c2c3nc(c(-c4c(F)cccc4F)c4ccc([nH]4)c(-c4c(F)cccc4F)c4nc(c(-c5c(F)cccc5F)c5ccc2[nH]5)C=C4)C=C3)cc1)C(F)(F)F
REMARK SMILES IDX 15 1 14 2 12 3 13 4 10 6 11 7 9 8 7 9 8 10 4 12 5 13 6 14
REMARK SMILES IDX 3 15 2 18 1 19 75 20 76 21 77 22 78 23 16 24 17 25 18 26
REMARK SMILES IDX 19 27 20 29 21 30 22 31 74 32 23 33 73 34 24 35 25 36 26 37
REMARK SMILES IDX 67 38 27 39 72 40 66 41 68 42 28 43 71 44 65 45 64 46 29 48
REMARK SMILES IDX 55 49 38 50 54 51 39 52 42 53 53 54 69 55 40 56 41 57 52 59
REMARK SMILES IDX 70 60 43 61 30 62 31 63 36 64 32 65 33 66 35 67 37 68 34 69
REMARK SMILES IDX 56 70 57 71 62 72 58 73 59 74 61 75 63 76 60 77 44 78 45 79
REMARK SMILES IDX 50 80 46 81 47 82 49 83 51 84 48 85
REMARK H PARENT 14 5 9 11 3 16 3 17 18 28 68 47 42 58
REMARK Flexibility Score: inf
ROOT
ATOM      1  C   UNL A   1      36.464  20.590  25.003  1.00  0.00     0.117 C 
ENDROOT
BRANCH   1   2
ATOM      2  N   UNL A   1      35.224  19.838  25.107  1.00  0.00    -0.354 N 
ATOM      3  C   UNL A   1      33.908  20.180  25.207  1.00  0.00     0.254 C 
ATOM      4  O   UNL A   1      33.141  19.218  25.302  1.00  0.00    -0.272 OA
ATOM      5  H   UNL A   1      35.366  18.864  25.101  1.00  0.00     0.163 HD
BRANCH   3   6
ATOM      6  C   UNL A   1      33.410  21.643  25.267  1.00  0.00     0.212 C 
ATOM      7  C   UNL A   1      31.867  21.737  25.229  1.00  0.00     0.056 C 
BRANCH   6   8
ATOM      8  N   UNL A   1      33.941  22.289  23.993  1.00  0.00    -0.329 N 
ATOM      9  C   UNL A   1      34.133  23.490  23.380  1.00  0.00     0.281 C 
ATOM     10  O   UNL A   1      34.858  23.413  22.380  1.00  0.00    -0.268 OA
ATOM     11  H   UNL A   1      34.263  21.578  23.394  1.00  0.00     0.165 HD
BRANCH   9  12
ATOM     12  C   UNL A   1      33.499  24.826  23.849  1.00  0.00     0.169 C 
ATOM     13  C   UNL A   1      33.530  25.833  22.694  1.00  0.00     0.090 C 
ATOM     14  C   UNL A   1      34.287  25.274  25.099  1.00  0.00     0.090 C 
BRANCH  12  15
ATOM     15  N   UNL A   1      32.115  24.696  24.395  1.00  0.00    -0.334 N 
ATOM     16  H   UNL A   1      31.478  24.693  23.598  1.00  0.00     0.347 HD
ATOM     17  H   UNL A   1      32.152  23.842  24.952  1.00  0.00     0.347 HD
BRANCH  15  18
ATOM     18  C   UNL A   1      31.625  25.704  25.330  1.00  0.00     0.257 C 
ATOM     19  C   UNL A   1      30.380  25.153  26.023  1.00  0.00     0.071 C 
ENDBRANCH  15  18
ENDBRANCH  12  15
ENDBRANCH   9  12
ENDBRANCH   6   8
BRANCH   6  20
ATOM     20  C   UNL A   1      33.766  22.115  26.715  1.00  0.00     0.420 C 
ATOM     21  F   UNL A   1      33.799  21.159  27.654  1.00  0.00    -0.168 F 
ATOM     22  F   UNL A   1      34.966  22.743  26.753  1.00  0.00    -0.168 F 
ATOM     23  F   UNL A   1      32.874  23.051  27.144  1.00  0.00    -0.168 F 
ENDBRANCH   6  20
ENDBRANCH   3   6
ENDBRANCH   1   2
BRANCH   1  24
ATOM     24  C   UNL A   1      37.687  19.687  24.985  1.00  0.00     0.042 C 
BRANCH  24  25
ATOM     25  C   UNL A   1      38.898  20.251  25.714  1.00  0.00     0.118 C 
BRANCH  25  26
ATOM     26  N   UNL A   1      39.996  19.298  25.808  1.00  0.00    -0.352 N 
ATOM     27  C   UNL A   1      41.316  19.502  26.128  1.00  0.00     0.251 C 
ATOM     28  H   UNL A   1      39.755  18.365  25.613  1.00  0.00     0.163 HD
ATOM     29  O   UNL A   1      42.127  18.591  25.968  1.00  0.00    -0.269 OA
BRANCH  27  30
ATOM     30  C   UNL A   1      41.770  20.813  26.635  1.00  0.00     0.039 A 
ATOM     31  C   UNL A   1      42.255  21.759  25.729  1.00  0.00     0.014 A 
ATOM     32  C   UNL A   1      41.723  21.112  27.998  1.00  0.00     0.014 A 
ATOM     33  C   UNL A   1      42.618  23.029  26.183  1.00  0.00     0.010 A 
ATOM     34  C   UNL A   1      41.991  22.405  28.435  1.00  0.00     0.010 A 
ATOM     35  C   UNL A   1      42.446  23.377  27.532  1.00  0.00    -0.014 A 
BRANCH  35  36
ATOM     36  C   UNL A   1      42.734  24.750  28.021  1.00  0.00     0.031 A 
ATOM     37  C   UNL A   1      44.135  25.140  28.401  1.00  0.00     0.074 A 
ATOM     38  C   UNL A   1      41.721  25.623  28.187  1.00  0.00     0.049 A 
ATOM     39  N   UNL A   1      44.570  26.264  28.913  1.00  0.00    -0.248 NA
ATOM     40  C   UNL A   1      45.184  24.126  28.206  1.00  0.00     0.031 C 
ATOM     41  C   UNL A   1      40.310  25.349  27.903  1.00  0.00     0.029 A 
ATOM     42  N   UNL A   1      41.720  26.916  28.646  1.00  0.00    -0.354 N 
ATOM     43  C   UNL A   1      45.933  26.084  29.115  1.00  0.00     0.074 A 
ATOM     44  C   UNL A   1      46.244  24.726  28.725  1.00  0.00     0.031 C 
ATOM     45  C   UNL A   1      39.586  26.448  28.167  1.00  0.00     0.029 A 
ATOM     46  C   UNL A   1      40.471  27.488  28.682  1.00  0.00     0.049 A 
ATOM     47  H   UNL A   1      42.537  27.389  28.924  1.00  0.00     0.167 HD
ATOM     48  C   UNL A   1      46.848  26.977  29.562  1.00  0.00     0.037 A 
ATOM     49  C   UNL A   1      40.081  28.710  29.092  1.00  0.00     0.037 A 
ATOM     50  C   UNL A   1      46.538  28.334  29.930  1.00  0.00     0.049 A 
ATOM     51  C   UNL A   1      41.115  29.678  29.599  1.00  0.00     0.074 A 
ATOM     52  C   UNL A   1      47.404  29.334  30.337  1.00  0.00     0.029 A 
ATOM     53  N   UNL A   1      45.264  28.880  29.940  1.00  0.00    -0.354 N 
ATOM     54  N   UNL A   1      42.411  29.519  29.715  1.00  0.00    -0.248 NA
ATOM     55  C   UNL A   1      40.631  30.998  30.026  1.00  0.00     0.031 C 
ATOM     56  C   UNL A   1      46.647  30.468  30.644  1.00  0.00     0.029 A 
ATOM     57  C   UNL A   1      45.316  30.195  30.371  1.00  0.00     0.049 A 
ATOM     58  H   UNL A   1      44.443  28.403  29.679  1.00  0.00     0.167 HD
ATOM     59  C   UNL A   1      42.901  30.726  30.196  1.00  0.00     0.074 A 
ATOM     60  C   UNL A   1      41.765  31.611  30.337  1.00  0.00     0.031 C 
ATOM     61  C   UNL A   1      44.177  31.069  30.495  1.00  0.00     0.037 A 
BRANCH  48  62
ATOM     62  C   UNL A   1      48.273  26.515  29.676  1.00  0.00     0.057 A 
ATOM     63  C   UNL A   1      48.756  25.884  30.829  1.00  0.00     0.134 A 
ATOM     64  C   UNL A   1      49.161  26.666  28.603  1.00  0.00     0.134 A 
ATOM     65  F   UNL A   1      47.962  25.717  31.898  1.00  0.00    -0.206 F 
ATOM     66  C   UNL A   1      50.078  25.443  30.922  1.00  0.00     0.040 A 
ATOM     67  C   UNL A   1      50.476  26.203  28.673  1.00  0.00     0.040 A 
ATOM     68  F   UNL A   1      48.762  27.255  27.466  1.00  0.00    -0.206 F 
ATOM     69  C   UNL A   1      50.939  25.595  29.837  1.00  0.00     0.006 A 
ENDBRANCH  48  62
BRANCH  49  70
ATOM     70  C   UNL A   1      38.649  29.098  29.025  1.00  0.00     0.057 A 
ATOM     71  C   UNL A   1      38.090  29.599  27.844  1.00  0.00     0.134 A 
ATOM     72  C   UNL A   1      37.808  28.994  30.141  1.00  0.00     0.134 A 
ATOM     73  F   UNL A   1      38.847  29.740  26.746  1.00  0.00    -0.206 F 
ATOM     74  C   UNL A   1      36.756  30.005  27.778  1.00  0.00     0.040 A 
ATOM     75  C   UNL A   1      36.465  29.369  30.082  1.00  0.00     0.040 A 
ATOM     76  F   UNL A   1      38.279  28.513  31.301  1.00  0.00    -0.206 F 
ATOM     77  C   UNL A   1      35.938  29.885  28.900  1.00  0.00     0.006 A 
ENDBRANCH  49  70
BRANCH  61  78
ATOM     78  C   UNL A   1      44.422  32.476  30.960  1.00  0.00     0.057 A 
ATOM     79  C   UNL A   1      44.699  33.517  30.065  1.00  0.00     0.134 A 
ATOM     80  C   UNL A   1      44.339  32.799  32.321  1.00  0.00     0.134 A 
ATOM     81  F   UNL A   1      44.805  33.272  28.749  1.00  0.00    -0.206 F 
ATOM     82  C   UNL A   1      44.911  34.823  30.509  1.00  0.00     0.040 A 
ATOM     83  C   UNL A   1      44.518  34.106  32.773  1.00  0.00     0.040 A 
ATOM     84  F   UNL A   1      44.067  31.851  33.231  1.00  0.00    -0.206 F 
ATOM     85  C   UNL A   1      44.813  35.122  31.866  1.00  0.00     0.006 A 
ENDBRANCH  61  78
ENDBRANCH  35  36
ENDBRANCH  27  30
ENDBRANCH  25  26
ENDBRANCH  24  25
ENDBRANCH   1  24
TORSDOF 15
ENDMDL
MODEL 3
REMARK VINA RESULT:     -10.6      0.375      6.361
REMARK SMILES CC[NH2+]C(C)(C)C(=O)N[C@@](C)(C(=O)NCCCNC(=O)c1ccc(-c2c3nc(c(-c4c(F)cccc4F)c4ccc([nH]4)c(-c4c(F)cccc4F)c4nc(c(-c5c(F)cccc5F)c5ccc2[nH]5)C=C4)C=C3)cc1)C(F)(F)F
REMARK SMILES IDX 15 1 14 2 12 3 13 4 10 6 11 7 9 8 7 9 8 10 4 12 5 13 6 14
REMARK SMILES IDX 3 15 2 18 1 19 75 20 76 21 77 22 78 23 16 24 17 25 18 26
REMARK SMILES IDX 19 27 20 29 21 30 22 31 74 32 23 33 73 34 24 35 25 36 26 37
REMARK SMILES IDX 67 38 27 39 72 40 66 41 68 42 28 43 71 44 65 45 64 46 29 48
REMARK SMILES IDX 55 49 38 50 54 51 39 52 42 53 53 54 69 55 40 56 41 57 52 59
REMARK SMILES IDX 70 60 43 61 30 62 31 63 36 64 32 65 33 66 35 67 37 68 34 69
REMARK SMILES IDX 56 70 57 71 62 72 58 73 59 74 61 75 63 76 60 77 44 78 45 79
REMARK SMILES IDX 50 80 46 81 47 82 49 83 51 84 48 85
REMARK H PARENT 14 5 9 11 3 16 3 17 18 28 68 47 42 58
REMARK Flexibility Score: inf
ROOT
ATOM      1  C   UNL A   1      36.302  21.000  25.012  1.00  0.00     0.117 C 
ENDROOT
BRANCH   1   2
ATOM      2  N   UNL A   1      35.120  20.213  25.323  1.00  0.00    -0.354 N 
ATOM      3  C   UNL A   1      33.799  20.503  25.487  1.00  0.00     0.254 C 
ATOM      4  O   UNL A   1      33.099  19.529  25.778  1.00  0.00    -0.272 OA
ATOM      5  H   UNL A   1      35.319  19.255  25.440  1.00  0.00     0.163 HD
BRANCH   3   6
ATOM      6  C   UNL A   1      33.221  21.934  25.387  1.00  0.00     0.212 C 
ATOM      7  C   UNL A   1      31.676  21.945  25.423  1.00  0.00     0.056 C 
BRANCH   6   8
ATOM      8  N   UNL A   1      33.652  22.434  24.013  1.00  0.00    -0.329 N 
ATOM      9  C   UNL A   1      33.662  23.534  23.209  1.00  0.00     0.281 C 
ATOM     10  O   UNL A   1      34.393  23.403  22.219  1.00  0.00    -0.268 OA
ATOM     11  H   UNL A   1      34.080  21.691  23.531  1.00  0.00     0.165 HD
BRANCH   9  12
ATOM     12  C   UNL A   1      32.831  24.818  23.468  1.00  0.00     0.169 C 
ATOM     13  C   UNL A   1      31.355  24.535  23.165  1.00  0.00     0.090 C 
ATOM     14  C   UNL A   1      33.453  25.930  22.594  1.00  0.00     0.090 C 
BRANCH  12  15
ATOM     15  N   UNL A   1      32.986  25.390  24.839  1.00  0.00    -0.334 N 
ATOM     16  H   UNL A   1      32.335  24.891  25.445  1.00  0.00     0.347 HD
ATOM     17  H   UNL A   1      33.979  25.273  25.041  1.00  0.00     0.347 HD
BRANCH  15  18
ATOM     18  C   UNL A   1      32.753  26.816  25.042  1.00  0.00     0.257 C 
ATOM     19  C   UNL A   1      33.764  27.328  26.066  1.00  0.00     0.071 C 
ENDBRANCH  15  18
ENDBRANCH  12  15
ENDBRANCH   9  12
ENDBRANCH   6   8
BRANCH   6  20
ATOM     20  C   UNL A   1      33.620  22.608  26.740  1.00  0.00     0.420 C 
ATOM     21  F   UNL A   1      32.682  23.377  27.314  1.00  0.00    -0.168 F 
ATOM     22  F   UNL A   1      33.992  21.691  27.665  1.00  0.00    -0.168 F 
ATOM     23  F   UNL A   1      34.719  23.396  26.575  1.00  0.00    -0.168 F 
ENDBRANCH   6  20
ENDBRANCH   3   6
ENDBRANCH   1   2
BRANCH   1  24
ATOM     24  C   UNL A   1      37.541  20.137  24.837  1.00  0.00     0.042 C 
BRANCH  24  25
ATOM     25  C   UNL A   1      38.701  20.506  25.750  1.00  0.00     0.118 C 
BRANCH  25  26
ATOM     26  N   UNL A   1      39.759  19.504  25.755  1.00  0.00    -0.352 N 
ATOM     27  C   UNL A   1      41.098  19.635  26.032  1.00  0.00     0.251 C 
ATOM     28  H   UNL A   1      39.470  18.592  25.523  1.00  0.00     0.163 HD
ATOM     29  O   UNL A   1      41.861  18.699  25.797  1.00  0.00    -0.269 OA
BRANCH  27  30
ATOM     30  C   UNL A   1      41.627  20.898  26.585  1.00  0.00     0.039 A 
ATOM     31  C   UNL A   1      42.119  21.868  25.708  1.00  0.00     0.014 A 
ATOM     32  C   UNL A   1      41.645  21.128  27.963  1.00  0.00     0.014 A 
ATOM     33  C   UNL A   1      42.555  23.096  26.210  1.00  0.00     0.010 A 
ATOM     34  C   UNL A   1      41.986  22.384  28.452  1.00  0.00     0.010 A 
ATOM     35  C   UNL A   1      42.449  23.381  27.581  1.00  0.00    -0.014 A 
BRANCH  35  36
ATOM     36  C   UNL A   1      42.815  24.714  28.125  1.00  0.00     0.031 A 
ATOM     37  C   UNL A   1      41.759  25.763  28.334  1.00  0.00     0.074 A 
ATOM     38  C   UNL A   1      44.110  25.002  28.364  1.00  0.00     0.049 A 
ATOM     39  N   UNL A   1      41.892  27.004  28.730  1.00  0.00    -0.248 NA
ATOM     40  C   UNL A   1      40.370  25.377  28.034  1.00  0.00     0.031 C 
ATOM     41  C   UNL A   1      45.236  24.088  28.153  1.00  0.00     0.029 A 
ATOM     42  N   UNL A   1      44.700  26.151  28.827  1.00  0.00    -0.354 N 
ATOM     43  C   UNL A   1      40.614  27.547  28.710  1.00  0.00     0.074 A 
ATOM     44  C   UNL A   1      39.726  26.520  28.209  1.00  0.00     0.031 C 
ATOM     45  C   UNL A   1      46.374  24.702  28.512  1.00  0.00     0.029 A 
ATOM     46  C   UNL A   1      46.068  26.065  28.934  1.00  0.00     0.049 A 
ATOM     47  H   UNL A   1      44.192  26.961  29.061  1.00  0.00     0.167 HD
ATOM     48  C   UNL A   1      40.211  28.781  29.097  1.00  0.00     0.037 A 
ATOM     49  C   UNL A   1      46.974  26.983  29.320  1.00  0.00     0.037 A 
ATOM     50  C   UNL A   1      41.095  29.793  29.615  1.00  0.00     0.049 A 
ATOM     51  C   UNL A   1      46.502  28.351  29.731  1.00  0.00     0.074 A 
ATOM     52  C   UNL A   1      40.776  31.053  30.089  1.00  0.00     0.029 A 
ATOM     53  N   UNL A   1      42.471  29.662  29.719  1.00  0.00    -0.354 N 
ATOM     54  N   UNL A   1      45.281  28.827  29.776  1.00  0.00    -0.248 NA
ATOM     55  C   UNL A   1      47.536  29.309  30.148  1.00  0.00     0.031 C 
ATOM     56  C   UNL A   1      41.964  31.703  30.432  1.00  0.00     0.029 A 
ATOM     57  C   UNL A   1      43.019  30.828  30.228  1.00  0.00     0.049 A 
ATOM     58  H   UNL A   1      42.983  28.859  29.469  1.00  0.00     0.167 HD
ATOM     59  C   UNL A   1      45.395  30.124  30.258  1.00  0.00     0.074 A 
ATOM     60  C   UNL A   1      46.804  30.356  30.502  1.00  0.00     0.031 C 
ATOM     61  C   UNL A   1      44.422  31.041  30.477  1.00  0.00     0.037 A 
BRANCH  48  62
ATOM     62  C   UNL A   1      38.749  29.105  28.977  1.00  0.00     0.057 A 
ATOM     63  C   UNL A   1      37.881  29.023  30.074  1.00  0.00     0.134 A 
ATOM     64  C   UNL A   1      38.211  29.542  27.760  1.00  0.00     0.134 A 
ATOM     65  F   UNL A   1      38.329  28.601  31.266  1.00  0.00    -0.206 F 
ATOM     66  C   UNL A   1      36.526  29.341  29.959  1.00  0.00     0.040 A 
ATOM     67  C   UNL A   1      36.864  29.891  27.640  1.00  0.00     0.040 A 
ATOM     68  F   UNL A   1      38.987  29.649  26.671  1.00  0.00    -0.206 F 
ATOM     69  C   UNL A   1      36.017  29.784  28.740  1.00  0.00     0.006 A 
ENDBRANCH  48  62
BRANCH  49  70
ATOM     70  C   UNL A   1      48.418  26.637  29.356  1.00  0.00     0.057 A 
ATOM     71  C   UNL A   1      48.978  25.982  30.460  1.00  0.00     0.134 A 
ATOM     72  C   UNL A   1      49.277  26.966  28.300  1.00  0.00     0.134 A 
ATOM     73  F   UNL A   1      48.211  25.657  31.511  1.00  0.00    -0.206 F 
ATOM     74  C   UNL A   1      50.340  25.688  30.524  1.00  0.00     0.040 A 
ATOM     75  C   UNL A   1      50.637  26.652  28.338  1.00  0.00     0.040 A 
ATOM     76  F   UNL A   1      48.803  27.587  27.209  1.00  0.00    -0.206 F 
ATOM     77  C   UNL A   1      51.173  26.019  29.457  1.00  0.00     0.006 A 
ENDBRANCH  49  70
BRANCH  61  78
ATOM     78  C   UNL A   1      44.839  32.364  31.052  1.00  0.00     0.057 A 
ATOM     79  C   UNL A   1      45.087  33.481  30.243  1.00  0.00     0.134 A 
ATOM     80  C   UNL A   1      44.953  32.532  32.438  1.00  0.00     0.134 A 
ATOM     81  F   UNL A   1      45.008  33.384  28.907  1.00  0.00    -0.206 F 
ATOM     82  C   UNL A   1      45.460  34.709  30.791  1.00  0.00     0.040 A 
ATOM     83  C   UNL A   1      45.294  33.763  32.999  1.00  0.00     0.040 A 
ATOM     84  F   UNL A   1      44.719  31.506  33.270  1.00  0.00    -0.206 F 
ATOM     85  C   UNL A   1      45.556  34.854  32.173  1.00  0.00     0.006 A 
ENDBRANCH  61  78
ENDBRANCH  35  36
ENDBRANCH  27  30
ENDBRANCH  25  26
ENDBRANCH  24  25
ENDBRANCH   1  24
TORSDOF 15
ENDMDL
