MODEL 1
REMARK VINA RESULT:     -11.4      0.000      0.000
REMARK SMILES CC(C)c1ccc(OCC[C@H]2CCC[C@@]2([NH3+])C(=O)NCCCNC(=O)c2ccc(-c3c4nc(c(-c5c(F)cccc5F)c5ccc([nH]5)c(-c5c(F)cccc5F)c5nc(c(-c6c(F)cccc6F)c6ccc3[nH]6)C=C5)C=C4)cc2)cc1
REMARK SMILES IDX 17 1 18 2 19 3 15 5 11 6 12 7 13 8 14 9 10 10 9 11 8 12 7 13
REMARK SMILES IDX 4 14 5 15 81 16 6 17 80 18 2 19 1 20 3 21 16 22 20 26 21 27
REMARK SMILES IDX 22 28 23 29 24 30 25 32 26 33 27 34 79 35 28 36 78 37 29 38
REMARK SMILES IDX 30 39 31 40 72 41 32 42 77 43 71 44 73 45 33 46 76 47 70 48
REMARK SMILES IDX 69 49 34 51 60 52 43 53 59 54 44 55 47 56 58 57 74 58 45 59
REMARK SMILES IDX 46 60 57 62 75 63 48 64 35 65 36 66 41 67 37 68 38 69 40 70
REMARK SMILES IDX 42 71 39 72 61 73 62 74 67 75 63 76 64 77 66 78 68 79 65 80
REMARK SMILES IDX 49 81 50 82 55 83 51 84 52 85 54 86 56 87 53 88
REMARK H PARENT 19 4 16 23 16 24 16 25 23 31 73 50 47 61
REMARK Flexibility Score: inf
ROOT
ATOM      1  C   UNL A   1      34.380  20.883  25.460  1.00  0.00     0.281 C 
ATOM      2  O   UNL A   1      33.355  20.242  25.717  1.00  0.00    -0.268 OA
ATOM      3  N   UNL A   1      35.443  20.156  25.001  1.00  0.00    -0.351 N 
ATOM      4  H   UNL A   1      35.270  19.192  24.905  1.00  0.00     0.163 HD
ENDROOT
BRANCH   1   5
ATOM      5  C   UNL A   1      34.461  22.414  25.736  1.00  0.00     0.176 C 
ATOM      6  C   UNL A   1      35.017  23.337  24.601  1.00  0.00     0.064 C 
ATOM      7  C   UNL A   1      34.617  24.706  25.159  1.00  0.00     0.011 C 
ATOM      8  C   UNL A   1      33.279  24.490  25.896  1.00  0.00     0.008 C 
ATOM      9  C   UNL A   1      33.054  22.981  25.923  1.00  0.00     0.079 C 
BRANCH   6  10
ATOM     10  C   UNL A   1      34.610  23.121  23.102  1.00  0.00     0.052 C 
BRANCH  10  11
ATOM     11  C   UNL A   1      33.243  23.573  22.513  1.00  0.00     0.230 C 
BRANCH  11  12
ATOM     12  O   UNL A   1      33.262  24.812  21.763  1.00  0.00    -0.494 OA
BRANCH  12  13
ATOM     13  C   UNL A   1      32.770  25.949  22.345  1.00  0.00     0.119 A 
ATOM     14  C   UNL A   1      32.380  27.881  24.331  1.00  0.00    -0.045 A 
ATOM     15  C   UNL A   1      33.456  27.993  23.437  1.00  0.00     0.008 A 
ATOM     16  C   UNL A   1      31.349  27.002  23.986  1.00  0.00     0.008 A 
ATOM     17  C   UNL A   1      33.653  27.021  22.448  1.00  0.00     0.047 A 
ATOM     18  C   UNL A   1      31.532  26.058  22.962  1.00  0.00     0.047 A 
BRANCH  14  19
ATOM     19  C   UNL A   1      32.481  28.555  25.695  1.00  0.00     0.013 C 
ATOM     20  C   UNL A   1      33.875  28.477  26.304  1.00  0.00     0.012 C 
ATOM     21  C   UNL A   1      31.948  29.995  25.751  1.00  0.00     0.012 C 
ENDBRANCH  14  19
ENDBRANCH  12  13
ENDBRANCH  11  12
ENDBRANCH  10  11
ENDBRANCH   6  10
BRANCH   5  22
ATOM     22  N   UNL A   1      35.220  22.720  26.986  1.00  0.00    -0.345 N 
ATOM     23  H   UNL A   1      35.716  23.604  26.876  1.00  0.00     0.345 HD
ATOM     24  H   UNL A   1      35.893  21.973  27.166  1.00  0.00     0.345 HD
ATOM     25  H   UNL A   1      34.571  22.789  27.769  1.00  0.00     0.345 HD
ENDBRANCH   5  22
ENDBRANCH   1   5
BRANCH   3  26
ATOM     26  C   UNL A   1      36.788  20.568  24.628  1.00  0.00     0.118 C 
BRANCH  26  27
ATOM     27  C   UNL A   1      37.853  19.533  25.001  1.00  0.00     0.042 C 
BRANCH  27  28
ATOM     28  C   UNL A   1      39.026  20.141  25.751  1.00  0.00     0.118 C 
BRANCH  28  29
ATOM     29  N   UNL A   1      40.072  19.154  25.973  1.00  0.00    -0.352 N 
ATOM     30  C   UNL A   1      41.430  19.329  25.996  1.00  0.00     0.251 C 
ATOM     31  H   UNL A   1      39.760  18.233  26.127  1.00  0.00     0.163 HD
ATOM     32  O   UNL A   1      42.175  18.388  25.751  1.00  0.00    -0.269 OA
BRANCH  30  33
ATOM     33  C   UNL A   1      41.980  20.645  26.367  1.00  0.00     0.039 A 
ATOM     34  C   UNL A   1      42.172  20.954  27.715  1.00  0.00     0.014 A 
ATOM     35  C   UNL A   1      42.233  21.600  25.376  1.00  0.00     0.014 A 
ATOM     36  C   UNL A   1      42.639  22.220  28.066  1.00  0.00     0.010 A 
ATOM     37  C   UNL A   1      42.788  22.821  25.720  1.00  0.00     0.010 A 
ATOM     38  C   UNL A   1      42.963  23.153  27.069  1.00  0.00    -0.014 A 
BRANCH  38  39
ATOM     39  C   UNL A   1      43.452  24.506  27.406  1.00  0.00     0.031 A 
ATOM     40  C   UNL A   1      42.478  25.558  27.857  1.00  0.00     0.074 A 
ATOM     41  C   UNL A   1      44.753  24.798  27.232  1.00  0.00     0.049 A 
ATOM     42  N   UNL A   1      42.688  26.822  28.117  1.00  0.00    -0.248 NA
ATOM     43  C   UNL A   1      41.072  25.143  28.001  1.00  0.00     0.031 C 
ATOM     44  C   UNL A   1      45.772  23.862  26.747  1.00  0.00     0.029 A 
ATOM     45  N   UNL A   1      45.439  25.966  27.430  1.00  0.00    -0.354 N 
ATOM     46  C   UNL A   1      41.444  27.353  28.436  1.00  0.00     0.074 A 
ATOM     47  C   UNL A   1      40.475  26.293  28.275  1.00  0.00     0.031 C 
ATOM     48  C   UNL A   1      46.958  24.488  26.713  1.00  0.00     0.029 A 
ATOM     49  C   UNL A   1      46.775  25.874  27.129  1.00  0.00     0.049 A 
ATOM     50  H   UNL A   1      45.015  26.792  27.757  1.00  0.00     0.167 HD
ATOM     51  C   UNL A   1      41.143  28.605  28.852  1.00  0.00     0.037 A 
ATOM     52  C   UNL A   1      47.740  26.811  27.178  1.00  0.00     0.037 A 
ATOM     53  C   UNL A   1      42.124  29.642  29.029  1.00  0.00     0.049 A 
ATOM     54  C   UNL A   1      47.380  28.195  27.638  1.00  0.00     0.074 A 
ATOM     55  C   UNL A   1      41.944  30.929  29.501  1.00  0.00     0.029 A 
ATOM     56  N   UNL A   1      43.474  29.507  28.735  1.00  0.00    -0.354 N 
ATOM     57  N   UNL A   1      46.213  28.667  28.007  1.00  0.00    -0.248 NA
ATOM     58  C   UNL A   1      48.472  29.175  27.699  1.00  0.00     0.031 C 
ATOM     59  C   UNL A   1      43.176  31.589  29.446  1.00  0.00     0.029 A 
ATOM     60  C   UNL A   1      44.135  30.696  28.993  1.00  0.00     0.049 A 
ATOM     61  H   UNL A   1      43.899  28.687  28.393  1.00  0.00     0.167 HD
ATOM     62  C   UNL A   1      46.435  29.989  28.370  1.00  0.00     0.074 A 
ATOM     63  C   UNL A   1      47.851  30.237  28.191  1.00  0.00     0.031 C 
ATOM     64  C   UNL A   1      45.548  30.915  28.813  1.00  0.00     0.037 A 
BRANCH  51  65
ATOM     65  C   UNL A   1      39.703  28.913  29.141  1.00  0.00     0.057 A 
ATOM     66  C   UNL A   1      39.166  28.807  30.432  1.00  0.00     0.134 A 
ATOM     67  C   UNL A   1      38.843  29.340  28.121  1.00  0.00     0.134 A 
ATOM     68  F   UNL A   1      39.930  28.392  31.455  1.00  0.00    -0.206 F 
ATOM     69  C   UNL A   1      37.822  29.085  30.692  1.00  0.00     0.040 A 
ATOM     70  C   UNL A   1      37.505  29.649  28.374  1.00  0.00     0.040 A 
ATOM     71  F   UNL A   1      39.289  29.467  26.863  1.00  0.00    -0.206 F 
ATOM     72  C   UNL A   1      36.989  29.514  29.661  1.00  0.00     0.006 A 
ENDBRANCH  51  65
BRANCH  52  73
ATOM     73  C   UNL A   1      49.133  26.460  26.810  1.00  0.00     0.057 A 
ATOM     74  C   UNL A   1      50.007  25.898  27.748  1.00  0.00     0.134 A 
ATOM     75  C   UNL A   1      49.625  26.668  25.515  1.00  0.00     0.134 A 
ATOM     76  F   UNL A   1      49.599  25.684  29.007  1.00  0.00    -0.206 F 
ATOM     77  C   UNL A   1      51.325  25.578  27.420  1.00  0.00     0.040 A 
ATOM     78  C   UNL A   1      50.932  26.327  25.166  1.00  0.00     0.040 A 
ATOM     79  F   UNL A   1      48.834  27.190  24.566  1.00  0.00    -0.206 F 
ATOM     80  C   UNL A   1      51.789  25.788  26.123  1.00  0.00     0.006 A 
ENDBRANCH  52  73
BRANCH  64  81
ATOM     81  C   UNL A   1      46.093  32.266  29.173  1.00  0.00     0.057 A 
ATOM     82  C   UNL A   1      46.154  33.311  28.244  1.00  0.00     0.134 A 
ATOM     83  C   UNL A   1      46.522  32.533  30.479  1.00  0.00     0.134 A 
ATOM     84  F   UNL A   1      45.770  33.117  26.973  1.00  0.00    -0.206 F 
ATOM     85  C   UNL A   1      46.648  34.569  28.596  1.00  0.00     0.040 A 
ATOM     86  C   UNL A   1      46.988  33.794  30.850  1.00  0.00     0.040 A 
ATOM     87  F   UNL A   1      46.480  31.577  31.420  1.00  0.00    -0.206 F 
ATOM     88  C   UNL A   1      47.058  34.815  29.905  1.00  0.00     0.006 A 
ENDBRANCH  64  81
ENDBRANCH  38  39
ENDBRANCH  30  33
ENDBRANCH  28  29
ENDBRANCH  27  28
ENDBRANCH  26  27
ENDBRANCH   3  26
TORSDOF 16
ENDMDL
MODEL 2
REMARK VINA RESULT:     -11.4      1.788      6.396
REMARK SMILES CC(C)c1ccc(OCC[C@H]2CCC[C@@]2([NH3+])C(=O)NCCCNC(=O)c2ccc(-c3c4nc(c(-c5c(F)cccc5F)c5ccc([nH]5)c(-c5c(F)cccc5F)c5nc(c(-c6c(F)cccc6F)c6ccc3[nH]6)C=C5)C=C4)cc2)cc1
REMARK SMILES IDX 17 1 18 2 19 3 15 5 11 6 12 7 13 8 14 9 10 10 9 11 8 12 7 13
REMARK SMILES IDX 4 14 5 15 81 16 6 17 80 18 2 19 1 20 3 21 16 22 20 26 21 27
REMARK SMILES IDX 22 28 23 29 24 30 25 32 26 33 27 34 79 35 28 36 78 37 29 38
REMARK SMILES IDX 30 39 31 40 72 41 32 42 77 43 71 44 73 45 33 46 76 47 70 48
REMARK SMILES IDX 69 49 34 51 60 52 43 53 59 54 44 55 47 56 58 57 74 58 45 59
REMARK SMILES IDX 46 60 57 62 75 63 48 64 35 65 36 66 41 67 37 68 38 69 40 70
REMARK SMILES IDX 42 71 39 72 61 73 62 74 67 75 63 76 64 77 66 78 68 79 65 80
REMARK SMILES IDX 49 81 50 82 55 83 51 84 52 85 54 86 56 87 53 88
REMARK H PARENT 19 4 16 23 16 24 16 25 23 31 73 50 47 61
REMARK Flexibility Score: inf
ROOT
ATOM      1  C   UNL A   1      34.988  21.655  26.130  1.00  0.00     0.281 C 
ATOM      2  O   UNL A   1      34.321  21.505  27.160  1.00  0.00    -0.268 OA
ATOM      3  N   UNL A   1      35.695  20.562  25.709  1.00  0.00    -0.351 N 
ATOM      4  H   UNL A   1      35.580  19.760  26.267  1.00  0.00     0.163 HD
ENDROOT
BRANCH   1   5
ATOM      5  C   UNL A   1      35.075  23.039  25.421  1.00  0.00     0.176 C 
ATOM      6  C   UNL A   1      34.567  23.142  23.944  1.00  0.00     0.064 C 
ATOM      7  C   UNL A   1      34.531  24.666  23.787  1.00  0.00     0.011 C 
ATOM      8  C   UNL A   1      34.134  25.227  25.168  1.00  0.00     0.008 C 
ATOM      9  C   UNL A   1      34.158  24.039  26.126  1.00  0.00     0.079 C 
BRANCH   6  10
ATOM     10  C   UNL A   1      33.249  22.428  23.484  1.00  0.00     0.052 C 
BRANCH  10  11
ATOM     11  C   UNL A   1      31.941  23.191  23.130  1.00  0.00     0.230 C 
BRANCH  11  12
ATOM     12  O   UNL A   1      31.032  23.425  24.233  1.00  0.00    -0.494 OA
BRANCH  12  13
ATOM     13  C   UNL A   1      30.722  24.713  24.576  1.00  0.00     0.119 A 
ATOM     14  C   UNL A   1      31.166  27.395  25.241  1.00  0.00    -0.045 A 
ATOM     15  C   UNL A   1      31.053  27.009  23.897  1.00  0.00     0.008 A 
ATOM     16  C   UNL A   1      30.714  26.491  26.208  1.00  0.00     0.008 A 
ATOM     17  C   UNL A   1      30.837  25.666  23.566  1.00  0.00     0.047 A 
ATOM     18  C   UNL A   1      30.454  25.154  25.865  1.00  0.00     0.047 A 
BRANCH  14  19
ATOM     19  C   UNL A   1      31.940  28.663  25.582  1.00  0.00     0.013 C 
ATOM     20  C   UNL A   1      32.157  28.853  27.078  1.00  0.00     0.012 C 
ATOM     21  C   UNL A   1      33.262  28.843  24.819  1.00  0.00     0.012 C 
ENDBRANCH  14  19
ENDBRANCH  12  13
ENDBRANCH  11  12
ENDBRANCH  10  11
ENDBRANCH   6  10
BRANCH   5  22
ATOM     22  N   UNL A   1      36.455  23.610  25.471  1.00  0.00    -0.345 N 
ATOM     23  H   UNL A   1      36.413  24.616  25.311  1.00  0.00     0.345 HD
ATOM     24  H   UNL A   1      37.029  23.174  24.747  1.00  0.00     0.345 HD
ATOM     25  H   UNL A   1      36.866  23.427  26.386  1.00  0.00     0.345 HD
ENDBRANCH   5  22
ENDBRANCH   1   5
BRANCH   3  26
ATOM     26  C   UNL A   1      36.587  20.386  24.574  1.00  0.00     0.118 C 
BRANCH  26  27
ATOM     27  C   UNL A   1      37.779  19.477  24.889  1.00  0.00     0.042 C 
BRANCH  27  28
ATOM     28  C   UNL A   1      38.902  20.208  25.605  1.00  0.00     0.118 C 
BRANCH  28  29
ATOM     29  N   UNL A   1      40.034  19.324  25.841  1.00  0.00    -0.352 N 
ATOM     30  C   UNL A   1      41.352  19.643  26.023  1.00  0.00     0.251 C 
ATOM     31  H   UNL A   1      39.821  18.363  25.874  1.00  0.00     0.163 HD
ATOM     32  O   UNL A   1      42.224  18.821  25.769  1.00  0.00    -0.269 OA
BRANCH  30  33
ATOM     33  C   UNL A   1      41.705  20.965  26.571  1.00  0.00     0.039 A 
ATOM     34  C   UNL A   1      41.585  21.193  27.943  1.00  0.00     0.014 A 
ATOM     35  C   UNL A   1      42.082  22.000  25.709  1.00  0.00     0.014 A 
ATOM     36  C   UNL A   1      41.863  22.460  28.452  1.00  0.00     0.010 A 
ATOM     37  C   UNL A   1      42.451  23.230  26.228  1.00  0.00     0.010 A 
ATOM     38  C   UNL A   1      42.313  23.480  27.599  1.00  0.00    -0.014 A 
BRANCH  38  39
ATOM     39  C   UNL A   1      42.608  24.836  28.104  1.00  0.00     0.031 A 
ATOM     40  C   UNL A   1      44.009  25.185  28.524  1.00  0.00     0.074 A 
ATOM     41  C   UNL A   1      41.602  25.717  28.253  1.00  0.00     0.049 A 
ATOM     42  N   UNL A   1      44.458  26.285  29.070  1.00  0.00    -0.248 NA
ATOM     43  C   UNL A   1      45.035  24.147  28.336  1.00  0.00     0.031 C 
ATOM     44  C   UNL A   1      40.197  25.458  27.926  1.00  0.00     0.029 A 
ATOM     45  N   UNL A   1      41.605  27.000  28.728  1.00  0.00    -0.354 N 
ATOM     46  C   UNL A   1      45.809  26.063  29.306  1.00  0.00     0.074 A 
ATOM     47  C   UNL A   1      46.093  24.704  28.905  1.00  0.00     0.031 C 
ATOM     48  C   UNL A   1      39.478  26.561  28.185  1.00  0.00     0.029 A 
ATOM     49  C   UNL A   1      40.362  27.584  28.735  1.00  0.00     0.049 A 
ATOM     50  H   UNL A   1      42.418  27.461  29.034  1.00  0.00     0.167 HD
ATOM     51  C   UNL A   1      46.733  26.925  29.789  1.00  0.00     0.037 A 
ATOM     52  C   UNL A   1      39.981  28.806  29.148  1.00  0.00     0.037 A 
ATOM     53  C   UNL A   1      46.437  28.282  30.163  1.00  0.00     0.049 A 
ATOM     54  C   UNL A   1      41.026  29.744  29.686  1.00  0.00     0.074 A 
ATOM     55  C   UNL A   1      47.304  29.264  30.608  1.00  0.00     0.029 A 
ATOM     56  N   UNL A   1      45.169  28.847  30.137  1.00  0.00    -0.354 N 
ATOM     57  N   UNL A   1      42.314  29.548  29.838  1.00  0.00    -0.248 NA
ATOM     58  C   UNL A   1      40.565  31.075  30.101  1.00  0.00     0.031 C 
ATOM     59  C   UNL A   1      46.552  30.407  30.899  1.00  0.00     0.029 A 
ATOM     60  C   UNL A   1      45.226  30.157  30.581  1.00  0.00     0.049 A 
ATOM     61  H   UNL A   1      44.350  28.385  29.845  1.00  0.00     0.167 HD
ATOM     62  C   UNL A   1      42.822  30.740  30.338  1.00  0.00     0.074 A 
ATOM     63  C   UNL A   1      41.705  31.655  30.449  1.00  0.00     0.031 C 
ATOM     64  C   UNL A   1      44.099  31.051  30.675  1.00  0.00     0.037 A 
BRANCH  51  65
ATOM     65  C   UNL A   1      48.140  26.424  29.937  1.00  0.00     0.057 A 
ATOM     66  C   UNL A   1      48.585  25.794  31.108  1.00  0.00     0.134 A 
ATOM     67  C   UNL A   1      49.060  26.554  28.889  1.00  0.00     0.134 A 
ATOM     68  F   UNL A   1      47.761  25.648  32.157  1.00  0.00    -0.206 F 
ATOM     69  C   UNL A   1      49.899  25.341  31.242  1.00  0.00     0.040 A 
ATOM     70  C   UNL A   1      50.368  26.077  29.000  1.00  0.00     0.040 A 
ATOM     71  F   UNL A   1      48.703  27.142  27.737  1.00  0.00    -0.206 F 
ATOM     72  C   UNL A   1      50.793  25.476  30.182  1.00  0.00     0.006 A 
ENDBRANCH  51  65
BRANCH  52  73
ATOM     73  C   UNL A   1      38.560  29.216  29.042  1.00  0.00     0.057 A 
ATOM     74  C   UNL A   1      37.710  29.168  30.153  1.00  0.00     0.134 A 
ATOM     75  C   UNL A   1      38.017  29.674  27.835  1.00  0.00     0.134 A 
ATOM     76  F   UNL A   1      38.169  28.729  31.334  1.00  0.00    -0.206 F 
ATOM     77  C   UNL A   1      36.368  29.536  30.064  1.00  0.00     0.040 A 
ATOM     78  C   UNL A   1      36.682  30.071  27.738  1.00  0.00     0.040 A 
ATOM     79  F   UNL A   1      38.781  29.758  26.736  1.00  0.00    -0.206 F 
ATOM     80  C   UNL A   1      35.852  29.995  28.853  1.00  0.00     0.006 A 
ENDBRANCH  52  73
BRANCH  64  81
ATOM     81  C   UNL A   1      44.358  32.448  31.154  1.00  0.00     0.057 A 
ATOM     82  C   UNL A   1      44.334  32.782  32.514  1.00  0.00     0.134 A 
ATOM     83  C   UNL A   1      44.678  33.463  30.243  1.00  0.00     0.134 A 
ATOM     84  F   UNL A   1      44.023  31.858  33.436  1.00  0.00    -0.206 F 
ATOM     85  C   UNL A   1      44.595  34.082  32.948  1.00  0.00     0.040 A 
ATOM     86  C   UNL A   1      44.970  34.759  30.668  1.00  0.00     0.040 A 
ATOM     87  F   UNL A   1      44.728  33.207  28.927  1.00  0.00    -0.206 F 
ATOM     88  C   UNL A   1      44.922  35.073  32.024  1.00  0.00     0.006 A 
ENDBRANCH  64  81
ENDBRANCH  38  39
ENDBRANCH  30  33
ENDBRANCH  28  29
ENDBRANCH  27  28
ENDBRANCH  26  27
ENDBRANCH   3  26
TORSDOF 16
ENDMDL
MODEL 3
REMARK VINA RESULT:     -11.3      5.078     10.173
REMARK SMILES CC(C)c1ccc(OCC[C@H]2CCC[C@@]2([NH3+])C(=O)NCCCNC(=O)c2ccc(-c3c4nc(c(-c5c(F)cccc5F)c5ccc([nH]5)c(-c5c(F)cccc5F)c5nc(c(-c6c(F)cccc6F)c6ccc3[nH]6)C=C5)C=C4)cc2)cc1
REMARK SMILES IDX 17 1 18 2 19 3 15 5 11 6 12 7 13 8 14 9 10 10 9 11 8 12 7 13
REMARK SMILES IDX 4 14 5 15 81 16 6 17 80 18 2 19 1 20 3 21 16 22 20 26 21 27
REMARK SMILES IDX 22 28 23 29 24 30 25 32 26 33 27 34 79 35 28 36 78 37 29 38
REMARK SMILES IDX 30 39 31 40 72 41 32 42 77 43 71 44 73 45 33 46 76 47 70 48
REMARK SMILES IDX 69 49 34 51 60 52 43 53 59 54 44 55 47 56 58 57 74 58 45 59
REMARK SMILES IDX 46 60 57 62 75 63 48 64 35 65 36 66 41 67 37 68 38 69 40 70
REMARK SMILES IDX 42 71 39 72 61 73 62 74 67 75 63 76 64 77 66 78 68 79 65 80
REMARK SMILES IDX 49 81 50 82 55 83 51 84 52 85 54 86 56 87 53 88
REMARK H PARENT 19 4 16 23 16 24 16 25 23 31 73 50 47 61
REMARK Flexibility Score: inf
ROOT
ATOM      1  C   UNL A   1      31.825  29.086  23.985  1.00  0.00     0.281 C 
ATOM      2  O   UNL A   1      31.538  29.076  22.782  1.00  0.00    -0.268 OA
ATOM      3  N   UNL A   1      31.254  30.081  24.729  1.00  0.00    -0.351 N 
ATOM      4  H   UNL A   1      30.655  30.678  24.225  1.00  0.00     0.163 HD
ENDROOT
BRANCH   1   5
ATOM      5  C   UNL A   1      32.847  28.071  24.577  1.00  0.00     0.176 C 
ATOM      6  C   UNL A   1      32.364  27.128  25.729  1.00  0.00     0.064 C 
ATOM      7  C   UNL A   1      33.529  26.135  25.759  1.00  0.00     0.011 C 
ATOM      8  C   UNL A   1      34.005  25.994  24.298  1.00  0.00     0.008 C 
ATOM      9  C   UNL A   1      33.248  27.057  23.506  1.00  0.00     0.079 C 
BRANCH   6  10
ATOM     10  C   UNL A   1      30.952  26.447  25.687  1.00  0.00     0.052 C 
BRANCH  10  11
ATOM     11  C   UNL A   1      30.709  24.959  26.067  1.00  0.00     0.230 C 
BRANCH  11  12
ATOM     12  O   UNL A   1      30.671  24.026  24.960  1.00  0.00    -0.494 OA
BRANCH  12  13
ATOM     13  C   UNL A   1      31.670  23.099  24.836  1.00  0.00     0.119 A 
ATOM     14  C   UNL A   1      34.284  22.101  24.789  1.00  0.00    -0.045 A 
ATOM     15  C   UNL A   1      33.577  22.172  25.998  1.00  0.00     0.008 A 
ATOM     16  C   UNL A   1      33.545  22.209  23.606  1.00  0.00     0.008 A 
ATOM     17  C   UNL A   1      32.271  22.678  26.021  1.00  0.00     0.047 A 
ATOM     18  C   UNL A   1      32.220  22.673  23.635  1.00  0.00     0.047 A 
BRANCH  14  19
ATOM     19  C   UNL A   1      35.808  22.112  24.825  1.00  0.00     0.013 C 
ATOM     20  C   UNL A   1      36.417  20.726  24.998  1.00  0.00     0.012 C 
ATOM     21  C   UNL A   1      36.481  22.854  23.659  1.00  0.00     0.012 C 
ENDBRANCH  14  19
ENDBRANCH  12  13
ENDBRANCH  11  12
ENDBRANCH  10  11
ENDBRANCH   6  10
BRANCH   5  22
ATOM     22  N   UNL A   1      34.103  28.740  25.031  1.00  0.00    -0.345 N 
ATOM     23  H   UNL A   1      34.149  28.724  26.050  1.00  0.00     0.345 HD
ATOM     24  H   UNL A   1      34.110  29.708  24.706  1.00  0.00     0.345 HD
ATOM     25  H   UNL A   1      34.909  28.248  24.646  1.00  0.00     0.345 HD
ENDBRANCH   5  22
ENDBRANCH   1   5
BRANCH   3  26
ATOM     26  C   UNL A   1      31.381  30.406  26.141  1.00  0.00     0.118 C 
BRANCH  26  27
ATOM     27  C   UNL A   1      31.350  31.913  26.411  1.00  0.00     0.042 C 
BRANCH  27  28
ATOM     28  C   UNL A   1      32.583  32.403  27.151  1.00  0.00     0.118 C 
BRANCH  28  29
ATOM     29  N   UNL A   1      32.499  33.833  27.416  1.00  0.00    -0.352 N 
ATOM     30  C   UNL A   1      33.042  34.550  28.448  1.00  0.00     0.251 C 
ATOM     31  H   UNL A   1      31.980  34.354  26.763  1.00  0.00     0.163 HD
ATOM     32  O   UNL A   1      32.542  35.615  28.785  1.00  0.00    -0.269 OA
BRANCH  30  33
ATOM     33  C   UNL A   1      34.260  34.049  29.111  1.00  0.00     0.039 A 
ATOM     34  C   UNL A   1      35.510  34.347  28.566  1.00  0.00     0.014 A 
ATOM     35  C   UNL A   1      34.153  33.220  30.233  1.00  0.00     0.014 A 
ATOM     36  C   UNL A   1      36.657  33.825  29.161  1.00  0.00     0.010 A 
ATOM     37  C   UNL A   1      35.297  32.783  30.879  1.00  0.00     0.010 A 
ATOM     38  C   UNL A   1      36.556  33.054  30.330  1.00  0.00    -0.014 A 
BRANCH  38  39
ATOM     39  C   UNL A   1      37.751  32.478  30.981  1.00  0.00     0.031 A 
ATOM     40  C   UNL A   1      38.414  31.268  30.385  1.00  0.00     0.074 A 
ATOM     41  C   UNL A   1      38.182  33.001  32.143  1.00  0.00     0.049 A 
ATOM     42  N   UNL A   1      39.414  30.564  30.845  1.00  0.00    -0.248 NA
ATOM     43  C   UNL A   1      37.856  30.762  29.120  1.00  0.00     0.031 C 
ATOM     44  C   UNL A   1      37.575  34.142  32.834  1.00  0.00     0.029 A 
ATOM     45  N   UNL A   1      39.223  32.634  32.953  1.00  0.00    -0.354 N 
ATOM     46  C   UNL A   1      39.591  29.526  29.939  1.00  0.00     0.074 A 
ATOM     47  C   UNL A   1      38.557  29.653  28.938  1.00  0.00     0.031 C 
ATOM     48  C   UNL A   1      38.273  34.399  33.951  1.00  0.00     0.029 A 
ATOM     49  C   UNL A   1      39.345  33.417  34.075  1.00  0.00     0.049 A 
ATOM     50  H   UNL A   1      39.826  31.884  32.751  1.00  0.00     0.167 HD
ATOM     51  C   UNL A   1      40.549  28.569  29.929  1.00  0.00     0.037 A 
ATOM     52  C   UNL A   1      40.221  33.340  35.093  1.00  0.00     0.037 A 
ATOM     53  C   UNL A   1      41.585  28.470  30.921  1.00  0.00     0.049 A 
ATOM     54  C   UNL A   1      41.272  32.265  35.062  1.00  0.00     0.074 A 
ATOM     55  C   UNL A   1      42.641  27.579  30.980  1.00  0.00     0.029 A 
ATOM     56  N   UNL A   1      41.691  29.293  32.034  1.00  0.00    -0.354 N 
ATOM     57  N   UNL A   1      41.474  31.332  34.163  1.00  0.00    -0.248 NA
ATOM     58  C   UNL A   1      42.220  32.238  36.183  1.00  0.00     0.031 C 
ATOM     59  C   UNL A   1      43.358  27.832  32.155  1.00  0.00     0.029 A 
ATOM     60  C   UNL A   1      42.782  28.916  32.799  1.00  0.00     0.049 A 
ATOM     61  H   UNL A   1      41.081  30.036  32.247  1.00  0.00     0.167 HD
ATOM     62  C   UNL A   1      42.590  30.626  34.592  1.00  0.00     0.074 A 
ATOM     63  C   UNL A   1      43.027  31.249  35.825  1.00  0.00     0.031 C 
ATOM     64  C   UNL A   1      43.200  29.558  34.020  1.00  0.00     0.037 A 
BRANCH  51  65
ATOM     65  C   UNL A   1      40.514  27.563  28.815  1.00  0.00     0.057 A 
ATOM     66  C   UNL A   1      41.318  27.692  27.674  1.00  0.00     0.134 A 
ATOM     67  C   UNL A   1      39.680  26.440  28.890  1.00  0.00     0.134 A 
ATOM     68  F   UNL A   1      42.131  28.750  27.530  1.00  0.00    -0.206 F 
ATOM     69  C   UNL A   1      41.272  26.758  26.636  1.00  0.00     0.040 A 
ATOM     70  C   UNL A   1      39.648  25.484  27.872  1.00  0.00     0.040 A 
ATOM     71  F   UNL A   1      38.886  26.251  29.954  1.00  0.00    -0.206 F 
ATOM     72  C   UNL A   1      40.439  25.646  26.738  1.00  0.00     0.006 A 
ENDBRANCH  51  65
BRANCH  52  73
ATOM     73  C   UNL A   1      40.158  34.322  36.202  1.00  0.00     0.057 A 
ATOM     74  C   UNL A   1      39.369  34.082  37.334  1.00  0.00     0.134 A 
ATOM     75  C   UNL A   1      40.887  35.517  36.167  1.00  0.00     0.134 A 
ATOM     76  F   UNL A   1      38.640  32.960  37.422  1.00  0.00    -0.206 F 
ATOM     77  C   UNL A   1      39.288  35.004  38.378  1.00  0.00     0.040 A 
ATOM     78  C   UNL A   1      40.836  36.436  37.216  1.00  0.00     0.040 A 
ATOM     79  F   UNL A   1      41.673  35.801  35.118  1.00  0.00    -0.206 F 
ATOM     80  C   UNL A   1      40.028  36.183  38.322  1.00  0.00     0.006 A 
ENDBRANCH  52  73
BRANCH  64  81
ATOM     81  C   UNL A   1      44.427  29.026  34.700  1.00  0.00     0.057 A 
ATOM     82  C   UNL A   1      44.362  27.998  35.647  1.00  0.00     0.134 A 
ATOM     83  C   UNL A   1      45.694  29.522  34.367  1.00  0.00     0.134 A 
ATOM     84  F   UNL A   1      43.177  27.488  36.019  1.00  0.00    -0.206 F 
ATOM     85  C   UNL A   1      45.512  27.499  36.260  1.00  0.00     0.040 A 
ATOM     86  C   UNL A   1      46.853  29.010  34.950  1.00  0.00     0.040 A 
ATOM     87  F   UNL A   1      45.827  30.500  33.458  1.00  0.00    -0.206 F 
ATOM     88  C   UNL A   1      46.764  28.001  35.905  1.00  0.00     0.006 A 
ENDBRANCH  64  81
ENDBRANCH  38  39
ENDBRANCH  30  33
ENDBRANCH  28  29
ENDBRANCH  27  28
ENDBRANCH  26  27
ENDBRANCH   3  26
TORSDOF 16
ENDMDL
