MODEL 1
REMARK VINA RESULT:     -11.2      0.000      0.000
REMARK SMILES CC[NH2+][C@@]1(C(=O)NCCCNC(=O)c2ccc(-c3c4nc(c(-c5c(F)cccc5F)c5ccc([nH]5)c(-c5c(F)cccc5F)c5nc(c(-c6c(F)cccc6F)c6ccc3[nH]6)C=C5)C=C4)cc2)CC[C@@H]([N@@H+](C)Cc2nccn2C)C1
REMARK SMILES IDX 8 1 7 2 5 3 6 4 4 6 68 7 80 8 69 9 70 10 3 11 2 14 1 15
REMARK SMILES IDX 71 16 72 17 73 19 74 20 75 21 78 22 76 23 77 24 79 25 9 26
REMARK SMILES IDX 10 27 11 28 12 29 13 31 14 32 15 33 67 34 16 35 66 36 17 37
REMARK SMILES IDX 18 38 19 39 60 40 20 41 65 42 59 43 61 44 21 45 64 46 58 47
REMARK SMILES IDX 57 48 22 50 48 51 31 52 47 53 32 54 35 55 46 56 62 57 33 58
REMARK SMILES IDX 34 59 45 61 63 62 36 63 23 64 24 65 29 66 25 67 26 68 28 69
REMARK SMILES IDX 30 70 27 71 49 72 50 73 55 74 51 75 52 76 54 77 56 78 53 79
REMARK SMILES IDX 37 80 38 81 43 82 39 83 40 84 42 85 44 86 41 87
REMARK H PARENT 7 5 3 12 3 13 71 18 11 30 61 49 35 60
REMARK Flexibility Score: inf
ROOT
ATOM      1  C   UNL A   1      37.186  20.332  24.655  1.00  0.00     0.118 C 
ENDROOT
BRANCH   1   2
ATOM      2  N   UNL A   1      37.668  21.653  24.927  1.00  0.00    -0.351 N 
ATOM      3  C   UNL A   1      36.997  22.736  25.378  1.00  0.00     0.281 C 
ATOM      4  O   UNL A   1      37.714  23.586  25.924  1.00  0.00    -0.268 OA
ATOM      5  H   UNL A   1      38.628  21.793  24.761  1.00  0.00     0.163 HD
BRANCH   3   6
ATOM      6  C   UNL A   1      35.422  22.911  25.312  1.00  0.00     0.181 C 
ATOM      7  C   UNL A   1      34.778  22.343  26.594  1.00  0.00     0.085 C 
ATOM      8  C   UNL A   1      34.658  22.246  24.150  1.00  0.00     0.144 C 
ATOM      9  C   UNL A   1      33.958  21.105  26.220  1.00  0.00     0.072 C 
ATOM     10  C   UNL A   1      33.929  21.006  24.690  1.00  0.00     0.191 C 
BRANCH   6  11
ATOM     11  N   UNL A   1      35.173  24.399  25.275  1.00  0.00    -0.334 N 
ATOM     12  H   UNL A   1      35.225  24.760  26.228  1.00  0.00     0.347 HD
ATOM     13  H   UNL A   1      35.884  24.810  24.671  1.00  0.00     0.347 HD
BRANCH  11  14
ATOM     14  C   UNL A   1      33.855  24.754  24.708  1.00  0.00     0.257 C 
ATOM     15  C   UNL A   1      33.012  25.461  25.758  1.00  0.00     0.071 C 
ENDBRANCH  11  14
ENDBRANCH   6  11
BRANCH  10  16
ATOM     16  N   UNL A   1      32.658  20.679  24.018  1.00  0.00    -0.328 N 
ATOM     17  C   UNL A   1      32.221  21.757  23.127  1.00  0.00     0.333 C 
ATOM     18  H   UNL A   1      32.023  20.596  24.811  1.00  0.00     0.348 HD
BRANCH  16  19
ATOM     19  C   UNL A   1      32.527  19.353  23.367  1.00  0.00     0.338 C 
BRANCH  19  20
ATOM     20  C   UNL A   1      32.749  18.151  24.245  1.00  0.00     0.164 A 
ATOM     21  N   UNL A   1      32.153  17.938  25.409  1.00  0.00    -0.236 NA
ATOM     22  N   UNL A   1      33.520  17.057  23.906  1.00  0.00    -0.333 N 
ATOM     23  C   UNL A   1      32.436  16.644  25.754  1.00  0.00     0.131 A 
ATOM     24  C   UNL A   1      33.268  16.070  24.826  1.00  0.00     0.107 A 
ATOM     25  C   UNL A   1      34.365  16.877  22.751  1.00  0.00     0.151 C 
ENDBRANCH  19  20
ENDBRANCH  16  19
ENDBRANCH  10  16
ENDBRANCH   3   6
ENDBRANCH   1   2
BRANCH   1  26
ATOM     26  C   UNL A   1      38.192  19.261  25.001  1.00  0.00     0.042 C 
BRANCH  26  27
ATOM     27  C   UNL A   1      39.329  19.847  25.802  1.00  0.00     0.118 C 
BRANCH  27  28
ATOM     28  N   UNL A   1      40.438  18.900  25.929  1.00  0.00    -0.352 N 
ATOM     29  C   UNL A   1      41.782  19.138  26.064  1.00  0.00     0.251 C 
ATOM     30  H   UNL A   1      40.180  17.950  25.916  1.00  0.00     0.163 HD
ATOM     31  O   UNL A   1      42.590  18.235  25.917  1.00  0.00    -0.269 OA
BRANCH  29  32
ATOM     32  C   UNL A   1      42.223  20.505  26.380  1.00  0.00     0.039 A 
ATOM     33  C   UNL A   1      42.541  21.383  25.345  1.00  0.00     0.014 A 
ATOM     34  C   UNL A   1      42.280  20.918  27.713  1.00  0.00     0.014 A 
ATOM     35  C   UNL A   1      42.870  22.699  25.655  1.00  0.00     0.010 A 
ATOM     36  C   UNL A   1      42.448  22.256  28.004  1.00  0.00     0.010 A 
ATOM     37  C   UNL A   1      42.794  23.148  26.984  1.00  0.00    -0.014 A 
BRANCH  37  38
ATOM     38  C   UNL A   1      43.148  24.532  27.362  1.00  0.00     0.031 A 
ATOM     39  C   UNL A   1      44.591  24.957  27.314  1.00  0.00     0.074 A 
ATOM     40  C   UNL A   1      42.193  25.365  27.809  1.00  0.00     0.049 A 
ATOM     41  N   UNL A   1      45.133  26.087  27.680  1.00  0.00    -0.248 NA
ATOM     42  C   UNL A   1      45.563  23.956  26.837  1.00  0.00     0.031 C 
ATOM     43  C   UNL A   1      40.773  25.034  27.955  1.00  0.00     0.029 A 
ATOM     44  N   UNL A   1      42.276  26.667  28.224  1.00  0.00    -0.354 N 
ATOM     45  C   UNL A   1      46.501  25.919  27.502  1.00  0.00     0.074 A 
ATOM     46  C   UNL A   1      46.715  24.554  27.087  1.00  0.00     0.031 C 
ATOM     47  C   UNL A   1      40.110  26.122  28.376  1.00  0.00     0.029 A 
ATOM     48  C   UNL A   1      41.063  27.210  28.570  1.00  0.00     0.049 A 
ATOM     49  H   UNL A   1      43.123  27.167  28.269  1.00  0.00     0.167 HD
ATOM     50  C   UNL A   1      47.488  26.836  27.627  1.00  0.00     0.037 A 
ATOM     51  C   UNL A   1      40.763  28.452  28.988  1.00  0.00     0.037 A 
ATOM     52  C   UNL A   1      47.254  28.203  28.002  1.00  0.00     0.049 A 
ATOM     53  C   UNL A   1      41.874  29.457  29.118  1.00  0.00     0.074 A 
ATOM     54  C   UNL A   1      48.163  29.238  28.111  1.00  0.00     0.029 A 
ATOM     55  N   UNL A   1      46.007  28.722  28.327  1.00  0.00    -0.354 N 
ATOM     56  N   UNL A   1      43.156  29.309  28.884  1.00  0.00    -0.248 NA
ATOM     57  C   UNL A   1      41.493  30.803  29.561  1.00  0.00     0.031 C 
ATOM     58  C   UNL A   1      47.472  30.375  28.544  1.00  0.00     0.029 A 
ATOM     59  C   UNL A   1      46.126  30.062  28.652  1.00  0.00     0.049 A 
ATOM     60  H   UNL A   1      45.165  28.214  28.325  1.00  0.00     0.167 HD
ATOM     61  C   UNL A   1      43.732  30.550  29.117  1.00  0.00     0.074 A 
ATOM     62  C   UNL A   1      42.653  31.440  29.501  1.00  0.00     0.031 C 
ATOM     63  C   UNL A   1      45.032  30.924  29.022  1.00  0.00     0.037 A 
BRANCH  50  64
ATOM     64  C   UNL A   1      48.889  26.377  27.344  1.00  0.00     0.057 A 
ATOM     65  C   UNL A   1      49.749  25.941  28.363  1.00  0.00     0.134 A 
ATOM     66  C   UNL A   1      49.397  26.389  26.038  1.00  0.00     0.134 A 
ATOM     67  F   UNL A   1      49.336  25.924  29.640  1.00  0.00    -0.206 F 
ATOM     68  C   UNL A   1      51.072  25.578  28.103  1.00  0.00     0.040 A 
ATOM     69  C   UNL A   1      50.706  25.994  25.761  1.00  0.00     0.040 A 
ATOM     70  F   UNL A   1      48.632  26.792  25.013  1.00  0.00    -0.206 F 
ATOM     71  C   UNL A   1      51.551  25.599  26.795  1.00  0.00     0.006 A 
ENDBRANCH  50  64
BRANCH  51  72
ATOM     72  C   UNL A   1      39.352  28.824  29.254  1.00  0.00     0.057 A 
ATOM     73  C   UNL A   1      38.556  29.381  28.245  1.00  0.00     0.134 A 
ATOM     74  C   UNL A   1      38.758  28.622  30.505  1.00  0.00     0.134 A 
ATOM     75  F   UNL A   1      39.071  29.608  27.028  1.00  0.00    -0.206 F 
ATOM     76  C   UNL A   1      37.228  29.741  28.476  1.00  0.00     0.040 A 
ATOM     77  C   UNL A   1      37.424  28.955  30.743  1.00  0.00     0.040 A 
ATOM     78  F   UNL A   1      39.464  28.079  31.509  1.00  0.00    -0.206 F 
ATOM     79  C   UNL A   1      36.657  29.523  29.728  1.00  0.00     0.006 A 
ENDBRANCH  51  72
BRANCH  63  80
ATOM     80  C   UNL A   1      45.347  32.365  29.293  1.00  0.00     0.057 A 
ATOM     81  C   UNL A   1      45.726  32.816  30.564  1.00  0.00     0.134 A 
ATOM     82  C   UNL A   1      45.307  33.306  28.256  1.00  0.00     0.134 A 
ATOM     83  F   UNL A   1      45.771  31.966  31.601  1.00  0.00    -0.206 F 
ATOM     84  C   UNL A   1      46.026  34.158  30.800  1.00  0.00     0.040 A 
ATOM     85  C   UNL A   1      45.636  34.644  28.473  1.00  0.00     0.040 A 
ATOM     86  F   UNL A   1      44.965  32.937  27.013  1.00  0.00    -0.206 F 
ATOM     87  C   UNL A   1      45.989  35.074  29.750  1.00  0.00     0.006 A 
ENDBRANCH  63  80
ENDBRANCH  37  38
ENDBRANCH  29  32
ENDBRANCH  27  28
ENDBRANCH  26  27
ENDBRANCH   1  26
TORSDOF 15
ENDMDL
MODEL 2
REMARK VINA RESULT:     -11.1      5.933     10.446
REMARK SMILES CC[NH2+][C@@]1(C(=O)NCCCNC(=O)c2ccc(-c3c4nc(c(-c5c(F)cccc5F)c5ccc([nH]5)c(-c5c(F)cccc5F)c5nc(c(-c6c(F)cccc6F)c6ccc3[nH]6)C=C5)C=C4)cc2)CC[C@@H]([N@@H+](C)Cc2nccn2C)C1
REMARK SMILES IDX 8 1 7 2 5 3 6 4 4 6 68 7 80 8 69 9 70 10 3 11 2 14 1 15
REMARK SMILES IDX 71 16 72 17 73 19 74 20 75 21 78 22 76 23 77 24 79 25 9 26
REMARK SMILES IDX 10 27 11 28 12 29 13 31 14 32 15 33 67 34 16 35 66 36 17 37
REMARK SMILES IDX 18 38 19 39 60 40 20 41 65 42 59 43 61 44 21 45 64 46 58 47
REMARK SMILES IDX 57 48 22 50 48 51 31 52 47 53 32 54 35 55 46 56 62 57 33 58
REMARK SMILES IDX 34 59 45 61 63 62 36 63 23 64 24 65 29 66 25 67 26 68 28 69
REMARK SMILES IDX 30 70 27 71 49 72 50 73 55 74 51 75 52 76 54 77 56 78 53 79
REMARK SMILES IDX 37 80 38 81 43 82 39 83 40 84 42 85 44 86 41 87
REMARK H PARENT 7 5 3 12 3 13 71 18 11 30 61 49 35 60
REMARK Flexibility Score: inf
ROOT
ATOM      1  C   UNL A   1      31.689  30.878  26.127  1.00  0.00     0.118 C 
ENDROOT
BRANCH   1   2
ATOM      2  N   UNL A   1      32.772  30.137  26.703  1.00  0.00    -0.351 N 
ATOM      3  C   UNL A   1      33.399  29.033  26.239  1.00  0.00     0.281 C 
ATOM      4  O   UNL A   1      34.541  28.871  26.693  1.00  0.00    -0.268 OA
ATOM      5  H   UNL A   1      33.108  30.483  27.561  1.00  0.00     0.163 HD
BRANCH   3   6
ATOM      6  C   UNL A   1      32.800  28.048  25.150  1.00  0.00     0.181 C 
ATOM      7  C   UNL A   1      33.250  28.489  23.742  1.00  0.00     0.085 C 
ATOM      8  C   UNL A   1      31.268  27.902  25.055  1.00  0.00     0.144 C 
ATOM      9  C   UNL A   1      32.021  28.976  22.968  1.00  0.00     0.072 C 
ATOM     10  C   UNL A   1      30.780  28.663  23.813  1.00  0.00     0.191 C 
BRANCH   6  11
ATOM     11  N   UNL A   1      33.405  26.696  25.440  1.00  0.00    -0.334 N 
ATOM     12  H   UNL A   1      34.207  26.825  26.056  1.00  0.00     0.347 HD
ATOM     13  H   UNL A   1      32.678  26.125  25.870  1.00  0.00     0.347 HD
BRANCH  11  14
ATOM     14  C   UNL A   1      33.856  25.988  24.223  1.00  0.00     0.257 C 
ATOM     15  C   UNL A   1      34.564  24.698  24.605  1.00  0.00     0.071 C 
ENDBRANCH  11  14
ENDBRANCH   6  11
BRANCH  10  16
ATOM     16  N   UNL A   1      29.590  28.097  23.154  1.00  0.00    -0.328 N 
ATOM     17  C   UNL A   1      29.305  26.738  23.620  1.00  0.00     0.333 C 
ATOM     18  H   UNL A   1      29.884  28.083  22.177  1.00  0.00     0.348 HD
BRANCH  16  19
ATOM     19  C   UNL A   1      28.357  28.920  23.100  1.00  0.00     0.338 C 
BRANCH  19  20
ATOM     20  C   UNL A   1      28.396  30.127  22.203  1.00  0.00     0.164 A 
ATOM     21  N   UNL A   1      28.118  30.123  20.908  1.00  0.00    -0.236 NA
ATOM     22  N   UNL A   1      28.619  31.422  22.630  1.00  0.00    -0.333 N 
ATOM     23  C   UNL A   1      28.030  31.436  20.529  1.00  0.00     0.131 A 
ATOM     24  C   UNL A   1      28.318  32.261  21.586  1.00  0.00     0.107 A 
ATOM     25  C   UNL A   1      28.990  31.882  23.946  1.00  0.00     0.151 C 
ENDBRANCH  19  20
ENDBRANCH  16  19
ENDBRANCH  10  16
ENDBRANCH   3   6
ENDBRANCH   1   2
BRANCH   1  26
ATOM     26  C   UNL A   1      31.410  32.168  26.859  1.00  0.00     0.042 C 
BRANCH  26  27
ATOM     27  C   UNL A   1      32.703  32.842  27.247  1.00  0.00     0.118 C 
BRANCH  27  28
ATOM     28  N   UNL A   1      32.493  34.252  27.580  1.00  0.00    -0.352 N 
ATOM     29  C   UNL A   1      33.030  35.002  28.595  1.00  0.00     0.251 C 
ATOM     30  H   UNL A   1      31.874  34.734  26.985  1.00  0.00     0.163 HD
ATOM     31  O   UNL A   1      32.565  36.096  28.871  1.00  0.00    -0.269 OA
BRANCH  29  32
ATOM     32  C   UNL A   1      34.169  34.451  29.346  1.00  0.00     0.039 A 
ATOM     33  C   UNL A   1      33.937  33.705  30.499  1.00  0.00     0.014 A 
ATOM     34  C   UNL A   1      35.466  34.652  28.871  1.00  0.00     0.014 A 
ATOM     35  C   UNL A   1      35.018  33.115  31.148  1.00  0.00     0.010 A 
ATOM     36  C   UNL A   1      36.510  33.938  29.421  1.00  0.00     0.010 A 
ATOM     37  C   UNL A   1      36.305  33.204  30.593  1.00  0.00    -0.014 A 
BRANCH  37  38
ATOM     38  C   UNL A   1      37.484  32.608  31.254  1.00  0.00     0.031 A 
ATOM     39  C   UNL A   1      38.173  31.439  30.605  1.00  0.00     0.074 A 
ATOM     40  C   UNL A   1      37.878  33.067  32.455  1.00  0.00     0.049 A 
ATOM     41  N   UNL A   1      39.165  30.712  31.048  1.00  0.00    -0.248 NA
ATOM     42  C   UNL A   1      37.642  30.993  29.304  1.00  0.00     0.031 C 
ATOM     43  C   UNL A   1      37.241  34.155  33.201  1.00  0.00     0.029 A 
ATOM     44  N   UNL A   1      38.915  32.675  33.257  1.00  0.00    -0.354 N 
ATOM     45  C   UNL A   1      39.353  29.719  30.095  1.00  0.00     0.074 A 
ATOM     46  C   UNL A   1      38.318  29.875  29.101  1.00  0.00     0.031 C 
ATOM     47  C   UNL A   1      37.934  34.377  34.329  1.00  0.00     0.029 A 
ATOM     48  C   UNL A   1      39.033  33.421  34.404  1.00  0.00     0.049 A 
ATOM     49  H   UNL A   1      39.518  31.929  33.034  1.00  0.00     0.167 HD
ATOM     50  C   UNL A   1      40.331  28.786  30.029  1.00  0.00     0.037 A 
ATOM     51  C   UNL A   1      39.938  33.340  35.395  1.00  0.00     0.037 A 
ATOM     52  C   UNL A   1      41.378  28.668  31.005  1.00  0.00     0.049 A 
ATOM     53  C   UNL A   1      41.019  32.299  35.301  1.00  0.00     0.074 A 
ATOM     54  C   UNL A   1      42.454  27.801  31.020  1.00  0.00     0.029 A 
ATOM     55  N   UNL A   1      41.477  29.456  32.145  1.00  0.00    -0.354 N 
ATOM     56  N   UNL A   1      41.229  31.405  34.364  1.00  0.00    -0.248 NA
ATOM     57  C   UNL A   1      41.993  32.262  36.398  1.00  0.00     0.031 C 
ATOM     58  C   UNL A   1      43.181  28.035  32.193  1.00  0.00     0.029 A 
ATOM     59  C   UNL A   1      42.589  29.084  32.879  1.00  0.00     0.049 A 
ATOM     60  H   UNL A   1      40.851  30.173  32.393  1.00  0.00     0.167 HD
ATOM     61  C   UNL A   1      42.377  30.722  34.739  1.00  0.00     0.074 A 
ATOM     62  C   UNL A   1      42.822  31.316  35.985  1.00  0.00     0.031 C 
ATOM     63  C   UNL A   1      43.011  29.699  34.113  1.00  0.00     0.037 A 
BRANCH  50  64
ATOM     64  C   UNL A   1      40.302  27.845  28.859  1.00  0.00     0.057 A 
ATOM     65  C   UNL A   1      39.601  26.630  28.899  1.00  0.00     0.134 A 
ATOM     66  C   UNL A   1      41.000  28.143  27.682  1.00  0.00     0.134 A 
ATOM     67  F   UNL A   1      38.927  26.271  30.003  1.00  0.00    -0.206 F 
ATOM     68  C   UNL A   1      39.631  25.729  27.834  1.00  0.00     0.040 A 
ATOM     69  C   UNL A   1      41.008  27.266  26.596  1.00  0.00     0.040 A 
ATOM     70  F   UNL A   1      41.691  29.287  27.571  1.00  0.00    -0.206 F 
ATOM     71  C   UNL A   1      40.334  26.050  26.675  1.00  0.00     0.006 A 
ENDBRANCH  50  64
BRANCH  51  72
ATOM     72  C   UNL A   1      39.893  34.305  36.520  1.00  0.00     0.057 A 
ATOM     73  C   UNL A   1      40.528  35.550  36.422  1.00  0.00     0.134 A 
ATOM     74  C   UNL A   1      39.209  34.022  37.708  1.00  0.00     0.134 A 
ATOM     75  F   UNL A   1      41.208  35.875  35.313  1.00  0.00    -0.206 F 
ATOM     76  C   UNL A   1      40.501  36.469  37.471  1.00  0.00     0.040 A 
ATOM     77  C   UNL A   1      39.153  34.943  38.756  1.00  0.00     0.040 A 
ATOM     78  F   UNL A   1      38.569  32.853  37.858  1.00  0.00    -0.206 F 
ATOM     79  C   UNL A   1      39.807  36.169  38.641  1.00  0.00     0.006 A 
ENDBRANCH  51  72
BRANCH  63  80
ATOM     80  C   UNL A   1      44.273  29.193  34.743  1.00  0.00     0.057 A 
ATOM     81  C   UNL A   1      45.524  29.753  34.454  1.00  0.00     0.134 A 
ATOM     82  C   UNL A   1      44.229  28.154  35.682  1.00  0.00     0.134 A 
ATOM     83  F   UNL A   1      45.635  30.742  33.555  1.00  0.00    -0.206 F 
ATOM     84  C   UNL A   1      46.690  29.277  35.056  1.00  0.00     0.040 A 
ATOM     85  C   UNL A   1      45.383  27.692  36.313  1.00  0.00     0.040 A 
ATOM     86  F   UNL A   1      43.060  27.583  36.012  1.00  0.00    -0.206 F 
ATOM     87  C   UNL A   1      46.619  28.249  35.994  1.00  0.00     0.006 A 
ENDBRANCH  63  80
ENDBRANCH  37  38
ENDBRANCH  29  32
ENDBRANCH  27  28
ENDBRANCH  26  27
ENDBRANCH   1  26
TORSDOF 15
ENDMDL
MODEL 3
REMARK VINA RESULT:     -11.1      5.750     10.865
REMARK SMILES CC[NH2+][C@@]1(C(=O)NCCCNC(=O)c2ccc(-c3c4nc(c(-c5c(F)cccc5F)c5ccc([nH]5)c(-c5c(F)cccc5F)c5nc(c(-c6c(F)cccc6F)c6ccc3[nH]6)C=C5)C=C4)cc2)CC[C@@H]([N@@H+](C)Cc2nccn2C)C1
REMARK SMILES IDX 8 1 7 2 5 3 6 4 4 6 68 7 80 8 69 9 70 10 3 11 2 14 1 15
REMARK SMILES IDX 71 16 72 17 73 19 74 20 75 21 78 22 76 23 77 24 79 25 9 26
REMARK SMILES IDX 10 27 11 28 12 29 13 31 14 32 15 33 67 34 16 35 66 36 17 37
REMARK SMILES IDX 18 38 19 39 60 40 20 41 65 42 59 43 61 44 21 45 64 46 58 47
REMARK SMILES IDX 57 48 22 50 48 51 31 52 47 53 32 54 35 55 46 56 62 57 33 58
REMARK SMILES IDX 34 59 45 61 63 62 36 63 23 64 24 65 29 66 25 67 26 68 28 69
REMARK SMILES IDX 30 70 27 71 49 72 50 73 55 74 51 75 52 76 54 77 56 78 53 79
REMARK SMILES IDX 37 80 38 81 43 82 39 83 40 84 42 85 44 86 41 87
REMARK H PARENT 7 5 3 12 3 13 71 18 11 30 61 49 35 60
REMARK Flexibility Score: inf
ROOT
ATOM      1  C   UNL A   1      31.516  30.863  26.299  1.00  0.00     0.118 C 
ENDROOT
BRANCH   1   2
ATOM      2  N   UNL A   1      32.705  30.233  26.793  1.00  0.00    -0.351 N 
ATOM      3  C   UNL A   1      33.383  29.174  26.298  1.00  0.00     0.281 C 
ATOM      4  O   UNL A   1      34.570  29.122  26.653  1.00  0.00    -0.268 OA
ATOM      5  H   UNL A   1      33.082  30.630  27.610  1.00  0.00     0.163 HD
BRANCH   3   6
ATOM      6  C   UNL A   1      32.782  28.111  25.286  1.00  0.00     0.181 C 
ATOM      7  C   UNL A   1      33.351  28.354  23.873  1.00  0.00     0.085 C 
ATOM      8  C   UNL A   1      31.252  28.059  25.100  1.00  0.00     0.144 C 
ATOM      9  C   UNL A   1      32.213  28.830  22.965  1.00  0.00     0.072 C 
ATOM     10  C   UNL A   1      30.901  28.702  23.750  1.00  0.00     0.191 C 
BRANCH   6  11
ATOM     11  N   UNL A   1      33.264  26.765  25.767  1.00  0.00    -0.334 N 
ATOM     12  H   UNL A   1      34.203  26.874  26.150  1.00  0.00     0.347 HD
ATOM     13  H   UNL A   1      32.600  26.438  26.468  1.00  0.00     0.347 HD
BRANCH  11  14
ATOM     14  C   UNL A   1      33.309  25.747  24.696  1.00  0.00     0.257 C 
ATOM     15  C   UNL A   1      34.592  24.938  24.801  1.00  0.00     0.071 C 
ENDBRANCH  11  14
ENDBRANCH   6  11
BRANCH  10  16
ATOM     16  N   UNL A   1      29.715  28.145  23.075  1.00  0.00    -0.328 N 
ATOM     17  C   UNL A   1      29.465  26.757  23.473  1.00  0.00     0.333 C 
ATOM     18  H   UNL A   1      29.998  28.187  22.096  1.00  0.00     0.348 HD
BRANCH  16  19
ATOM     19  C   UNL A   1      28.464  28.942  23.078  1.00  0.00     0.338 C 
BRANCH  19  20
ATOM     20  C   UNL A   1      28.441  30.153  22.186  1.00  0.00     0.164 A 
ATOM     21  N   UNL A   1      28.144  30.142  20.894  1.00  0.00    -0.236 NA
ATOM     22  N   UNL A   1      28.616  31.454  22.615  1.00  0.00    -0.333 N 
ATOM     23  C   UNL A   1      27.996  31.452  20.523  1.00  0.00     0.131 A 
ATOM     24  C   UNL A   1      28.265  32.284  21.579  1.00  0.00     0.107 A 
ATOM     25  C   UNL A   1      28.986  31.924  23.927  1.00  0.00     0.151 C 
ENDBRANCH  19  20
ENDBRANCH  16  19
ENDBRANCH  10  16
ENDBRANCH   3   6
ENDBRANCH   1   2
BRANCH   1  26
ATOM     26  C   UNL A   1      31.375  32.291  26.765  1.00  0.00     0.042 C 
BRANCH  26  27
ATOM     27  C   UNL A   1      32.727  32.864  27.118  1.00  0.00     0.118 C 
BRANCH  27  28
ATOM     28  N   UNL A   1      32.611  34.226  27.643  1.00  0.00    -0.352 N 
ATOM     29  C   UNL A   1      33.218  34.800  28.730  1.00  0.00     0.251 C 
ATOM     30  H   UNL A   1      32.006  34.817  27.139  1.00  0.00     0.163 HD
ATOM     31  O   UNL A   1      32.827  35.871  29.166  1.00  0.00    -0.269 OA
BRANCH  29  32
ATOM     32  C   UNL A   1      34.342  34.090  29.361  1.00  0.00     0.039 A 
ATOM     33  C   UNL A   1      34.092  32.973  30.156  1.00  0.00     0.014 A 
ATOM     34  C   UNL A   1      35.647  34.522  29.123  1.00  0.00     0.014 A 
ATOM     35  C   UNL A   1      35.169  32.259  30.673  1.00  0.00     0.010 A 
ATOM     36  C   UNL A   1      36.708  33.725  29.500  1.00  0.00     0.010 A 
ATOM     37  C   UNL A   1      36.481  32.615  30.320  1.00  0.00    -0.014 A 
BRANCH  37  38
ATOM     38  C   UNL A   1      37.655  31.895  30.856  1.00  0.00     0.031 A 
ATOM     39  C   UNL A   1      38.151  32.231  32.236  1.00  0.00     0.074 A 
ATOM     40  C   UNL A   1      38.303  31.008  30.081  1.00  0.00     0.049 A 
ATOM     41  N   UNL A   1      39.207  31.788  32.866  1.00  0.00    -0.248 NA
ATOM     42  C   UNL A   1      37.387  33.241  32.990  1.00  0.00     0.031 C 
ATOM     43  C   UNL A   1      37.942  30.655  28.706  1.00  0.00     0.029 A 
ATOM     44  N   UNL A   1      39.404  30.239  30.345  1.00  0.00    -0.354 N 
ATOM     45  C   UNL A   1      39.241  32.483  34.069  1.00  0.00     0.074 A 
ATOM     46  C   UNL A   1      38.161  33.440  34.043  1.00  0.00     0.031 C 
ATOM     47  C   UNL A   1      38.776  29.699  28.266  1.00  0.00     0.029 A 
ATOM     48  C   UNL A   1      39.752  29.406  29.310  1.00  0.00     0.049 A 
ATOM     49  H   UNL A   1      39.899  30.278  31.195  1.00  0.00     0.167 HD
ATOM     50  C   UNL A   1      40.070  32.306  35.123  1.00  0.00     0.037 A 
ATOM     51  C   UNL A   1      40.745  28.504  29.226  1.00  0.00     0.037 A 
ATOM     52  C   UNL A   1      41.115  31.321  35.151  1.00  0.00     0.049 A 
ATOM     53  C   UNL A   1      41.653  28.321  30.410  1.00  0.00     0.074 A 
ATOM     54  C   UNL A   1      41.984  31.009  36.179  1.00  0.00     0.029 A 
ATOM     55  N   UNL A   1      41.425  30.481  34.089  1.00  0.00    -0.354 N 
ATOM     56  N   UNL A   1      41.638  28.935  31.569  1.00  0.00    -0.248 NA
ATOM     57  C   UNL A   1      42.711  27.312  30.276  1.00  0.00     0.031 C 
ATOM     58  C   UNL A   1      42.850  30.009  35.723  1.00  0.00     0.029 A 
ATOM     59  C   UNL A   1      42.485  29.660  34.432  1.00  0.00     0.049 A 
ATOM     60  H   UNL A   1      40.960  30.469  33.222  1.00  0.00     0.167 HD
ATOM     61  C   UNL A   1      42.660  28.365  32.316  1.00  0.00     0.074 A 
ATOM     62  C   UNL A   1      43.265  27.348  31.479  1.00  0.00     0.031 C 
ATOM     63  C   UNL A   1      43.061  28.651  33.580  1.00  0.00     0.037 A 
BRANCH  50  64
ATOM     64  C   UNL A   1      39.858  33.191  36.318  1.00  0.00     0.057 A 
ATOM     65  C   UNL A   1      38.947  32.864  37.333  1.00  0.00     0.134 A 
ATOM     66  C   UNL A   1      40.558  34.397  36.449  1.00  0.00     0.134 A 
ATOM     67  F   UNL A   1      38.227  31.733  37.262  1.00  0.00    -0.206 F 
ATOM     68  C   UNL A   1      38.706  33.721  38.408  1.00  0.00     0.040 A 
ATOM     69  C   UNL A   1      40.352  35.246  37.538  1.00  0.00     0.040 A 
ATOM     70  F   UNL A   1      41.446  34.774  35.518  1.00  0.00    -0.206 F 
ATOM     71  C   UNL A   1      39.415  34.915  38.514  1.00  0.00     0.006 A 
ENDBRANCH  50  64
BRANCH  51  72
ATOM     72  C   UNL A   1      40.890  27.673  28.007  1.00  0.00     0.057 A 
ATOM     73  C   UNL A   1      41.670  28.112  26.929  1.00  0.00     0.134 A 
ATOM     74  C   UNL A   1      40.275  26.422  27.888  1.00  0.00     0.134 A 
ATOM     75  F   UNL A   1      42.277  29.307  26.978  1.00  0.00    -0.206 F 
ATOM     76  C   UNL A   1      41.816  27.347  25.772  1.00  0.00     0.040 A 
ATOM     77  C   UNL A   1      40.433  25.634  26.747  1.00  0.00     0.040 A 
ATOM     78  F   UNL A   1      39.526  25.938  28.892  1.00  0.00    -0.206 F 
ATOM     79  C   UNL A   1      41.200  26.100  25.681  1.00  0.00     0.006 A 
ENDBRANCH  51  72
BRANCH  63  80
ATOM     80  C   UNL A   1      44.177  27.822  34.143  1.00  0.00     0.057 A 
ATOM     81  C   UNL A   1      45.513  28.237  34.084  1.00  0.00     0.134 A 
ATOM     82  C   UNL A   1      43.901  26.610  34.789  1.00  0.00     0.134 A 
ATOM     83  F   UNL A   1      45.843  29.383  33.469  1.00  0.00    -0.206 F 
ATOM     84  C   UNL A   1      46.540  27.461  34.623  1.00  0.00     0.040 A 
ATOM     85  C   UNL A   1      44.916  25.841  35.358  1.00  0.00     0.040 A 
ATOM     86  F   UNL A   1      42.641  26.162  34.891  1.00  0.00    -0.206 F 
ATOM     87  C   UNL A   1      46.241  26.262  35.268  1.00  0.00     0.006 A 
ENDBRANCH  63  80
ENDBRANCH  37  38
ENDBRANCH  29  32
ENDBRANCH  27  28
ENDBRANCH  26  27
ENDBRANCH   1  26
TORSDOF 15
ENDMDL
