MODEL 1
REMARK VINA RESULT:     -11.6      0.000      0.000
REMARK SMILES CC[C@@](C)(NC(=O)Nc1c(C)cccc1Cl)C(=O)NCCCNC(=O)c1ccc(-c2c3nc(c(-c4c(F)cccc4F)c4ccc([nH]4)c(-c4c(F)cccc4F)c4nc(c(-c5c(F)cccc5F)c5ccc2[nH]5)C=C4)C=C3)cc1
REMARK SMILES IDX 21 1 20 2 19 3 17 4 18 5 3 7 4 8 2 9 1 10 5 11 6 12 7 14
REMARK SMILES IDX 8 15 9 17 10 18 15 19 11 20 12 21 14 22 16 23 13 24 22 25
REMARK SMILES IDX 23 26 24 27 25 29 26 30 27 31 79 32 28 33 78 34 29 35 30 36
REMARK SMILES IDX 31 37 72 38 32 39 77 40 71 41 73 42 33 43 76 44 70 45 69 46
REMARK SMILES IDX 34 48 60 49 43 50 59 51 44 52 47 53 58 54 74 55 45 56 46 57
REMARK SMILES IDX 57 59 75 60 48 61 35 62 36 63 41 64 37 65 38 66 40 67 42 68
REMARK SMILES IDX 39 69 61 70 62 71 67 72 63 73 64 74 66 75 68 76 65 77 49 78
REMARK SMILES IDX 50 79 55 80 51 81 52 82 54 83 56 84 53 85
REMARK H PARENT 19 6 5 13 8 16 23 28 73 47 47 58
REMARK Flexibility Score: inf
ROOT
ATOM      1  C   UNL A   1      37.420  19.644  24.998  1.00  0.00     0.042 C 
ENDROOT
BRANCH   1   2
ATOM      2  C   UNL A   1      36.109  20.470  24.944  1.00  0.00     0.117 C 
BRANCH   2   3
ATOM      3  N   UNL A   1      35.845  21.304  26.110  1.00  0.00    -0.354 N 
ATOM      4  C   UNL A   1      34.652  21.845  26.602  1.00  0.00     0.245 C 
ATOM      5  O   UNL A   1      34.173  21.486  27.675  1.00  0.00    -0.272 OA
ATOM      6  H   UNL A   1      36.643  21.527  26.642  1.00  0.00     0.163 HD
BRANCH   4   7
ATOM      7  C   UNL A   1      33.944  22.870  25.701  1.00  0.00     0.117 C 
ATOM      8  C   UNL A   1      34.966  24.043  25.758  1.00  0.00     0.045 C 
BRANCH   7   9
ATOM      9  C   UNL A   1      33.614  22.636  24.205  1.00  0.00     0.035 C 
ATOM     10  C   UNL A   1      34.554  23.172  23.149  1.00  0.00     0.007 C 
ENDBRANCH   7   9
BRANCH   7  11
ATOM     11  N   UNL A   1      32.689  23.171  26.385  1.00  0.00    -0.324 N 
ATOM     12  C   UNL A   1      31.898  24.242  26.407  1.00  0.00     0.320 C 
ATOM     13  H   UNL A   1      32.360  22.431  26.945  1.00  0.00     0.166 HD
ATOM     14  O   UNL A   1      30.990  24.188  27.250  1.00  0.00    -0.248 OA
ATOM     15  N   UNL A   1      31.922  25.374  25.686  1.00  0.00    -0.306 N 
ATOM     16  H   UNL A   1      31.118  25.862  25.976  1.00  0.00     0.171 HD
BRANCH  15  17
ATOM     17  C   UNL A   1      32.525  26.239  24.704  1.00  0.00     0.064 A 
ATOM     18  C   UNL A   1      32.671  26.225  23.286  1.00  0.00    -0.026 A 
ATOM     19  C   UNL A   1      32.943  27.466  25.311  1.00  0.00     0.064 A 
ATOM     20  C   UNL A   1      31.746  25.655  22.216  1.00  0.00     0.046 C 
ATOM     21  C   UNL A   1      33.545  27.161  22.661  1.00  0.00     0.005 A 
ATOM     22  C   UNL A   1      33.658  28.465  24.641  1.00  0.00     0.023 A 
ATOM     23  Cl  UNL A   1      32.534  27.832  26.970  1.00  0.00    -0.082 Cl
ATOM     24  C   UNL A   1      34.025  28.275  23.327  1.00  0.00     0.002 A 
ENDBRANCH  15  17
ENDBRANCH   7  11
ENDBRANCH   4   7
ENDBRANCH   2   3
ENDBRANCH   1   2
BRANCH   1  25
ATOM     25  C   UNL A   1      38.645  20.177  25.750  1.00  0.00     0.118 C 
BRANCH  25  26
ATOM     26  N   UNL A   1      39.815  19.321  25.701  1.00  0.00    -0.352 N 
ATOM     27  C   UNL A   1      41.102  19.516  26.128  1.00  0.00     0.251 C 
ATOM     28  H   UNL A   1      39.655  18.443  25.287  1.00  0.00     0.163 HD
ATOM     29  O   UNL A   1      41.912  18.588  26.017  1.00  0.00    -0.269 OA
BRANCH  27  30
ATOM     30  C   UNL A   1      41.578  20.818  26.644  1.00  0.00     0.039 A 
ATOM     31  C   UNL A   1      41.984  21.770  25.702  1.00  0.00     0.014 A 
ATOM     32  C   UNL A   1      41.676  21.113  28.005  1.00  0.00     0.014 A 
ATOM     33  C   UNL A   1      42.423  23.029  26.116  1.00  0.00     0.010 A 
ATOM     34  C   UNL A   1      42.047  22.399  28.417  1.00  0.00     0.010 A 
ATOM     35  C   UNL A   1      42.427  23.373  27.477  1.00  0.00    -0.014 A 
BRANCH  35  36
ATOM     36  C   UNL A   1      42.832  24.741  27.906  1.00  0.00     0.031 A 
ATOM     37  C   UNL A   1      41.797  25.797  28.195  1.00  0.00     0.074 A 
ATOM     38  C   UNL A   1      44.140  25.045  28.024  1.00  0.00     0.049 A 
ATOM     39  N   UNL A   1      41.965  27.036  28.589  1.00  0.00    -0.248 NA
ATOM     40  C   UNL A   1      40.390  25.420  27.992  1.00  0.00     0.031 C 
ATOM     41  C   UNL A   1      45.250  24.135  27.732  1.00  0.00     0.029 A 
ATOM     42  N   UNL A   1      44.763  26.203  28.425  1.00  0.00    -0.354 N 
ATOM     43  C   UNL A   1      40.690  27.584  28.669  1.00  0.00     0.074 A 
ATOM     44  C   UNL A   1      39.766  26.564  28.226  1.00  0.00     0.031 C 
ATOM     45  C   UNL A   1      46.412  24.755  27.996  1.00  0.00     0.029 A 
ATOM     46  C   UNL A   1      46.135  26.117  28.442  1.00  0.00     0.049 A 
ATOM     47  H   UNL A   1      44.271  27.019  28.677  1.00  0.00     0.167 HD
ATOM     48  C   UNL A   1      40.319  28.815  29.099  1.00  0.00     0.037 A 
ATOM     49  C   UNL A   1      47.066  27.029  28.781  1.00  0.00     0.037 A 
ATOM     50  C   UNL A   1      41.236  29.827  29.557  1.00  0.00     0.049 A 
ATOM     51  C   UNL A   1      46.628  28.388  29.256  1.00  0.00     0.074 A 
ATOM     52  C   UNL A   1      40.952  31.088  30.055  1.00  0.00     0.029 A 
ATOM     53  N   UNL A   1      42.616  29.695  29.572  1.00  0.00    -0.354 N 
ATOM     54  N   UNL A   1      45.416  28.867  29.392  1.00  0.00    -0.248 NA
ATOM     55  C   UNL A   1      47.691  29.329  29.638  1.00  0.00     0.031 C 
ATOM     56  C   UNL A   1      42.162  31.736  30.324  1.00  0.00     0.029 A 
ATOM     57  C   UNL A   1      43.198  30.856  30.055  1.00  0.00     0.049 A 
ATOM     58  H   UNL A   1      43.109  28.894  29.282  1.00  0.00     0.167 HD
ATOM     59  C   UNL A   1      45.568  30.146  29.914  1.00  0.00     0.074 A 
ATOM     60  C   UNL A   1      46.989  30.362  30.081  1.00  0.00     0.031 C 
ATOM     61  C   UNL A   1      44.614  31.057  30.230  1.00  0.00     0.037 A 
BRANCH  48  62
ATOM     62  C   UNL A   1      38.849  29.135  29.094  1.00  0.00     0.057 A 
ATOM     63  C   UNL A   1      38.065  29.037  30.253  1.00  0.00     0.134 A 
ATOM     64  C   UNL A   1      38.214  29.572  27.925  1.00  0.00     0.134 A 
ATOM     65  F   UNL A   1      38.607  28.615  31.406  1.00  0.00    -0.206 F 
ATOM     66  C   UNL A   1      36.700  29.328  30.241  1.00  0.00     0.040 A 
ATOM     67  C   UNL A   1      36.856  29.897  27.908  1.00  0.00     0.040 A 
ATOM     68  F   UNL A   1      38.903  29.701  26.781  1.00  0.00    -0.206 F 
ATOM     69  C   UNL A   1      36.092  29.766  29.066  1.00  0.00     0.006 A 
ENDBRANCH  48  62
BRANCH  49  70
ATOM     70  C   UNL A   1      48.510  26.681  28.720  1.00  0.00     0.057 A 
ATOM     71  C   UNL A   1      49.266  26.927  27.566  1.00  0.00     0.134 A 
ATOM     72  C   UNL A   1      49.165  26.078  29.799  1.00  0.00     0.134 A 
ATOM     73  F   UNL A   1      48.693  27.485  26.490  1.00  0.00    -0.206 F 
ATOM     74  C   UNL A   1      50.611  26.560  27.479  1.00  0.00     0.040 A 
ATOM     75  C   UNL A   1      50.516  25.732  29.737  1.00  0.00     0.040 A 
ATOM     76  F   UNL A   1      48.501  25.823  30.938  1.00  0.00    -0.206 F 
ATOM     77  C   UNL A   1      51.241  25.965  28.569  1.00  0.00     0.006 A 
ENDBRANCH  49  70
BRANCH  61  78
ATOM     78  C   UNL A   1      45.074  32.349  30.847  1.00  0.00     0.057 A 
ATOM     79  C   UNL A   1      45.374  33.481  30.078  1.00  0.00     0.134 A 
ATOM     80  C   UNL A   1      45.199  32.463  32.238  1.00  0.00     0.134 A 
ATOM     81  F   UNL A   1      45.287  33.437  28.740  1.00  0.00    -0.206 F 
ATOM     82  C   UNL A   1      45.816  34.667  30.667  1.00  0.00     0.040 A 
ATOM     83  C   UNL A   1      45.608  33.654  32.840  1.00  0.00     0.040 A 
ATOM     84  F   UNL A   1      44.917  31.423  33.036  1.00  0.00    -0.206 F 
ATOM     85  C   UNL A   1      45.929  34.757  32.053  1.00  0.00     0.006 A 
ENDBRANCH  61  78
ENDBRANCH  35  36
ENDBRANCH  27  30
ENDBRANCH  25  26
ENDBRANCH   1  25
TORSDOF 13
ENDMDL
MODEL 2
REMARK VINA RESULT:     -11.5      0.898      6.340
REMARK SMILES CC[C@@](C)(NC(=O)Nc1c(C)cccc1Cl)C(=O)NCCCNC(=O)c1ccc(-c2c3nc(c(-c4c(F)cccc4F)c4ccc([nH]4)c(-c4c(F)cccc4F)c4nc(c(-c5c(F)cccc5F)c5ccc2[nH]5)C=C4)C=C3)cc1
REMARK SMILES IDX 21 1 20 2 19 3 17 4 18 5 3 7 4 8 2 9 1 10 5 11 6 12 7 14
REMARK SMILES IDX 8 15 9 17 10 18 15 19 11 20 12 21 14 22 16 23 13 24 22 25
REMARK SMILES IDX 23 26 24 27 25 29 26 30 27 31 79 32 28 33 78 34 29 35 30 36
REMARK SMILES IDX 31 37 72 38 32 39 77 40 71 41 73 42 33 43 76 44 70 45 69 46
REMARK SMILES IDX 34 48 60 49 43 50 59 51 44 52 47 53 58 54 74 55 45 56 46 57
REMARK SMILES IDX 57 59 75 60 48 61 35 62 36 63 41 64 37 65 38 66 40 67 42 68
REMARK SMILES IDX 39 69 61 70 62 71 67 72 63 73 64 74 66 75 68 76 65 77 49 78
REMARK SMILES IDX 50 79 55 80 51 81 52 82 54 83 56 84 53 85
REMARK H PARENT 19 6 5 13 8 16 23 28 73 47 47 58
REMARK Flexibility Score: inf
ROOT
ATOM      1  C   UNL A   1      37.458  19.594  24.996  1.00  0.00     0.042 C 
ENDROOT
BRANCH   1   2
ATOM      2  C   UNL A   1      36.172  20.456  24.920  1.00  0.00     0.117 C 
BRANCH   2   3
ATOM      3  N   UNL A   1      35.903  21.287  26.088  1.00  0.00    -0.354 N 
ATOM      4  C   UNL A   1      34.707  21.817  26.582  1.00  0.00     0.245 C 
ATOM      5  O   UNL A   1      34.233  21.453  27.656  1.00  0.00    -0.272 OA
ATOM      6  H   UNL A   1      36.700  21.514  26.619  1.00  0.00     0.163 HD
BRANCH   4   7
ATOM      7  C   UNL A   1      33.990  22.838  25.684  1.00  0.00     0.117 C 
ATOM      8  C   UNL A   1      35.010  24.014  25.729  1.00  0.00     0.045 C 
BRANCH   7   9
ATOM      9  C   UNL A   1      33.648  22.599  24.191  1.00  0.00     0.035 C 
ATOM     10  C   UNL A   1      34.565  23.157  23.126  1.00  0.00     0.007 C 
ENDBRANCH   7   9
BRANCH   7  11
ATOM     11  N   UNL A   1      32.740  23.139  26.377  1.00  0.00    -0.324 N 
ATOM     12  C   UNL A   1      31.945  24.207  26.400  1.00  0.00     0.320 C 
ATOM     13  H   UNL A   1      32.418  22.401  26.944  1.00  0.00     0.166 HD
ATOM     14  O   UNL A   1      31.044  24.155  27.251  1.00  0.00    -0.248 OA
ATOM     15  N   UNL A   1      31.959  25.335  25.673  1.00  0.00    -0.306 N 
ATOM     16  H   UNL A   1      31.155  25.822  25.967  1.00  0.00     0.171 HD
BRANCH  15  17
ATOM     17  C   UNL A   1      32.550  26.197  24.680  1.00  0.00     0.064 A 
ATOM     18  C   UNL A   1      32.695  26.168  23.263  1.00  0.00    -0.026 A 
ATOM     19  C   UNL A   1      32.953  27.436  25.273  1.00  0.00     0.064 A 
ATOM     20  C   UNL A   1      31.778  25.575  22.200  1.00  0.00     0.046 C 
ATOM     21  C   UNL A   1      33.557  27.109  22.627  1.00  0.00     0.005 A 
ATOM     22  C   UNL A   1      33.654  28.437  24.593  1.00  0.00     0.023 A 
ATOM     23  Cl  UNL A   1      32.539  27.814  26.929  1.00  0.00    -0.082 Cl
ATOM     24  C   UNL A   1      34.023  28.237  23.281  1.00  0.00     0.002 A 
ENDBRANCH  15  17
ENDBRANCH   7  11
ENDBRANCH   4   7
ENDBRANCH   2   3
ENDBRANCH   1   2
BRANCH   1  25
ATOM     25  C   UNL A   1      38.677  20.084  25.787  1.00  0.00     0.118 C 
BRANCH  25  26
ATOM     26  N   UNL A   1      39.830  19.203  25.745  1.00  0.00    -0.352 N 
ATOM     27  C   UNL A   1      41.132  19.392  26.126  1.00  0.00     0.251 C 
ATOM     28  H   UNL A   1      39.641  18.310  25.378  1.00  0.00     0.163 HD
ATOM     29  O   UNL A   1      41.921  18.445  26.036  1.00  0.00    -0.269 OA
BRANCH  27  30
ATOM     30  C   UNL A   1      41.647  20.707  26.567  1.00  0.00     0.039 A 
ATOM     31  C   UNL A   1      41.899  21.661  25.575  1.00  0.00     0.014 A 
ATOM     32  C   UNL A   1      41.925  21.013  27.901  1.00  0.00     0.014 A 
ATOM     33  C   UNL A   1      42.364  22.932  25.919  1.00  0.00     0.010 A 
ATOM     34  C   UNL A   1      42.322  22.309  28.252  1.00  0.00     0.010 A 
ATOM     35  C   UNL A   1      42.547  23.284  27.266  1.00  0.00    -0.014 A 
BRANCH  35  36
ATOM     36  C   UNL A   1      42.979  24.663  27.630  1.00  0.00     0.031 A 
ATOM     37  C   UNL A   1      44.428  25.067  27.539  1.00  0.00     0.074 A 
ATOM     38  C   UNL A   1      42.066  25.559  28.058  1.00  0.00     0.049 A 
ATOM     39  N   UNL A   1      44.983  26.224  27.804  1.00  0.00    -0.248 NA
ATOM     40  C   UNL A   1      45.380  24.028  27.119  1.00  0.00     0.031 C 
ATOM     41  C   UNL A   1      40.638  25.291  28.238  1.00  0.00     0.029 A 
ATOM     42  N   UNL A   1      42.200  26.879  28.418  1.00  0.00    -0.354 N 
ATOM     43  C   UNL A   1      46.346  26.048  27.593  1.00  0.00     0.074 A 
ATOM     44  C   UNL A   1      46.539  24.659  27.239  1.00  0.00     0.031 C 
ATOM     45  C   UNL A   1      40.024  26.416  28.639  1.00  0.00     0.029 A 
ATOM     46  C   UNL A   1      41.017  27.477  28.780  1.00  0.00     0.049 A 
ATOM     47  H   UNL A   1      43.064  27.351  28.417  1.00  0.00     0.167 HD
ATOM     48  C   UNL A   1      47.343  26.963  27.661  1.00  0.00     0.037 A 
ATOM     49  C   UNL A   1      40.757  28.737  29.176  1.00  0.00     0.037 A 
ATOM     50  C   UNL A   1      47.152  28.351  27.997  1.00  0.00     0.049 A 
ATOM     51  C   UNL A   1      41.881  29.735  29.243  1.00  0.00     0.074 A 
ATOM     52  C   UNL A   1      48.093  29.365  28.047  1.00  0.00     0.029 A 
ATOM     53  N   UNL A   1      45.935  28.920  28.343  1.00  0.00    -0.354 N 
ATOM     54  N   UNL A   1      43.154  29.570  28.974  1.00  0.00    -0.248 NA
ATOM     55  C   UNL A   1      41.530  31.102  29.655  1.00  0.00     0.031 C 
ATOM     56  C   UNL A   1      47.454  30.536  28.470  1.00  0.00     0.029 A 
ATOM     57  C   UNL A   1      46.104  30.267  28.622  1.00  0.00     0.049 A 
ATOM     58  H   UNL A   1      45.078  28.437  28.383  1.00  0.00     0.167 HD
ATOM     59  C   UNL A   1      43.744  30.816  29.143  1.00  0.00     0.074 A 
ATOM     60  C   UNL A   1      42.689  31.729  29.526  1.00  0.00     0.031 C 
ATOM     61  C   UNL A   1      45.044  31.171  28.990  1.00  0.00     0.037 A 
BRANCH  48  62
ATOM     62  C   UNL A   1      48.739  26.489  27.363  1.00  0.00     0.057 A 
ATOM     63  C   UNL A   1      49.592  26.015  28.371  1.00  0.00     0.134 A 
ATOM     64  C   UNL A   1      49.229  26.480  26.051  1.00  0.00     0.134 A 
ATOM     65  F   UNL A   1      49.191  26.004  29.651  1.00  0.00    -0.206 F 
ATOM     66  C   UNL A   1      50.889  25.582  28.089  1.00  0.00     0.040 A 
ATOM     67  C   UNL A   1      50.513  26.019  25.753  1.00  0.00     0.040 A 
ATOM     68  F   UNL A   1      48.465  26.909  25.034  1.00  0.00    -0.206 F 
ATOM     69  C   UNL A   1      51.351  25.578  26.775  1.00  0.00     0.006 A 
ENDBRANCH  48  62
BRANCH  49  70
ATOM     70  C   UNL A   1      39.367  29.145  29.510  1.00  0.00     0.057 A 
ATOM     71  C   UNL A   1      38.885  29.069  30.824  1.00  0.00     0.134 A 
ATOM     72  C   UNL A   1      38.480  29.599  28.527  1.00  0.00     0.134 A 
ATOM     73  F   UNL A   1      39.680  28.624  31.809  1.00  0.00    -0.206 F 
ATOM     74  C   UNL A   1      37.568  29.402  31.142  1.00  0.00     0.040 A 
ATOM     75  C   UNL A   1      37.168  29.963  28.836  1.00  0.00     0.040 A 
ATOM     76  F   UNL A   1      38.880  29.703  27.251  1.00  0.00    -0.206 F 
ATOM     77  C   UNL A   1      36.706  29.856  30.146  1.00  0.00     0.006 A 
ENDBRANCH  49  70
BRANCH  61  78
ATOM     78  C   UNL A   1      45.387  32.623  29.177  1.00  0.00     0.057 A 
ATOM     79  C   UNL A   1      45.795  33.142  30.413  1.00  0.00     0.134 A 
ATOM     80  C   UNL A   1      45.326  33.510  28.094  1.00  0.00     0.134 A 
ATOM     81  F   UNL A   1      45.865  32.352  31.494  1.00  0.00    -0.206 F 
ATOM     82  C   UNL A   1      46.094  34.497  30.572  1.00  0.00     0.040 A 
ATOM     83  C   UNL A   1      45.654  34.859  28.234  1.00  0.00     0.040 A 
ATOM     84  F   UNL A   1      44.955  33.078  26.880  1.00  0.00    -0.206 F 
ATOM     85  C   UNL A   1      46.028  35.359  29.478  1.00  0.00     0.006 A 
ENDBRANCH  61  78
ENDBRANCH  35  36
ENDBRANCH  27  30
ENDBRANCH  25  26
ENDBRANCH   1  25
TORSDOF 13
ENDMDL
MODEL 3
REMARK VINA RESULT:     -11.5      4.476      8.700
REMARK SMILES CC[C@@](C)(NC(=O)Nc1c(C)cccc1Cl)C(=O)NCCCNC(=O)c1ccc(-c2c3nc(c(-c4c(F)cccc4F)c4ccc([nH]4)c(-c4c(F)cccc4F)c4nc(c(-c5c(F)cccc5F)c5ccc2[nH]5)C=C4)C=C3)cc1
REMARK SMILES IDX 21 1 20 2 19 3 17 4 18 5 3 7 4 8 2 9 1 10 5 11 6 12 7 14
REMARK SMILES IDX 8 15 9 17 10 18 15 19 11 20 12 21 14 22 16 23 13 24 22 25
REMARK SMILES IDX 23 26 24 27 25 29 26 30 27 31 79 32 28 33 78 34 29 35 30 36
REMARK SMILES IDX 31 37 72 38 32 39 77 40 71 41 73 42 33 43 76 44 70 45 69 46
REMARK SMILES IDX 34 48 60 49 43 50 59 51 44 52 47 53 58 54 74 55 45 56 46 57
REMARK SMILES IDX 57 59 75 60 48 61 35 62 36 63 41 64 37 65 38 66 40 67 42 68
REMARK SMILES IDX 39 69 61 70 62 71 67 72 63 73 64 74 66 75 68 76 65 77 49 78
REMARK SMILES IDX 50 79 55 80 51 81 52 82 54 83 56 84 53 85
REMARK H PARENT 19 6 5 13 8 16 23 28 73 47 47 58
REMARK Flexibility Score: inf
ROOT
ATOM      1  C   UNL A   1      31.319  31.667  26.358  1.00  0.00     0.042 C 
ENDROOT
BRANCH   1   2
ATOM      2  C   UNL A   1      31.385  30.306  25.619  1.00  0.00     0.117 C 
BRANCH   2   3
ATOM      3  N   UNL A   1      32.703  29.920  25.131  1.00  0.00    -0.354 N 
ATOM      4  C   UNL A   1      33.086  29.006  24.144  1.00  0.00     0.245 C 
ATOM      5  O   UNL A   1      33.624  29.368  23.100  1.00  0.00    -0.272 OA
ATOM      6  H   UNL A   1      33.453  30.382  25.572  1.00  0.00     0.163 HD
BRANCH   4   7
ATOM      7  C   UNL A   1      32.747  27.531  24.412  1.00  0.00     0.117 C 
ATOM      8  C   UNL A   1      33.726  27.229  25.585  1.00  0.00     0.045 C 
BRANCH   7   9
ATOM      9  C   UNL A   1      31.351  27.021  24.851  1.00  0.00     0.035 C 
ATOM     10  C   UNL A   1      31.076  26.799  26.321  1.00  0.00     0.007 C 
ENDBRANCH   7   9
BRANCH   7  11
ATOM     11  N   UNL A   1      33.100  26.832  23.178  1.00  0.00    -0.324 N 
ATOM     12  C   UNL A   1      33.481  25.584  22.915  1.00  0.00     0.320 C 
ATOM     13  H   UNL A   1      33.046  27.401  22.376  1.00  0.00     0.166 HD
ATOM     14  O   UNL A   1      33.863  25.401  21.749  1.00  0.00    -0.248 OA
ATOM     15  N   UNL A   1      33.538  24.494  23.697  1.00  0.00    -0.306 N 
ATOM     16  H   UNL A   1      33.809  23.772  23.084  1.00  0.00     0.171 HD
BRANCH  15  17
ATOM     17  C   UNL A   1      33.405  23.841  24.975  1.00  0.00     0.064 A 
ATOM     18  C   UNL A   1      32.318  23.437  25.804  1.00  0.00    -0.026 A 
ATOM     19  C   UNL A   1      34.679  23.371  25.429  1.00  0.00     0.064 A 
ATOM     20  C   UNL A   1      30.920  22.968  25.419  1.00  0.00     0.046 C 
ATOM     21  C   UNL A   1      32.576  23.009  27.139  1.00  0.00     0.005 A 
ATOM     22  C   UNL A   1      34.896  22.790  26.683  1.00  0.00     0.023 A 
ATOM     23  Cl  UNL A   1      36.085  23.448  24.393  1.00  0.00    -0.082 Cl
ATOM     24  C   UNL A   1      33.849  22.679  27.571  1.00  0.00     0.002 A 
ENDBRANCH  15  17
ENDBRANCH   7  11
ENDBRANCH   4   7
ENDBRANCH   2   3
ENDBRANCH   1   2
BRANCH   1  25
ATOM     25  C   UNL A   1      32.599  32.336  26.872  1.00  0.00     0.118 C 
BRANCH  25  26
ATOM     26  N   UNL A   1      32.402  33.614  27.530  1.00  0.00    -0.352 N 
ATOM     27  C   UNL A   1      33.179  34.308  28.419  1.00  0.00     0.251 C 
ATOM     28  H   UNL A   1      31.558  34.063  27.295  1.00  0.00     0.163 HD
ATOM     29  O   UNL A   1      32.802  35.424  28.795  1.00  0.00    -0.269 OA
BRANCH  27  30
ATOM     30  C   UNL A   1      34.413  33.740  29.006  1.00  0.00     0.039 A 
ATOM     31  C   UNL A   1      34.264  32.670  29.896  1.00  0.00     0.014 A 
ATOM     32  C   UNL A   1      35.688  34.246  28.746  1.00  0.00     0.014 A 
ATOM     33  C   UNL A   1      35.386  32.069  30.470  1.00  0.00     0.010 A 
ATOM     34  C   UNL A   1      36.816  33.598  29.265  1.00  0.00     0.010 A 
ATOM     35  C   UNL A   1      36.679  32.501  30.134  1.00  0.00    -0.014 A 
BRANCH  35  36
ATOM     36  C   UNL A   1      37.873  31.811  30.699  1.00  0.00     0.031 A 
ATOM     37  C   UNL A   1      38.370  32.138  32.083  1.00  0.00     0.074 A 
ATOM     38  C   UNL A   1      38.527  30.893  29.959  1.00  0.00     0.049 A 
ATOM     39  N   UNL A   1      39.384  31.631  32.740  1.00  0.00    -0.248 NA
ATOM     40  C   UNL A   1      37.648  33.189  32.816  1.00  0.00     0.031 C 
ATOM     41  C   UNL A   1      38.184  30.512  28.587  1.00  0.00     0.029 A 
ATOM     42  N   UNL A   1      39.615  30.107  30.256  1.00  0.00    -0.354 N 
ATOM     43  C   UNL A   1      39.426  32.308  33.954  1.00  0.00     0.074 A 
ATOM     44  C   UNL A   1      38.375  33.300  33.917  1.00  0.00     0.031 C 
ATOM     45  C   UNL A   1      39.019  29.544  28.175  1.00  0.00     0.029 A 
ATOM     46  C   UNL A   1      39.980  29.259  29.237  1.00  0.00     0.049 A 
ATOM     47  H   UNL A   1      40.089  30.149  31.118  1.00  0.00     0.167 HD
ATOM     48  C   UNL A   1      40.245  32.103  35.015  1.00  0.00     0.037 A 
ATOM     49  C   UNL A   1      40.972  28.352  29.165  1.00  0.00     0.037 A 
ATOM     50  C   UNL A   1      41.281  31.104  35.061  1.00  0.00     0.049 A 
ATOM     51  C   UNL A   1      41.868  28.144  30.356  1.00  0.00     0.074 A 
ATOM     52  C   UNL A   1      42.132  30.790  36.107  1.00  0.00     0.029 A 
ATOM     53  N   UNL A   1      41.609  30.255  34.013  1.00  0.00    -0.354 N 
ATOM     54  N   UNL A   1      41.850  28.743  31.521  1.00  0.00    -0.248 NA
ATOM     55  C   UNL A   1      42.915  27.119  30.225  1.00  0.00     0.031 C 
ATOM     56  C   UNL A   1      43.007  29.786  35.676  1.00  0.00     0.029 A 
ATOM     57  C   UNL A   1      42.659  29.430  34.383  1.00  0.00     0.049 A 
ATOM     58  H   UNL A   1      41.161  30.242  33.137  1.00  0.00     0.167 HD
ATOM     59  C   UNL A   1      42.852  28.142  32.274  1.00  0.00     0.074 A 
ATOM     60  C   UNL A   1      43.448  27.123  31.438  1.00  0.00     0.031 C 
ATOM     61  C   UNL A   1      43.238  28.409  33.547  1.00  0.00     0.037 A 
BRANCH  48  62
ATOM     62  C   UNL A   1      40.051  32.984  36.218  1.00  0.00     0.057 A 
ATOM     63  C   UNL A   1      39.109  32.682  37.213  1.00  0.00     0.134 A 
ATOM     64  C   UNL A   1      40.831  34.133  36.400  1.00  0.00     0.134 A 
ATOM     65  F   UNL A   1      38.322  31.602  37.099  1.00  0.00    -0.206 F 
ATOM     66  C   UNL A   1      38.928  33.507  38.324  1.00  0.00     0.040 A 
ATOM     67  C   UNL A   1      40.681  34.949  37.524  1.00  0.00     0.040 A 
ATOM     68  F   UNL A   1      41.759  34.478  35.494  1.00  0.00    -0.206 F 
ATOM     69  C   UNL A   1      39.721  34.642  38.485  1.00  0.00     0.006 A 
ENDBRANCH  48  62
BRANCH  49  70
ATOM     70  C   UNL A   1      41.156  27.541  27.933  1.00  0.00     0.057 A 
ATOM     71  C   UNL A   1      41.958  27.997  26.878  1.00  0.00     0.134 A 
ATOM     72  C   UNL A   1      40.522  26.305  27.768  1.00  0.00     0.134 A 
ATOM     73  F   UNL A   1      42.578  29.183  26.966  1.00  0.00    -0.206 F 
ATOM     74  C   UNL A   1      42.100  27.268  25.696  1.00  0.00     0.040 A 
ATOM     75  C   UNL A   1      40.678  25.551  26.603  1.00  0.00     0.040 A 
ATOM     76  F   UNL A   1      39.747  25.806  28.743  1.00  0.00    -0.206 F 
ATOM     77  C   UNL A   1      41.461  26.038  25.558  1.00  0.00     0.006 A 
ENDBRANCH  49  70
BRANCH  61  78
ATOM     78  C   UNL A   1      44.317  27.543  34.134  1.00  0.00     0.057 A 
ATOM     79  C   UNL A   1      45.670  27.907  34.098  1.00  0.00     0.134 A 
ATOM     80  C   UNL A   1      43.991  26.333  34.762  1.00  0.00     0.134 A 
ATOM     81  F   UNL A   1      46.054  29.046  33.503  1.00  0.00    -0.206 F 
ATOM     82  C   UNL A   1      46.661  27.082  34.634  1.00  0.00     0.040 A 
ATOM     83  C   UNL A   1      44.970  25.517  35.330  1.00  0.00     0.040 A 
ATOM     84  F   UNL A   1      42.715  25.929  34.843  1.00  0.00    -0.206 F 
ATOM     85  C   UNL A   1      46.311  25.885  35.257  1.00  0.00     0.006 A 
ENDBRANCH  61  78
ENDBRANCH  35  36
ENDBRANCH  27  30
ENDBRANCH  25  26
ENDBRANCH   1  25
TORSDOF 13
ENDMDL
