MODEL 1
REMARK VINA RESULT:     -12.1      0.000      0.000
REMARK SMILES O=C(NCCCNC(=O)c1cccc(Nc2ccnc3ccc(Cl)cc23)c1)c1ccc(-c2c3nc(c(-c4c(F)cccc4F)c4ccc([nH]4)c(-c4c(F)cccc4F)c4nc(c(-c5c(F)cccc5F)c5ccc2[nH]5)C=C4)C=C3)cc1
REMARK SMILES IDX 5 1 4 2 3 3 1 4 2 5 28 7 29 8 81 9 30 10 80 11 31 12 32 13
REMARK SMILES IDX 33 14 74 15 34 16 79 17 73 18 75 19 35 20 78 21 72 22 71 23
REMARK SMILES IDX 36 25 62 26 45 27 61 28 46 29 49 30 60 31 76 32 47 33 48 34
REMARK SMILES IDX 59 36 77 37 50 38 37 39 38 40 43 41 39 42 40 43 42 44 44 45
REMARK SMILES IDX 41 46 63 47 64 48 69 49 65 50 66 51 68 52 70 53 67 54 51 55
REMARK SMILES IDX 52 56 57 57 53 58 54 59 56 60 58 61 55 62 6 63 7 64 8 65
REMARK SMILES IDX 9 67 10 68 11 69 27 70 12 71 14 72 13 73 15 74 16 76 17 77
REMARK SMILES IDX 26 78 18 79 20 80 25 81 19 82 21 83 23 84 22 85 24 86
REMARK H PARENT 3 6 75 24 49 35 7 66 15 75
REMARK Flexibility Score: inf
ROOT
ATOM      1  C   UNL A   1      34.078  28.297  25.845  1.00  0.00     0.042 C 
ENDROOT
BRANCH   1   2
ATOM      2  C   UNL A   1      33.618  28.533  27.278  1.00  0.00     0.118 C 
BRANCH   2   3
ATOM      3  N   UNL A   1      33.629  29.945  27.643  1.00  0.00    -0.352 N 
ATOM      4  O   UNL A   1      34.290  31.822  28.691  1.00  0.00    -0.269 OA
ATOM      5  C   UNL A   1      34.582  30.696  28.282  1.00  0.00     0.251 C 
ATOM      6  H   UNL A   1      32.819  30.442  27.389  1.00  0.00     0.163 HD
BRANCH   5   7
ATOM      7  C   UNL A   1      35.950  30.178  28.488  1.00  0.00     0.039 A 
ATOM      8  C   UNL A   1      36.911  30.278  27.480  1.00  0.00     0.014 A 
ATOM      9  C   UNL A   1      36.307  29.660  29.738  1.00  0.00     0.014 A 
ATOM     10  C   UNL A   1      38.181  29.747  27.672  1.00  0.00     0.010 A 
ATOM     11  C   UNL A   1      37.612  29.213  29.963  1.00  0.00     0.010 A 
ATOM     12  C   UNL A   1      38.558  29.246  28.926  1.00  0.00    -0.014 A 
BRANCH  12  13
ATOM     13  C   UNL A   1      39.979  28.898  29.165  1.00  0.00     0.031 A 
ATOM     14  C   UNL A   1      40.933  29.870  29.796  1.00  0.00     0.074 A 
ATOM     15  C   UNL A   1      40.400  27.670  28.796  1.00  0.00     0.049 A 
ATOM     16  N   UNL A   1      42.208  29.718  30.052  1.00  0.00    -0.248 NA
ATOM     17  C   UNL A   1      40.396  31.183  30.184  1.00  0.00     0.031 C 
ATOM     18  C   UNL A   1      39.562  26.652  28.155  1.00  0.00     0.029 A 
ATOM     19  N   UNL A   1      41.626  27.067  28.904  1.00  0.00    -0.354 N 
ATOM     20  C   UNL A   1      42.630  30.916  30.612  1.00  0.00     0.074 A 
ATOM     21  C   UNL A   1      41.480  31.793  30.648  1.00  0.00     0.031 C 
ATOM     22  C   UNL A   1      40.290  25.545  27.951  1.00  0.00     0.029 A 
ATOM     23  C   UNL A   1      41.659  25.797  28.379  1.00  0.00     0.049 A 
ATOM     24  H   UNL A   1      42.407  27.500  29.318  1.00  0.00     0.167 HD
ATOM     25  C   UNL A   1      43.867  31.244  31.054  1.00  0.00     0.037 A 
ATOM     26  C   UNL A   1      42.686  24.942  28.220  1.00  0.00     0.037 A 
ATOM     27  C   UNL A   1      44.999  30.351  31.033  1.00  0.00     0.049 A 
ATOM     28  C   UNL A   1      44.050  25.356  28.687  1.00  0.00     0.074 A 
ATOM     29  C   UNL A   1      46.272  30.566  31.533  1.00  0.00     0.029 A 
ATOM     30  N   UNL A   1      45.001  29.085  30.468  1.00  0.00    -0.354 N 
ATOM     31  N   UNL A   1      44.416  26.462  29.285  1.00  0.00    -0.248 NA
ATOM     32  C   UNL A   1      45.146  24.409  28.448  1.00  0.00     0.031 C 
ATOM     33  C   UNL A   1      47.061  29.456  31.216  1.00  0.00     0.029 A 
ATOM     34  C   UNL A   1      46.266  28.527  30.565  1.00  0.00     0.049 A 
ATOM     35  H   UNL A   1      44.219  28.646  30.060  1.00  0.00     0.167 HD
ATOM     36  C   UNL A   1      45.781  26.342  29.500  1.00  0.00     0.074 A 
ATOM     37  C   UNL A   1      46.172  25.041  29.000  1.00  0.00     0.031 C 
ATOM     38  C   UNL A   1      46.638  27.234  30.055  1.00  0.00     0.037 A 
BRANCH  25  39
ATOM     39  C   UNL A   1      44.091  32.629  31.588  1.00  0.00     0.057 A 
ATOM     40  C   UNL A   1      44.454  33.695  30.759  1.00  0.00     0.134 A 
ATOM     41  C   UNL A   1      43.827  32.917  32.936  1.00  0.00     0.134 A 
ATOM     42  F   UNL A   1      44.725  33.486  29.462  1.00  0.00    -0.206 F 
ATOM     43  C   UNL A   1      44.550  34.999  31.249  1.00  0.00     0.040 A 
ATOM     44  C   UNL A   1      43.899  34.218  33.432  1.00  0.00     0.040 A 
ATOM     45  F   UNL A   1      43.466  31.941  33.781  1.00  0.00    -0.206 F 
ATOM     46  C   UNL A   1      44.260  35.266  32.587  1.00  0.00     0.006 A 
ENDBRANCH  25  39
BRANCH  26  47
ATOM     47  C   UNL A   1      42.473  23.639  27.542  1.00  0.00     0.057 A 
ATOM     48  C   UNL A   1      42.510  23.526  26.148  1.00  0.00     0.134 A 
ATOM     49  C   UNL A   1      42.199  22.476  28.274  1.00  0.00     0.134 A 
ATOM     50  F   UNL A   1      42.750  24.607  25.390  1.00  0.00    -0.206 F 
ATOM     51  C   UNL A   1      42.258  22.313  25.506  1.00  0.00     0.040 A 
ATOM     52  C   UNL A   1      41.977  21.250  27.647  1.00  0.00     0.040 A 
ATOM     53  F   UNL A   1      42.156  22.513  29.615  1.00  0.00    -0.206 F 
ATOM     54  C   UNL A   1      41.994  21.169  26.258  1.00  0.00     0.006 A 
ENDBRANCH  26  47
BRANCH  38  55
ATOM     55  C   UNL A   1      48.077  26.825  30.149  1.00  0.00     0.057 A 
ATOM     56  C   UNL A   1      48.551  26.048  31.215  1.00  0.00     0.134 A 
ATOM     57  C   UNL A   1      48.992  27.183  29.151  1.00  0.00     0.134 A 
ATOM     58  F   UNL A   1      47.727  25.688  32.211  1.00  0.00    -0.206 F 
ATOM     59  C   UNL A   1      49.887  25.657  31.294  1.00  0.00     0.040 A 
ATOM     60  C   UNL A   1      50.325  26.775  29.205  1.00  0.00     0.040 A 
ATOM     61  F   UNL A   1      48.601  27.921  28.102  1.00  0.00    -0.206 F 
ATOM     62  C   UNL A   1      50.776  26.015  30.282  1.00  0.00     0.006 A 
ENDBRANCH  38  55
ENDBRANCH  12  13
ENDBRANCH   5   7
ENDBRANCH   2   3
ENDBRANCH   1   2
BRANCH   1  63
ATOM     63  C   UNL A   1      33.053  28.706  24.799  1.00  0.00     0.118 C 
BRANCH  63  64
ATOM     64  N   UNL A   1      33.436  28.324  23.450  1.00  0.00    -0.352 N 
ATOM     65  C   UNL A   1      33.289  27.156  22.750  1.00  0.00     0.251 C 
ATOM     66  H   UNL A   1      33.884  29.040  22.945  1.00  0.00     0.163 HD
ATOM     67  O   UNL A   1      33.831  27.065  21.649  1.00  0.00    -0.269 OA
BRANCH  65  68
ATOM     68  C   UNL A   1      32.536  25.994  23.282  1.00  0.00     0.041 A 
ATOM     69  C   UNL A   1      31.175  25.908  22.962  1.00  0.00     0.014 A 
ATOM     70  C   UNL A   1      33.086  25.083  24.191  1.00  0.00     0.039 A 
ATOM     71  C   UNL A   1      30.385  24.897  23.507  1.00  0.00     0.003 A 
ATOM     72  C   UNL A   1      32.303  24.051  24.728  1.00  0.00     0.039 A 
ATOM     73  C   UNL A   1      30.949  23.973  24.382  1.00  0.00     0.026 A 
BRANCH  72  74
ATOM     74  N   UNL A   1      32.790  23.266  25.807  1.00  0.00    -0.355 N 
ATOM     75  H   UNL A   1      32.726  23.591  26.734  1.00  0.00     0.167 HD
BRANCH  74  76
ATOM     76  C   UNL A   1      33.372  21.998  25.521  1.00  0.00     0.050 A 
ATOM     77  C   UNL A   1      32.515  20.914  25.313  1.00  0.00     0.047 A 
ATOM     78  C   UNL A   1      34.769  21.813  25.407  1.00  0.00     0.025 A 
ATOM     79  C   UNL A   1      33.050  19.730  24.864  1.00  0.00     0.114 A 
ATOM     80  C   UNL A   1      35.206  20.533  24.997  1.00  0.00     0.072 A 
ATOM     81  C   UNL A   1      35.732  22.816  25.673  1.00  0.00     0.033 A 
ATOM     82  N   UNL A   1      34.368  19.529  24.700  1.00  0.00    -0.256 NA
ATOM     83  C   UNL A   1      36.565  20.283  24.903  1.00  0.00     0.030 A 
ATOM     84  C   UNL A   1      37.093  22.526  25.588  1.00  0.00     0.041 A 
ATOM     85  C   UNL A   1      37.514  21.257  25.215  1.00  0.00     0.023 A 
ATOM     86  Cl  UNL A   1      38.261  23.733  25.962  1.00  0.00    -0.084 Cl
ENDBRANCH  74  76
ENDBRANCH  72  74
ENDBRANCH  65  68
ENDBRANCH  63  64
ENDBRANCH   1  63
TORSDOF 12
ENDMDL
MODEL 2
REMARK VINA RESULT:     -12.1      2.643      7.456
REMARK SMILES O=C(NCCCNC(=O)c1cccc(Nc2ccnc3ccc(Cl)cc23)c1)c1ccc(-c2c3nc(c(-c4c(F)cccc4F)c4ccc([nH]4)c(-c4c(F)cccc4F)c4nc(c(-c5c(F)cccc5F)c5ccc2[nH]5)C=C4)C=C3)cc1
REMARK SMILES IDX 5 1 4 2 3 3 1 4 2 5 28 7 29 8 81 9 30 10 80 11 31 12 32 13
REMARK SMILES IDX 33 14 74 15 34 16 79 17 73 18 75 19 35 20 78 21 72 22 71 23
REMARK SMILES IDX 36 25 62 26 45 27 61 28 46 29 49 30 60 31 76 32 47 33 48 34
REMARK SMILES IDX 59 36 77 37 50 38 37 39 38 40 43 41 39 42 40 43 42 44 44 45
REMARK SMILES IDX 41 46 63 47 64 48 69 49 65 50 66 51 68 52 70 53 67 54 51 55
REMARK SMILES IDX 52 56 57 57 53 58 54 59 56 60 58 61 55 62 6 63 7 64 8 65
REMARK SMILES IDX 9 67 10 68 11 69 27 70 12 71 14 72 13 73 15 74 16 76 17 77
REMARK SMILES IDX 26 78 18 79 20 80 25 81 19 82 21 83 23 84 22 85 24 86
REMARK H PARENT 3 6 75 24 49 35 7 66 15 75
REMARK Flexibility Score: inf
ROOT
ATOM      1  C   UNL A   1      37.782  19.643  24.852  1.00  0.00     0.042 C 
ENDROOT
BRANCH   1   2
ATOM      2  C   UNL A   1      38.914  20.160  25.730  1.00  0.00     0.118 C 
BRANCH   2   3
ATOM      3  N   UNL A   1      40.029  19.223  25.814  1.00  0.00    -0.352 N 
ATOM      4  O   UNL A   1      42.165  18.524  25.865  1.00  0.00    -0.269 OA
ATOM      5  C   UNL A   1      41.360  19.436  26.062  1.00  0.00     0.251 C 
ATOM      6  H   UNL A   1      39.785  18.281  25.669  1.00  0.00     0.163 HD
BRANCH   5   7
ATOM      7  C   UNL A   1      41.844  20.740  26.562  1.00  0.00     0.039 A 
ATOM      8  C   UNL A   1      42.276  21.728  25.675  1.00  0.00     0.014 A 
ATOM      9  C   UNL A   1      41.787  21.013  27.933  1.00  0.00     0.014 A 
ATOM     10  C   UNL A   1      42.770  22.933  26.161  1.00  0.00     0.010 A 
ATOM     11  C   UNL A   1      42.193  22.262  28.414  1.00  0.00     0.010 A 
ATOM     12  C   UNL A   1      42.696  23.228  27.530  1.00  0.00    -0.014 A 
BRANCH  12  13
ATOM     13  C   UNL A   1      43.019  24.602  27.988  1.00  0.00     0.031 A 
ATOM     14  C   UNL A   1      41.945  25.614  28.257  1.00  0.00     0.074 A 
ATOM     15  C   UNL A   1      44.318  24.923  28.159  1.00  0.00     0.049 A 
ATOM     16  N   UNL A   1      42.070  26.859  28.645  1.00  0.00    -0.248 NA
ATOM     17  C   UNL A   1      40.551  25.185  28.063  1.00  0.00     0.031 C 
ATOM     18  C   UNL A   1      45.447  24.021  27.906  1.00  0.00     0.029 A 
ATOM     19  N   UNL A   1      44.912  26.083  28.582  1.00  0.00    -0.354 N 
ATOM     20  C   UNL A   1      40.780  27.366  28.722  1.00  0.00     0.074 A 
ATOM     21  C   UNL A   1      39.883  26.300  28.330  1.00  0.00     0.031 C 
ATOM     22  C   UNL A   1      46.591  24.653  28.203  1.00  0.00     0.029 A 
ATOM     23  C   UNL A   1      46.285  26.021  28.598  1.00  0.00     0.049 A 
ATOM     24  H   UNL A   1      44.405  26.883  28.850  1.00  0.00     0.167 HD
ATOM     25  C   UNL A   1      40.389  28.610  29.090  1.00  0.00     0.037 A 
ATOM     26  C   UNL A   1      47.202  26.971  28.860  1.00  0.00     0.037 A 
ATOM     27  C   UNL A   1      41.293  29.655  29.501  1.00  0.00     0.049 A 
ATOM     28  C   UNL A   1      46.732  28.347  29.226  1.00  0.00     0.074 A 
ATOM     29  C   UNL A   1      40.986  30.921  29.969  1.00  0.00     0.029 A 
ATOM     30  N   UNL A   1      42.677  29.564  29.476  1.00  0.00    -0.354 N 
ATOM     31  N   UNL A   1      45.507  28.789  29.371  1.00  0.00    -0.248 NA
ATOM     32  C   UNL A   1      47.769  29.361  29.455  1.00  0.00     0.031 C 
ATOM     33  C   UNL A   1      42.182  31.618  30.167  1.00  0.00     0.029 A 
ATOM     34  C   UNL A   1      43.236  30.767  29.875  1.00  0.00     0.049 A 
ATOM     35  H   UNL A   1      43.186  28.762  29.215  1.00  0.00     0.167 HD
ATOM     36  C   UNL A   1      45.625  30.128  29.714  1.00  0.00     0.074 A 
ATOM     37  C   UNL A   1      47.042  30.417  29.790  1.00  0.00     0.031 C 
ATOM     38  C   UNL A   1      44.648  31.039  29.937  1.00  0.00     0.037 A 
BRANCH  25  39
ATOM     39  C   UNL A   1      38.925  28.937  29.057  1.00  0.00     0.057 A 
ATOM     40  C   UNL A   1      38.116  28.841  30.194  1.00  0.00     0.134 A 
ATOM     41  C   UNL A   1      38.346  29.462  27.893  1.00  0.00     0.134 A 
ATOM     42  F   UNL A   1      38.607  28.342  31.338  1.00  0.00    -0.206 F 
ATOM     43  C   UNL A   1      36.782  29.255  30.177  1.00  0.00     0.040 A 
ATOM     44  C   UNL A   1      37.021  29.898  27.869  1.00  0.00     0.040 A 
ATOM     45  F   UNL A   1      39.069  29.589  26.771  1.00  0.00    -0.206 F 
ATOM     46  C   UNL A   1      36.234  29.797  29.015  1.00  0.00     0.006 A 
ENDBRANCH  25  39
BRANCH  26  47
ATOM     47  C   UNL A   1      48.649  26.667  28.729  1.00  0.00     0.057 A 
ATOM     48  C   UNL A   1      49.328  26.851  27.520  1.00  0.00     0.134 A 
ATOM     49  C   UNL A   1      49.383  26.158  29.809  1.00  0.00     0.134 A 
ATOM     50  F   UNL A   1      48.676  27.318  26.445  1.00  0.00    -0.206 F 
ATOM     51  C   UNL A   1      50.676  26.515  27.381  1.00  0.00     0.040 A 
ATOM     52  C   UNL A   1      50.738  25.849  29.694  1.00  0.00     0.040 A 
ATOM     53  F   UNL A   1      48.794  25.965  30.999  1.00  0.00    -0.206 F 
ATOM     54  C   UNL A   1      51.385  26.017  28.473  1.00  0.00     0.006 A 
ENDBRANCH  26  47
BRANCH  38  55
ATOM     55  C   UNL A   1      45.084  32.431  30.288  1.00  0.00     0.057 A 
ATOM     56  C   UNL A   1      45.346  32.805  31.612  1.00  0.00     0.134 A 
ATOM     57  C   UNL A   1      45.274  33.395  29.291  1.00  0.00     0.134 A 
ATOM     58  F   UNL A   1      45.164  31.931  32.614  1.00  0.00    -0.206 F 
ATOM     59  C   UNL A   1      45.763  34.096  31.935  1.00  0.00     0.040 A 
ATOM     60  C   UNL A   1      45.719  34.681  29.598  1.00  0.00     0.040 A 
ATOM     61  F   UNL A   1      45.047  33.099  28.003  1.00  0.00    -0.206 F 
ATOM     62  C   UNL A   1      45.959  35.036  30.924  1.00  0.00     0.006 A 
ENDBRANCH  38  55
ENDBRANCH  12  13
ENDBRANCH   5   7
ENDBRANCH   2   3
ENDBRANCH   1   2
BRANCH   1  63
ATOM     63  C   UNL A   1      36.493  20.441  24.984  1.00  0.00     0.118 C 
BRANCH  63  64
ATOM     64  N   UNL A   1      35.302  19.616  24.884  1.00  0.00    -0.352 N 
ATOM     65  C   UNL A   1      33.997  19.841  25.235  1.00  0.00     0.251 C 
ATOM     66  H   UNL A   1      35.463  18.728  24.490  1.00  0.00     0.163 HD
ATOM     67  O   UNL A   1      33.204  18.904  25.157  1.00  0.00    -0.269 OA
BRANCH  65  68
ATOM     68  C   UNL A   1      33.517  21.153  25.733  1.00  0.00     0.041 A 
ATOM     69  C   UNL A   1      33.508  21.351  27.119  1.00  0.00     0.014 A 
ATOM     70  C   UNL A   1      32.947  22.120  24.898  1.00  0.00     0.039 A 
ATOM     71  C   UNL A   1      32.980  22.521  27.662  1.00  0.00     0.003 A 
ATOM     72  C   UNL A   1      32.431  23.310  25.433  1.00  0.00     0.039 A 
ATOM     73  C   UNL A   1      32.448  23.495  26.821  1.00  0.00     0.026 A 
BRANCH  72  74
ATOM     74  N   UNL A   1      31.661  24.188  24.625  1.00  0.00    -0.355 N 
ATOM     75  H   UNL A   1      30.679  24.202  24.693  1.00  0.00     0.167 HD
BRANCH  74  76
ATOM     76  C   UNL A   1      32.338  25.049  23.714  1.00  0.00     0.050 A 
ATOM     77  C   UNL A   1      32.490  24.618  22.393  1.00  0.00     0.047 A 
ATOM     78  C   UNL A   1      32.822  26.322  24.092  1.00  0.00     0.025 A 
ATOM     79  C   UNL A   1      32.980  25.505  21.466  1.00  0.00     0.114 A 
ATOM     80  C   UNL A   1      33.362  27.124  23.060  1.00  0.00     0.072 A 
ATOM     81  C   UNL A   1      32.794  26.829  25.413  1.00  0.00     0.033 A 
ATOM     82  N   UNL A   1      33.408  26.741  21.776  1.00  0.00    -0.256 NA
ATOM     83  C   UNL A   1      33.884  28.367  23.377  1.00  0.00     0.030 A 
ATOM     84  C   UNL A   1      33.346  28.076  25.701  1.00  0.00     0.041 A 
ATOM     85  C   UNL A   1      33.903  28.844  24.688  1.00  0.00     0.023 A 
ATOM     86  Cl  UNL A   1      33.357  28.665  27.318  1.00  0.00    -0.084 Cl
ENDBRANCH  74  76
ENDBRANCH  72  74
ENDBRANCH  65  68
ENDBRANCH  63  64
ENDBRANCH   1  63
TORSDOF 12
ENDMDL
MODEL 3
REMARK VINA RESULT:     -11.9      2.786      7.844
REMARK SMILES O=C(NCCCNC(=O)c1cccc(Nc2ccnc3ccc(Cl)cc23)c1)c1ccc(-c2c3nc(c(-c4c(F)cccc4F)c4ccc([nH]4)c(-c4c(F)cccc4F)c4nc(c(-c5c(F)cccc5F)c5ccc2[nH]5)C=C4)C=C3)cc1
REMARK SMILES IDX 5 1 4 2 3 3 1 4 2 5 28 7 29 8 81 9 30 10 80 11 31 12 32 13
REMARK SMILES IDX 33 14 74 15 34 16 79 17 73 18 75 19 35 20 78 21 72 22 71 23
REMARK SMILES IDX 36 25 62 26 45 27 61 28 46 29 49 30 60 31 76 32 47 33 48 34
REMARK SMILES IDX 59 36 77 37 50 38 37 39 38 40 43 41 39 42 40 43 42 44 44 45
REMARK SMILES IDX 41 46 63 47 64 48 69 49 65 50 66 51 68 52 70 53 67 54 51 55
REMARK SMILES IDX 52 56 57 57 53 58 54 59 56 60 58 61 55 62 6 63 7 64 8 65
REMARK SMILES IDX 9 67 10 68 11 69 27 70 12 71 14 72 13 73 15 74 16 76 17 77
REMARK SMILES IDX 26 78 18 79 20 80 25 81 19 82 21 83 23 84 22 85 24 86
REMARK H PARENT 3 6 75 24 49 35 7 66 15 75
REMARK Flexibility Score: inf
ROOT
ATOM      1  C   UNL A   1      37.787  19.600  24.869  1.00  0.00     0.042 C 
ENDROOT
BRANCH   1   2
ATOM      2  C   UNL A   1      38.983  20.186  25.608  1.00  0.00     0.118 C 
BRANCH   2   3
ATOM      3  N   UNL A   1      40.034  19.202  25.840  1.00  0.00    -0.352 N 
ATOM      4  O   UNL A   1      42.120  18.390  26.054  1.00  0.00    -0.269 OA
ATOM      5  C   UNL A   1      41.366  19.363  26.117  1.00  0.00     0.251 C 
ATOM      6  H   UNL A   1      39.737  18.265  25.789  1.00  0.00     0.163 HD
BRANCH   5   7
ATOM      7  C   UNL A   1      41.913  20.685  26.490  1.00  0.00     0.039 A 
ATOM      8  C   UNL A   1      42.305  21.598  25.509  1.00  0.00     0.014 A 
ATOM      9  C   UNL A   1      41.957  21.054  27.839  1.00  0.00     0.014 A 
ATOM     10  C   UNL A   1      42.858  22.819  25.875  1.00  0.00     0.010 A 
ATOM     11  C   UNL A   1      42.424  22.320  28.203  1.00  0.00     0.010 A 
ATOM     12  C   UNL A   1      42.886  23.210  27.222  1.00  0.00    -0.014 A 
BRANCH  12  13
ATOM     13  C   UNL A   1      43.271  24.602  27.559  1.00  0.00     0.031 A 
ATOM     14  C   UNL A   1      44.705  25.045  27.562  1.00  0.00     0.074 A 
ATOM     15  C   UNL A   1      42.287  25.472  27.869  1.00  0.00     0.049 A 
ATOM     16  N   UNL A   1      45.199  26.221  27.853  1.00  0.00    -0.248 NA
ATOM     17  C   UNL A   1      45.718  24.042  27.199  1.00  0.00     0.031 C 
ATOM     18  C   UNL A   1      40.859  25.144  27.918  1.00  0.00     0.029 A 
ATOM     19  N   UNL A   1      42.330  26.802  28.199  1.00  0.00    -0.354 N 
ATOM     20  C   UNL A   1      46.576  26.099  27.728  1.00  0.00     0.074 A 
ATOM     21  C   UNL A   1      46.845  24.729  27.347  1.00  0.00     0.031 C 
ATOM     22  C   UNL A   1      40.163  26.245  28.232  1.00  0.00     0.029 A 
ATOM     23  C   UNL A   1      41.095  27.338  28.475  1.00  0.00     0.049 A 
ATOM     24  H   UNL A   1      43.165  27.323  28.233  1.00  0.00     0.167 HD
ATOM     25  C   UNL A   1      47.522  27.050  27.915  1.00  0.00     0.037 A 
ATOM     26  C   UNL A   1      40.751  28.561  28.917  1.00  0.00     0.037 A 
ATOM     27  C   UNL A   1      47.238  28.417  28.273  1.00  0.00     0.049 A 
ATOM     28  C   UNL A   1      41.830  29.576  29.150  1.00  0.00     0.074 A 
ATOM     29  C   UNL A   1      48.125  29.472  28.405  1.00  0.00     0.029 A 
ATOM     30  N   UNL A   1      45.979  28.914  28.572  1.00  0.00    -0.354 N 
ATOM     31  N   UNL A   1      43.121  29.467  28.952  1.00  0.00    -0.248 NA
ATOM     32  C   UNL A   1      41.409  30.880  29.678  1.00  0.00     0.031 C 
ATOM     33  C   UNL A   1      47.412  30.591  28.846  1.00  0.00     0.029 A 
ATOM     34  C   UNL A   1      46.073  30.248  28.935  1.00  0.00     0.049 A 
ATOM     35  H   UNL A   1      45.142  28.396  28.531  1.00  0.00     0.167 HD
ATOM     36  C   UNL A   1      43.664  30.688  29.324  1.00  0.00     0.074 A 
ATOM     37  C   UNL A   1      42.560  31.534  29.726  1.00  0.00     0.031 C 
ATOM     38  C   UNL A   1      44.964  31.072  29.340  1.00  0.00     0.037 A 
BRANCH  25  39
ATOM     39  C   UNL A   1      48.964  26.662  27.758  1.00  0.00     0.057 A 
ATOM     40  C   UNL A   1      49.727  26.189  28.831  1.00  0.00     0.134 A 
ATOM     41  C   UNL A   1      49.560  26.659  26.489  1.00  0.00     0.134 A 
ATOM     42  F   UNL A   1      49.218  26.171  30.072  1.00  0.00    -0.206 F 
ATOM     43  C   UNL A   1      51.033  25.728  28.649  1.00  0.00     0.040 A 
ATOM     44  C   UNL A   1      50.855  26.181  26.291  1.00  0.00     0.040 A 
ATOM     45  F   UNL A   1      48.879  27.092  25.417  1.00  0.00    -0.206 F 
ATOM     46  C   UNL A   1      51.596  25.711  27.374  1.00  0.00     0.006 A 
ENDBRANCH  25  39
BRANCH  26  47
ATOM     47  C   UNL A   1      39.331  28.872  29.220  1.00  0.00     0.057 A 
ATOM     48  C   UNL A   1      38.787  28.642  30.488  1.00  0.00     0.134 A 
ATOM     49  C   UNL A   1      38.475  29.384  28.235  1.00  0.00     0.134 A 
ATOM     50  F   UNL A   1      39.551  28.136  31.468  1.00  0.00    -0.206 F 
ATOM     51  C   UNL A   1      37.439  28.883  30.759  1.00  0.00     0.040 A 
ATOM     52  C   UNL A   1      37.134  29.661  28.502  1.00  0.00     0.040 A 
ATOM     53  F   UNL A   1      38.935  29.635  27.000  1.00  0.00    -0.206 F 
ATOM     54  C   UNL A   1      36.610  29.399  29.765  1.00  0.00     0.006 A 
ENDBRANCH  26  47
BRANCH  38  55
ATOM     55  C   UNL A   1      45.255  32.468  29.804  1.00  0.00     0.057 A 
ATOM     56  C   UNL A   1      45.227  33.555  28.920  1.00  0.00     0.134 A 
ATOM     57  C   UNL A   1      45.532  32.733  31.150  1.00  0.00     0.134 A 
ATOM     58  F   UNL A   1      44.985  33.364  27.614  1.00  0.00    -0.206 F 
ATOM     59  C   UNL A   1      45.485  34.855  29.356  1.00  0.00     0.040 A 
ATOM     60  C   UNL A   1      45.764  34.032  31.603  1.00  0.00     0.040 A 
ATOM     61  F   UNL A   1      45.568  31.738  32.048  1.00  0.00    -0.206 F 
ATOM     62  C   UNL A   1      45.746  35.096  30.704  1.00  0.00     0.006 A 
ENDBRANCH  38  55
ENDBRANCH  12  13
ENDBRANCH   5   7
ENDBRANCH   2   3
ENDBRANCH   1   2
BRANCH   1  63
ATOM     63  C   UNL A   1      36.510  20.410  25.036  1.00  0.00     0.118 C 
BRANCH  63  64
ATOM     64  N   UNL A   1      35.307  19.608  24.896  1.00  0.00    -0.352 N 
ATOM     65  C   UNL A   1      34.000  19.847  25.227  1.00  0.00     0.251 C 
ATOM     66  H   UNL A   1      35.460  18.726  24.485  1.00  0.00     0.163 HD
ATOM     67  O   UNL A   1      33.192  18.925  25.114  1.00  0.00    -0.269 OA
BRANCH  65  68
ATOM     68  C   UNL A   1      33.532  21.156  25.746  1.00  0.00     0.041 A 
ATOM     69  C   UNL A   1      33.545  21.339  27.135  1.00  0.00     0.014 A 
ATOM     70  C   UNL A   1      32.953  22.134  24.930  1.00  0.00     0.039 A 
ATOM     71  C   UNL A   1      33.029  22.505  27.697  1.00  0.00     0.003 A 
ATOM     72  C   UNL A   1      32.450  23.320  25.485  1.00  0.00     0.039 A 
ATOM     73  C   UNL A   1      32.488  23.490  26.874  1.00  0.00     0.026 A 
BRANCH  72  74
ATOM     74  N   UNL A   1      31.672  24.209  24.698  1.00  0.00    -0.355 N 
ATOM     75  H   UNL A   1      30.692  24.235  24.789  1.00  0.00     0.167 HD
BRANCH  74  76
ATOM     76  C   UNL A   1      32.337  25.064  23.773  1.00  0.00     0.050 A 
ATOM     77  C   UNL A   1      32.427  24.647  22.441  1.00  0.00     0.047 A 
ATOM     78  C   UNL A   1      32.869  26.318  24.147  1.00  0.00     0.025 A 
ATOM     79  C   UNL A   1      32.906  25.532  21.507  1.00  0.00     0.114 A 
ATOM     80  C   UNL A   1      33.391  27.119  23.106  1.00  0.00     0.072 A 
ATOM     81  C   UNL A   1      32.906  26.808  25.475  1.00  0.00     0.033 A 
ATOM     82  N   UNL A   1      33.379  26.752  21.816  1.00  0.00    -0.256 NA
ATOM     83  C   UNL A   1      33.959  28.344  23.417  1.00  0.00     0.030 A 
ATOM     84  C   UNL A   1      33.502  28.035  25.757  1.00  0.00     0.041 A 
ATOM     85  C   UNL A   1      34.041  28.801  24.733  1.00  0.00     0.023 A 
ATOM     86  Cl  UNL A   1      33.590  28.603  27.379  1.00  0.00    -0.084 Cl
ENDBRANCH  74  76
ENDBRANCH  72  74
ENDBRANCH  65  68
ENDBRANCH  63  64
ENDBRANCH   1  63
TORSDOF 12
ENDMDL
