MODEL 1
REMARK VINA RESULT:     -11.0      0.000      0.000
REMARK SMILES CC(C)c1cc(C(=O)NCCCNC(=O)c2ccc(-c3c4nc(c(-c5c(F)cccc5F)c5ccc([nH]5)c(-c5c(F)cccc5F)c5nc(c(-c6c(F)cccc6F)c6ccc3[nH]6)C=C5)C=C4)cc2)ccc1[N+](=O)[O-]
REMARK SMILES IDX 11 1 10 2 9 3 7 4 8 5 6 7 4 8 5 9 72 10 71 11 70 12 2 13
REMARK SMILES IDX 1 14 3 15 73 16 74 17 75 18 12 19 13 20 14 21 15 23 16 24
REMARK SMILES IDX 17 25 69 26 18 27 68 28 19 29 20 30 21 31 62 32 22 33 67 34
REMARK SMILES IDX 61 35 63 36 23 37 66 38 60 39 59 40 24 42 50 43 33 44 49 45
REMARK SMILES IDX 34 46 37 47 48 48 64 49 35 50 36 51 47 53 65 54 38 55 25 56
REMARK SMILES IDX 26 57 31 58 27 59 28 60 30 61 32 62 29 63 51 64 52 65 57 66
REMARK SMILES IDX 53 67 54 68 56 69 58 70 55 71 39 72 40 73 45 74 41 75 42 76
REMARK SMILES IDX 44 77 46 78 43 79
REMARK H PARENT 9 6 13 22 63 41 37 52
REMARK Flexibility Score: inf
ROOT
ATOM      1  C   UNL A   1      38.175  19.692  24.823  1.00  0.00     0.042 C 
ENDROOT
BRANCH   1   2
ATOM      2  C   UNL A   1      37.297  20.915  24.599  1.00  0.00     0.118 C 
BRANCH   2   3
ATOM      3  N   UNL A   1      37.906  22.169  25.022  1.00  0.00    -0.352 N 
ATOM      4  C   UNL A   1      37.401  23.301  25.616  1.00  0.00     0.251 C 
ATOM      5  O   UNL A   1      38.172  24.238  25.822  1.00  0.00    -0.269 OA
ATOM      6  H   UNL A   1      38.874  22.215  24.849  1.00  0.00     0.163 HD
BRANCH   4   7
ATOM      7  C   UNL A   1      35.962  23.462  25.962  1.00  0.00     0.040 A 
ATOM      8  C   UNL A   1      33.884  24.759  25.623  1.00  0.00     0.033 A 
ATOM      9  C   UNL A   1      35.271  24.569  25.426  1.00  0.00     0.025 A 
ATOM     10  C   UNL A   1      33.203  23.699  26.260  1.00  0.00     0.272 A 
ATOM     11  C   UNL A   1      33.895  22.663  26.906  1.00  0.00     0.087 A 
ATOM     12  C   UNL A   1      35.282  22.598  26.815  1.00  0.00     0.021 A 
BRANCH   8  13
ATOM     13  C   UNL A   1      33.192  26.063  25.212  1.00  0.00     0.020 C 
ATOM     14  C   UNL A   1      33.670  27.245  26.080  1.00  0.00     0.013 C 
ATOM     15  C   UNL A   1      33.403  26.486  23.746  1.00  0.00     0.013 C 
ENDBRANCH   8  13
BRANCH  10  16
ATOM     16  N   UNL A   1      31.744  23.579  26.222  1.00  0.00     0.063 N 
ATOM     17  O   UNL A   1      31.119  23.939  27.229  1.00  0.00    -0.258 OA
ATOM     18  O   UNL A   1      31.237  23.077  25.210  1.00  0.00    -0.258 OA
ENDBRANCH  10  16
ENDBRANCH   4   7
ENDBRANCH   2   3
ENDBRANCH   1   2
BRANCH   1  19
ATOM     19  C   UNL A   1      39.078  19.761  26.043  1.00  0.00     0.118 C 
BRANCH  19  20
ATOM     20  N   UNL A   1      40.358  19.093  25.848  1.00  0.00    -0.352 N 
ATOM     21  C   UNL A   1      41.650  19.541  25.955  1.00  0.00     0.251 C 
ATOM     22  H   UNL A   1      40.282  18.145  25.593  1.00  0.00     0.163 HD
ATOM     23  O   UNL A   1      42.564  18.812  25.560  1.00  0.00    -0.269 OA
BRANCH  21  24
ATOM     24  C   UNL A   1      41.977  20.877  26.505  1.00  0.00     0.039 A 
ATOM     25  C   UNL A   1      42.272  21.917  25.615  1.00  0.00     0.014 A 
ATOM     26  C   UNL A   1      42.058  21.111  27.877  1.00  0.00     0.014 A 
ATOM     27  C   UNL A   1      42.576  23.193  26.100  1.00  0.00     0.010 A 
ATOM     28  C   UNL A   1      42.255  22.403  28.359  1.00  0.00     0.010 A 
ATOM     29  C   UNL A   1      42.533  23.457  27.478  1.00  0.00    -0.014 A 
BRANCH  29  30
ATOM     30  C   UNL A   1      42.800  24.815  28.020  1.00  0.00     0.031 A 
ATOM     31  C   UNL A   1      44.195  25.203  28.436  1.00  0.00     0.074 A 
ATOM     32  C   UNL A   1      41.781  25.676  28.206  1.00  0.00     0.049 A 
ATOM     33  N   UNL A   1      44.613  26.301  29.013  1.00  0.00    -0.248 NA
ATOM     34  C   UNL A   1      45.256  24.210  28.203  1.00  0.00     0.031 C 
ATOM     35  C   UNL A   1      40.376  25.408  27.897  1.00  0.00     0.029 A 
ATOM     36  N   UNL A   1      41.770  26.952  28.712  1.00  0.00    -0.354 N 
ATOM     37  C   UNL A   1      45.972  26.119  29.236  1.00  0.00     0.074 A 
ATOM     38  C   UNL A   1      46.300  24.785  28.782  1.00  0.00     0.031 C 
ATOM     39  C   UNL A   1      39.644  26.493  28.192  1.00  0.00     0.029 A 
ATOM     40  C   UNL A   1      40.520  27.521  28.746  1.00  0.00     0.049 A 
ATOM     41  H   UNL A   1      42.581  27.417  29.022  1.00  0.00     0.167 HD
ATOM     42  C   UNL A   1      46.874  26.991  29.747  1.00  0.00     0.037 A 
ATOM     43  C   UNL A   1      40.124  28.734  29.176  1.00  0.00     0.037 A 
ATOM     44  C   UNL A   1      46.558  28.334  30.157  1.00  0.00     0.049 A 
ATOM     45  C   UNL A   1      41.146  29.692  29.717  1.00  0.00     0.074 A 
ATOM     46  C   UNL A   1      47.412  29.317  30.626  1.00  0.00     0.029 A 
ATOM     47  N   UNL A   1      45.286  28.883  30.141  1.00  0.00    -0.354 N 
ATOM     48  N   UNL A   1      42.438  29.527  29.865  1.00  0.00    -0.248 NA
ATOM     49  C   UNL A   1      40.657  31.011  30.143  1.00  0.00     0.031 C 
ATOM     50  C   UNL A   1      46.651  30.451  30.925  1.00  0.00     0.029 A 
ATOM     51  C   UNL A   1      45.329  30.189  30.604  1.00  0.00     0.049 A 
ATOM     52  H   UNL A   1      44.471  28.416  29.845  1.00  0.00     0.167 HD
ATOM     53  C   UNL A   1      42.920  30.727  30.373  1.00  0.00     0.074 A 
ATOM     54  C   UNL A   1      41.782  31.615  30.496  1.00  0.00     0.031 C 
ATOM     55  C   UNL A   1      44.190  31.062  30.709  1.00  0.00     0.037 A 
BRANCH  42  56
ATOM     56  C   UNL A   1      48.294  26.520  29.879  1.00  0.00     0.057 A 
ATOM     57  C   UNL A   1      48.738  25.820  31.009  1.00  0.00     0.134 A 
ATOM     58  C   UNL A   1      49.222  26.747  28.854  1.00  0.00     0.134 A 
ATOM     59  F   UNL A   1      47.903  25.582  32.032  1.00  0.00    -0.206 F 
ATOM     60  C   UNL A   1      50.061  25.390  31.129  1.00  0.00     0.040 A 
ATOM     61  C   UNL A   1      50.541  26.297  28.952  1.00  0.00     0.040 A 
ATOM     62  F   UNL A   1      48.864  27.404  27.742  1.00  0.00    -0.206 F 
ATOM     63  C   UNL A   1      50.965  25.623  30.095  1.00  0.00     0.006 A 
ENDBRANCH  42  56
BRANCH  43  64
ATOM     64  C   UNL A   1      38.694  29.125  29.083  1.00  0.00     0.057 A 
ATOM     65  C   UNL A   1      38.155  29.590  27.877  1.00  0.00     0.134 A 
ATOM     66  C   UNL A   1      37.838  29.051  30.187  1.00  0.00     0.134 A 
ATOM     67  F   UNL A   1      38.932  29.700  26.789  1.00  0.00    -0.206 F 
ATOM     68  C   UNL A   1      36.821  29.985  27.777  1.00  0.00     0.040 A 
ATOM     69  C   UNL A   1      36.495  29.420  30.095  1.00  0.00     0.040 A 
ATOM     70  F   UNL A   1      38.293  28.606  31.367  1.00  0.00    -0.206 F 
ATOM     71  C   UNL A   1      35.985  29.895  28.889  1.00  0.00     0.006 A 
ENDBRANCH  43  64
BRANCH  55  72
ATOM     72  C   UNL A   1      44.420  32.460  31.203  1.00  0.00     0.057 A 
ATOM     73  C   UNL A   1      44.382  32.778  32.566  1.00  0.00     0.134 A 
ATOM     74  C   UNL A   1      44.713  33.492  30.304  1.00  0.00     0.134 A 
ATOM     75  F   UNL A   1      44.094  31.836  33.476  1.00  0.00    -0.206 F 
ATOM     76  C   UNL A   1      44.606  34.079  33.016  1.00  0.00     0.040 A 
ATOM     77  C   UNL A   1      44.963  34.793  30.743  1.00  0.00     0.040 A 
ATOM     78  F   UNL A   1      44.771  33.251  28.985  1.00  0.00    -0.206 F 
ATOM     79  C   UNL A   1      44.902  35.091  32.102  1.00  0.00     0.006 A 
ENDBRANCH  55  72
ENDBRANCH  29  30
ENDBRANCH  21  24
ENDBRANCH  19  20
ENDBRANCH   1  19
TORSDOF 12
ENDMDL
MODEL 2
REMARK VINA RESULT:     -10.9      4.454      8.986
REMARK SMILES CC(C)c1cc(C(=O)NCCCNC(=O)c2ccc(-c3c4nc(c(-c5c(F)cccc5F)c5ccc([nH]5)c(-c5c(F)cccc5F)c5nc(c(-c6c(F)cccc6F)c6ccc3[nH]6)C=C5)C=C4)cc2)ccc1[N+](=O)[O-]
REMARK SMILES IDX 11 1 10 2 9 3 7 4 8 5 6 7 4 8 5 9 72 10 71 11 70 12 2 13
REMARK SMILES IDX 1 14 3 15 73 16 74 17 75 18 12 19 13 20 14 21 15 23 16 24
REMARK SMILES IDX 17 25 69 26 18 27 68 28 19 29 20 30 21 31 62 32 22 33 67 34
REMARK SMILES IDX 61 35 63 36 23 37 66 38 60 39 59 40 24 42 50 43 33 44 49 45
REMARK SMILES IDX 34 46 37 47 48 48 64 49 35 50 36 51 47 53 65 54 38 55 25 56
REMARK SMILES IDX 26 57 31 58 27 59 28 60 30 61 32 62 29 63 51 64 52 65 57 66
REMARK SMILES IDX 53 67 54 68 56 69 58 70 55 71 39 72 40 73 45 74 41 75 42 76
REMARK SMILES IDX 44 77 46 78 43 79
REMARK H PARENT 9 6 13 22 63 41 37 52
REMARK Flexibility Score: inf
ROOT
ATOM      1  C   UNL A   1      31.409  31.971  26.877  1.00  0.00     0.042 C 
ENDROOT
BRANCH   1   2
ATOM      2  C   UNL A   1      31.707  30.479  26.890  1.00  0.00     0.118 C 
BRANCH   2   3
ATOM      3  N   UNL A   1      32.991  30.134  27.488  1.00  0.00    -0.352 N 
ATOM      4  C   UNL A   1      33.999  29.279  27.111  1.00  0.00     0.251 C 
ATOM      5  O   UNL A   1      34.970  29.167  27.860  1.00  0.00    -0.269 OA
ATOM      6  H   UNL A   1      33.173  30.610  28.330  1.00  0.00     0.163 HD
BRANCH   4   7
ATOM      7  C   UNL A   1      33.938  28.447  25.878  1.00  0.00     0.040 A 
ATOM      8  C   UNL A   1      33.756  26.175  24.922  1.00  0.00     0.033 A 
ATOM      9  C   UNL A   1      33.904  27.045  26.025  1.00  0.00     0.025 A 
ATOM     10  C   UNL A   1      33.494  26.795  23.680  1.00  0.00     0.272 A 
ATOM     11  C   UNL A   1      33.656  28.178  23.501  1.00  0.00     0.087 A 
ATOM     12  C   UNL A   1      33.954  28.985  24.594  1.00  0.00     0.021 A 
BRANCH   8  13
ATOM     13  C   UNL A   1      33.925  24.659  25.072  1.00  0.00     0.020 C 
ATOM     14  C   UNL A   1      35.367  24.297  25.480  1.00  0.00     0.013 C 
ATOM     15  C   UNL A   1      32.999  23.995  26.108  1.00  0.00     0.013 C 
ENDBRANCH   8  13
BRANCH  10  16
ATOM     16  N   UNL A   1      32.974  26.049  22.533  1.00  0.00     0.063 N 
ATOM     17  O   UNL A   1      31.764  25.787  22.527  1.00  0.00    -0.258 OA
ATOM     18  O   UNL A   1      33.786  25.684  21.672  1.00  0.00    -0.258 OA
ENDBRANCH  10  16
ENDBRANCH   4   7
ENDBRANCH   2   3
ENDBRANCH   1   2
BRANCH   1  19
ATOM     19  C   UNL A   1      32.629  32.871  26.774  1.00  0.00     0.118 C 
BRANCH  19  20
ATOM     20  N   UNL A   1      32.496  34.107  27.533  1.00  0.00    -0.352 N 
ATOM     21  C   UNL A   1      33.147  34.571  28.648  1.00  0.00     0.251 C 
ATOM     22  H   UNL A   1      31.814  34.723  27.180  1.00  0.00     0.163 HD
ATOM     23  O   UNL A   1      32.718  35.586  29.203  1.00  0.00    -0.269 OA
BRANCH  21  24
ATOM     24  C   UNL A   1      34.326  33.880  29.216  1.00  0.00     0.039 A 
ATOM     25  C   UNL A   1      35.602  34.386  28.939  1.00  0.00     0.014 A 
ATOM     26  C   UNL A   1      34.206  32.709  29.965  1.00  0.00     0.014 A 
ATOM     27  C   UNL A   1      36.737  33.763  29.467  1.00  0.00     0.010 A 
ATOM     28  C   UNL A   1      35.325  32.150  30.578  1.00  0.00     0.010 A 
ATOM     29  C   UNL A   1      36.606  32.660  30.324  1.00  0.00    -0.014 A 
BRANCH  29  30
ATOM     30  C   UNL A   1      37.790  32.008  30.942  1.00  0.00     0.031 A 
ATOM     31  C   UNL A   1      38.536  30.931  30.198  1.00  0.00     0.074 A 
ATOM     32  C   UNL A   1      38.155  32.331  32.198  1.00  0.00     0.049 A 
ATOM     33  N   UNL A   1      39.531  30.182  30.601  1.00  0.00    -0.248 NA
ATOM     34  C   UNL A   1      38.079  30.632  28.832  1.00  0.00     0.031 C 
ATOM     35  C   UNL A   1      37.487  33.317  33.049  1.00  0.00     0.029 A 
ATOM     36  N   UNL A   1      39.175  31.854  32.984  1.00  0.00    -0.354 N 
ATOM     37  C   UNL A   1      39.799  29.311  29.553  1.00  0.00     0.074 A 
ATOM     38  C   UNL A   1      38.827  29.585  28.517  1.00  0.00     0.031 C 
ATOM     39  C   UNL A   1      38.129  33.392  34.225  1.00  0.00     0.029 A 
ATOM     40  C   UNL A   1      39.231  32.435  34.228  1.00  0.00     0.049 A 
ATOM     41  H   UNL A   1      39.806  31.160  32.684  1.00  0.00     0.167 HD
ATOM     42  C   UNL A   1      40.781  28.383  29.448  1.00  0.00     0.037 A 
ATOM     43  C   UNL A   1      40.075  32.219  35.254  1.00  0.00     0.037 A 
ATOM     44  C   UNL A   1      41.775  28.140  30.460  1.00  0.00     0.049 A 
ATOM     45  C   UNL A   1      41.170  31.202  35.105  1.00  0.00     0.074 A 
ATOM     46  C   UNL A   1      42.850  27.269  30.421  1.00  0.00     0.029 A 
ATOM     47  N   UNL A   1      41.818  28.776  31.690  1.00  0.00    -0.354 N 
ATOM     48  N   UNL A   1      41.447  30.429  34.084  1.00  0.00    -0.248 NA
ATOM     49  C   UNL A   1      42.077  31.034  36.250  1.00  0.00     0.031 C 
ATOM     50  C   UNL A   1      43.525  27.354  31.644  1.00  0.00     0.029 A 
ATOM     51  C   UNL A   1      42.895  28.308  32.426  1.00  0.00     0.049 A 
ATOM     52  H   UNL A   1      41.179  29.459  31.997  1.00  0.00     0.167 HD
ATOM     53  C   UNL A   1      42.574  29.704  34.450  1.00  0.00     0.074 A 
ATOM     54  C   UNL A   1      42.937  30.140  35.783  1.00  0.00     0.031 C 
ATOM     55  C   UNL A   1      43.247  28.761  33.746  1.00  0.00     0.037 A 
BRANCH  42  56
ATOM     56  C   UNL A   1      40.831  27.570  28.187  1.00  0.00     0.057 A 
ATOM     57  C   UNL A   1      41.559  27.990  27.065  1.00  0.00     0.134 A 
ATOM     58  C   UNL A   1      40.165  26.341  28.099  1.00  0.00     0.134 A 
ATOM     59  F   UNL A   1      42.209  29.164  27.078  1.00  0.00    -0.206 F 
ATOM     60  C   UNL A   1      41.598  27.233  25.893  1.00  0.00     0.040 A 
ATOM     61  C   UNL A   1      40.219  25.561  26.941  1.00  0.00     0.040 A 
ATOM     62  F   UNL A   1      39.455  25.874  29.137  1.00  0.00    -0.206 F 
ATOM     63  C   UNL A   1      40.931  26.011  25.831  1.00  0.00     0.006 A 
ENDBRANCH  42  56
BRANCH  43  64
ATOM     64  C   UNL A   1      39.938  33.008  36.505  1.00  0.00     0.057 A 
ATOM     65  C   UNL A   1      39.007  32.644  37.485  1.00  0.00     0.134 A 
ATOM     66  C   UNL A   1      40.724  34.140  36.749  1.00  0.00     0.134 A 
ATOM     67  F   UNL A   1      38.213  31.579  37.298  1.00  0.00    -0.206 F 
ATOM     68  C   UNL A   1      38.848  33.388  38.655  1.00  0.00     0.040 A 
ATOM     69  C   UNL A   1      40.593  34.879  37.926  1.00  0.00     0.040 A 
ATOM     70  F   UNL A   1      41.640  34.535  35.853  1.00  0.00    -0.206 F 
ATOM     71  C   UNL A   1      39.647  34.507  38.880  1.00  0.00     0.006 A 
ENDBRANCH  43  64
BRANCH  55  72
ATOM     72  C   UNL A   1      44.466  28.168  34.390  1.00  0.00     0.057 A 
ATOM     73  C   UNL A   1      44.403  26.998  35.155  1.00  0.00     0.134 A 
ATOM     74  C   UNL A   1      45.722  28.760  34.213  1.00  0.00     0.134 A 
ATOM     75  F   UNL A   1      43.227  26.390  35.372  1.00  0.00    -0.206 F 
ATOM     76  C   UNL A   1      45.543  26.449  35.743  1.00  0.00     0.040 A 
ATOM     77  C   UNL A   1      46.874  28.209  34.775  1.00  0.00     0.040 A 
ATOM     78  F   UNL A   1      45.852  29.880  33.484  1.00  0.00    -0.206 F 
ATOM     79  C   UNL A   1      46.785  27.054  35.548  1.00  0.00     0.006 A 
ENDBRANCH  55  72
ENDBRANCH  29  30
ENDBRANCH  21  24
ENDBRANCH  19  20
ENDBRANCH   1  19
TORSDOF 12
ENDMDL
MODEL 3
REMARK VINA RESULT:     -10.9      4.372      9.339
REMARK SMILES CC(C)c1cc(C(=O)NCCCNC(=O)c2ccc(-c3c4nc(c(-c5c(F)cccc5F)c5ccc([nH]5)c(-c5c(F)cccc5F)c5nc(c(-c6c(F)cccc6F)c6ccc3[nH]6)C=C5)C=C4)cc2)ccc1[N+](=O)[O-]
REMARK SMILES IDX 11 1 10 2 9 3 7 4 8 5 6 7 4 8 5 9 72 10 71 11 70 12 2 13
REMARK SMILES IDX 1 14 3 15 73 16 74 17 75 18 12 19 13 20 14 21 15 23 16 24
REMARK SMILES IDX 17 25 69 26 18 27 68 28 19 29 20 30 21 31 62 32 22 33 67 34
REMARK SMILES IDX 61 35 63 36 23 37 66 38 60 39 59 40 24 42 50 43 33 44 49 45
REMARK SMILES IDX 34 46 37 47 48 48 64 49 35 50 36 51 47 53 65 54 38 55 25 56
REMARK SMILES IDX 26 57 31 58 27 59 28 60 30 61 32 62 29 63 51 64 52 65 57 66
REMARK SMILES IDX 53 67 54 68 56 69 58 70 55 71 39 72 40 73 45 74 41 75 42 76
REMARK SMILES IDX 44 77 46 78 43 79
REMARK H PARENT 9 6 13 22 63 41 37 52
REMARK Flexibility Score: inf
ROOT
ATOM      1  C   UNL A   1      31.442  32.047  26.911  1.00  0.00     0.042 C 
ENDROOT
BRANCH   1   2
ATOM      2  C   UNL A   1      31.720  30.552  26.854  1.00  0.00     0.118 C 
BRANCH   2   3
ATOM      3  N   UNL A   1      32.974  30.157  27.482  1.00  0.00    -0.352 N 
ATOM      4  C   UNL A   1      33.958  29.265  27.126  1.00  0.00     0.251 C 
ATOM      5  O   UNL A   1      34.905  29.114  27.898  1.00  0.00    -0.269 OA
ATOM      6  H   UNL A   1      33.153  30.622  28.330  1.00  0.00     0.163 HD
BRANCH   4   7
ATOM      7  C   UNL A   1      33.896  28.440  25.889  1.00  0.00     0.040 A 
ATOM      8  C   UNL A   1      33.717  26.173  24.920  1.00  0.00     0.033 A 
ATOM      9  C   UNL A   1      33.866  27.037  26.028  1.00  0.00     0.025 A 
ATOM     10  C   UNL A   1      33.451  26.800  23.683  1.00  0.00     0.272 A 
ATOM     11  C   UNL A   1      33.608  28.184  23.511  1.00  0.00     0.087 A 
ATOM     12  C   UNL A   1      33.908  28.985  24.608  1.00  0.00     0.021 A 
BRANCH   8  13
ATOM     13  C   UNL A   1      33.891  24.657  25.062  1.00  0.00     0.020 C 
ATOM     14  C   UNL A   1      35.360  24.288  25.351  1.00  0.00     0.013 C 
ATOM     15  C   UNL A   1      33.050  24.000  26.173  1.00  0.00     0.013 C 
ENDBRANCH   8  13
BRANCH  10  16
ATOM     16  N   UNL A   1      32.930  26.059  22.533  1.00  0.00     0.063 N 
ATOM     17  O   UNL A   1      33.718  25.815  21.609  1.00  0.00    -0.258 OA
ATOM     18  O   UNL A   1      31.725  25.772  22.535  1.00  0.00    -0.258 OA
ENDBRANCH  10  16
ENDBRANCH   4   7
ENDBRANCH   2   3
ENDBRANCH   1   2
BRANCH   1  19
ATOM     19  C   UNL A   1      32.674  32.935  26.856  1.00  0.00     0.118 C 
BRANCH  19  20
ATOM     20  N   UNL A   1      32.528  34.168  27.618  1.00  0.00    -0.352 N 
ATOM     21  C   UNL A   1      33.167  34.632  28.739  1.00  0.00     0.251 C 
ATOM     22  H   UNL A   1      31.844  34.780  27.262  1.00  0.00     0.163 HD
ATOM     23  O   UNL A   1      32.727  35.642  29.295  1.00  0.00    -0.269 OA
BRANCH  21  24
ATOM     24  C   UNL A   1      34.347  33.946  29.313  1.00  0.00     0.039 A 
ATOM     25  C   UNL A   1      34.143  32.908  30.231  1.00  0.00     0.014 A 
ATOM     26  C   UNL A   1      35.650  34.343  29.013  1.00  0.00     0.014 A 
ATOM     27  C   UNL A   1      35.235  32.233  30.785  1.00  0.00     0.010 A 
ATOM     28  C   UNL A   1      36.735  33.604  29.480  1.00  0.00     0.010 A 
ATOM     29  C   UNL A   1      36.542  32.551  30.385  1.00  0.00    -0.014 A 
BRANCH  29  30
ATOM     30  C   UNL A   1      37.720  31.817  30.917  1.00  0.00     0.031 A 
ATOM     31  C   UNL A   1      38.272  32.155  32.277  1.00  0.00     0.074 A 
ATOM     32  C   UNL A   1      38.338  30.896  30.152  1.00  0.00     0.049 A 
ATOM     33  N   UNL A   1      39.342  31.696  32.876  1.00  0.00    -0.248 NA
ATOM     34  C   UNL A   1      37.544  33.172  33.053  1.00  0.00     0.031 C 
ATOM     35  C   UNL A   1      37.940  30.511  28.797  1.00  0.00     0.029 A 
ATOM     36  N   UNL A   1      39.444  30.121  30.403  1.00  0.00    -0.354 N 
ATOM     37  C   UNL A   1      39.428  32.384  34.080  1.00  0.00     0.074 A 
ATOM     38  C   UNL A   1      38.335  33.331  34.104  1.00  0.00     0.031 C 
ATOM     39  C   UNL A   1      38.769  29.556  28.348  1.00  0.00     0.029 A 
ATOM     40  C   UNL A   1      39.779  29.286  29.366  1.00  0.00     0.049 A 
ATOM     41  H   UNL A   1      39.948  30.161  31.248  1.00  0.00     0.167 HD
ATOM     42  C   UNL A   1      40.319  32.225  35.087  1.00  0.00     0.037 A 
ATOM     43  C   UNL A   1      40.788  28.403  29.248  1.00  0.00     0.037 A 
ATOM     44  C   UNL A   1      41.380  31.253  35.083  1.00  0.00     0.049 A 
ATOM     45  C   UNL A   1      41.750  28.228  30.388  1.00  0.00     0.074 A 
ATOM     46  C   UNL A   1      42.294  30.969  36.082  1.00  0.00     0.029 A 
ATOM     47  N   UNL A   1      41.663  30.401  34.027  1.00  0.00    -0.354 N 
ATOM     48  N   UNL A   1      41.782  28.843  31.545  1.00  0.00    -0.248 NA
ATOM     49  C   UNL A   1      42.813  27.227  30.211  1.00  0.00     0.031 C 
ATOM     50  C   UNL A   1      43.153  29.967  35.617  1.00  0.00     0.029 A 
ATOM     51  C   UNL A   1      42.746  29.598  34.346  1.00  0.00     0.049 A 
ATOM     52  H   UNL A   1      41.168  30.370  33.177  1.00  0.00     0.167 HD
ATOM     53  C   UNL A   1      42.847  28.288  32.243  1.00  0.00     0.074 A 
ATOM     54  C   UNL A   1      43.426  27.275  31.384  1.00  0.00     0.031 C 
ATOM     55  C   UNL A   1      43.303  28.589  33.483  1.00  0.00     0.037 A 
BRANCH  42  56
ATOM     56  C   UNL A   1      40.175  33.119  36.285  1.00  0.00     0.057 A 
ATOM     57  C   UNL A   1      39.265  32.837  37.312  1.00  0.00     0.134 A 
ATOM     58  C   UNL A   1      40.972  34.263  36.425  1.00  0.00     0.134 A 
ATOM     59  F   UNL A   1      38.462  31.766  37.233  1.00  0.00    -0.206 F 
ATOM     60  C   UNL A   1      39.130  33.676  38.420  1.00  0.00     0.040 A 
ATOM     61  C   UNL A   1      40.866  35.094  37.543  1.00  0.00     0.040 A 
ATOM     62  F   UNL A   1      41.869  34.590  35.483  1.00  0.00    -0.206 F 
ATOM     63  C   UNL A   1      39.937  34.805  38.541  1.00  0.00     0.006 A 
ENDBRANCH  42  56
BRANCH  43  64
ATOM     64  C   UNL A   1      40.922  27.589  28.013  1.00  0.00     0.057 A 
ATOM     65  C   UNL A   1      40.330  26.324  27.919  1.00  0.00     0.134 A 
ATOM     66  C   UNL A   1      41.644  28.048  26.905  1.00  0.00     0.134 A 
ATOM     67  F   UNL A   1      39.641  25.824  28.955  1.00  0.00    -0.206 F 
ATOM     68  C   UNL A   1      40.466  25.536  26.776  1.00  0.00     0.040 A 
ATOM     69  C   UNL A   1      41.769  27.280  25.746  1.00  0.00     0.040 A 
ATOM     70  F   UNL A   1      42.228  29.255  26.930  1.00  0.00    -0.206 F 
ATOM     71  C   UNL A   1      41.184  26.017  25.683  1.00  0.00     0.006 A 
ENDBRANCH  43  64
BRANCH  55  72
ATOM     72  C   UNL A   1      44.462  27.786  33.999  1.00  0.00     0.057 A 
ATOM     73  C   UNL A   1      45.785  28.219  33.851  1.00  0.00     0.134 A 
ATOM     74  C   UNL A   1      44.246  26.582  34.678  1.00  0.00     0.134 A 
ATOM     75  F   UNL A   1      46.058  29.359  33.198  1.00  0.00    -0.206 F 
ATOM     76  C   UNL A   1      46.855  27.470  34.341  1.00  0.00     0.040 A 
ATOM     77  C   UNL A   1      45.306  25.835  35.194  1.00  0.00     0.040 A 
ATOM     78  F   UNL A   1      43.001  26.115  34.860  1.00  0.00    -0.206 F 
ATOM     79  C   UNL A   1      46.615  26.276  35.020  1.00  0.00     0.006 A 
ENDBRANCH  55  72
ENDBRANCH  29  30
ENDBRANCH  21  24
ENDBRANCH  19  20
ENDBRANCH   1  19
TORSDOF 12
ENDMDL
