MODEL 1
REMARK VINA RESULT:     -11.2      0.000      0.000
REMARK SMILES C[C@@H]1[C@H](C)CCC[C@@H]1NC(=O)COc1csc(C(=O)NCCCNC(=O)c2ccc(-c3c4nc(c(-c5c(F)cccc5F)c5ccc([nH]5)c(-c5c(F)cccc5F)c5nc(c(-c6c(F)cccc6F)c6ccc3[nH]6)C=C5)C=C4)cc2)c1
REMARK SMILES IDX 21 1 20 2 18 3 19 4 17 6 14 7 15 8 81 9 16 10 13 11 12 12
REMARK SMILES IDX 10 13 9 14 11 16 8 17 1 18 2 19 3 20 4 21 5 22 7 23 6 24
REMARK SMILES IDX 22 25 23 26 24 27 25 28 26 30 27 31 28 32 80 33 29 34 79 35
REMARK SMILES IDX 30 36 31 37 32 38 73 39 33 40 78 41 72 42 74 43 34 44 77 45
REMARK SMILES IDX 71 46 70 47 35 49 61 50 44 51 60 52 45 53 48 54 59 55 75 56
REMARK SMILES IDX 46 57 47 58 58 60 76 61 49 62 36 63 37 64 42 65 38 66 39 67
REMARK SMILES IDX 41 68 43 69 40 70 62 71 63 72 68 73 64 74 65 75 67 76 69 77
REMARK SMILES IDX 66 78 50 79 51 80 56 81 52 82 53 83 55 84 57 85 54 86
REMARK H PARENT 20 5 9 15 24 29 74 48 48 59
REMARK Flexibility Score: inf
ROOT
ATOM      1  C   UNL A   1      33.715  29.325  24.957  1.00  0.00     0.118 C 
ENDROOT
BRANCH   1   2
ATOM      2  N   UNL A   1      34.084  28.990  23.597  1.00  0.00    -0.351 N 
ATOM      3  C   UNL A   1      33.503  28.165  22.662  1.00  0.00     0.261 C 
ATOM      4  O   UNL A   1      34.058  28.160  21.560  1.00  0.00    -0.268 OA
ATOM      5  H   UNL A   1      34.903  29.436  23.282  1.00  0.00     0.163 HD
BRANCH   3   6
ATOM      6  C   UNL A   1      32.304  27.393  22.962  1.00  0.00     0.096 A 
ATOM      7  C   UNL A   1      30.746  25.812  23.700  1.00  0.00     0.131 A 
ATOM      8  C   UNL A   1      29.909  26.826  23.303  1.00  0.00     0.112 A 
ATOM      9  C   UNL A   1      32.113  26.118  23.459  1.00  0.00     0.072 A 
ATOM     10  S   UNL A   1      30.779  28.142  22.649  1.00  0.00    -0.135 S 
BRANCH   7  11
ATOM     11  O   UNL A   1      30.365  24.695  24.365  1.00  0.00    -0.483 OA
BRANCH  11  12
ATOM     12  C   UNL A   1      30.330  24.832  25.772  1.00  0.00     0.329 C 
BRANCH  12  13
ATOM     13  C   UNL A   1      30.547  23.608  26.669  1.00  0.00     0.258 C 
ATOM     14  N   UNL A   1      31.692  22.873  26.601  1.00  0.00    -0.350 N 
ATOM     15  H   UNL A   1      31.706  22.079  27.185  1.00  0.00     0.163 HD
ATOM     16  O   UNL A   1      29.661  23.227  27.441  1.00  0.00    -0.271 OA
BRANCH  14  17
ATOM     17  C   UNL A   1      32.901  23.068  25.805  1.00  0.00     0.085 C 
ATOM     18  C   UNL A   1      34.178  21.399  27.276  1.00  0.00     0.010 C 
ATOM     19  C   UNL A   1      33.856  21.847  25.841  1.00  0.00     0.011 C 
ATOM     20  C   UNL A   1      35.124  22.156  24.997  1.00  0.00    -0.009 C 
ATOM     21  C   UNL A   1      36.123  20.997  24.966  1.00  0.00     0.008 C 
ATOM     22  C   UNL A   1      35.820  23.448  25.452  1.00  0.00     0.004 C 
ATOM     23  C   UNL A   1      33.604  24.359  26.253  1.00  0.00     0.025 C 
ATOM     24  C   UNL A   1      34.864  24.635  25.443  1.00  0.00     0.002 C 
ENDBRANCH  14  17
ENDBRANCH  12  13
ENDBRANCH  11  12
ENDBRANCH   7  11
ENDBRANCH   3   6
ENDBRANCH   1   2
BRANCH   1  25
ATOM     25  C   UNL A   1      34.183  28.255  25.943  1.00  0.00     0.042 C 
BRANCH  25  26
ATOM     26  C   UNL A   1      33.708  28.496  27.377  1.00  0.00     0.118 C 
BRANCH  26  27
ATOM     27  N   UNL A   1      33.674  29.913  27.709  1.00  0.00    -0.352 N 
ATOM     28  C   UNL A   1      34.600  30.713  28.325  1.00  0.00     0.251 C 
ATOM     29  H   UNL A   1      32.844  30.375  27.447  1.00  0.00     0.163 HD
ATOM     30  O   UNL A   1      34.262  31.832  28.703  1.00  0.00    -0.269 OA
BRANCH  28  31
ATOM     31  C   UNL A   1      35.991  30.257  28.549  1.00  0.00     0.039 A 
ATOM     32  C   UNL A   1      36.899  30.367  27.490  1.00  0.00     0.014 A 
ATOM     33  C   UNL A   1      36.390  29.656  29.745  1.00  0.00     0.014 A 
ATOM     34  C   UNL A   1      38.210  29.914  27.644  1.00  0.00     0.010 A 
ATOM     35  C   UNL A   1      37.718  29.262  29.921  1.00  0.00     0.010 A 
ATOM     36  C   UNL A   1      38.638  29.381  28.870  1.00  0.00    -0.014 A 
BRANCH  36  37
ATOM     37  C   UNL A   1      40.051  28.966  29.055  1.00  0.00     0.031 A 
ATOM     38  C   UNL A   1      41.054  29.897  29.677  1.00  0.00     0.074 A 
ATOM     39  C   UNL A   1      40.437  27.748  28.630  1.00  0.00     0.049 A 
ATOM     40  N   UNL A   1      42.324  29.692  29.930  1.00  0.00    -0.248 NA
ATOM     41  C   UNL A   1      40.579  31.240  30.040  1.00  0.00     0.031 C 
ATOM     42  C   UNL A   1      39.572  26.776  27.959  1.00  0.00     0.029 A 
ATOM     43  N   UNL A   1      41.653  27.118  28.700  1.00  0.00    -0.354 N 
ATOM     44  C   UNL A   1      42.799  30.879  30.472  1.00  0.00     0.074 A 
ATOM     45  C   UNL A   1      41.695  31.815  30.467  1.00  0.00     0.031 C 
ATOM     46  C   UNL A   1      40.277  25.663  27.705  1.00  0.00     0.029 A 
ATOM     47  C   UNL A   1      41.646  25.850  28.172  1.00  0.00     0.049 A 
ATOM     48  H   UNL A   1      42.455  27.535  29.091  1.00  0.00     0.167 HD
ATOM     49  C   UNL A   1      44.036  31.157  30.950  1.00  0.00     0.037 A 
ATOM     50  C   UNL A   1      42.630  24.937  28.081  1.00  0.00     0.037 A 
ATOM     51  C   UNL A   1      45.127  30.218  30.973  1.00  0.00     0.049 A 
ATOM     52  C   UNL A   1      43.986  25.261  28.639  1.00  0.00     0.074 A 
ATOM     53  C   UNL A   1      46.397  30.381  31.501  1.00  0.00     0.029 A 
ATOM     54  N   UNL A   1      45.078  28.938  30.441  1.00  0.00    -0.354 N 
ATOM     55  N   UNL A   1      44.399  26.360  29.223  1.00  0.00    -0.248 NA
ATOM     56  C   UNL A   1      45.012  24.213  28.533  1.00  0.00     0.031 C 
ATOM     57  C   UNL A   1      47.128  29.214  31.252  1.00  0.00     0.029 A 
ATOM     58  C   UNL A   1      46.301  28.309  30.607  1.00  0.00     0.049 A 
ATOM     59  H   UNL A   1      44.290  28.536  30.008  1.00  0.00     0.167 HD
ATOM     60  C   UNL A   1      45.724  26.133  29.567  1.00  0.00     0.074 A 
ATOM     61  C   UNL A   1      46.040  24.782  29.147  1.00  0.00     0.031 C 
ATOM     62  C   UNL A   1      46.603  26.968  30.173  1.00  0.00     0.037 A 
BRANCH  49  63
ATOM     63  C   UNL A   1      44.274  32.538  31.490  1.00  0.00     0.057 A 
ATOM     64  C   UNL A   1      44.732  33.582  30.674  1.00  0.00     0.134 A 
ATOM     65  C   UNL A   1      44.012  32.838  32.833  1.00  0.00     0.134 A 
ATOM     66  F   UNL A   1      45.012  33.359  29.380  1.00  0.00    -0.206 F 
ATOM     67  C   UNL A   1      44.946  34.865  31.180  1.00  0.00     0.040 A 
ATOM     68  C   UNL A   1      44.198  34.123  33.345  1.00  0.00     0.040 A 
ATOM     69  F   UNL A   1      43.565  31.887  33.668  1.00  0.00    -0.206 F 
ATOM     70  C   UNL A   1      44.673  35.140  32.519  1.00  0.00     0.006 A 
ENDBRANCH  49  63
BRANCH  50  71
ATOM     71  C   UNL A   1      42.354  23.615  27.468  1.00  0.00     0.057 A 
ATOM     72  C   UNL A   1      42.417  23.437  26.081  1.00  0.00     0.134 A 
ATOM     73  C   UNL A   1      42.035  22.499  28.250  1.00  0.00     0.134 A 
ATOM     74  F   UNL A   1      42.702  24.474  25.280  1.00  0.00    -0.206 F 
ATOM     75  C   UNL A   1      42.158  22.200  25.492  1.00  0.00     0.040 A 
ATOM     76  C   UNL A   1      41.795  21.250  27.675  1.00  0.00     0.040 A 
ATOM     77  F   UNL A   1      41.969  22.605  29.585  1.00  0.00    -0.206 F 
ATOM     78  C   UNL A   1      41.851  21.099  26.291  1.00  0.00     0.006 A 
ENDBRANCH  50  71
BRANCH  62  79
ATOM     79  C   UNL A   1      47.982  26.436  30.422  1.00  0.00     0.057 A 
ATOM     80  C   UNL A   1      48.993  26.532  29.457  1.00  0.00     0.134 A 
ATOM     81  C   UNL A   1      48.309  25.835  31.644  1.00  0.00     0.134 A 
ATOM     82  F   UNL A   1      48.741  27.083  28.260  1.00  0.00    -0.206 F 
ATOM     83  C   UNL A   1      50.271  26.022  29.688  1.00  0.00     0.040 A 
ATOM     84  C   UNL A   1      49.590  25.344  31.896  1.00  0.00     0.040 A 
ATOM     85  F   UNL A   1      47.388  25.718  32.614  1.00  0.00    -0.206 F 
ATOM     86  C   UNL A   1      50.574  25.431  30.912  1.00  0.00     0.006 A 
ENDBRANCH  62  79
ENDBRANCH  36  37
ENDBRANCH  28  31
ENDBRANCH  26  27
ENDBRANCH  25  26
ENDBRANCH   1  25
TORSDOF 14
ENDMDL
MODEL 2
REMARK VINA RESULT:     -11.1      3.629      4.964
REMARK SMILES C[C@@H]1[C@H](C)CCC[C@@H]1NC(=O)COc1csc(C(=O)NCCCNC(=O)c2ccc(-c3c4nc(c(-c5c(F)cccc5F)c5ccc([nH]5)c(-c5c(F)cccc5F)c5nc(c(-c6c(F)cccc6F)c6ccc3[nH]6)C=C5)C=C4)cc2)c1
REMARK SMILES IDX 21 1 20 2 18 3 19 4 17 6 14 7 15 8 81 9 16 10 13 11 12 12
REMARK SMILES IDX 10 13 9 14 11 16 8 17 1 18 2 19 3 20 4 21 5 22 7 23 6 24
REMARK SMILES IDX 22 25 23 26 24 27 25 28 26 30 27 31 28 32 80 33 29 34 79 35
REMARK SMILES IDX 30 36 31 37 32 38 73 39 33 40 78 41 72 42 74 43 34 44 77 45
REMARK SMILES IDX 71 46 70 47 35 49 61 50 44 51 60 52 45 53 48 54 59 55 75 56
REMARK SMILES IDX 46 57 47 58 58 60 76 61 49 62 36 63 37 64 42 65 38 66 39 67
REMARK SMILES IDX 41 68 43 69 40 70 62 71 63 72 68 73 64 74 65 75 67 76 69 77
REMARK SMILES IDX 66 78 50 79 51 80 56 81 52 82 53 83 55 84 57 85 54 86
REMARK H PARENT 20 5 9 15 24 29 74 48 48 59
REMARK Flexibility Score: inf
ROOT
ATOM      1  C   UNL A   1      31.060  30.974  25.410  1.00  0.00     0.118 C 
ENDROOT
BRANCH   1   2
ATOM      2  N   UNL A   1      29.978  31.139  24.461  1.00  0.00    -0.351 N 
ATOM      3  C   UNL A   1      29.534  30.352  23.424  1.00  0.00     0.261 C 
ATOM      4  O   UNL A   1      28.527  30.774  22.848  1.00  0.00    -0.268 OA
ATOM      5  H   UNL A   1      29.464  31.971  24.580  1.00  0.00     0.163 HD
BRANCH   3   6
ATOM      6  C   UNL A   1      30.196  29.102  23.075  1.00  0.00     0.096 A 
ATOM      7  C   UNL A   1      31.698  27.433  22.419  1.00  0.00     0.131 A 
ATOM      8  C   UNL A   1      30.680  26.668  22.933  1.00  0.00     0.112 A 
ATOM      9  C   UNL A   1      31.399  28.822  22.455  1.00  0.00     0.072 A 
ATOM     10  S   UNL A   1      29.374  27.633  23.463  1.00  0.00    -0.135 S 
BRANCH   7  11
ATOM     11  O   UNL A   1      32.911  26.968  22.034  1.00  0.00    -0.483 OA
BRANCH  11  12
ATOM     12  C   UNL A   1      33.336  25.802  22.713  1.00  0.00     0.329 C 
BRANCH  12  13
ATOM     13  C   UNL A   1      33.398  24.461  21.974  1.00  0.00     0.258 C 
ATOM     14  N   UNL A   1      33.827  23.328  22.597  1.00  0.00    -0.350 N 
ATOM     15  H   UNL A   1      33.877  22.533  22.017  1.00  0.00     0.163 HD
ATOM     16  O   UNL A   1      33.110  24.387  20.776  1.00  0.00    -0.271 OA
BRANCH  14  17
ATOM     17  C   UNL A   1      34.227  23.098  23.984  1.00  0.00     0.085 C 
ATOM     18  C   UNL A   1      36.686  22.918  23.279  1.00  0.00     0.010 C 
ATOM     19  C   UNL A   1      35.688  23.530  24.274  1.00  0.00     0.011 C 
ATOM     20  C   UNL A   1      36.033  23.219  25.757  1.00  0.00    -0.009 C 
ATOM     21  C   UNL A   1      37.458  23.623  26.140  1.00  0.00     0.008 C 
ATOM     22  C   UNL A   1      35.784  21.745  26.113  1.00  0.00     0.004 C 
ATOM     23  C   UNL A   1      33.980  21.626  24.348  1.00  0.00     0.025 C 
ATOM     24  C   UNL A   1      34.354  21.324  25.793  1.00  0.00     0.002 C 
ENDBRANCH  14  17
ENDBRANCH  12  13
ENDBRANCH  11  12
ENDBRANCH   7  11
ENDBRANCH   3   6
ENDBRANCH   1   2
BRANCH   1  25
ATOM     25  C   UNL A   1      31.019  32.048  26.497  1.00  0.00     0.042 C 
BRANCH  25  26
ATOM     26  C   UNL A   1      32.404  32.538  26.923  1.00  0.00     0.118 C 
BRANCH  26  27
ATOM     27  N   UNL A   1      32.363  33.893  27.455  1.00  0.00    -0.352 N 
ATOM     28  C   UNL A   1      33.093  34.489  28.450  1.00  0.00     0.251 C 
ATOM     29  H   UNL A   1      31.697  34.480  27.029  1.00  0.00     0.163 HD
ATOM     30  O   UNL A   1      32.729  35.580  28.882  1.00  0.00    -0.269 OA
BRANCH  28  31
ATOM     31  C   UNL A   1      34.302  33.847  29.015  1.00  0.00     0.039 A 
ATOM     32  C   UNL A   1      34.128  32.792  29.916  1.00  0.00     0.014 A 
ATOM     33  C   UNL A   1      35.588  34.317  28.735  1.00  0.00     0.014 A 
ATOM     34  C   UNL A   1      35.239  32.184  30.503  1.00  0.00     0.010 A 
ATOM     35  C   UNL A   1      36.701  33.668  29.272  1.00  0.00     0.010 A 
ATOM     36  C   UNL A   1      36.537  32.601  30.166  1.00  0.00    -0.014 A 
BRANCH  36  37
ATOM     37  C   UNL A   1      37.719  31.906  30.735  1.00  0.00     0.031 A 
ATOM     38  C   UNL A   1      38.222  32.239  32.112  1.00  0.00     0.074 A 
ATOM     39  C   UNL A   1      38.361  30.988  29.989  1.00  0.00     0.049 A 
ATOM     40  N   UNL A   1      39.228  31.719  32.771  1.00  0.00    -0.248 NA
ATOM     41  C   UNL A   1      37.521  33.310  32.835  1.00  0.00     0.031 C 
ATOM     42  C   UNL A   1      38.007  30.619  28.617  1.00  0.00     0.029 A 
ATOM     43  N   UNL A   1      39.444  30.196  30.276  1.00  0.00    -0.354 N 
ATOM     44  C   UNL A   1      39.286  32.404  33.978  1.00  0.00     0.074 A 
ATOM     45  C   UNL A   1      38.245  33.409  33.941  1.00  0.00     0.031 C 
ATOM     46  C   UNL A   1      38.837  29.653  28.193  1.00  0.00     0.029 A 
ATOM     47  C   UNL A   1      39.796  29.353  29.251  1.00  0.00     0.049 A 
ATOM     48  H   UNL A   1      39.924  30.231  31.135  1.00  0.00     0.167 HD
ATOM     49  C   UNL A   1      40.117  32.201  35.029  1.00  0.00     0.037 A 
ATOM     50  C   UNL A   1      40.776  28.435  29.174  1.00  0.00     0.037 A 
ATOM     51  C   UNL A   1      41.138  31.186  35.072  1.00  0.00     0.049 A 
ATOM     52  C   UNL A   1      41.669  28.212  30.361  1.00  0.00     0.074 A 
ATOM     53  C   UNL A   1      41.982  30.854  36.117  1.00  0.00     0.029 A 
ATOM     54  N   UNL A   1      41.456  30.342  34.018  1.00  0.00    -0.354 N 
ATOM     55  N   UNL A   1      41.659  28.812  31.526  1.00  0.00    -0.248 NA
ATOM     56  C   UNL A   1      42.704  27.177  30.225  1.00  0.00     0.031 C 
ATOM     57  C   UNL A   1      42.838  29.835  35.682  1.00  0.00     0.029 A 
ATOM     58  C   UNL A   1      42.499  29.505  34.381  1.00  0.00     0.049 A 
ATOM     59  H   UNL A   1      41.007  30.338  33.142  1.00  0.00     0.167 HD
ATOM     60  C   UNL A   1      42.673  28.219  32.267  1.00  0.00     0.074 A 
ATOM     61  C   UNL A   1      43.262  27.196  31.427  1.00  0.00     0.031 C 
ATOM     62  C   UNL A   1      43.082  28.500  33.529  1.00  0.00     0.037 A 
BRANCH  49  63
ATOM     63  C   UNL A   1      39.952  33.095  36.224  1.00  0.00     0.057 A 
ATOM     64  C   UNL A   1      40.673  34.289  36.357  1.00  0.00     0.134 A 
ATOM     65  C   UNL A   1      39.039  32.777  37.237  1.00  0.00     0.134 A 
ATOM     66  F   UNL A   1      41.572  34.648  35.427  1.00  0.00    -0.206 F 
ATOM     67  C   UNL A   1      40.512  35.121  37.467  1.00  0.00     0.040 A 
ATOM     68  C   UNL A   1      38.850  33.613  38.339  1.00  0.00     0.040 A 
ATOM     69  F   UNL A   1      38.310  31.652  37.168  1.00  0.00    -0.206 F 
ATOM     70  C   UNL A   1      39.593  34.785  38.460  1.00  0.00     0.006 A 
ENDBRANCH  49  63
BRANCH  50  71
ATOM     71  C   UNL A   1      40.938  27.632  27.938  1.00  0.00     0.057 A 
ATOM     72  C   UNL A   1      41.727  28.093  26.878  1.00  0.00     0.134 A 
ATOM     73  C   UNL A   1      40.321  26.384  27.790  1.00  0.00     0.134 A 
ATOM     74  F   UNL A   1      42.330  29.288  26.956  1.00  0.00    -0.206 F 
ATOM     75  C   UNL A   1      41.886  27.348  25.709  1.00  0.00     0.040 A 
ATOM     76  C   UNL A   1      40.489  25.620  26.635  1.00  0.00     0.040 A 
ATOM     77  F   UNL A   1      39.560  25.885  28.775  1.00  0.00    -0.206 F 
ATOM     78  C   UNL A   1      41.270  26.104  25.587  1.00  0.00     0.006 A 
ENDBRANCH  50  71
BRANCH  62  79
ATOM     79  C   UNL A   1      44.213  27.679  34.072  1.00  0.00     0.057 A 
ATOM     80  C   UNL A   1      43.995  26.439  34.687  1.00  0.00     0.134 A 
ATOM     81  C   UNL A   1      45.537  28.125  33.965  1.00  0.00     0.134 A 
ATOM     82  F   UNL A   1      42.749  25.963  34.833  1.00  0.00    -0.206 F 
ATOM     83  C   UNL A   1      45.050  25.686  35.203  1.00  0.00     0.040 A 
ATOM     84  C   UNL A   1      46.602  27.369  34.456  1.00  0.00     0.040 A 
ATOM     85  F   UNL A   1      45.815  29.300  33.381  1.00  0.00    -0.206 F 
ATOM     86  C   UNL A   1      46.359  26.148  35.083  1.00  0.00     0.006 A 
ENDBRANCH  62  79
ENDBRANCH  36  37
ENDBRANCH  28  31
ENDBRANCH  26  27
ENDBRANCH  25  26
ENDBRANCH   1  25
TORSDOF 14
ENDMDL
MODEL 3
REMARK VINA RESULT:     -11.1      4.355      8.862
REMARK SMILES C[C@@H]1[C@H](C)CCC[C@@H]1NC(=O)COc1csc(C(=O)NCCCNC(=O)c2ccc(-c3c4nc(c(-c5c(F)cccc5F)c5ccc([nH]5)c(-c5c(F)cccc5F)c5nc(c(-c6c(F)cccc6F)c6ccc3[nH]6)C=C5)C=C4)cc2)c1
REMARK SMILES IDX 21 1 20 2 18 3 19 4 17 6 14 7 15 8 81 9 16 10 13 11 12 12
REMARK SMILES IDX 10 13 9 14 11 16 8 17 1 18 2 19 3 20 4 21 5 22 7 23 6 24
REMARK SMILES IDX 22 25 23 26 24 27 25 28 26 30 27 31 28 32 80 33 29 34 79 35
REMARK SMILES IDX 30 36 31 37 32 38 73 39 33 40 78 41 72 42 74 43 34 44 77 45
REMARK SMILES IDX 71 46 70 47 35 49 61 50 44 51 60 52 45 53 48 54 59 55 75 56
REMARK SMILES IDX 46 57 47 58 58 60 76 61 49 62 36 63 37 64 42 65 38 66 39 67
REMARK SMILES IDX 41 68 43 69 40 70 62 71 63 72 68 73 64 74 65 75 67 76 69 77
REMARK SMILES IDX 66 78 50 79 51 80 56 81 52 82 53 83 55 84 57 85 54 86
REMARK H PARENT 20 5 9 15 24 29 74 48 48 59
REMARK Flexibility Score: inf
ROOT
ATOM      1  C   UNL A   1      36.789  22.107  25.335  1.00  0.00     0.118 C 
ENDROOT
BRANCH   1   2
ATOM      2  N   UNL A   1      35.938  21.843  26.478  1.00  0.00    -0.351 N 
ATOM      3  C   UNL A   1      34.583  21.631  26.588  1.00  0.00     0.261 C 
ATOM      4  O   UNL A   1      34.192  21.370  27.729  1.00  0.00    -0.268 OA
ATOM      5  H   UNL A   1      36.419  21.809  27.336  1.00  0.00     0.163 HD
BRANCH   3   6
ATOM      6  C   UNL A   1      33.704  21.681  25.428  1.00  0.00     0.096 A 
ATOM      7  C   UNL A   1      32.495  22.284  23.518  1.00  0.00     0.131 A 
ATOM      8  C   UNL A   1      32.269  20.930  23.543  1.00  0.00     0.112 A 
ATOM      9  C   UNL A   1      33.275  22.720  24.623  1.00  0.00     0.072 A 
ATOM     10  S   UNL A   1      33.006  20.193  24.896  1.00  0.00    -0.135 S 
BRANCH   7  11
ATOM     11  O   UNL A   1      32.146  23.119  22.510  1.00  0.00    -0.483 OA
BRANCH  11  12
ATOM     12  C   UNL A   1      33.215  23.875  21.976  1.00  0.00     0.329 C 
BRANCH  12  13
ATOM     13  C   UNL A   1      32.955  25.266  21.387  1.00  0.00     0.258 C 
ATOM     14  N   UNL A   1      32.686  26.335  22.187  1.00  0.00    -0.350 N 
ATOM     15  H   UNL A   1      32.485  27.170  21.704  1.00  0.00     0.163 HD
ATOM     16  O   UNL A   1      32.931  25.439  20.165  1.00  0.00    -0.271 OA
BRANCH  14  17
ATOM     17  C   UNL A   1      32.648  26.448  23.644  1.00  0.00     0.085 C 
ATOM     18  C   UNL A   1      32.926  28.992  23.487  1.00  0.00     0.010 C 
ATOM     19  C   UNL A   1      32.151  27.832  24.133  1.00  0.00     0.011 C 
ATOM     20  C   UNL A   1      32.175  27.871  25.686  1.00  0.00    -0.009 C 
ATOM     21  C   UNL A   1      31.688  29.202  26.262  1.00  0.00     0.008 C 
ATOM     22  C   UNL A   1      33.559  27.519  26.253  1.00  0.00     0.004 C 
ATOM     23  C   UNL A   1      34.029  26.096  24.219  1.00  0.00     0.025 C 
ATOM     24  C   UNL A   1      34.050  26.170  25.740  1.00  0.00     0.002 C 
ENDBRANCH  14  17
ENDBRANCH  12  13
ENDBRANCH  11  12
ENDBRANCH   7  11
ENDBRANCH   3   6
ENDBRANCH   1   2
BRANCH   1  25
ATOM     25  C   UNL A   1      37.133  23.592  25.225  1.00  0.00     0.042 C 
BRANCH  25  26
ATOM     26  C   UNL A   1      38.015  24.100  26.367  1.00  0.00     0.118 C 
BRANCH  26  27
ATOM     27  N   UNL A   1      39.432  23.950  26.069  1.00  0.00    -0.352 N 
ATOM     28  C   UNL A   1      40.516  24.689  26.466  1.00  0.00     0.251 C 
ATOM     29  H   UNL A   1      39.649  23.188  25.483  1.00  0.00     0.163 HD
ATOM     30  O   UNL A   1      41.595  24.508  25.906  1.00  0.00    -0.269 OA
BRANCH  28  31
ATOM     31  C   UNL A   1      40.413  25.698  27.545  1.00  0.00     0.039 A 
ATOM     32  C   UNL A   1      41.278  26.796  27.505  1.00  0.00     0.014 A 
ATOM     33  C   UNL A   1      39.543  25.539  28.626  1.00  0.00     0.014 A 
ATOM     34  C   UNL A   1      41.243  27.751  28.522  1.00  0.00     0.010 A 
ATOM     35  C   UNL A   1      39.462  26.526  29.610  1.00  0.00     0.010 A 
ATOM     36  C   UNL A   1      40.316  27.637  29.571  1.00  0.00    -0.014 A 
BRANCH  36  37
ATOM     37  C   UNL A   1      40.231  28.690  30.613  1.00  0.00     0.031 A 
ATOM     38  C   UNL A   1      39.213  29.792  30.516  1.00  0.00     0.074 A 
ATOM     39  C   UNL A   1      41.100  28.667  31.641  1.00  0.00     0.049 A 
ATOM     40  N   UNL A   1      38.987  30.782  31.345  1.00  0.00    -0.248 NA
ATOM     41  C   UNL A   1      38.353  29.800  29.325  1.00  0.00     0.031 C 
ATOM     42  C   UNL A   1      42.172  27.684  31.816  1.00  0.00     0.029 A 
ATOM     43  N   UNL A   1      41.222  29.489  32.732  1.00  0.00    -0.354 N 
ATOM     44  C   UNL A   1      37.968  31.532  30.772  1.00  0.00     0.074 A 
ATOM     45  C   UNL A   1      37.652  30.911  29.503  1.00  0.00     0.031 C 
ATOM     46  C   UNL A   1      42.822  27.943  32.961  1.00  0.00     0.029 A 
ATOM     47  C   UNL A   1      42.232  29.121  33.587  1.00  0.00     0.049 A 
ATOM     48  H   UNL A   1      40.642  30.270  32.886  1.00  0.00     0.167 HD
ATOM     49  C   UNL A   1      37.339  32.626  31.267  1.00  0.00     0.037 A 
ATOM     50  C   UNL A   1      42.632  29.667  34.749  1.00  0.00     0.037 A 
ATOM     51  C   UNL A   1      37.641  33.228  32.539  1.00  0.00     0.049 A 
ATOM     52  C   UNL A   1      41.904  30.865  35.289  1.00  0.00     0.074 A 
ATOM     53  C   UNL A   1      37.012  34.294  33.161  1.00  0.00     0.029 A 
ATOM     54  N   UNL A   1      38.662  32.820  33.385  1.00  0.00    -0.354 N 
ATOM     55  N   UNL A   1      40.889  31.515  34.774  1.00  0.00    -0.248 NA
ATOM     56  C   UNL A   1      42.372  31.399  36.575  1.00  0.00     0.031 C 
ATOM     57  C   UNL A   1      37.679  34.554  34.364  1.00  0.00     0.029 A 
ATOM     58  C   UNL A   1      38.695  33.626  34.511  1.00  0.00     0.049 A 
ATOM     59  H   UNL A   1      39.273  32.068  33.209  1.00  0.00     0.167 HD
ATOM     60  C   UNL A   1      40.586  32.524  35.678  1.00  0.00     0.074 A 
ATOM     61  C   UNL A   1      41.511  32.385  36.785  1.00  0.00     0.031 C 
ATOM     62  C   UNL A   1      39.630  33.482  35.598  1.00  0.00     0.037 A 
BRANCH  49  63
ATOM     63  C   UNL A   1      36.257  33.239  30.427  1.00  0.00     0.057 A 
ATOM     64  C   UNL A   1      36.549  34.066  29.334  1.00  0.00     0.134 A 
ATOM     65  C   UNL A   1      34.907  32.976  30.693  1.00  0.00     0.134 A 
ATOM     66  F   UNL A   1      37.822  34.366  29.031  1.00  0.00    -0.206 F 
ATOM     67  C   UNL A   1      35.539  34.629  28.552  1.00  0.00     0.040 A 
ATOM     68  C   UNL A   1      33.888  33.513  29.903  1.00  0.00     0.040 A 
ATOM     69  F   UNL A   1      34.557  32.187  31.720  1.00  0.00    -0.206 F 
ATOM     70  C   UNL A   1      34.203  34.348  28.833  1.00  0.00     0.006 A 
ENDBRANCH  49  63
BRANCH  50  71
ATOM     71  C   UNL A   1      43.759  29.060  35.499  1.00  0.00     0.057 A 
ATOM     72  C   UNL A   1      43.534  28.061  36.454  1.00  0.00     0.134 A 
ATOM     73  C   UNL A   1      45.083  29.452  35.272  1.00  0.00     0.134 A 
ATOM     74  F   UNL A   1      42.284  27.657  36.725  1.00  0.00    -0.206 F 
ATOM     75  C   UNL A   1      44.584  27.484  37.167  1.00  0.00     0.040 A 
ATOM     76  C   UNL A   1      46.145  28.867  35.963  1.00  0.00     0.040 A 
ATOM     77  F   UNL A   1      45.363  30.397  34.364  1.00  0.00    -0.206 F 
ATOM     78  C   UNL A   1      45.897  27.883  36.918  1.00  0.00     0.006 A 
ENDBRANCH  50  71
BRANCH  62  79
ATOM     79  C   UNL A   1      39.538  34.444  36.744  1.00  0.00     0.057 A 
ATOM     80  C   UNL A   1      40.161  35.699  36.704  1.00  0.00     0.134 A 
ATOM     81  C   UNL A   1      38.807  34.121  37.895  1.00  0.00     0.134 A 
ATOM     82  F   UNL A   1      40.888  36.062  35.636  1.00  0.00    -0.206 F 
ATOM     83  C   UNL A   1      40.084  36.585  37.778  1.00  0.00     0.040 A 
ATOM     84  C   UNL A   1      38.703  35.009  38.965  1.00  0.00     0.040 A 
ATOM     85  F   UNL A   1      38.181  32.938  37.994  1.00  0.00    -0.206 F 
ATOM     86  C   UNL A   1      39.349  36.243  38.911  1.00  0.00     0.006 A 
ENDBRANCH  62  79
ENDBRANCH  36  37
ENDBRANCH  28  31
ENDBRANCH  26  27
ENDBRANCH  25  26
ENDBRANCH   1  25
TORSDOF 14
ENDMDL
