MODEL 1
REMARK VINA RESULT:     -14.1      0.000      0.000
REMARK SMILES Cc1nccn1C1(C(=O)NCCCNC(=O)c2ccc(-c3c4nc(c(-c5c(F)cccc5F)c5ccc([nH]5)c(-c5c(F)cccc5F)c5nc(c(-c6c(F)cccc6F)c6ccc3[nH]6)C=C5)C=C4)cc2)CCN(C(=O)[C@@H]2C[C@H]2c2ccccc2)CC1
REMARK SMILES IDX 12 1 11 2 10 3 8 4 9 5 7 7 71 8 86 9 72 10 85 11 73 12 74 13
REMARK SMILES IDX 75 14 6 15 1 16 2 17 3 18 4 19 5 20 76 21 77 22 78 23 79 24
REMARK SMILES IDX 80 25 84 26 81 27 83 28 82 29 13 30 14 31 15 32 16 34 17 35
REMARK SMILES IDX 18 36 70 37 19 38 69 39 20 40 21 41 22 42 63 43 23 44 68 45
REMARK SMILES IDX 62 46 64 47 24 48 67 49 61 50 60 51 25 53 51 54 34 55 50 56
REMARK SMILES IDX 35 57 38 58 49 59 65 60 36 61 37 62 48 64 66 65 39 66 26 67
REMARK SMILES IDX 27 68 32 69 28 70 29 71 31 72 33 73 30 74 52 75 53 76 58 77
REMARK SMILES IDX 54 78 55 79 57 80 59 81 56 82 40 83 41 84 46 85 42 86 43 87
REMARK SMILES IDX 45 88 47 89 44 90
REMARK H PARENT 10 6 14 33 64 52 38 63
REMARK Flexibility Score: inf
ROOT
ATOM      1  C   UNL A   1      31.392  31.316  26.309  1.00  0.00     0.042 C 
ENDROOT
BRANCH   1   2
ATOM      2  C   UNL A   1      31.844  30.075  25.542  1.00  0.00     0.117 C 
BRANCH   2   3
ATOM      3  N   UNL A   1      31.659  28.833  26.292  1.00  0.00    -0.354 N 
ATOM      4  C   UNL A   1      31.436  27.525  25.924  1.00  0.00     0.246 C 
ATOM      5  O   UNL A   1      31.253  26.790  26.896  1.00  0.00    -0.272 OA
ATOM      6  H   UNL A   1      31.703  28.959  27.267  1.00  0.00     0.163 HD
BRANCH   4   7
ATOM      7  C   UNL A   1      31.411  27.066  24.401  1.00  0.00     0.127 C 
ATOM      8  C   UNL A   1      32.908  27.055  23.999  1.00  0.00     0.061 C 
ATOM      9  C   UNL A   1      30.698  25.696  24.442  1.00  0.00     0.061 C 
ATOM     10  C   UNL A   1      33.369  25.909  23.114  1.00  0.00     0.122 C 
ATOM     11  C   UNL A   1      31.176  24.823  23.320  1.00  0.00     0.122 C 
ATOM     12  N   UNL A   1      32.618  24.666  23.306  1.00  0.00    -0.342 N 
ATOM     13  C   UNL A   1      33.326  23.467  23.160  1.00  0.00     0.226 C 
ATOM     14  O   UNL A   1      34.513  23.474  22.838  1.00  0.00    -0.275 OA
BRANCH   7  15
ATOM     15  N   UNL A   1      30.646  27.961  23.427  1.00  0.00    -0.320 N 
ATOM     16  C   UNL A   1      28.018  27.448  23.651  1.00  0.00     0.087 C 
ATOM     17  C   UNL A   1      29.265  28.075  23.114  1.00  0.00     0.106 A 
ATOM     18  N   UNL A   1      29.070  28.997  22.190  1.00  0.00    -0.242 NA
ATOM     19  C   UNL A   1      30.267  29.531  21.901  1.00  0.00     0.131 A 
ATOM     20  C   UNL A   1      31.242  28.929  22.641  1.00  0.00     0.108 A 
ENDBRANCH   7  15
BRANCH  13  21
ATOM     21  C   UNL A   1      32.725  22.118  23.422  1.00  0.00     0.087 C 
ATOM     22  C   UNL A   1      31.999  21.877  24.726  1.00  0.00     0.023 C 
ATOM     23  C   UNL A   1      33.224  21.073  24.369  1.00  0.00     0.032 C 
BRANCH  23  24
ATOM     24  C   UNL A   1      33.221  19.597  24.186  1.00  0.00    -0.044 A 
ATOM     25  C   UNL A   1      34.308  18.833  24.636  1.00  0.00     0.004 A 
ATOM     26  C   UNL A   1      32.364  19.044  23.222  1.00  0.00     0.004 A 
ATOM     27  C   UNL A   1      34.581  17.588  24.074  1.00  0.00     0.000 A 
ATOM     28  C   UNL A   1      32.640  17.804  22.653  1.00  0.00     0.000 A 
ATOM     29  C   UNL A   1      33.760  17.087  23.067  1.00  0.00     0.000 A 
ENDBRANCH  23  24
ENDBRANCH  13  21
ENDBRANCH   4   7
ENDBRANCH   2   3
ENDBRANCH   1   2
BRANCH   1  30
ATOM     30  C   UNL A   1      32.474  31.866  27.212  1.00  0.00     0.118 C 
BRANCH  30  31
ATOM     31  N   UNL A   1      32.377  33.315  27.412  1.00  0.00    -0.352 N 
ATOM     32  C   UNL A   1      33.038  34.064  28.364  1.00  0.00     0.251 C 
ATOM     33  H   UNL A   1      31.777  33.805  26.804  1.00  0.00     0.163 HD
ATOM     34  O   UNL A   1      32.623  35.186  28.694  1.00  0.00    -0.269 OA
BRANCH  32  35
ATOM     35  C   UNL A   1      34.309  33.547  28.893  1.00  0.00     0.039 A 
ATOM     36  C   UNL A   1      34.464  32.757  30.033  1.00  0.00     0.014 A 
ATOM     37  C   UNL A   1      35.439  33.945  28.202  1.00  0.00     0.014 A 
ATOM     38  C   UNL A   1      35.775  32.425  30.431  1.00  0.00     0.010 A 
ATOM     39  C   UNL A   1      36.556  33.183  28.325  1.00  0.00     0.010 A 
ATOM     40  C   UNL A   1      36.864  32.752  29.591  1.00  0.00    -0.014 A 
BRANCH  40  41
ATOM     41  C   UNL A   1      38.230  32.206  29.682  1.00  0.00     0.031 A 
ATOM     42  C   UNL A   1      38.186  30.792  29.166  1.00  0.00     0.074 A 
ATOM     43  C   UNL A   1      39.341  32.957  30.002  1.00  0.00     0.049 A 
ATOM     44  N   UNL A   1      38.060  29.736  29.905  1.00  0.00    -0.248 NA
ATOM     45  C   UNL A   1      37.873  30.491  27.742  1.00  0.00     0.031 C 
ATOM     46  C   UNL A   1      39.453  34.402  30.307  1.00  0.00     0.029 A 
ATOM     47  N   UNL A   1      40.671  32.577  30.137  1.00  0.00    -0.354 N 
ATOM     48  C   UNL A   1      38.086  28.656  29.026  1.00  0.00     0.074 A 
ATOM     49  C   UNL A   1      37.645  29.172  27.770  1.00  0.00     0.031 C 
ATOM     50  C   UNL A   1      40.756  34.804  30.318  1.00  0.00     0.029 A 
ATOM     51  C   UNL A   1      41.621  33.650  30.172  1.00  0.00     0.049 A 
ATOM     52  H   UNL A   1      40.944  31.633  30.205  1.00  0.00     0.167 HD
ATOM     53  C   UNL A   1      38.885  27.591  29.319  1.00  0.00     0.037 A 
ATOM     54  C   UNL A   1      43.000  33.556  30.183  1.00  0.00     0.037 A 
ATOM     55  C   UNL A   1      39.260  27.675  30.714  1.00  0.00     0.049 A 
ATOM     56  C   UNL A   1      43.323  32.165  30.597  1.00  0.00     0.074 A 
ATOM     57  C   UNL A   1      38.583  27.662  31.915  1.00  0.00     0.029 A 
ATOM     58  N   UNL A   1      40.429  28.357  30.921  1.00  0.00    -0.354 N 
ATOM     59  N   UNL A   1      43.033  31.710  31.784  1.00  0.00    -0.248 NA
ATOM     60  C   UNL A   1      43.345  31.198  29.511  1.00  0.00     0.031 C 
ATOM     61  C   UNL A   1      39.221  28.657  32.717  1.00  0.00     0.029 A 
ATOM     62  C   UNL A   1      40.368  29.101  32.063  1.00  0.00     0.049 A 
ATOM     63  H   UNL A   1      41.211  28.315  30.326  1.00  0.00     0.167 HD
ATOM     64  C   UNL A   1      42.324  30.551  31.519  1.00  0.00     0.074 A 
ATOM     65  C   UNL A   1      42.550  30.291  30.086  1.00  0.00     0.031 C 
ATOM     66  C   UNL A   1      41.342  30.121  32.369  1.00  0.00     0.037 A 
BRANCH  53  67
ATOM     67  C   UNL A   1      39.768  26.854  28.318  1.00  0.00     0.057 A 
ATOM     68  C   UNL A   1      40.640  27.618  27.515  1.00  0.00     0.134 A 
ATOM     69  C   UNL A   1      39.604  25.519  27.892  1.00  0.00     0.134 A 
ATOM     70  F   UNL A   1      40.879  28.907  27.797  1.00  0.00    -0.206 F 
ATOM     71  C   UNL A   1      41.235  27.119  26.348  1.00  0.00     0.040 A 
ATOM     72  C   UNL A   1      40.228  24.997  26.750  1.00  0.00     0.040 A 
ATOM     73  F   UNL A   1      38.772  24.660  28.490  1.00  0.00    -0.206 F 
ATOM     74  C   UNL A   1      41.026  25.804  25.958  1.00  0.00     0.006 A 
ENDBRANCH  53  67
BRANCH  54  75
ATOM     75  C   UNL A   1      44.073  34.379  29.516  1.00  0.00     0.057 A 
ATOM     76  C   UNL A   1      45.397  34.524  30.005  1.00  0.00     0.134 A 
ATOM     77  C   UNL A   1      43.903  34.761  28.179  1.00  0.00     0.134 A 
ATOM     78  F   UNL A   1      45.719  34.130  31.246  1.00  0.00    -0.206 F 
ATOM     79  C   UNL A   1      46.460  35.016  29.212  1.00  0.00     0.040 A 
ATOM     80  C   UNL A   1      44.953  35.238  27.376  1.00  0.00     0.040 A 
ATOM     81  F   UNL A   1      42.721  34.585  27.575  1.00  0.00    -0.206 F 
ATOM     82  C   UNL A   1      46.239  35.363  27.883  1.00  0.00     0.006 A 
ENDBRANCH  54  75
BRANCH  66  83
ATOM     83  C   UNL A   1      41.214  30.787  33.714  1.00  0.00     0.057 A 
ATOM     84  C   UNL A   1      40.339  31.839  34.038  1.00  0.00     0.134 A 
ATOM     85  C   UNL A   1      41.911  30.204  34.775  1.00  0.00     0.134 A 
ATOM     86  F   UNL A   1      39.545  32.393  33.112  1.00  0.00    -0.206 F 
ATOM     87  C   UNL A   1      40.206  32.311  35.352  1.00  0.00     0.040 A 
ATOM     88  C   UNL A   1      41.764  30.640  36.090  1.00  0.00     0.040 A 
ATOM     89  F   UNL A   1      42.705  29.146  34.551  1.00  0.00    -0.206 F 
ATOM     90  C   UNL A   1      40.923  31.708  36.383  1.00  0.00     0.006 A 
ENDBRANCH  66  83
ENDBRANCH  40  41
ENDBRANCH  32  35
ENDBRANCH  30  31
ENDBRANCH   1  30
TORSDOF 13
ENDMDL
MODEL 2
REMARK VINA RESULT:     -13.4      2.880      6.641
REMARK SMILES Cc1nccn1C1(C(=O)NCCCNC(=O)c2ccc(-c3c4nc(c(-c5c(F)cccc5F)c5ccc([nH]5)c(-c5c(F)cccc5F)c5nc(c(-c6c(F)cccc6F)c6ccc3[nH]6)C=C5)C=C4)cc2)CCN(C(=O)[C@@H]2C[C@H]2c2ccccc2)CC1
REMARK SMILES IDX 12 1 11 2 10 3 8 4 9 5 7 7 71 8 86 9 72 10 85 11 73 12 74 13
REMARK SMILES IDX 75 14 6 15 1 16 2 17 3 18 4 19 5 20 76 21 77 22 78 23 79 24
REMARK SMILES IDX 80 25 84 26 81 27 83 28 82 29 13 30 14 31 15 32 16 34 17 35
REMARK SMILES IDX 18 36 70 37 19 38 69 39 20 40 21 41 22 42 63 43 23 44 68 45
REMARK SMILES IDX 62 46 64 47 24 48 67 49 61 50 60 51 25 53 51 54 34 55 50 56
REMARK SMILES IDX 35 57 38 58 49 59 65 60 36 61 37 62 48 64 66 65 39 66 26 67
REMARK SMILES IDX 27 68 32 69 28 70 29 71 31 72 33 73 30 74 52 75 53 76 58 77
REMARK SMILES IDX 54 78 55 79 57 80 59 81 56 82 40 83 41 84 46 85 42 86 43 87
REMARK SMILES IDX 45 88 47 89 44 90
REMARK H PARENT 10 6 14 33 64 52 38 63
REMARK Flexibility Score: inf
ROOT
ATOM      1  C   UNL A   1      32.812  30.425  26.885  1.00  0.00     0.042 C 
ENDROOT
BRANCH   1   2
ATOM      2  C   UNL A   1      32.674  29.092  26.152  1.00  0.00     0.117 C 
BRANCH   2   3
ATOM      3  N   UNL A   1      33.366  29.067  24.863  1.00  0.00    -0.354 N 
ATOM      4  C   UNL A   1      33.708  28.062  23.987  1.00  0.00     0.246 C 
ATOM      5  O   UNL A   1      34.372  28.476  23.035  1.00  0.00    -0.272 OA
ATOM      6  H   UNL A   1      33.647  29.960  24.557  1.00  0.00     0.163 HD
BRANCH   4   7
ATOM      7  C   UNL A   1      33.284  26.548  24.229  1.00  0.00     0.127 C 
ATOM      8  C   UNL A   1      33.469  25.891  22.836  1.00  0.00     0.061 C 
ATOM      9  C   UNL A   1      34.238  26.074  25.347  1.00  0.00     0.061 C 
ATOM     10  C   UNL A   1      34.062  24.492  22.814  1.00  0.00     0.122 C 
ATOM     11  C   UNL A   1      34.489  24.599  25.230  1.00  0.00     0.122 C 
ATOM     12  N   UNL A   1      34.981  24.215  23.921  1.00  0.00    -0.342 N 
ATOM     13  C   UNL A   1      36.065  23.370  23.650  1.00  0.00     0.226 C 
ATOM     14  O   UNL A   1      36.197  22.855  22.542  1.00  0.00    -0.275 OA
BRANCH   7  15
ATOM     15  N   UNL A   1      31.852  26.303  24.702  1.00  0.00    -0.320 N 
ATOM     16  C   UNL A   1      30.152  27.463  22.975  1.00  0.00     0.087 C 
ATOM     17  C   UNL A   1      30.591  26.714  24.193  1.00  0.00     0.106 A 
ATOM     18  N   UNL A   1      29.610  26.259  24.950  1.00  0.00    -0.242 NA
ATOM     19  C   UNL A   1      30.168  25.525  25.927  1.00  0.00     0.131 A 
ATOM     20  C   UNL A   1      31.526  25.526  25.797  1.00  0.00     0.108 A 
ENDBRANCH   7  15
BRANCH  13  21
ATOM     21  C   UNL A   1      37.146  23.072  24.647  1.00  0.00     0.087 C 
ATOM     22  C   UNL A   1      36.768  22.501  25.994  1.00  0.00     0.023 C 
ATOM     23  C   UNL A   1      37.463  23.835  25.893  1.00  0.00     0.032 C 
BRANCH  23  24
ATOM     24  C   UNL A   1      38.802  24.116  26.477  1.00  0.00    -0.044 A 
ATOM     25  C   UNL A   1      39.686  23.060  26.743  1.00  0.00     0.004 A 
ATOM     26  C   UNL A   1      39.003  25.341  27.132  1.00  0.00     0.004 A 
ATOM     27  C   UNL A   1      40.689  23.197  27.700  1.00  0.00     0.000 A 
ATOM     28  C   UNL A   1      39.998  25.477  28.096  1.00  0.00     0.000 A 
ATOM     29  C   UNL A   1      40.827  24.398  28.391  1.00  0.00     0.000 A 
ENDBRANCH  23  24
ENDBRANCH  13  21
ENDBRANCH   4   7
ENDBRANCH   2   3
ENDBRANCH   1   2
BRANCH   1  30
ATOM     30  C   UNL A   1      34.114  30.536  27.646  1.00  0.00     0.118 C 
BRANCH  30  31
ATOM     31  N   UNL A   1      34.624  31.908  27.720  1.00  0.00    -0.352 N 
ATOM     32  C   UNL A   1      35.821  32.317  28.273  1.00  0.00     0.251 C 
ATOM     33  H   UNL A   1      34.054  32.612  27.335  1.00  0.00     0.163 HD
ATOM     34  O   UNL A   1      35.993  33.495  28.620  1.00  0.00    -0.269 OA
BRANCH  32  35
ATOM     35  C   UNL A   1      36.923  31.345  28.337  1.00  0.00     0.039 A 
ATOM     36  C   UNL A   1      37.028  30.171  27.591  1.00  0.00     0.014 A 
ATOM     37  C   UNL A   1      37.902  31.628  29.272  1.00  0.00     0.014 A 
ATOM     38  C   UNL A   1      38.122  29.321  27.850  1.00  0.00     0.010 A 
ATOM     39  C   UNL A   1      39.128  31.073  29.091  1.00  0.00     0.010 A 
ATOM     40  C   UNL A   1      39.150  29.752  28.720  1.00  0.00    -0.014 A 
BRANCH  40  41
ATOM     41  C   UNL A   1      40.493  29.155  28.846  1.00  0.00     0.031 A 
ATOM     42  C   UNL A   1      40.744  28.916  30.311  1.00  0.00     0.074 A 
ATOM     43  C   UNL A   1      41.252  28.734  27.775  1.00  0.00     0.049 A 
ATOM     44  N   UNL A   1      41.382  29.725  31.096  1.00  0.00    -0.248 NA
ATOM     45  C   UNL A   1      39.942  27.934  31.090  1.00  0.00     0.031 C 
ATOM     46  C   UNL A   1      40.945  28.757  26.327  1.00  0.00     0.029 A 
ATOM     47  N   UNL A   1      42.524  28.174  27.744  1.00  0.00    -0.354 N 
ATOM     48  C   UNL A   1      41.397  29.106  32.344  1.00  0.00     0.074 A 
ATOM     49  C   UNL A   1      40.265  28.236  32.354  1.00  0.00     0.031 C 
ATOM     50  C   UNL A   1      41.845  28.015  25.619  1.00  0.00     0.029 A 
ATOM     51  C   UNL A   1      42.901  27.564  26.503  1.00  0.00     0.049 A 
ATOM     52  H   UNL A   1      43.127  28.195  28.523  1.00  0.00     0.167 HD
ATOM     53  C   UNL A   1      42.572  29.045  33.032  1.00  0.00     0.037 A 
ATOM     54  C   UNL A   1      44.048  26.840  26.233  1.00  0.00     0.037 A 
ATOM     55  C   UNL A   1      43.492  29.996  32.445  1.00  0.00     0.049 A 
ATOM     56  C   UNL A   1      45.019  27.175  27.307  1.00  0.00     0.074 A 
ATOM     57  C   UNL A   1      43.513  31.364  32.275  1.00  0.00     0.029 A 
ATOM     58  N   UNL A   1      44.271  29.457  31.456  1.00  0.00    -0.354 N 
ATOM     59  N   UNL A   1      45.510  28.375  27.449  1.00  0.00    -0.248 NA
ATOM     60  C   UNL A   1      44.892  26.372  28.513  1.00  0.00     0.031 C 
ATOM     61  C   UNL A   1      44.026  31.571  30.958  1.00  0.00     0.029 A 
ATOM     62  C   UNL A   1      44.477  30.354  30.449  1.00  0.00     0.049 A 
ATOM     63  H   UNL A   1      44.636  28.544  31.471  1.00  0.00     0.167 HD
ATOM     64  C   UNL A   1      45.250  28.674  28.776  1.00  0.00     0.074 A 
ATOM     65  C   UNL A   1      44.860  27.388  29.381  1.00  0.00     0.031 C 
ATOM     66  C   UNL A   1      45.019  29.963  29.170  1.00  0.00     0.037 A 
BRANCH  53  67
ATOM     67  C   UNL A   1      43.089  27.822  33.780  1.00  0.00     0.057 A 
ATOM     68  C   UNL A   1      43.408  27.966  35.146  1.00  0.00     0.134 A 
ATOM     69  C   UNL A   1      43.565  26.630  33.194  1.00  0.00     0.134 A 
ATOM     70  F   UNL A   1      43.028  29.058  35.827  1.00  0.00    -0.206 F 
ATOM     71  C   UNL A   1      44.197  27.044  35.846  1.00  0.00     0.040 A 
ATOM     72  C   UNL A   1      44.320  25.680  33.897  1.00  0.00     0.040 A 
ATOM     73  F   UNL A   1      43.413  26.344  31.897  1.00  0.00    -0.206 F 
ATOM     74  C   UNL A   1      44.662  25.897  35.220  1.00  0.00     0.006 A 
ENDBRANCH  53  67
BRANCH  54  75
ATOM     75  C   UNL A   1      44.290  25.608  25.399  1.00  0.00     0.057 A 
ATOM     76  C   UNL A   1      45.572  25.081  25.095  1.00  0.00     0.134 A 
ATOM     77  C   UNL A   1      43.229  24.722  25.172  1.00  0.00     0.134 A 
ATOM     78  F   UNL A   1      46.683  25.794  25.331  1.00  0.00    -0.206 F 
ATOM     79  C   UNL A   1      45.766  23.768  24.603  1.00  0.00     0.040 A 
ATOM     80  C   UNL A   1      43.409  23.412  24.697  1.00  0.00     0.040 A 
ATOM     81  F   UNL A   1      41.980  25.069  25.506  1.00  0.00    -0.206 F 
ATOM     82  C   UNL A   1      44.678  22.923  24.415  1.00  0.00     0.006 A 
ENDBRANCH  54  75
BRANCH  66  83
ATOM     83  C   UNL A   1      45.295  31.075  28.192  1.00  0.00     0.057 A 
ATOM     84  C   UNL A   1      44.372  31.631  27.288  1.00  0.00     0.134 A 
ATOM     85  C   UNL A   1      46.529  31.719  28.302  1.00  0.00     0.134 A 
ATOM     86  F   UNL A   1      43.124  31.154  27.187  1.00  0.00    -0.206 F 
ATOM     87  C   UNL A   1      44.691  32.747  26.501  1.00  0.00     0.040 A 
ATOM     88  C   UNL A   1      46.847  32.849  27.551  1.00  0.00     0.040 A 
ATOM     89  F   UNL A   1      47.429  31.290  29.199  1.00  0.00    -0.206 F 
ATOM     90  C   UNL A   1      45.935  33.359  26.633  1.00  0.00     0.006 A 
ENDBRANCH  66  83
ENDBRANCH  40  41
ENDBRANCH  32  35
ENDBRANCH  30  31
ENDBRANCH   1  30
TORSDOF 13
ENDMDL
MODEL 3
REMARK VINA RESULT:     -13.2      2.375      6.170
REMARK SMILES Cc1nccn1C1(C(=O)NCCCNC(=O)c2ccc(-c3c4nc(c(-c5c(F)cccc5F)c5ccc([nH]5)c(-c5c(F)cccc5F)c5nc(c(-c6c(F)cccc6F)c6ccc3[nH]6)C=C5)C=C4)cc2)CCN(C(=O)[C@@H]2C[C@H]2c2ccccc2)CC1
REMARK SMILES IDX 12 1 11 2 10 3 8 4 9 5 7 7 71 8 86 9 72 10 85 11 73 12 74 13
REMARK SMILES IDX 75 14 6 15 1 16 2 17 3 18 4 19 5 20 76 21 77 22 78 23 79 24
REMARK SMILES IDX 80 25 84 26 81 27 83 28 82 29 13 30 14 31 15 32 16 34 17 35
REMARK SMILES IDX 18 36 70 37 19 38 69 39 20 40 21 41 22 42 63 43 23 44 68 45
REMARK SMILES IDX 62 46 64 47 24 48 67 49 61 50 60 51 25 53 51 54 34 55 50 56
REMARK SMILES IDX 35 57 38 58 49 59 65 60 36 61 37 62 48 64 66 65 39 66 26 67
REMARK SMILES IDX 27 68 32 69 28 70 29 71 31 72 33 73 30 74 52 75 53 76 58 77
REMARK SMILES IDX 54 78 55 79 57 80 59 81 56 82 40 83 41 84 46 85 42 86 43 87
REMARK SMILES IDX 45 88 47 89 44 90
REMARK H PARENT 10 6 14 33 64 52 38 63
REMARK Flexibility Score: inf
ROOT
ATOM      1  C   UNL A   1      33.212  30.707  26.863  1.00  0.00     0.042 C 
ENDROOT
BRANCH   1   2
ATOM      2  C   UNL A   1      33.168  29.374  26.119  1.00  0.00     0.117 C 
BRANCH   2   3
ATOM      3  N   UNL A   1      32.265  28.400  26.731  1.00  0.00    -0.354 N 
ATOM      4  C   UNL A   1      31.539  27.338  26.242  1.00  0.00     0.246 C 
ATOM      5  O   UNL A   1      30.829  26.819  27.104  1.00  0.00    -0.272 OA
ATOM      6  H   UNL A   1      32.152  28.532  27.700  1.00  0.00     0.163 HD
BRANCH   4   7
ATOM      7  C   UNL A   1      31.628  26.880  24.721  1.00  0.00     0.127 C 
ATOM      8  C   UNL A   1      33.153  26.852  24.438  1.00  0.00     0.061 C 
ATOM      9  C   UNL A   1      30.899  25.518  24.704  1.00  0.00     0.061 C 
ATOM     10  C   UNL A   1      33.670  25.701  23.591  1.00  0.00     0.122 C 
ATOM     11  C   UNL A   1      31.455  24.640  23.621  1.00  0.00     0.122 C 
ATOM     12  N   UNL A   1      32.892  24.467  23.721  1.00  0.00    -0.342 N 
ATOM     13  C   UNL A   1      33.596  23.259  23.630  1.00  0.00     0.226 C 
ATOM     14  O   UNL A   1      34.804  23.254  23.402  1.00  0.00    -0.275 OA
BRANCH   7  15
ATOM     15  N   UNL A   1      30.953  27.783  23.691  1.00  0.00    -0.320 N 
ATOM     16  C   UNL A   1      28.321  27.246  23.651  1.00  0.00     0.087 C 
ATOM     17  C   UNL A   1      29.608  27.892  23.247  1.00  0.00     0.106 A 
ATOM     18  N   UNL A   1      29.494  28.827  22.322  1.00  0.00    -0.242 NA
ATOM     19  C   UNL A   1      30.709  29.375  22.158  1.00  0.00     0.131 A 
ATOM     20  C   UNL A   1      31.613  28.768  22.981  1.00  0.00     0.108 A 
ENDBRANCH   7  15
BRANCH  13  21
ATOM     21  C   UNL A   1      32.960  21.918  23.842  1.00  0.00     0.087 C 
ATOM     22  C   UNL A   1      32.370  21.589  25.194  1.00  0.00     0.023 C 
ATOM     23  C   UNL A   1      33.507  20.772  24.634  1.00  0.00     0.032 C 
BRANCH  23  24
ATOM     24  C   UNL A   1      33.411  19.320  24.327  1.00  0.00    -0.044 A 
ATOM     25  C   UNL A   1      34.474  18.464  24.649  1.00  0.00     0.004 A 
ATOM     26  C   UNL A   1      32.476  18.899  23.369  1.00  0.00     0.004 A 
ATOM     27  C   UNL A   1      34.648  17.261  23.970  1.00  0.00     0.000 A 
ATOM     28  C   UNL A   1      32.653  17.701  22.683  1.00  0.00     0.000 A 
ATOM     29  C   UNL A   1      33.749  16.893  22.971  1.00  0.00     0.000 A 
ENDBRANCH  23  24
ENDBRANCH  13  21
ENDBRANCH   4   7
ENDBRANCH   2   3
ENDBRANCH   1   2
BRANCH   1  30
ATOM     30  C   UNL A   1      34.481  30.879  27.668  1.00  0.00     0.118 C 
BRANCH  30  31
ATOM     31  N   UNL A   1      34.311  31.754  28.832  1.00  0.00    -0.352 N 
ATOM     32  C   UNL A   1      35.090  31.775  29.971  1.00  0.00     0.251 C 
ATOM     33  H   UNL A   1      33.563  32.393  28.798  1.00  0.00     0.163 HD
ATOM     34  O   UNL A   1      34.662  32.265  31.027  1.00  0.00    -0.269 OA
BRANCH  32  35
ATOM     35  C   UNL A   1      36.479  31.303  29.870  1.00  0.00     0.039 A 
ATOM     36  C   UNL A   1      37.613  32.107  29.741  1.00  0.00     0.014 A 
ATOM     37  C   UNL A   1      36.633  29.929  29.852  1.00  0.00     0.014 A 
ATOM     38  C   UNL A   1      38.858  31.467  29.575  1.00  0.00     0.010 A 
ATOM     39  C   UNL A   1      37.840  29.423  30.214  1.00  0.00     0.010 A 
ATOM     40  C   UNL A   1      38.946  30.062  29.709  1.00  0.00    -0.014 A 
BRANCH  40  41
ATOM     41  C   UNL A   1      40.181  29.279  29.894  1.00  0.00     0.031 A 
ATOM     42  C   UNL A   1      40.529  29.324  31.359  1.00  0.00     0.074 A 
ATOM     43  C   UNL A   1      40.757  28.506  28.909  1.00  0.00     0.049 A 
ATOM     44  N   UNL A   1      41.360  30.159  31.898  1.00  0.00    -0.248 NA
ATOM     45  C   UNL A   1      39.658  28.694  32.387  1.00  0.00     0.031 C 
ATOM     46  C   UNL A   1      40.322  28.267  27.514  1.00  0.00     0.029 A 
ATOM     47  N   UNL A   1      41.915  27.737  28.936  1.00  0.00    -0.354 N 
ATOM     48  C   UNL A   1      41.394  29.834  33.252  1.00  0.00     0.074 A 
ATOM     49  C   UNL A   1      40.143  29.202  33.526  1.00  0.00     0.031 C 
ATOM     50  C   UNL A   1      41.020  27.242  26.947  1.00  0.00     0.029 A 
ATOM     51  C   UNL A   1      42.070  26.814  27.851  1.00  0.00     0.049 A 
ATOM     52  H   UNL A   1      42.584  27.820  29.653  1.00  0.00     0.167 HD
ATOM     53  C   UNL A   1      42.604  29.717  33.868  1.00  0.00     0.037 A 
ATOM     54  C   UNL A   1      43.055  25.857  27.691  1.00  0.00     0.037 A 
ATOM     55  C   UNL A   1      43.604  30.339  33.026  1.00  0.00     0.049 A 
ATOM     56  C   UNL A   1      44.165  26.241  28.602  1.00  0.00     0.074 A 
ATOM     57  C   UNL A   1      43.828  31.611  32.544  1.00  0.00     0.029 A 
ATOM     58  N   UNL A   1      44.190  29.468  32.147  1.00  0.00    -0.354 N 
ATOM     59  N   UNL A   1      44.853  27.336  28.434  1.00  0.00    -0.248 NA
ATOM     60  C   UNL A   1      44.026  25.755  29.966  1.00  0.00     0.031 C 
ATOM     61  C   UNL A   1      44.241  31.431  31.188  1.00  0.00     0.029 A 
ATOM     62  C   UNL A   1      44.440  30.073  30.950  1.00  0.00     0.049 A 
ATOM     63  H   UNL A   1      44.404  28.530  32.352  1.00  0.00     0.167 HD
ATOM     64  C   UNL A   1      44.771  27.958  29.669  1.00  0.00     0.074 A 
ATOM     65  C   UNL A   1      44.241  26.925  30.576  1.00  0.00     0.031 C 
ATOM     66  C   UNL A   1      44.788  29.322  29.767  1.00  0.00     0.037 A 
BRANCH  53  67
ATOM     67  C   UNL A   1      42.987  28.615  34.849  1.00  0.00     0.057 A 
ATOM     68  C   UNL A   1      43.585  28.992  36.069  1.00  0.00     0.134 A 
ATOM     69  C   UNL A   1      43.083  27.238  34.554  1.00  0.00     0.134 A 
ATOM     70  F   UNL A   1      43.579  30.272  36.469  1.00  0.00    -0.206 F 
ATOM     71  C   UNL A   1      44.283  28.092  36.885  1.00  0.00     0.040 A 
ATOM     72  C   UNL A   1      43.743  26.322  35.385  1.00  0.00     0.040 A 
ATOM     73  F   UNL A   1      42.630  26.703  33.416  1.00  0.00    -0.206 F 
ATOM     74  C   UNL A   1      44.370  26.750  36.542  1.00  0.00     0.006 A 
ENDBRANCH  53  67
BRANCH  54  75
ATOM     75  C   UNL A   1      43.017  24.449  27.152  1.00  0.00     0.057 A 
ATOM     76  C   UNL A   1      42.358  23.363  27.782  1.00  0.00     0.134 A 
ATOM     77  C   UNL A   1      43.344  24.228  25.808  1.00  0.00     0.134 A 
ATOM     78  F   UNL A   1      41.923  23.462  29.048  1.00  0.00    -0.206 F 
ATOM     79  C   UNL A   1      42.056  22.154  27.113  1.00  0.00     0.040 A 
ATOM     80  C   UNL A   1      43.038  23.038  25.127  1.00  0.00     0.040 A 
ATOM     81  F   UNL A   1      43.886  25.212  25.077  1.00  0.00    -0.206 F 
ATOM     82  C   UNL A   1      42.387  21.995  25.772  1.00  0.00     0.006 A 
ENDBRANCH  54  75
BRANCH  66  83
ATOM     83  C   UNL A   1      45.144  30.127  28.544  1.00  0.00     0.057 A 
ATOM     84  C   UNL A   1      44.236  30.715  27.647  1.00  0.00     0.134 A 
ATOM     85  C   UNL A   1      46.491  30.453  28.375  1.00  0.00     0.134 A 
ATOM     86  F   UNL A   1      42.913  30.554  27.790  1.00  0.00    -0.206 F 
ATOM     87  C   UNL A   1      44.664  31.550  26.604  1.00  0.00     0.040 A 
ATOM     88  C   UNL A   1      46.928  31.307  27.364  1.00  0.00     0.040 A 
ATOM     89  F   UNL A   1      47.405  29.990  29.241  1.00  0.00    -0.206 F 
ATOM     90  C   UNL A   1      46.017  31.846  26.462  1.00  0.00     0.006 A 
ENDBRANCH  66  83
ENDBRANCH  40  41
ENDBRANCH  32  35
ENDBRANCH  30  31
ENDBRANCH   1  30
TORSDOF 13
ENDMDL
