MODEL 1
REMARK VINA RESULT:     -11.7      0.000      0.000
REMARK SMILES CC[NH2+][C@@]1(C(=O)NCCCNC(=O)c2ccc(-c3c4nc(c(-c5c(F)cccc5F)c5ccc([nH]5)c(-c5c(F)cccc5F)c5nc(c(-c6c(F)cccc6F)c6ccc3[nH]6)C=C5)C=C4)cc2)CC[C@H]([NH+]2CCC(C(C)(C)C)CC2)C1
REMARK SMILES IDX 9 1 8 2 7 3 5 4 6 5 4 7 68 8 81 9 69 10 70 11 3 12 2 15 1 16
REMARK SMILES IDX 71 17 72 18 80 19 73 21 79 22 74 23 75 24 76 25 77 26 78 27
REMARK SMILES IDX 10 28 11 29 12 30 13 32 14 33 15 34 67 35 16 36 66 37 17 38
REMARK SMILES IDX 18 39 19 40 60 41 20 42 65 43 59 44 61 45 21 46 64 47 58 48
REMARK SMILES IDX 57 49 22 51 48 52 31 53 47 54 32 55 35 56 46 57 62 58 33 59
REMARK SMILES IDX 34 60 45 62 63 63 36 64 23 65 24 66 29 67 25 68 26 69 28 70
REMARK SMILES IDX 30 71 27 72 49 73 50 74 55 75 51 76 52 77 54 78 56 79 53 80
REMARK SMILES IDX 37 81 38 82 43 83 39 84 40 85 42 86 44 87 41 88
REMARK H PARENT 7 6 3 13 3 14 71 20 11 31 61 50 35 61
REMARK Flexibility Score: inf
ROOT
ATOM      1  C   UNL A   1      38.028  19.701  25.020  1.00  0.00     0.042 C 
ENDROOT
BRANCH   1   2
ATOM      2  C   UNL A   1      37.148  20.903  24.692  1.00  0.00     0.118 C 
BRANCH   2   3
ATOM      3  N   UNL A   1      35.991  21.052  25.592  1.00  0.00    -0.351 N 
ATOM      4  C   UNL A   1      34.687  21.196  25.853  1.00  0.00     0.281 C 
ATOM      5  O   UNL A   1      34.658  21.451  27.088  1.00  0.00    -0.268 OA
ATOM      6  H   UNL A   1      36.400  21.041  26.487  1.00  0.00     0.163 HD
BRANCH   4   7
ATOM      7  C   UNL A   1      33.209  21.224  25.070  1.00  0.00     0.181 C 
ATOM      8  C   UNL A   1      32.849  20.998  23.577  1.00  0.00     0.085 C 
ATOM      9  C   UNL A   1      32.452  22.561  25.382  1.00  0.00     0.144 C 
ATOM     10  C   UNL A   1      31.961  22.167  23.083  1.00  0.00     0.072 C 
ATOM     11  C   UNL A   1      32.182  23.335  24.034  1.00  0.00     0.191 C 
BRANCH   7  12
ATOM     12  N   UNL A   1      32.503  20.029  25.713  1.00  0.00    -0.334 N 
ATOM     13  H   UNL A   1      32.941  19.831  26.613  1.00  0.00     0.347 HD
ATOM     14  H   UNL A   1      31.517  20.269  25.828  1.00  0.00     0.347 HD
BRANCH  12  15
ATOM     15  C   UNL A   1      32.582  18.814  24.863  1.00  0.00     0.257 C 
ATOM     16  C   UNL A   1      32.681  17.550  25.696  1.00  0.00     0.071 C 
ENDBRANCH  12  15
ENDBRANCH   7  12
BRANCH  11  17
ATOM     17  N   UNL A   1      33.160  24.367  23.635  1.00  0.00    -0.332 N 
ATOM     18  C   UNL A   1      34.240  24.766  24.548  1.00  0.00     0.262 C 
ATOM     19  C   UNL A   1      32.604  25.556  23.055  1.00  0.00     0.262 C 
ATOM     20  H   UNL A   1      33.616  23.786  22.931  1.00  0.00     0.348 HD
ATOM     21  C   UNL A   1      34.027  26.022  25.461  1.00  0.00     0.066 C 
ATOM     22  C   UNL A   1      32.013  26.444  24.118  1.00  0.00     0.066 C 
ATOM     23  C   UNL A   1      33.063  27.127  24.937  1.00  0.00     0.005 C 
BRANCH  23  24
ATOM     24  C   UNL A   1      32.358  28.031  26.028  1.00  0.00    -0.035 C 
ATOM     25  C   UNL A   1      31.821  29.288  25.340  1.00  0.00     0.011 C 
ATOM     26  C   UNL A   1      31.146  27.305  26.685  1.00  0.00     0.011 C 
ATOM     27  C   UNL A   1      33.293  28.437  27.191  1.00  0.00     0.011 C 
ENDBRANCH  23  24
ENDBRANCH  11  17
ENDBRANCH   4   7
ENDBRANCH   2   3
ENDBRANCH   1   2
BRANCH   1  28
ATOM     28  C   UNL A   1      39.225  20.037  25.894  1.00  0.00     0.118 C 
BRANCH  28  29
ATOM     29  N   UNL A   1      40.389  19.155  25.822  1.00  0.00    -0.352 N 
ATOM     30  C   UNL A   1      41.718  19.415  26.136  1.00  0.00     0.251 C 
ATOM     31  H   UNL A   1      40.204  18.242  25.502  1.00  0.00     0.163 HD
ATOM     32  O   UNL A   1      42.556  18.538  26.029  1.00  0.00    -0.269 OA
BRANCH  30  33
ATOM     33  C   UNL A   1      42.122  20.781  26.563  1.00  0.00     0.039 A 
ATOM     34  C   UNL A   1      42.457  21.754  25.616  1.00  0.00     0.014 A 
ATOM     35  C   UNL A   1      42.107  21.120  27.910  1.00  0.00     0.014 A 
ATOM     36  C   UNL A   1      42.688  23.074  26.032  1.00  0.00     0.010 A 
ATOM     37  C   UNL A   1      42.104  22.447  28.285  1.00  0.00     0.010 A 
ATOM     38  C   UNL A   1      42.470  23.437  27.370  1.00  0.00    -0.014 A 
BRANCH  38  39
ATOM     39  C   UNL A   1      42.722  24.798  27.908  1.00  0.00     0.031 A 
ATOM     40  C   UNL A   1      44.138  25.180  28.281  1.00  0.00     0.074 A 
ATOM     41  C   UNL A   1      41.698  25.636  28.162  1.00  0.00     0.049 A 
ATOM     42  N   UNL A   1      44.575  26.220  28.943  1.00  0.00    -0.248 NA
ATOM     43  C   UNL A   1      45.201  24.212  27.943  1.00  0.00     0.031 C 
ATOM     44  C   UNL A   1      40.281  25.350  27.928  1.00  0.00     0.029 A 
ATOM     45  N   UNL A   1      41.697  26.903  28.685  1.00  0.00    -0.354 N 
ATOM     46  C   UNL A   1      45.932  25.989  29.146  1.00  0.00     0.074 A 
ATOM     47  C   UNL A   1      46.222  24.667  28.648  1.00  0.00     0.031 C 
ATOM     48  C   UNL A   1      39.554  26.433  28.253  1.00  0.00     0.029 A 
ATOM     49  C   UNL A   1      40.448  27.469  28.756  1.00  0.00     0.049 A 
ATOM     50  H   UNL A   1      42.516  27.364  28.980  1.00  0.00     0.167 HD
ATOM     51  C   UNL A   1      46.874  26.827  29.638  1.00  0.00     0.037 A 
ATOM     52  C   UNL A   1      40.079  28.695  29.172  1.00  0.00     0.037 A 
ATOM     53  C   UNL A   1      46.588  28.178  30.029  1.00  0.00     0.049 A 
ATOM     54  C   UNL A   1      41.149  29.643  29.643  1.00  0.00     0.074 A 
ATOM     55  C   UNL A   1      47.461  29.160  30.456  1.00  0.00     0.029 A 
ATOM     56  N   UNL A   1      45.320  28.742  30.006  1.00  0.00    -0.354 N 
ATOM     57  N   UNL A   1      42.439  29.440  29.766  1.00  0.00    -0.248 NA
ATOM     58  C   UNL A   1      40.715  30.996  30.015  1.00  0.00     0.031 C 
ATOM     59  C   UNL A   1      46.715  30.311  30.725  1.00  0.00     0.029 A 
ATOM     60  C   UNL A   1      45.386  30.060  30.415  1.00  0.00     0.049 A 
ATOM     61  H   UNL A   1      44.497  28.273  29.739  1.00  0.00     0.167 HD
ATOM     62  C   UNL A   1      42.977  30.647  30.193  1.00  0.00     0.074 A 
ATOM     63  C   UNL A   1      41.872  31.580  30.294  1.00  0.00     0.031 C 
ATOM     64  C   UNL A   1      44.265  30.963  30.477  1.00  0.00     0.037 A 
BRANCH  51  65
ATOM     65  C   UNL A   1      48.285  26.313  29.732  1.00  0.00     0.057 A 
ATOM     66  C   UNL A   1      48.764  25.659  30.877  1.00  0.00     0.134 A 
ATOM     67  C   UNL A   1      49.181  26.480  28.669  1.00  0.00     0.134 A 
ATOM     68  F   UNL A   1      47.967  25.478  31.941  1.00  0.00    -0.206 F 
ATOM     69  C   UNL A   1      50.090  25.235  30.979  1.00  0.00     0.040 A 
ATOM     70  C   UNL A   1      50.500  26.025  28.745  1.00  0.00     0.040 A 
ATOM     71  F   UNL A   1      48.794  27.092  27.540  1.00  0.00    -0.206 F 
ATOM     72  C   UNL A   1      50.961  25.411  29.907  1.00  0.00     0.006 A 
ENDBRANCH  51  65
BRANCH  52  73
ATOM     73  C   UNL A   1      38.656  29.117  29.092  1.00  0.00     0.057 A 
ATOM     74  C   UNL A   1      38.117  29.606  27.894  1.00  0.00     0.134 A 
ATOM     75  C   UNL A   1      37.798  29.039  30.195  1.00  0.00     0.134 A 
ATOM     76  F   UNL A   1      38.890  29.714  26.803  1.00  0.00    -0.206 F 
ATOM     77  C   UNL A   1      36.790  30.027  27.803  1.00  0.00     0.040 A 
ATOM     78  C   UNL A   1      36.460  29.430  30.111  1.00  0.00     0.040 A 
ATOM     79  F   UNL A   1      38.244  28.565  31.367  1.00  0.00    -0.206 F 
ATOM     80  C   UNL A   1      35.954  29.934  28.914  1.00  0.00     0.006 A 
ENDBRANCH  52  73
BRANCH  64  81
ATOM     81  C   UNL A   1      44.551  32.384  30.862  1.00  0.00     0.057 A 
ATOM     82  C   UNL A   1      44.823  33.370  29.907  1.00  0.00     0.134 A 
ATOM     83  C   UNL A   1      44.504  32.773  32.207  1.00  0.00     0.134 A 
ATOM     84  F   UNL A   1      44.890  33.056  28.605  1.00  0.00    -0.206 F 
ATOM     85  C   UNL A   1      45.068  34.692  30.280  1.00  0.00     0.040 A 
ATOM     86  C   UNL A   1      44.714  34.097  32.588  1.00  0.00     0.040 A 
ATOM     87  F   UNL A   1      44.232  31.876  33.168  1.00  0.00    -0.206 F 
ATOM     88  C   UNL A   1      45.007  35.059  31.624  1.00  0.00     0.006 A 
ENDBRANCH  64  81
ENDBRANCH  38  39
ENDBRANCH  30  33
ENDBRANCH  28  29
ENDBRANCH   1  28
TORSDOF 14
ENDMDL
MODEL 2
REMARK VINA RESULT:     -11.6      1.583      6.383
REMARK SMILES CC[NH2+][C@@]1(C(=O)NCCCNC(=O)c2ccc(-c3c4nc(c(-c5c(F)cccc5F)c5ccc([nH]5)c(-c5c(F)cccc5F)c5nc(c(-c6c(F)cccc6F)c6ccc3[nH]6)C=C5)C=C4)cc2)CC[C@H]([NH+]2CCC(C(C)(C)C)CC2)C1
REMARK SMILES IDX 9 1 8 2 7 3 5 4 6 5 4 7 68 8 81 9 69 10 70 11 3 12 2 15 1 16
REMARK SMILES IDX 71 17 72 18 80 19 73 21 79 22 74 23 75 24 76 25 77 26 78 27
REMARK SMILES IDX 10 28 11 29 12 30 13 32 14 33 15 34 67 35 16 36 66 37 17 38
REMARK SMILES IDX 18 39 19 40 60 41 20 42 65 43 59 44 61 45 21 46 64 47 58 48
REMARK SMILES IDX 57 49 22 51 48 52 31 53 47 54 32 55 35 56 46 57 62 58 33 59
REMARK SMILES IDX 34 60 45 62 63 63 36 64 23 65 24 66 29 67 25 68 26 69 28 70
REMARK SMILES IDX 30 71 27 72 49 73 50 74 55 75 51 76 52 77 54 78 56 79 53 80
REMARK SMILES IDX 37 81 38 82 43 83 39 84 40 85 42 86 44 87 41 88
REMARK H PARENT 7 6 3 13 3 14 71 20 11 31 61 50 35 61
REMARK Flexibility Score: inf
ROOT
ATOM      1  C   UNL A   1      37.672  20.259  24.713  1.00  0.00     0.042 C 
ENDROOT
BRANCH   1   2
ATOM      2  C   UNL A   1      36.224  20.506  25.123  1.00  0.00     0.118 C 
BRANCH   2   3
ATOM      3  N   UNL A   1      35.605  21.659  24.446  1.00  0.00    -0.351 N 
ATOM      4  C   UNL A   1      34.562  22.395  24.045  1.00  0.00     0.281 C 
ATOM      5  O   UNL A   1      35.077  23.236  23.259  1.00  0.00    -0.268 OA
ATOM      6  H   UNL A   1      36.379  22.159  24.101  1.00  0.00     0.163 HD
BRANCH   4   7
ATOM      7  C   UNL A   1      32.898  22.466  24.197  1.00  0.00     0.181 C 
ATOM      8  C   UNL A   1      31.783  22.520  23.118  1.00  0.00     0.085 C 
ATOM      9  C   UNL A   1      32.487  23.651  25.139  1.00  0.00     0.144 C 
ATOM     10  C   UNL A   1      30.822  23.693  23.434  1.00  0.00     0.072 C 
ATOM     11  C   UNL A   1      31.570  24.658  24.343  1.00  0.00     0.191 C 
BRANCH   7  12
ATOM     12  N   UNL A   1      32.594  21.115  24.846  1.00  0.00    -0.334 N 
ATOM     13  H   UNL A   1      33.349  20.882  25.492  1.00  0.00     0.347 HD
ATOM     14  H   UNL A   1      31.702  21.194  25.337  1.00  0.00     0.347 HD
BRANCH  12  15
ATOM     15  C   UNL A   1      32.470  20.031  23.840  1.00  0.00     0.257 C 
ATOM     16  C   UNL A   1      32.555  18.658  24.480  1.00  0.00     0.071 C 
ENDBRANCH  12  15
ENDBRANCH   7  12
BRANCH  11  17
ATOM     17  N   UNL A   1      32.227  25.822  23.713  1.00  0.00    -0.332 N 
ATOM     18  C   UNL A   1      33.591  26.210  24.099  1.00  0.00     0.262 C 
ATOM     19  C   UNL A   1      31.431  27.012  23.631  1.00  0.00     0.262 C 
ATOM     20  H   UNL A   1      32.331  25.378  22.801  1.00  0.00     0.348 HD
ATOM     21  C   UNL A   1      33.776  27.319  25.191  1.00  0.00     0.066 C 
ATOM     22  C   UNL A   1      31.358  27.703  24.967  1.00  0.00     0.066 C 
ATOM     23  C   UNL A   1      32.644  28.380  25.327  1.00  0.00     0.005 C 
BRANCH  23  24
ATOM     24  C   UNL A   1      32.482  29.071  26.742  1.00  0.00    -0.035 C 
ATOM     25  C   UNL A   1      31.571  28.195  27.605  1.00  0.00     0.011 C 
ATOM     26  C   UNL A   1      33.846  29.198  27.483  1.00  0.00     0.011 C 
ATOM     27  C   UNL A   1      31.902  30.503  26.666  1.00  0.00     0.011 C 
ENDBRANCH  23  24
ENDBRANCH  11  17
ENDBRANCH   4   7
ENDBRANCH   2   3
ENDBRANCH   1   2
BRANCH   1  28
ATOM     28  C   UNL A   1      38.631  20.140  25.886  1.00  0.00     0.118 C 
BRANCH  28  29
ATOM     29  N   UNL A   1      39.762  19.224  25.749  1.00  0.00    -0.352 N 
ATOM     30  C   UNL A   1      41.106  19.426  26.045  1.00  0.00     0.251 C 
ATOM     31  H   UNL A   1      39.540  18.333  25.394  1.00  0.00     0.163 HD
ATOM     32  O   UNL A   1      41.911  18.528  25.880  1.00  0.00    -0.269 OA
BRANCH  30  33
ATOM     33  C   UNL A   1      41.564  20.758  26.523  1.00  0.00     0.039 A 
ATOM     34  C   UNL A   1      42.033  20.923  27.830  1.00  0.00     0.014 A 
ATOM     35  C   UNL A   1      41.588  21.837  25.650  1.00  0.00     0.014 A 
ATOM     36  C   UNL A   1      42.599  22.148  28.212  1.00  0.00     0.010 A 
ATOM     37  C   UNL A   1      42.347  22.949  25.953  1.00  0.00     0.010 A 
ATOM     38  C   UNL A   1      42.797  23.159  27.258  1.00  0.00    -0.014 A 
BRANCH  38  39
ATOM     39  C   UNL A   1      43.355  24.498  27.577  1.00  0.00     0.031 A 
ATOM     40  C   UNL A   1      42.411  25.581  28.053  1.00  0.00     0.074 A 
ATOM     41  C   UNL A   1      44.651  24.775  27.341  1.00  0.00     0.049 A 
ATOM     42  N   UNL A   1      42.620  26.863  28.202  1.00  0.00    -0.248 NA
ATOM     43  C   UNL A   1      41.013  25.182  28.310  1.00  0.00     0.031 C 
ATOM     44  C   UNL A   1      45.641  23.842  26.800  1.00  0.00     0.029 A 
ATOM     45  N   UNL A   1      45.358  25.936  27.522  1.00  0.00    -0.354 N 
ATOM     46  C   UNL A   1      41.377  27.411  28.503  1.00  0.00     0.074 A 
ATOM     47  C   UNL A   1      40.404  26.352  28.397  1.00  0.00     0.031 C 
ATOM     48  C   UNL A   1      46.838  24.450  26.747  1.00  0.00     0.029 A 
ATOM     49  C   UNL A   1      46.690  25.825  27.209  1.00  0.00     0.049 A 
ATOM     50  H   UNL A   1      44.947  26.770  27.847  1.00  0.00     0.167 HD
ATOM     51  C   UNL A   1      41.075  28.668  28.902  1.00  0.00     0.037 A 
ATOM     52  C   UNL A   1      47.676  26.737  27.301  1.00  0.00     0.037 A 
ATOM     53  C   UNL A   1      42.070  29.682  29.106  1.00  0.00     0.049 A 
ATOM     54  C   UNL A   1      47.337  28.109  27.821  1.00  0.00     0.074 A 
ATOM     55  C   UNL A   1      41.912  30.965  29.593  1.00  0.00     0.029 A 
ATOM     56  N   UNL A   1      43.423  29.504  28.857  1.00  0.00    -0.354 N 
ATOM     57  N   UNL A   1      46.170  28.597  28.168  1.00  0.00    -0.248 NA
ATOM     58  C   UNL A   1      48.454  29.049  27.979  1.00  0.00     0.031 C 
ATOM     59  C   UNL A   1      43.169  31.577  29.608  1.00  0.00     0.029 A 
ATOM     60  C   UNL A   1      44.115  30.656  29.179  1.00  0.00     0.049 A 
ATOM     61  H   UNL A   1      43.830  28.680  28.504  1.00  0.00     0.167 HD
ATOM     62  C   UNL A   1      46.416  29.886  28.621  1.00  0.00     0.074 A 
ATOM     63  C   UNL A   1      47.846  30.097  28.516  1.00  0.00     0.031 C 
ATOM     64  C   UNL A   1      45.543  30.817  29.083  1.00  0.00     0.037 A 
BRANCH  51  65
ATOM     65  C   UNL A   1      39.629  28.985  29.177  1.00  0.00     0.057 A 
ATOM     66  C   UNL A   1      39.077  28.883  30.463  1.00  0.00     0.134 A 
ATOM     67  C   UNL A   1      38.775  29.391  28.145  1.00  0.00     0.134 A 
ATOM     68  F   UNL A   1      39.832  28.485  31.499  1.00  0.00    -0.206 F 
ATOM     69  C   UNL A   1      37.723  29.125  30.702  1.00  0.00     0.040 A 
ATOM     70  C   UNL A   1      37.427  29.672  28.378  1.00  0.00     0.040 A 
ATOM     71  F   UNL A   1      39.232  29.515  26.890  1.00  0.00    -0.206 F 
ATOM     72  C   UNL A   1      36.895  29.528  29.658  1.00  0.00     0.006 A 
ENDBRANCH  51  65
BRANCH  52  73
ATOM     73  C   UNL A   1      49.076  26.363  26.966  1.00  0.00     0.057 A 
ATOM     74  C   UNL A   1      49.946  25.879  27.953  1.00  0.00     0.134 A 
ATOM     75  C   UNL A   1      49.578  26.471  25.665  1.00  0.00     0.134 A 
ATOM     76  F   UNL A   1      49.527  25.762  29.221  1.00  0.00    -0.206 F 
ATOM     77  C   UNL A   1      51.269  25.543  27.664  1.00  0.00     0.040 A 
ATOM     78  C   UNL A   1      50.892  26.111  25.356  1.00  0.00     0.040 A 
ATOM     79  F   UNL A   1      48.795  26.911  24.670  1.00  0.00    -0.206 F 
ATOM     80  C   UNL A   1      51.745  25.653  26.359  1.00  0.00     0.006 A 
ENDBRANCH  52  73
BRANCH  64  81
ATOM     81  C   UNL A   1      46.119  32.115  29.563  1.00  0.00     0.057 A 
ATOM     82  C   UNL A   1      46.268  33.219  28.715  1.00  0.00     0.134 A 
ATOM     83  C   UNL A   1      46.484  32.271  30.907  1.00  0.00     0.134 A 
ATOM     84  F   UNL A   1      45.943  33.128  27.417  1.00  0.00    -0.206 F 
ATOM     85  C   UNL A   1      46.787  34.426  29.182  1.00  0.00     0.040 A 
ATOM     86  C   UNL A   1      46.974  33.482  31.391  1.00  0.00     0.040 A 
ATOM     87  F   UNL A   1      46.351  31.254  31.773  1.00  0.00    -0.206 F 
ATOM     88  C   UNL A   1      47.135  34.562  30.525  1.00  0.00     0.006 A 
ENDBRANCH  64  81
ENDBRANCH  38  39
ENDBRANCH  30  33
ENDBRANCH  28  29
ENDBRANCH   1  28
TORSDOF 14
ENDMDL
MODEL 3
REMARK VINA RESULT:     -11.6      1.809      6.674
REMARK SMILES CC[NH2+][C@@]1(C(=O)NCCCNC(=O)c2ccc(-c3c4nc(c(-c5c(F)cccc5F)c5ccc([nH]5)c(-c5c(F)cccc5F)c5nc(c(-c6c(F)cccc6F)c6ccc3[nH]6)C=C5)C=C4)cc2)CC[C@H]([NH+]2CCC(C(C)(C)C)CC2)C1
REMARK SMILES IDX 9 1 8 2 7 3 5 4 6 5 4 7 68 8 81 9 69 10 70 11 3 12 2 15 1 16
REMARK SMILES IDX 71 17 72 18 80 19 73 21 79 22 74 23 75 24 76 25 77 26 78 27
REMARK SMILES IDX 10 28 11 29 12 30 13 32 14 33 15 34 67 35 16 36 66 37 17 38
REMARK SMILES IDX 18 39 19 40 60 41 20 42 65 43 59 44 61 45 21 46 64 47 58 48
REMARK SMILES IDX 57 49 22 51 48 52 31 53 47 54 32 55 35 56 46 57 62 58 33 59
REMARK SMILES IDX 34 60 45 62 63 63 36 64 23 65 24 66 29 67 25 68 26 69 28 70
REMARK SMILES IDX 30 71 27 72 49 73 50 74 55 75 51 76 52 77 54 78 56 79 53 80
REMARK SMILES IDX 37 81 38 82 43 83 39 84 40 85 42 86 44 87 41 88
REMARK H PARENT 7 6 3 13 3 14 71 20 11 31 61 50 35 61
REMARK Flexibility Score: inf
ROOT
ATOM      1  C   UNL A   1      37.838  19.982  24.616  1.00  0.00     0.042 C 
ENDROOT
BRANCH   1   2
ATOM      2  C   UNL A   1      36.558  19.214  24.926  1.00  0.00     0.118 C 
BRANCH   2   3
ATOM      3  N   UNL A   1      35.348  20.054  24.924  1.00  0.00    -0.351 N 
ATOM      4  C   UNL A   1      34.686  21.202  25.111  1.00  0.00     0.281 C 
ATOM      5  O   UNL A   1      33.475  20.866  25.010  1.00  0.00    -0.268 OA
ATOM      6  H   UNL A   1      34.644  19.436  24.624  1.00  0.00     0.163 HD
BRANCH   4   7
ATOM      7  C   UNL A   1      34.965  22.805  25.497  1.00  0.00     0.181 C 
ATOM      8  C   UNL A   1      34.193  23.772  26.434  1.00  0.00     0.085 C 
ATOM      9  C   UNL A   1      35.097  23.665  24.191  1.00  0.00     0.144 C 
ATOM     10  C   UNL A   1      33.889  25.087  25.674  1.00  0.00     0.072 C 
ATOM     11  C   UNL A   1      33.982  24.781  24.186  1.00  0.00     0.191 C 
BRANCH   7  12
ATOM     12  N   UNL A   1      36.303  22.713  26.231  1.00  0.00    -0.334 N 
ATOM     13  H   UNL A   1      36.157  22.945  27.214  1.00  0.00     0.347 HD
ATOM     14  H   UNL A   1      36.656  21.761  26.127  1.00  0.00     0.347 HD
BRANCH  12  15
ATOM     15  C   UNL A   1      37.313  23.642  25.664  1.00  0.00     0.257 C 
ATOM     16  C   UNL A   1      38.610  23.610  26.451  1.00  0.00     0.071 C 
ENDBRANCH  12  15
ENDBRANCH   7  12
BRANCH  11  17
ATOM     17  N   UNL A   1      32.726  24.483  23.469  1.00  0.00    -0.332 N 
ATOM     18  C   UNL A   1      32.500  24.997  22.110  1.00  0.00     0.262 C 
ATOM     19  C   UNL A   1      31.521  24.675  24.224  1.00  0.00     0.262 C 
ATOM     20  H   UNL A   1      32.933  23.493  23.341  1.00  0.00     0.348 HD
ATOM     21  C   UNL A   1      31.706  26.337  21.936  1.00  0.00     0.066 C 
ATOM     22  C   UNL A   1      31.181  26.138  24.329  1.00  0.00     0.066 C 
ATOM     23  C   UNL A   1      30.666  26.697  23.039  1.00  0.00     0.005 C 
BRANCH  23  24
ATOM     24  C   UNL A   1      30.343  28.233  23.237  1.00  0.00    -0.035 C 
ATOM     25  C   UNL A   1      30.853  28.660  24.616  1.00  0.00     0.011 C 
ATOM     26  C   UNL A   1      31.064  29.118  22.178  1.00  0.00     0.011 C 
ATOM     27  C   UNL A   1      28.837  28.566  23.118  1.00  0.00     0.011 C 
ENDBRANCH  23  24
ENDBRANCH  11  17
ENDBRANCH   4   7
ENDBRANCH   2   3
ENDBRANCH   1   2
BRANCH   1  28
ATOM     28  C   UNL A   1      38.825  20.024  25.771  1.00  0.00     0.118 C 
BRANCH  28  29
ATOM     29  N   UNL A   1      39.965  19.111  25.724  1.00  0.00    -0.352 N 
ATOM     30  C   UNL A   1      41.291  19.330  26.082  1.00  0.00     0.251 C 
ATOM     31  H   UNL A   1      39.765  18.206  25.390  1.00  0.00     0.163 HD
ATOM     32  O   UNL A   1      42.107  18.432  25.990  1.00  0.00    -0.269 OA
BRANCH  30  33
ATOM     33  C   UNL A   1      41.719  20.681  26.536  1.00  0.00     0.039 A 
ATOM     34  C   UNL A   1      42.066  20.906  27.872  1.00  0.00     0.014 A 
ATOM     35  C   UNL A   1      41.837  21.716  25.618  1.00  0.00     0.014 A 
ATOM     36  C   UNL A   1      42.609  22.145  28.245  1.00  0.00     0.010 A 
ATOM     37  C   UNL A   1      42.577  22.835  25.936  1.00  0.00     0.010 A 
ATOM     38  C   UNL A   1      42.906  23.106  27.266  1.00  0.00    -0.014 A 
BRANCH  38  39
ATOM     39  C   UNL A   1      43.448  24.455  27.571  1.00  0.00     0.031 A 
ATOM     40  C   UNL A   1      42.495  25.526  28.055  1.00  0.00     0.074 A 
ATOM     41  C   UNL A   1      44.737  24.750  27.316  1.00  0.00     0.049 A 
ATOM     42  N   UNL A   1      42.687  26.812  28.195  1.00  0.00    -0.248 NA
ATOM     43  C   UNL A   1      41.107  25.107  28.333  1.00  0.00     0.031 C 
ATOM     44  C   UNL A   1      45.733  23.830  26.765  1.00  0.00     0.029 A 
ATOM     45  N   UNL A   1      45.428  25.923  27.481  1.00  0.00    -0.354 N 
ATOM     46  C   UNL A   1      41.439  27.342  28.510  1.00  0.00     0.074 A 
ATOM     47  C   UNL A   1      40.482  26.268  28.423  1.00  0.00     0.031 C 
ATOM     48  C   UNL A   1      46.920  24.456  26.692  1.00  0.00     0.029 A 
ATOM     49  C   UNL A   1      46.758  25.831  27.150  1.00  0.00     0.049 A 
ATOM     50  H   UNL A   1      45.010  26.752  27.808  1.00  0.00     0.167 HD
ATOM     51  C   UNL A   1      41.124  28.597  28.907  1.00  0.00     0.037 A 
ATOM     52  C   UNL A   1      47.731  26.758  27.224  1.00  0.00     0.037 A 
ATOM     53  C   UNL A   1      42.106  29.626  29.092  1.00  0.00     0.049 A 
ATOM     54  C   UNL A   1      47.378  28.126  27.742  1.00  0.00     0.074 A 
ATOM     55  C   UNL A   1      41.935  30.910  29.576  1.00  0.00     0.029 A 
ATOM     56  N   UNL A   1      43.458  29.468  28.826  1.00  0.00    -0.354 N 
ATOM     57  N   UNL A   1      46.209  28.599  28.103  1.00  0.00    -0.248 NA
ATOM     58  C   UNL A   1      48.483  29.084  27.880  1.00  0.00     0.031 C 
ATOM     59  C   UNL A   1      43.183  31.540  29.570  1.00  0.00     0.029 A 
ATOM     60  C   UNL A   1      44.137  30.631  29.133  1.00  0.00     0.049 A 
ATOM     61  H   UNL A   1      43.873  28.648  28.471  1.00  0.00     0.167 HD
ATOM     62  C   UNL A   1      46.441  29.894  28.546  1.00  0.00     0.074 A 
ATOM     63  C   UNL A   1      47.866  30.126  28.420  1.00  0.00     0.031 C 
ATOM     64  C   UNL A   1      45.561  30.814  29.016  1.00  0.00     0.037 A 
BRANCH  51  65
ATOM     65  C   UNL A   1      39.678  28.893  29.201  1.00  0.00     0.057 A 
ATOM     66  C   UNL A   1      39.130  28.729  30.483  1.00  0.00     0.134 A 
ATOM     67  C   UNL A   1      38.818  29.342  28.191  1.00  0.00     0.134 A 
ATOM     68  F   UNL A   1      39.890  28.288  31.496  1.00  0.00    -0.206 F 
ATOM     69  C   UNL A   1      37.775  28.952  30.736  1.00  0.00     0.040 A 
ATOM     70  C   UNL A   1      37.469  29.605  28.441  1.00  0.00     0.040 A 
ATOM     71  F   UNL A   1      39.270  29.526  26.942  1.00  0.00    -0.206 F 
ATOM     72  C   UNL A   1      36.942  29.399  29.714  1.00  0.00     0.006 A 
ENDBRANCH  51  65
BRANCH  52  73
ATOM     73  C   UNL A   1      49.131  26.403  26.872  1.00  0.00     0.057 A 
ATOM     74  C   UNL A   1      49.993  25.845  27.825  1.00  0.00     0.134 A 
ATOM     75  C   UNL A   1      49.643  26.604  25.584  1.00  0.00     0.134 A 
ATOM     76  F   UNL A   1      49.566  25.637  29.079  1.00  0.00    -0.206 F 
ATOM     77  C   UNL A   1      51.317  25.525  27.521  1.00  0.00     0.040 A 
ATOM     78  C   UNL A   1      50.957  26.262  25.258  1.00  0.00     0.040 A 
ATOM     79  F   UNL A   1      48.868  27.119  24.620  1.00  0.00    -0.206 F 
ATOM     80  C   UNL A   1      51.802  25.729  26.231  1.00  0.00     0.006 A 
ENDBRANCH  52  73
BRANCH  64  81
ATOM     81  C   UNL A   1      46.124  32.123  29.482  1.00  0.00     0.057 A 
ATOM     82  C   UNL A   1      46.557  32.317  30.798  1.00  0.00     0.134 A 
ATOM     83  C   UNL A   1      46.277  33.185  28.581  1.00  0.00     0.134 A 
ATOM     84  F   UNL A   1      46.428  31.340  31.708  1.00  0.00    -0.206 F 
ATOM     85  C   UNL A   1      47.098  33.535  31.211  1.00  0.00     0.040 A 
ATOM     86  C   UNL A   1      46.846  34.394  28.974  1.00  0.00     0.040 A 
ATOM     87  F   UNL A   1      45.896  33.054  27.301  1.00  0.00    -0.206 F 
ATOM     88  C   UNL A   1      47.249  34.575  30.295  1.00  0.00     0.006 A 
ENDBRANCH  64  81
ENDBRANCH  38  39
ENDBRANCH  30  33
ENDBRANCH  28  29
ENDBRANCH   1  28
TORSDOF 14
ENDMDL
