MODEL 1
REMARK VINA RESULT:     -13.2      0.000      0.000
REMARK SMILES CC1=C(CC(=O)NCCCNC(=O)c2ccc(-c3c4nc(c(-c5c(F)cccc5F)c5ccc([nH]5)c(-c5c(F)cccc5F)c5nc(c(-c6c(F)cccc6F)c6ccc3[nH]6)C=C5)C=C4)cc2)c2cc(F)ccc2/C1=C\c1ccc([S@@+](C)[O-])cc1
REMARK SMILES IDX 8 1 7 2 5 3 6 4 4 6 3 7 1 8 2 9 75 10 68 11 74 12 76 13
REMARK SMILES IDX 69 14 73 15 70 16 72 17 71 18 77 19 78 20 85 21 79 22 84 23
REMARK SMILES IDX 80 24 81 25 82 26 83 27 9 28 10 29 11 30 12 31 13 33 14 34
REMARK SMILES IDX 15 35 67 36 16 37 66 38 17 39 18 40 19 41 60 42 20 43 65 44
REMARK SMILES IDX 59 45 61 46 21 47 64 48 58 49 57 50 22 52 48 53 31 54 47 55
REMARK SMILES IDX 32 56 35 57 46 58 62 59 33 60 34 61 45 63 63 64 36 65 23 66
REMARK SMILES IDX 24 67 29 68 25 69 26 70 28 71 30 72 27 73 49 74 50 75 55 76
REMARK SMILES IDX 51 77 52 78 54 79 56 80 53 81 37 82 38 83 43 84 39 85 40 86
REMARK SMILES IDX 42 87 44 88 41 89
REMARK H PARENT 7 5 11 32 61 51 35 62
REMARK Flexibility Score: inf
ROOT
ATOM      1  C   UNL A   1      31.782  30.377  26.104  1.00  0.00     0.117 C 
ENDROOT
BRANCH   1   2
ATOM      2  N   UNL A   1      31.157  30.008  24.850  1.00  0.00    -0.356 N 
ATOM      3  C   UNL A   1      31.689  29.339  23.787  1.00  0.00     0.224 C 
ATOM      4  O   UNL A   1      30.975  29.162  22.798  1.00  0.00    -0.275 OA
ATOM      5  H   UNL A   1      30.215  30.277  24.752  1.00  0.00     0.163 HD
BRANCH   3   6
ATOM      6  C   UNL A   1      33.116  28.800  23.847  1.00  0.00     0.136 C 
BRANCH   6   7
ATOM      7  C   UNL A   1      33.189  27.325  24.084  1.00  0.00    -0.027 C 
ATOM      8  C   UNL A   1      33.278  27.208  26.637  1.00  0.00     0.045 C 
ATOM      9  C   UNL A   1      33.275  26.646  25.253  1.00  0.00    -0.039 C 
ATOM     10  C   UNL A   1      33.345  25.198  24.985  1.00  0.00    -0.014 C 
ATOM     11  C   UNL A   1      33.119  26.333  22.996  1.00  0.00    -0.011 A 
ATOM     12  C   UNL A   1      33.159  25.030  23.532  1.00  0.00    -0.010 A 
ATOM     13  C   UNL A   1      33.587  24.264  25.928  1.00  0.00     0.017 C 
ATOM     14  C   UNL A   1      32.993  26.532  21.627  1.00  0.00     0.048 A 
ATOM     15  C   UNL A   1      33.011  23.925  22.705  1.00  0.00     0.012 A 
ATOM     16  C   UNL A   1      32.903  25.414  20.803  1.00  0.00     0.123 A 
ATOM     17  C   UNL A   1      32.900  24.122  21.326  1.00  0.00     0.040 A 
ATOM     18  F   UNL A   1      32.800  25.580  19.477  1.00  0.00    -0.207 F 
BRANCH  13  19
ATOM     19  C   UNL A   1      33.673  22.815  25.720  1.00  0.00    -0.025 A 
ATOM     20  C   UNL A   1      34.881  22.189  25.389  1.00  0.00     0.013 A 
ATOM     21  C   UNL A   1      32.505  22.053  25.789  1.00  0.00     0.013 A 
ATOM     22  C   UNL A   1      34.895  20.842  25.003  1.00  0.00     0.061 A 
ATOM     23  C   UNL A   1      32.525  20.704  25.428  1.00  0.00     0.061 A 
ATOM     24  C   UNL A   1      33.710  20.097  24.992  1.00  0.00     0.152 A 
BRANCH  24  25
ATOM     25  S   UNL A   1      33.633  18.443  24.253  1.00  0.00    -0.018 S 
ATOM     26  C   UNL A   1      32.799  17.539  25.567  1.00  0.00     0.346 C 
ATOM     27  O   UNL A   1      32.642  18.536  23.036  1.00  0.00    -0.612 OA
ENDBRANCH  24  25
ENDBRANCH  13  19
ENDBRANCH   6   7
ENDBRANCH   3   6
ENDBRANCH   1   2
BRANCH   1  28
ATOM     28  C   UNL A   1      31.473  31.817  26.501  1.00  0.00     0.042 C 
BRANCH  28  29
ATOM     29  C   UNL A   1      32.612  32.516  27.231  1.00  0.00     0.118 C 
BRANCH  29  30
ATOM     30  N   UNL A   1      32.301  33.895  27.588  1.00  0.00    -0.352 N 
ATOM     31  C   UNL A   1      32.909  34.738  28.487  1.00  0.00     0.251 C 
ATOM     32  H   UNL A   1      31.533  34.284  27.108  1.00  0.00     0.163 HD
ATOM     33  O   UNL A   1      32.392  35.820  28.751  1.00  0.00    -0.269 OA
BRANCH  31  34
ATOM     34  C   UNL A   1      34.162  34.336  29.166  1.00  0.00     0.039 A 
ATOM     35  C   UNL A   1      35.404  34.573  28.577  1.00  0.00     0.014 A 
ATOM     36  C   UNL A   1      34.094  33.708  30.414  1.00  0.00     0.014 A 
ATOM     37  C   UNL A   1      36.548  34.015  29.135  1.00  0.00     0.010 A 
ATOM     38  C   UNL A   1      35.260  33.233  31.023  1.00  0.00     0.010 A 
ATOM     39  C   UNL A   1      36.492  33.328  30.359  1.00  0.00    -0.014 A 
BRANCH  39  40
ATOM     40  C   UNL A   1      37.736  32.710  30.891  1.00  0.00     0.031 A 
ATOM     41  C   UNL A   1      38.327  33.163  32.201  1.00  0.00     0.074 A 
ATOM     42  C   UNL A   1      38.280  31.664  30.239  1.00  0.00     0.049 A 
ATOM     43  N   UNL A   1      39.326  32.651  32.879  1.00  0.00    -0.248 NA
ATOM     44  C   UNL A   1      37.723  34.346  32.835  1.00  0.00     0.031 C 
ATOM     45  C   UNL A   1      37.808  31.133  28.958  1.00  0.00     0.029 A 
ATOM     46  N   UNL A   1      39.314  30.831  30.582  1.00  0.00    -0.354 N 
ATOM     47  C   UNL A   1      39.472  33.450  34.008  1.00  0.00     0.074 A 
ATOM     48  C   UNL A   1      38.490  34.506  33.903  1.00  0.00     0.031 C 
ATOM     49  C   UNL A   1      38.499  30.022  28.662  1.00  0.00     0.029 A 
ATOM     50  C   UNL A   1      39.495  29.792  29.702  1.00  0.00     0.049 A 
ATOM     51  H   UNL A   1      39.871  30.965  31.382  1.00  0.00     0.167 HD
ATOM     52  C   UNL A   1      40.329  33.304  35.049  1.00  0.00     0.037 A 
ATOM     53  C   UNL A   1      40.363  28.764  29.732  1.00  0.00     0.037 A 
ATOM     54  C   UNL A   1      41.306  32.250  35.159  1.00  0.00     0.049 A 
ATOM     55  C   UNL A   1      41.324  28.651  30.880  1.00  0.00     0.074 A 
ATOM     56  C   UNL A   1      42.219  32.017  36.175  1.00  0.00     0.029 A 
ATOM     57  N   UNL A   1      41.499  31.251  34.217  1.00  0.00    -0.354 N 
ATOM     58  N   UNL A   1      41.426  29.395  31.955  1.00  0.00    -0.248 NA
ATOM     59  C   UNL A   1      42.294  27.549  30.814  1.00  0.00     0.031 C 
ATOM     60  C   UNL A   1      42.986  30.897  35.829  1.00  0.00     0.029 A 
ATOM     61  C   UNL A   1      42.522  30.407  34.620  1.00  0.00     0.049 A 
ATOM     62  H   UNL A   1      40.985  31.156  33.382  1.00  0.00     0.167 HD
ATOM     63  C   UNL A   1      42.456  28.840  32.702  1.00  0.00     0.074 A 
ATOM     64  C   UNL A   1      42.924  27.680  31.973  1.00  0.00     0.031 C 
ATOM     65  C   UNL A   1      42.975  29.256  33.883  1.00  0.00     0.037 A 
BRANCH  52  66
ATOM     66  C   UNL A   1      40.240  34.316  36.157  1.00  0.00     0.057 A 
ATOM     67  C   UNL A   1      39.394  34.115  37.255  1.00  0.00     0.134 A 
ATOM     68  C   UNL A   1      40.976  35.507  36.124  1.00  0.00     0.134 A 
ATOM     69  F   UNL A   1      38.661  32.996  37.355  1.00  0.00    -0.206 F 
ATOM     70  C   UNL A   1      39.279  35.065  38.272  1.00  0.00     0.040 A 
ATOM     71  C   UNL A   1      40.890  36.453  37.148  1.00  0.00     0.040 A 
ATOM     72  F   UNL A   1      41.818  35.753  35.107  1.00  0.00    -0.206 F 
ATOM     73  C   UNL A   1      40.030  36.237  38.221  1.00  0.00     0.006 A 
ENDBRANCH  52  66
BRANCH  53  74
ATOM     74  C   UNL A   1      40.365  27.749  28.649  1.00  0.00     0.057 A 
ATOM     75  C   UNL A   1      41.129  27.923  27.489  1.00  0.00     0.134 A 
ATOM     76  C   UNL A   1      39.639  26.558  28.773  1.00  0.00     0.134 A 
ATOM     77  F   UNL A   1      41.842  29.044  27.309  1.00  0.00    -0.206 F 
ATOM     78  C   UNL A   1      41.173  26.949  26.492  1.00  0.00     0.040 A 
ATOM     79  C   UNL A   1      39.698  25.562  27.795  1.00  0.00     0.040 A 
ATOM     80  F   UNL A   1      38.905  26.325  29.871  1.00  0.00    -0.206 F 
ATOM     81  C   UNL A   1      40.466  25.759  26.650  1.00  0.00     0.006 A 
ENDBRANCH  53  74
BRANCH  65  82
ATOM     82  C   UNL A   1      44.080  28.421  34.460  1.00  0.00     0.057 A 
ATOM     83  C   UNL A   1      43.791  27.315  35.270  1.00  0.00     0.134 A 
ATOM     84  C   UNL A   1      45.430  28.691  34.190  1.00  0.00     0.134 A 
ATOM     85  F   UNL A   1      42.521  27.007  35.573  1.00  0.00    -0.206 F 
ATOM     86  C   UNL A   1      44.802  26.499  35.777  1.00  0.00     0.040 A 
ATOM     87  C   UNL A   1      46.447  27.864  34.668  1.00  0.00     0.040 A 
ATOM     88  F   UNL A   1      45.772  29.724  33.406  1.00  0.00    -0.206 F 
ATOM     89  C   UNL A   1      46.134  26.765  35.465  1.00  0.00     0.006 A 
ENDBRANCH  65  82
ENDBRANCH  39  40
ENDBRANCH  31  34
ENDBRANCH  29  30
ENDBRANCH  28  29
ENDBRANCH   1  28
TORSDOF 13
ENDMDL
MODEL 2
REMARK VINA RESULT:     -12.9      4.833      8.561
REMARK SMILES CC1=C(CC(=O)NCCCNC(=O)c2ccc(-c3c4nc(c(-c5c(F)cccc5F)c5ccc([nH]5)c(-c5c(F)cccc5F)c5nc(c(-c6c(F)cccc6F)c6ccc3[nH]6)C=C5)C=C4)cc2)c2cc(F)ccc2/C1=C\c1ccc([S@@+](C)[O-])cc1
REMARK SMILES IDX 8 1 7 2 5 3 6 4 4 6 3 7 1 8 2 9 75 10 68 11 74 12 76 13
REMARK SMILES IDX 69 14 73 15 70 16 72 17 71 18 77 19 78 20 85 21 79 22 84 23
REMARK SMILES IDX 80 24 81 25 82 26 83 27 9 28 10 29 11 30 12 31 13 33 14 34
REMARK SMILES IDX 15 35 67 36 16 37 66 38 17 39 18 40 19 41 60 42 20 43 65 44
REMARK SMILES IDX 59 45 61 46 21 47 64 48 58 49 57 50 22 52 48 53 31 54 47 55
REMARK SMILES IDX 32 56 35 57 46 58 62 59 33 60 34 61 45 63 63 64 36 65 23 66
REMARK SMILES IDX 24 67 29 68 25 69 26 70 28 71 30 72 27 73 49 74 50 75 55 76
REMARK SMILES IDX 51 77 52 78 54 79 56 80 53 81 37 82 38 83 43 84 39 85 40 86
REMARK SMILES IDX 42 87 44 88 41 89
REMARK H PARENT 7 5 11 32 61 51 35 62
REMARK Flexibility Score: inf
ROOT
ATOM      1  C   UNL A   1      33.163  28.695  25.315  1.00  0.00     0.117 C 
ENDROOT
BRANCH   1   2
ATOM      2  N   UNL A   1      32.558  27.620  26.076  1.00  0.00    -0.356 N 
ATOM      3  C   UNL A   1      32.597  26.276  25.847  1.00  0.00     0.224 C 
ATOM      4  O   UNL A   1      31.975  25.539  26.616  1.00  0.00    -0.275 OA
ATOM      5  H   UNL A   1      32.048  27.899  26.871  1.00  0.00     0.163 HD
BRANCH   3   6
ATOM      6  C   UNL A   1      33.419  25.710  24.692  1.00  0.00     0.136 C 
BRANCH   6   7
ATOM      7  C   UNL A   1      33.417  24.215  24.631  1.00  0.00    -0.027 C 
ATOM      8  C   UNL A   1      31.095  23.733  23.672  1.00  0.00     0.045 C 
ATOM      9  C   UNL A   1      32.438  23.374  24.220  1.00  0.00    -0.039 C 
ATOM     10  C   UNL A   1      32.889  21.977  24.361  1.00  0.00    -0.014 C 
ATOM     11  C   UNL A   1      34.589  23.396  24.987  1.00  0.00    -0.011 A 
ATOM     12  C   UNL A   1      34.302  22.032  24.778  1.00  0.00    -0.010 A 
ATOM     13  C   UNL A   1      32.094  20.903  24.179  1.00  0.00     0.017 C 
ATOM     14  C   UNL A   1      35.843  23.795  25.434  1.00  0.00     0.048 A 
ATOM     15  C   UNL A   1      35.289  21.071  24.955  1.00  0.00     0.012 A 
ATOM     16  C   UNL A   1      36.805  22.817  25.661  1.00  0.00     0.123 A 
ATOM     17  C   UNL A   1      36.545  21.469  25.418  1.00  0.00     0.040 A 
ATOM     18  F   UNL A   1      38.015  23.176  26.110  1.00  0.00    -0.207 F 
BRANCH  13  19
ATOM     19  C   UNL A   1      32.484  19.495  24.311  1.00  0.00    -0.025 A 
ATOM     20  C   UNL A   1      32.574  18.870  25.560  1.00  0.00     0.013 A 
ATOM     21  C   UNL A   1      32.840  18.784  23.163  1.00  0.00     0.013 A 
ATOM     22  C   UNL A   1      33.138  17.592  25.670  1.00  0.00     0.061 A 
ATOM     23  C   UNL A   1      33.379  17.499  23.272  1.00  0.00     0.061 A 
ATOM     24  C   UNL A   1      33.571  16.908  24.528  1.00  0.00     0.152 A 
BRANCH  24  25
ATOM     25  S   UNL A   1      34.541  15.381  24.643  1.00  0.00    -0.018 S 
ATOM     26  C   UNL A   1      35.903  15.939  25.679  1.00  0.00     0.346 C 
ATOM     27  O   UNL A   1      33.687  14.365  25.485  1.00  0.00    -0.612 OA
ENDBRANCH  24  25
ENDBRANCH  13  19
ENDBRANCH   6   7
ENDBRANCH   3   6
ENDBRANCH   1   2
BRANCH   1  28
ATOM     28  C   UNL A   1      33.621  29.844  26.206  1.00  0.00     0.042 C 
BRANCH  28  29
ATOM     29  C   UNL A   1      34.572  29.424  27.320  1.00  0.00     0.118 C 
BRANCH  29  30
ATOM     30  N   UNL A   1      34.701  30.427  28.370  1.00  0.00    -0.352 N 
ATOM     31  C   UNL A   1      35.746  30.690  29.223  1.00  0.00     0.251 C 
ATOM     32  H   UNL A   1      33.915  31.010  28.486  1.00  0.00     0.163 HD
ATOM     33  O   UNL A   1      35.593  31.487  30.145  1.00  0.00    -0.269 OA
BRANCH  31  34
ATOM     34  C   UNL A   1      37.043  29.995  29.061  1.00  0.00     0.039 A 
ATOM     35  C   UNL A   1      37.673  29.388  30.147  1.00  0.00     0.014 A 
ATOM     36  C   UNL A   1      37.643  29.952  27.798  1.00  0.00     0.014 A 
ATOM     37  C   UNL A   1      38.973  28.917  30.014  1.00  0.00     0.010 A 
ATOM     38  C   UNL A   1      38.913  29.386  27.645  1.00  0.00     0.010 A 
ATOM     39  C   UNL A   1      39.616  28.919  28.765  1.00  0.00    -0.014 A 
BRANCH  39  40
ATOM     40  C   UNL A   1      41.025  28.445  28.684  1.00  0.00     0.031 A 
ATOM     41  C   UNL A   1      41.342  27.020  28.312  1.00  0.00     0.074 A 
ATOM     42  C   UNL A   1      42.025  29.333  28.847  1.00  0.00     0.049 A 
ATOM     43  N   UNL A   1      42.507  26.470  28.065  1.00  0.00    -0.248 NA
ATOM     44  C   UNL A   1      40.210  26.087  28.205  1.00  0.00     0.031 C 
ATOM     45  C   UNL A   1      41.851  30.740  29.215  1.00  0.00     0.029 A 
ATOM     46  N   UNL A   1      43.380  29.200  28.678  1.00  0.00    -0.354 N 
ATOM     47  C   UNL A   1      42.247  25.133  27.783  1.00  0.00     0.074 A 
ATOM     48  C   UNL A   1      40.821  24.944  27.931  1.00  0.00     0.031 C 
ATOM     49  C   UNL A   1      43.042  31.356  29.171  1.00  0.00     0.029 A 
ATOM     50  C   UNL A   1      44.068  30.380  28.823  1.00  0.00     0.049 A 
ATOM     51  H   UNL A   1      43.816  28.342  28.472  1.00  0.00     0.167 HD
ATOM     52  C   UNL A   1      43.112  24.158  27.410  1.00  0.00     0.037 A 
ATOM     53  C   UNL A   1      45.379  30.648  28.685  1.00  0.00     0.037 A 
ATOM     54  C   UNL A   1      44.534  24.344  27.257  1.00  0.00     0.049 A 
ATOM     55  C   UNL A   1      46.318  29.538  28.307  1.00  0.00     0.074 A 
ATOM     56  C   UNL A   1      45.494  23.417  26.884  1.00  0.00     0.029 A 
ATOM     57  N   UNL A   1      45.201  25.540  27.472  1.00  0.00    -0.354 N 
ATOM     58  N   UNL A   1      46.051  28.289  28.011  1.00  0.00    -0.248 NA
ATOM     59  C   UNL A   1      47.745  29.881  28.247  1.00  0.00     0.031 C 
ATOM     60  C   UNL A   1      46.745  24.047  26.906  1.00  0.00     0.029 A 
ATOM     61  C   UNL A   1      46.559  25.375  27.251  1.00  0.00     0.049 A 
ATOM     62  H   UNL A   1      44.772  26.385  27.744  1.00  0.00     0.167 HD
ATOM     63  C   UNL A   1      47.272  27.703  27.710  1.00  0.00     0.074 A 
ATOM     64  C   UNL A   1      48.275  28.741  27.828  1.00  0.00     0.031 C 
ATOM     65  C   UNL A   1      47.544  26.418  27.372  1.00  0.00     0.037 A 
BRANCH  52  66
ATOM     66  C   UNL A   1      42.536  22.797  27.139  1.00  0.00     0.057 A 
ATOM     67  C   UNL A   1      42.146  21.953  28.186  1.00  0.00     0.134 A 
ATOM     68  C   UNL A   1      42.390  22.310  25.833  1.00  0.00     0.134 A 
ATOM     69  F   UNL A   1      42.254  22.354  29.460  1.00  0.00    -0.206 F 
ATOM     70  C   UNL A   1      41.641  20.673  27.944  1.00  0.00     0.040 A 
ATOM     71  C   UNL A   1      41.862  21.042  25.577  1.00  0.00     0.040 A 
ATOM     72  F   UNL A   1      42.730  23.075  24.784  1.00  0.00    -0.206 F 
ATOM     73  C   UNL A   1      41.496  20.215  26.636  1.00  0.00     0.006 A 
ENDBRANCH  52  66
BRANCH  53  74
ATOM     74  C   UNL A   1      45.892  32.025  28.895  1.00  0.00     0.057 A 
ATOM     75  C   UNL A   1      45.958  32.947  27.843  1.00  0.00     0.134 A 
ATOM     76  C   UNL A   1      46.282  32.465  30.166  1.00  0.00     0.134 A 
ATOM     77  F   UNL A   1      45.603  32.585  26.602  1.00  0.00    -0.206 F 
ATOM     78  C   UNL A   1      46.392  34.256  28.047  1.00  0.00     0.040 A 
ATOM     79  C   UNL A   1      46.691  33.781  30.389  1.00  0.00     0.040 A 
ATOM     80  F   UNL A   1      46.222  31.633  31.217  1.00  0.00    -0.206 F 
ATOM     81  C   UNL A   1      46.748  34.680  29.326  1.00  0.00     0.006 A 
ENDBRANCH  53  74
BRANCH  65  82
ATOM     82  C   UNL A   1      48.978  26.092  27.076  1.00  0.00     0.057 A 
ATOM     83  C   UNL A   1      49.488  26.229  25.779  1.00  0.00     0.134 A 
ATOM     84  C   UNL A   1      49.864  25.674  28.079  1.00  0.00     0.134 A 
ATOM     85  F   UNL A   1      48.692  26.618  24.771  1.00  0.00    -0.206 F 
ATOM     86  C   UNL A   1      50.830  25.977  25.493  1.00  0.00     0.040 A 
ATOM     87  C   UNL A   1      51.215  25.447  27.810  1.00  0.00     0.040 A 
ATOM     88  F   UNL A   1      49.442  25.542  29.346  1.00  0.00    -0.206 F 
ATOM     89  C   UNL A   1      51.700  25.598  26.513  1.00  0.00     0.006 A 
ENDBRANCH  65  82
ENDBRANCH  39  40
ENDBRANCH  31  34
ENDBRANCH  29  30
ENDBRANCH  28  29
ENDBRANCH   1  28
TORSDOF 13
ENDMDL
MODEL 3
REMARK VINA RESULT:     -12.8      4.799      9.861
REMARK SMILES CC1=C(CC(=O)NCCCNC(=O)c2ccc(-c3c4nc(c(-c5c(F)cccc5F)c5ccc([nH]5)c(-c5c(F)cccc5F)c5nc(c(-c6c(F)cccc6F)c6ccc3[nH]6)C=C5)C=C4)cc2)c2cc(F)ccc2/C1=C\c1ccc([S@@+](C)[O-])cc1
REMARK SMILES IDX 8 1 7 2 5 3 6 4 4 6 3 7 1 8 2 9 75 10 68 11 74 12 76 13
REMARK SMILES IDX 69 14 73 15 70 16 72 17 71 18 77 19 78 20 85 21 79 22 84 23
REMARK SMILES IDX 80 24 81 25 82 26 83 27 9 28 10 29 11 30 12 31 13 33 14 34
REMARK SMILES IDX 15 35 67 36 16 37 66 38 17 39 18 40 19 41 60 42 20 43 65 44
REMARK SMILES IDX 59 45 61 46 21 47 64 48 58 49 57 50 22 52 48 53 31 54 47 55
REMARK SMILES IDX 32 56 35 57 46 58 62 59 33 60 34 61 45 63 63 64 36 65 23 66
REMARK SMILES IDX 24 67 29 68 25 69 26 70 28 71 30 72 27 73 49 74 50 75 55 76
REMARK SMILES IDX 51 77 52 78 54 79 56 80 53 81 37 82 38 83 43 84 39 85 40 86
REMARK SMILES IDX 42 87 44 88 41 89
REMARK H PARENT 7 5 11 32 61 51 35 62
REMARK Flexibility Score: inf
ROOT
ATOM      1  C   UNL A   1      36.324  20.315  25.063  1.00  0.00     0.117 C 
ENDROOT
BRANCH   1   2
ATOM      2  N   UNL A   1      36.007  21.380  25.993  1.00  0.00    -0.356 N 
ATOM      3  C   UNL A   1      34.929  22.216  26.009  1.00  0.00     0.224 C 
ATOM      4  O   UNL A   1      34.880  23.082  26.885  1.00  0.00    -0.275 OA
ATOM      5  H   UNL A   1      36.661  21.520  26.715  1.00  0.00     0.163 HD
BRANCH   3   6
ATOM      6  C   UNL A   1      33.805  22.051  24.989  1.00  0.00     0.136 C 
BRANCH   6   7
ATOM      7  C   UNL A   1      33.020  23.303  24.755  1.00  0.00    -0.027 C 
ATOM      8  C   UNL A   1      34.331  24.396  22.850  1.00  0.00     0.045 C 
ATOM      9  C   UNL A   1      33.243  24.303  23.869  1.00  0.00    -0.039 C 
ATOM     10  C   UNL A   1      32.209  25.343  24.021  1.00  0.00    -0.014 C 
ATOM     11  C   UNL A   1      31.772  23.614  25.475  1.00  0.00    -0.011 A 
ATOM     12  C   UNL A   1      31.237  24.828  25.003  1.00  0.00    -0.010 A 
ATOM     13  C   UNL A   1      32.236  26.536  23.391  1.00  0.00     0.017 C 
ATOM     14  C   UNL A   1      31.113  22.883  26.456  1.00  0.00     0.048 A 
ATOM     15  C   UNL A   1      30.009  25.282  25.466  1.00  0.00     0.012 A 
ATOM     16  C   UNL A   1      29.911  23.378  26.952  1.00  0.00     0.123 A 
ATOM     17  C   UNL A   1      29.352  24.558  26.463  1.00  0.00     0.040 A 
ATOM     18  F   UNL A   1      29.267  22.701  27.912  1.00  0.00    -0.207 F 
BRANCH  13  19
ATOM     19  C   UNL A   1      31.242  27.608  23.508  1.00  0.00    -0.025 A 
ATOM     20  C   UNL A   1      30.111  27.656  22.685  1.00  0.00     0.013 A 
ATOM     21  C   UNL A   1      31.470  28.642  24.418  1.00  0.00     0.013 A 
ATOM     22  C   UNL A   1      29.288  28.790  22.682  1.00  0.00     0.061 A 
ATOM     23  C   UNL A   1      30.634  29.761  24.431  1.00  0.00     0.061 A 
ATOM     24  C   UNL A   1      29.562  29.865  23.536  1.00  0.00     0.152 A 
BRANCH  24  25
ATOM     25  S   UNL A   1      28.693  31.448  23.381  1.00  0.00    -0.018 S 
ATOM     26  C   UNL A   1      28.659  31.626  21.590  1.00  0.00     0.346 C 
ATOM     27  O   UNL A   1      27.216  31.204  23.863  1.00  0.00    -0.612 OA
ENDBRANCH  24  25
ENDBRANCH  13  19
ENDBRANCH   6   7
ENDBRANCH   3   6
ENDBRANCH   1   2
BRANCH   1  28
ATOM     28  C   UNL A   1      37.785  20.346  24.627  1.00  0.00     0.042 C 
BRANCH  28  29
ATOM     29  C   UNL A   1      38.773  20.472  25.779  1.00  0.00     0.118 C 
BRANCH  29  30
ATOM     30  N   UNL A   1      39.821  19.460  25.746  1.00  0.00    -0.352 N 
ATOM     31  C   UNL A   1      41.160  19.558  26.040  1.00  0.00     0.251 C 
ATOM     32  H   UNL A   1      39.522  18.562  25.470  1.00  0.00     0.163 HD
ATOM     33  O   UNL A   1      41.907  18.613  25.800  1.00  0.00    -0.269 OA
BRANCH  31  34
ATOM     34  C   UNL A   1      41.714  20.806  26.612  1.00  0.00     0.039 A 
ATOM     35  C   UNL A   1      41.730  21.020  27.990  1.00  0.00     0.014 A 
ATOM     36  C   UNL A   1      42.226  21.784  25.752  1.00  0.00     0.014 A 
ATOM     37  C   UNL A   1      42.069  22.271  28.490  1.00  0.00     0.010 A 
ATOM     38  C   UNL A   1      42.663  23.010  26.267  1.00  0.00     0.010 A 
ATOM     39  C   UNL A   1      42.530  23.287  27.636  1.00  0.00    -0.014 A 
BRANCH  39  40
ATOM     40  C   UNL A   1      42.839  24.623  28.214  1.00  0.00     0.031 A 
ATOM     41  C   UNL A   1      44.264  25.068  28.417  1.00  0.00     0.074 A 
ATOM     42  C   UNL A   1      41.828  25.480  28.460  1.00  0.00     0.049 A 
ATOM     43  N   UNL A   1      44.719  26.243  28.783  1.00  0.00    -0.248 NA
ATOM     44  C   UNL A   1      45.318  24.069  28.185  1.00  0.00     0.031 C 
ATOM     45  C   UNL A   1      40.405  25.169  28.311  1.00  0.00     0.029 A 
ATOM     46  N   UNL A   1      41.842  26.797  28.842  1.00  0.00    -0.354 N 
ATOM     47  C   UNL A   1      46.103  26.120  28.831  1.00  0.00     0.074 A 
ATOM     48  C   UNL A   1      46.412  24.746  28.500  1.00  0.00     0.031 C 
ATOM     49  C   UNL A   1      39.687  26.282  28.523  1.00  0.00     0.029 A 
ATOM     50  C   UNL A   1      40.593  27.369  28.874  1.00  0.00     0.049 A 
ATOM     51  H   UNL A   1      42.666  27.284  29.069  1.00  0.00     0.167 HD
ATOM     52  C   UNL A   1      47.034  27.068  29.101  1.00  0.00     0.037 A 
ATOM     53  C   UNL A   1      40.220  28.633  29.149  1.00  0.00     0.037 A 
ATOM     54  C   UNL A   1      46.729  28.439  29.426  1.00  0.00     0.049 A 
ATOM     55  C   UNL A   1      41.271  29.652  29.481  1.00  0.00     0.074 A 
ATOM     56  C   UNL A   1      47.602  29.475  29.716  1.00  0.00     0.029 A 
ATOM     57  N   UNL A   1      45.449  28.965  29.508  1.00  0.00    -0.354 N 
ATOM     58  N   UNL A   1      42.576  29.527  29.488  1.00  0.00    -0.248 NA
ATOM     59  C   UNL A   1      40.792  30.992  29.845  1.00  0.00     0.031 C 
ATOM     60  C   UNL A   1      46.847  30.619  30.005  1.00  0.00     0.029 A 
ATOM     61  C   UNL A   1      45.507  30.307  29.853  1.00  0.00     0.049 A 
ATOM     62  H   UNL A   1      44.619  28.459  29.345  1.00  0.00     0.167 HD
ATOM     63  C   UNL A   1      43.073  30.775  29.836  1.00  0.00     0.074 A 
ATOM     64  C   UNL A   1      41.931  31.650  30.001  1.00  0.00     0.031 C 
ATOM     65  C   UNL A   1      44.361  31.164  30.012  1.00  0.00     0.037 A 
BRANCH  52  66
ATOM     66  C   UNL A   1      48.476  26.648  29.050  1.00  0.00     0.057 A 
ATOM     67  C   UNL A   1      49.103  26.075  30.163  1.00  0.00     0.134 A 
ATOM     68  C   UNL A   1      49.254  26.836  27.900  1.00  0.00     0.134 A 
ATOM     69  F   UNL A   1      48.419  25.863  31.296  1.00  0.00    -0.206 F 
ATOM     70  C   UNL A   1      50.452  25.713  30.136  1.00  0.00     0.040 A 
ATOM     71  C   UNL A   1      50.596  26.454  27.852  1.00  0.00     0.040 A 
ATOM     72  F   UNL A   1      48.708  27.366  26.793  1.00  0.00    -0.206 F 
ATOM     73  C   UNL A   1      51.202  25.901  28.976  1.00  0.00     0.006 A 
ENDBRANCH  52  66
BRANCH  53  74
ATOM     74  C   UNL A   1      38.786  29.018  29.117  1.00  0.00     0.057 A 
ATOM     75  C   UNL A   1      37.981  28.923  30.258  1.00  0.00     0.134 A 
ATOM     76  C   UNL A   1      38.202  29.535  27.954  1.00  0.00     0.134 A 
ATOM     77  F   UNL A   1      38.480  28.432  31.401  1.00  0.00    -0.206 F 
ATOM     78  C   UNL A   1      36.647  29.331  30.245  1.00  0.00     0.040 A 
ATOM     79  C   UNL A   1      36.877  29.974  27.936  1.00  0.00     0.040 A 
ATOM     80  F   UNL A   1      38.929  29.668  26.835  1.00  0.00    -0.206 F 
ATOM     81  C   UNL A   1      36.095  29.870  29.084  1.00  0.00     0.006 A 
ENDBRANCH  53  74
BRANCH  65  82
ATOM     82  C   UNL A   1      44.583  32.604  30.366  1.00  0.00     0.057 A 
ATOM     83  C   UNL A   1      44.707  33.575  29.364  1.00  0.00     0.134 A 
ATOM     84  C   UNL A   1      44.642  33.039  31.698  1.00  0.00     0.134 A 
ATOM     85  F   UNL A   1      44.667  33.225  28.069  1.00  0.00    -0.206 F 
ATOM     86  C   UNL A   1      44.866  34.926  29.673  1.00  0.00     0.040 A 
ATOM     87  C   UNL A   1      44.771  34.391  32.019  1.00  0.00     0.040 A 
ATOM     88  F   UNL A   1      44.510  32.161  32.704  1.00  0.00    -0.206 F 
ATOM     89  C   UNL A   1      44.885  35.338  31.004  1.00  0.00     0.006 A 
ENDBRANCH  65  82
ENDBRANCH  39  40
ENDBRANCH  31  34
ENDBRANCH  29  30
ENDBRANCH  28  29
ENDBRANCH   1  28
TORSDOF 13
ENDMDL
