MODEL 1
REMARK VINA RESULT:     -12.6      0.000      0.000
REMARK SMILES Cc1ccc(C[C@@H](Cc2cc(F)cc(Br)c2)C(=O)NCCCNC(=O)c2ccc(-c3c4nc(c(-c5c(F)cccc5F)c5ccc([nH]5)c(-c5c(F)cccc5F)c5nc(c(-c6c(F)cccc6F)c6ccc3[nH]6)C=C5)C=C4)cc2)cc1
REMARK SMILES IDX 21 1 20 2 19 3 17 4 18 5 7 7 6 8 5 9 1 10 2 11 3 12 81 13
REMARK SMILES IDX 4 14 80 15 8 16 9 17 10 18 16 19 11 20 14 21 12 22 13 23
REMARK SMILES IDX 15 24 22 25 23 26 24 27 25 29 26 30 27 31 79 32 28 33 78 34
REMARK SMILES IDX 29 35 30 36 31 37 72 38 32 39 77 40 71 41 73 42 33 43 76 44
REMARK SMILES IDX 70 45 69 46 34 48 60 49 43 50 59 51 44 52 47 53 58 54 74 55
REMARK SMILES IDX 45 56 46 57 57 59 75 60 48 61 35 62 36 63 41 64 37 65 38 66
REMARK SMILES IDX 40 67 42 68 39 69 61 70 62 71 67 72 63 73 64 74 66 75 68 76
REMARK SMILES IDX 65 77 49 78 50 79 55 80 51 81 52 82 54 83 56 84 53 85
REMARK H PARENT 19 6 23 28 73 47 47 58
REMARK Flexibility Score: inf
ROOT
ATOM      1  C   UNL A   1      32.490  30.819  26.604  1.00  0.00     0.042 C 
ENDROOT
BRANCH   1   2
ATOM      2  C   UNL A   1      32.128  29.784  25.548  1.00  0.00     0.117 C 
BRANCH   2   3
ATOM      3  N   UNL A   1      33.134  29.699  24.497  1.00  0.00    -0.356 N 
ATOM      4  C   UNL A   1      33.602  28.613  23.814  1.00  0.00     0.223 C 
ATOM      5  O   UNL A   1      34.435  28.807  22.926  1.00  0.00    -0.275 OA
ATOM      6  H   UNL A   1      33.539  30.558  24.239  1.00  0.00     0.163 HD
BRANCH   4   7
ATOM      7  C   UNL A   1      33.138  27.195  24.143  1.00  0.00     0.087 C 
BRANCH   7   8
ATOM      8  C   UNL A   1      33.465  26.339  22.894  1.00  0.00     0.049 C 
BRANCH   8   9
ATOM      9  C   UNL A   1      33.186  24.859  22.879  1.00  0.00    -0.047 A 
ATOM     10  C   UNL A   1      32.335  20.654  23.385  1.00  0.00     0.044 C 
ATOM     11  C   UNL A   1      32.644  22.110  23.204  1.00  0.00    -0.051 A 
ATOM     12  C   UNL A   1      31.600  23.024  23.046  1.00  0.00     0.004 A 
ATOM     13  C   UNL A   1      33.963  22.575  23.178  1.00  0.00     0.004 A 
ATOM     14  C   UNL A   1      31.869  24.386  22.903  1.00  0.00     0.004 A 
ATOM     15  C   UNL A   1      34.232  23.937  23.013  1.00  0.00     0.004 A 
ENDBRANCH   8   9
ENDBRANCH   7   8
BRANCH   7  16
ATOM     16  C   UNL A   1      33.579  26.638  25.527  1.00  0.00     0.049 C 
BRANCH  16  17
ATOM     17  C   UNL A   1      32.967  25.368  26.098  1.00  0.00    -0.043 A 
ATOM     18  C   UNL A   1      31.570  25.290  26.243  1.00  0.00     0.043 A 
ATOM     19  C   UNL A   1      33.728  24.247  26.463  1.00  0.00     0.019 A 
ATOM     20  C   UNL A   1      30.963  24.100  26.641  1.00  0.00     0.124 A 
ATOM     21  C   UNL A   1      33.098  23.048  26.821  1.00  0.00     0.021 A 
ATOM     22  F   UNL A   1      29.627  24.043  26.728  1.00  0.00    -0.207 F 
ATOM     23  C   UNL A   1      31.713  22.965  26.907  1.00  0.00     0.055 A 
ATOM     24  Br  UNL A   1      34.144  21.502  27.126  1.00  0.00    -0.051 Br
ENDBRANCH  16  17
ENDBRANCH   7  16
ENDBRANCH   4   7
ENDBRANCH   2   3
ENDBRANCH   1   2
BRANCH   1  25
ATOM     25  C   UNL A   1      33.528  30.303  27.577  1.00  0.00     0.118 C 
BRANCH  25  26
ATOM     26  N   UNL A   1      34.212  31.343  28.333  1.00  0.00    -0.352 N 
ATOM     27  C   UNL A   1      35.434  31.304  28.987  1.00  0.00     0.251 C 
ATOM     28  H   UNL A   1      33.735  32.204  28.387  1.00  0.00     0.163 HD
ATOM     29  O   UNL A   1      35.806  32.266  29.630  1.00  0.00    -0.269 OA
BRANCH  27  30
ATOM     30  C   UNL A   1      36.351  30.152  28.761  1.00  0.00     0.039 A 
ATOM     31  C   UNL A   1      36.628  29.332  29.859  1.00  0.00     0.014 A 
ATOM     32  C   UNL A   1      37.115  30.045  27.605  1.00  0.00     0.014 A 
ATOM     33  C   UNL A   1      37.835  28.639  29.902  1.00  0.00     0.010 A 
ATOM     34  C   UNL A   1      38.366  29.473  27.693  1.00  0.00     0.010 A 
ATOM     35  C   UNL A   1      38.750  28.830  28.870  1.00  0.00    -0.014 A 
BRANCH  35  36
ATOM     36  C   UNL A   1      40.162  28.495  28.989  1.00  0.00     0.031 A 
ATOM     37  C   UNL A   1      40.674  27.233  28.425  1.00  0.00     0.074 A 
ATOM     38  C   UNL A   1      41.011  29.366  29.580  1.00  0.00     0.049 A 
ATOM     39  N   UNL A   1      41.674  26.584  28.917  1.00  0.00    -0.248 NA
ATOM     40  C   UNL A   1      40.069  26.578  27.270  1.00  0.00     0.031 C 
ATOM     41  C   UNL A   1      42.469  29.303  29.596  1.00  0.00     0.029 A 
ATOM     42  N   UNL A   1      40.696  30.402  30.471  1.00  0.00    -0.354 N 
ATOM     43  C   UNL A   1      42.005  25.595  28.022  1.00  0.00     0.074 A 
ATOM     44  C   UNL A   1      40.943  25.592  27.043  1.00  0.00     0.031 C 
ATOM     45  C   UNL A   1      42.923  30.031  30.628  1.00  0.00     0.029 A 
ATOM     46  C   UNL A   1      41.766  30.474  31.387  1.00  0.00     0.049 A 
ATOM     47  H   UNL A   1      39.889  30.967  30.458  1.00  0.00     0.167 HD
ATOM     48  C   UNL A   1      43.212  24.971  28.119  1.00  0.00     0.037 A 
ATOM     49  C   UNL A   1      41.582  30.262  32.721  1.00  0.00     0.037 A 
ATOM     50  C   UNL A   1      44.003  25.506  29.218  1.00  0.00     0.049 A 
ATOM     51  C   UNL A   1      42.386  29.107  33.268  1.00  0.00     0.074 A 
ATOM     52  C   UNL A   1      44.980  26.488  29.258  1.00  0.00     0.029 A 
ATOM     53  N   UNL A   1      43.607  25.290  30.532  1.00  0.00    -0.354 N 
ATOM     54  N   UNL A   1      42.869  28.145  32.533  1.00  0.00    -0.248 NA
ATOM     55  C   UNL A   1      42.688  28.934  34.685  1.00  0.00     0.031 C 
ATOM     56  C   UNL A   1      45.150  26.887  30.603  1.00  0.00     0.029 A 
ATOM     57  C   UNL A   1      44.289  26.137  31.385  1.00  0.00     0.049 A 
ATOM     58  H   UNL A   1      42.936  24.628  30.815  1.00  0.00     0.167 HD
ATOM     59  C   UNL A   1      43.508  27.232  33.336  1.00  0.00     0.074 A 
ATOM     60  C   UNL A   1      43.383  27.783  34.672  1.00  0.00     0.031 C 
ATOM     61  C   UNL A   1      44.075  26.099  32.824  1.00  0.00     0.037 A 
BRANCH  48  62
ATOM     62  C   UNL A   1      43.766  24.113  27.011  1.00  0.00     0.057 A 
ATOM     63  C   UNL A   1      44.513  24.670  25.957  1.00  0.00     0.134 A 
ATOM     64  C   UNL A   1      43.551  22.728  26.912  1.00  0.00     0.134 A 
ATOM     65  F   UNL A   1      44.884  25.957  25.957  1.00  0.00    -0.206 F 
ATOM     66  C   UNL A   1      44.911  23.932  24.835  1.00  0.00     0.040 A 
ATOM     67  C   UNL A   1      43.898  21.986  25.772  1.00  0.00     0.040 A 
ATOM     68  F   UNL A   1      43.014  22.035  27.926  1.00  0.00    -0.206 F 
ATOM     69  C   UNL A   1      44.569  22.593  24.721  1.00  0.00     0.006 A 
ENDBRANCH  48  62
BRANCH  49  70
ATOM     70  C   UNL A   1      40.241  30.672  33.209  1.00  0.00     0.057 A 
ATOM     71  C   UNL A   1      39.960  32.043  33.347  1.00  0.00     0.134 A 
ATOM     72  C   UNL A   1      39.150  29.800  33.171  1.00  0.00     0.134 A 
ATOM     73  F   UNL A   1      40.963  32.932  33.404  1.00  0.00    -0.206 F 
ATOM     74  C   UNL A   1      38.653  32.535  33.326  1.00  0.00     0.040 A 
ATOM     75  C   UNL A   1      37.835  30.282  33.160  1.00  0.00     0.040 A 
ATOM     76  F   UNL A   1      39.334  28.480  33.024  1.00  0.00    -0.206 F 
ATOM     77  C   UNL A   1      37.586  31.654  33.197  1.00  0.00     0.006 A 
ENDBRANCH  49  70
BRANCH  61  78
ATOM     78  C   UNL A   1      44.581  24.903  33.600  1.00  0.00     0.057 A 
ATOM     79  C   UNL A   1      45.924  24.505  33.665  1.00  0.00     0.134 A 
ATOM     80  C   UNL A   1      43.711  24.180  34.452  1.00  0.00     0.134 A 
ATOM     81  F   UNL A   1      46.887  25.163  33.007  1.00  0.00    -0.206 F 
ATOM     82  C   UNL A   1      46.358  23.437  34.464  1.00  0.00     0.040 A 
ATOM     83  C   UNL A   1      44.143  23.153  35.296  1.00  0.00     0.040 A 
ATOM     84  F   UNL A   1      42.400  24.455  34.528  1.00  0.00    -0.206 F 
ATOM     85  C   UNL A   1      45.470  22.765  35.293  1.00  0.00     0.006 A 
ENDBRANCH  61  78
ENDBRANCH  35  36
ENDBRANCH  27  30
ENDBRANCH  25  26
ENDBRANCH   1  25
TORSDOF 14
ENDMDL
MODEL 2
REMARK VINA RESULT:     -12.4      3.760      8.692
REMARK SMILES Cc1ccc(C[C@@H](Cc2cc(F)cc(Br)c2)C(=O)NCCCNC(=O)c2ccc(-c3c4nc(c(-c5c(F)cccc5F)c5ccc([nH]5)c(-c5c(F)cccc5F)c5nc(c(-c6c(F)cccc6F)c6ccc3[nH]6)C=C5)C=C4)cc2)cc1
REMARK SMILES IDX 21 1 20 2 19 3 17 4 18 5 7 7 6 8 5 9 1 10 2 11 3 12 81 13
REMARK SMILES IDX 4 14 80 15 8 16 9 17 10 18 16 19 11 20 14 21 12 22 13 23
REMARK SMILES IDX 15 24 22 25 23 26 24 27 25 29 26 30 27 31 79 32 28 33 78 34
REMARK SMILES IDX 29 35 30 36 31 37 72 38 32 39 77 40 71 41 73 42 33 43 76 44
REMARK SMILES IDX 70 45 69 46 34 48 60 49 43 50 59 51 44 52 47 53 58 54 74 55
REMARK SMILES IDX 45 56 46 57 57 59 75 60 48 61 35 62 36 63 41 64 37 65 38 66
REMARK SMILES IDX 40 67 42 68 39 69 61 70 62 71 67 72 63 73 64 74 66 75 68 76
REMARK SMILES IDX 65 77 49 78 50 79 55 80 51 81 52 82 54 83 56 84 53 85
REMARK H PARENT 19 6 23 28 73 47 47 58
REMARK Flexibility Score: inf
ROOT
ATOM      1  C   UNL A   1      37.658  21.153  25.000  1.00  0.00     0.042 C 
ENDROOT
BRANCH   1   2
ATOM      2  C   UNL A   1      36.147  21.230  24.829  1.00  0.00     0.117 C 
BRANCH   2   3
ATOM      3  N   UNL A   1      35.445  21.091  26.099  1.00  0.00    -0.356 N 
ATOM      4  C   UNL A   1      34.369  21.774  26.588  1.00  0.00     0.223 C 
ATOM      5  O   UNL A   1      33.923  21.437  27.686  1.00  0.00    -0.275 OA
ATOM      6  H   UNL A   1      35.802  20.396  26.697  1.00  0.00     0.163 HD
BRANCH   4   7
ATOM      7  C   UNL A   1      33.740  22.938  25.823  1.00  0.00     0.087 C 
BRANCH   7   8
ATOM      8  C   UNL A   1      32.252  22.975  26.250  1.00  0.00     0.049 C 
BRANCH   8   9
ATOM      9  C   UNL A   1      31.288  23.936  25.605  1.00  0.00    -0.047 A 
ATOM     10  C   UNL A   1      28.969  26.984  23.607  1.00  0.00     0.044 C 
ATOM     11  C   UNL A   1      29.767  25.929  24.313  1.00  0.00    -0.051 A 
ATOM     12  C   UNL A   1      30.257  24.837  23.596  1.00  0.00     0.004 A 
ATOM     13  C   UNL A   1      30.024  26.010  25.686  1.00  0.00     0.004 A 
ATOM     14  C   UNL A   1      31.024  23.860  24.232  1.00  0.00     0.004 A 
ATOM     15  C   UNL A   1      30.774  25.020  26.327  1.00  0.00     0.004 A 
ENDBRANCH   8   9
ENDBRANCH   7   8
BRANCH   7  16
ATOM     16  C   UNL A   1      34.527  24.279  25.857  1.00  0.00     0.049 C 
BRANCH  16  17
ATOM     17  C   UNL A   1      34.118  25.457  24.985  1.00  0.00    -0.043 A 
ATOM     18  C   UNL A   1      34.057  25.285  23.591  1.00  0.00     0.043 A 
ATOM     19  C   UNL A   1      33.766  26.711  25.507  1.00  0.00     0.019 A 
ATOM     20  C   UNL A   1      33.564  26.298  22.770  1.00  0.00     0.124 A 
ATOM     21  C   UNL A   1      33.235  27.703  24.672  1.00  0.00     0.021 A 
ATOM     22  F   UNL A   1      33.478  26.089  21.450  1.00  0.00    -0.207 F 
ATOM     23  C   UNL A   1      33.126  27.501  23.301  1.00  0.00     0.055 A 
ATOM     24  Br  UNL A   1      32.593  29.313  25.430  1.00  0.00    -0.051 Br
ENDBRANCH  16  17
ENDBRANCH   7  16
ENDBRANCH   4   7
ENDBRANCH   2   3
ENDBRANCH   1   2
BRANCH   1  25
ATOM     25  C   UNL A   1      38.209  22.345  25.752  1.00  0.00     0.118 C 
BRANCH  25  26
ATOM     26  N   UNL A   1      39.639  22.275  26.021  1.00  0.00    -0.352 N 
ATOM     27  C   UNL A   1      40.516  23.276  26.412  1.00  0.00     0.251 C 
ATOM     28  H   UNL A   1      40.043  21.384  25.909  1.00  0.00     0.163 HD
ATOM     29  O   UNL A   1      41.701  23.032  26.520  1.00  0.00    -0.269 OA
BRANCH  27  30
ATOM     30  C   UNL A   1      39.977  24.592  26.855  1.00  0.00     0.039 A 
ATOM     31  C   UNL A   1      40.450  25.731  26.196  1.00  0.00     0.014 A 
ATOM     32  C   UNL A   1      39.258  24.724  28.037  1.00  0.00     0.014 A 
ATOM     33  C   UNL A   1      40.464  26.949  26.869  1.00  0.00     0.010 A 
ATOM     34  C   UNL A   1      39.387  25.891  28.760  1.00  0.00     0.010 A 
ATOM     35  C   UNL A   1      40.053  26.981  28.199  1.00  0.00    -0.014 A 
BRANCH  35  36
ATOM     36  C   UNL A   1      40.388  28.068  29.107  1.00  0.00     0.031 A 
ATOM     37  C   UNL A   1      39.388  29.104  29.423  1.00  0.00     0.074 A 
ATOM     38  C   UNL A   1      41.605  28.101  29.695  1.00  0.00     0.049 A 
ATOM     39  N   UNL A   1      39.689  30.324  29.709  1.00  0.00    -0.248 NA
ATOM     40  C   UNL A   1      37.951  28.849  29.407  1.00  0.00     0.031 C 
ATOM     41  C   UNL A   1      42.036  28.974  30.782  1.00  0.00     0.029 A 
ATOM     42  N   UNL A   1      42.780  27.459  29.275  1.00  0.00    -0.354 N 
ATOM     43  C   UNL A   1      38.544  30.938  30.159  1.00  0.00     0.074 A 
ATOM     44  C   UNL A   1      37.478  30.000  29.896  1.00  0.00     0.031 C 
ATOM     45  C   UNL A   1      43.377  29.046  30.775  1.00  0.00     0.029 A 
ATOM     46  C   UNL A   1      43.842  28.329  29.600  1.00  0.00     0.049 A 
ATOM     47  H   UNL A   1      42.848  26.578  28.841  1.00  0.00     0.167 HD
ATOM     48  C   UNL A   1      38.629  32.118  30.833  1.00  0.00     0.037 A 
ATOM     49  C   UNL A   1      44.659  28.851  28.642  1.00  0.00     0.037 A 
ATOM     50  C   UNL A   1      40.012  32.548  30.985  1.00  0.00     0.049 A 
ATOM     51  C   UNL A   1      44.643  30.360  28.589  1.00  0.00     0.074 A 
ATOM     52  C   UNL A   1      40.922  32.376  32.017  1.00  0.00     0.029 A 
ATOM     53  N   UNL A   1      40.745  32.947  29.874  1.00  0.00    -0.354 N 
ATOM     54  N   UNL A   1      43.681  31.095  29.072  1.00  0.00    -0.248 NA
ATOM     55  C   UNL A   1      45.697  31.156  27.967  1.00  0.00     0.031 C 
ATOM     56  C   UNL A   1      42.215  32.645  31.513  1.00  0.00     0.029 A 
ATOM     57  C   UNL A   1      42.092  32.996  30.180  1.00  0.00     0.049 A 
ATOM     58  H   UNL A   1      40.360  33.164  28.996  1.00  0.00     0.167 HD
ATOM     59  C   UNL A   1      43.948  32.419  28.824  1.00  0.00     0.074 A 
ATOM     60  C   UNL A   1      45.231  32.404  28.148  1.00  0.00     0.031 C 
ATOM     61  C   UNL A   1      43.079  33.407  29.193  1.00  0.00     0.037 A 
BRANCH  48  62
ATOM     62  C   UNL A   1      37.471  32.685  31.614  1.00  0.00     0.057 A 
ATOM     63  C   UNL A   1      37.250  32.330  32.957  1.00  0.00     0.134 A 
ATOM     64  C   UNL A   1      36.512  33.556  31.070  1.00  0.00     0.134 A 
ATOM     65  F   UNL A   1      38.126  31.586  33.644  1.00  0.00    -0.206 F 
ATOM     66  C   UNL A   1      36.104  32.713  33.665  1.00  0.00     0.040 A 
ATOM     67  C   UNL A   1      35.335  33.907  31.748  1.00  0.00     0.040 A 
ATOM     68  F   UNL A   1      36.689  34.118  29.865  1.00  0.00    -0.206 F 
ATOM     69  C   UNL A   1      35.121  33.472  33.048  1.00  0.00     0.006 A 
ENDBRANCH  48  62
BRANCH  49  70
ATOM     70  C   UNL A   1      44.844  27.960  27.468  1.00  0.00     0.057 A 
ATOM     71  C   UNL A   1      45.676  26.835  27.598  1.00  0.00     0.134 A 
ATOM     72  C   UNL A   1      43.954  27.973  26.391  1.00  0.00     0.134 A 
ATOM     73  F   UNL A   1      46.563  26.766  28.602  1.00  0.00    -0.206 F 
ATOM     74  C   UNL A   1      45.546  25.720  26.766  1.00  0.00     0.040 A 
ATOM     75  C   UNL A   1      43.822  26.865  25.545  1.00  0.00     0.040 A 
ATOM     76  F   UNL A   1      43.115  29.003  26.209  1.00  0.00    -0.206 F 
ATOM     77  C   UNL A   1      44.590  25.720  25.756  1.00  0.00     0.006 A 
ENDBRANCH  49  70
BRANCH  61  78
ATOM     78  C   UNL A   1      43.119  34.860  28.770  1.00  0.00     0.057 A 
ATOM     79  C   UNL A   1      43.264  35.942  29.650  1.00  0.00     0.134 A 
ATOM     80  C   UNL A   1      43.158  35.207  27.398  1.00  0.00     0.134 A 
ATOM     81  F   UNL A   1      43.362  35.767  30.973  1.00  0.00    -0.206 F 
ATOM     82  C   UNL A   1      43.377  37.267  29.204  1.00  0.00     0.040 A 
ATOM     83  C   UNL A   1      43.330  36.516  26.942  1.00  0.00     0.040 A 
ATOM     84  F   UNL A   1      43.059  34.283  26.429  1.00  0.00    -0.206 F 
ATOM     85  C   UNL A   1      43.423  37.558  27.847  1.00  0.00     0.006 A 
ENDBRANCH  61  78
ENDBRANCH  35  36
ENDBRANCH  27  30
ENDBRANCH  25  26
ENDBRANCH   1  25
TORSDOF 14
ENDMDL
MODEL 3
REMARK VINA RESULT:     -12.1      4.007      9.060
REMARK SMILES Cc1ccc(C[C@@H](Cc2cc(F)cc(Br)c2)C(=O)NCCCNC(=O)c2ccc(-c3c4nc(c(-c5c(F)cccc5F)c5ccc([nH]5)c(-c5c(F)cccc5F)c5nc(c(-c6c(F)cccc6F)c6ccc3[nH]6)C=C5)C=C4)cc2)cc1
REMARK SMILES IDX 21 1 20 2 19 3 17 4 18 5 7 7 6 8 5 9 1 10 2 11 3 12 81 13
REMARK SMILES IDX 4 14 80 15 8 16 9 17 10 18 16 19 11 20 14 21 12 22 13 23
REMARK SMILES IDX 15 24 22 25 23 26 24 27 25 29 26 30 27 31 79 32 28 33 78 34
REMARK SMILES IDX 29 35 30 36 31 37 72 38 32 39 77 40 71 41 73 42 33 43 76 44
REMARK SMILES IDX 70 45 69 46 34 48 60 49 43 50 59 51 44 52 47 53 58 54 74 55
REMARK SMILES IDX 45 56 46 57 57 59 75 60 48 61 35 62 36 63 41 64 37 65 38 66
REMARK SMILES IDX 40 67 42 68 39 69 61 70 62 71 67 72 63 73 64 74 66 75 68 76
REMARK SMILES IDX 65 77 49 78 50 79 55 80 51 81 52 82 54 83 56 84 53 85
REMARK H PARENT 19 6 23 28 73 47 47 58
REMARK Flexibility Score: inf
ROOT
ATOM      1  C   UNL A   1      39.145  21.427  25.765  1.00  0.00     0.042 C 
ENDROOT
BRANCH   1   2
ATOM      2  C   UNL A   1      37.668  21.091  25.613  1.00  0.00     0.117 C 
BRANCH   2   3
ATOM      3  N   UNL A   1      37.045  21.837  24.527  1.00  0.00    -0.356 N 
ATOM      4  C   UNL A   1      35.745  22.214  24.352  1.00  0.00     0.223 C 
ATOM      5  O   UNL A   1      35.470  22.889  23.357  1.00  0.00    -0.275 OA
ATOM      6  H   UNL A   1      37.658  22.113  23.808  1.00  0.00     0.163 HD
BRANCH   4   7
ATOM      7  C   UNL A   1      34.648  21.802  25.333  1.00  0.00     0.087 C 
BRANCH   7   8
ATOM      8  C   UNL A   1      34.521  22.967  26.345  1.00  0.00     0.049 C 
BRANCH   8   9
ATOM      9  C   UNL A   1      33.676  24.173  26.029  1.00  0.00    -0.047 A 
ATOM     10  C   UNL A   1      31.421  27.834  25.608  1.00  0.00     0.044 C 
ATOM     11  C   UNL A   1      32.191  26.556  25.754  1.00  0.00    -0.051 A 
ATOM     12  C   UNL A   1      33.519  26.496  25.328  1.00  0.00     0.004 A 
ATOM     13  C   UNL A   1      31.601  25.411  26.300  1.00  0.00     0.004 A 
ATOM     14  C   UNL A   1      34.258  25.323  25.480  1.00  0.00     0.004 A 
ATOM     15  C   UNL A   1      32.336  24.229  26.432  1.00  0.00     0.004 A 
ENDBRANCH   8   9
ENDBRANCH   7   8
BRANCH   7  16
ATOM     16  C   UNL A   1      33.336  21.258  24.698  1.00  0.00     0.049 C 
BRANCH  16  17
ATOM     17  C   UNL A   1      33.223  19.814  24.235  1.00  0.00    -0.043 A 
ATOM     18  C   UNL A   1      32.480  19.526  23.076  1.00  0.00     0.043 A 
ATOM     19  C   UNL A   1      33.851  18.746  24.894  1.00  0.00     0.019 A 
ATOM     20  C   UNL A   1      32.459  18.236  22.548  1.00  0.00     0.124 A 
ATOM     21  C   UNL A   1      33.852  17.465  24.327  1.00  0.00     0.021 A 
ATOM     22  F   UNL A   1      31.778  18.001  21.419  1.00  0.00    -0.207 F 
ATOM     23  C   UNL A   1      33.162  17.203  23.149  1.00  0.00     0.055 A 
ATOM     24  Br  UNL A   1      34.864  16.089  25.138  1.00  0.00    -0.051 Br
ENDBRANCH  16  17
ENDBRANCH   7  16
ENDBRANCH   4   7
ENDBRANCH   2   3
ENDBRANCH   1   2
BRANCH   1  25
ATOM     25  C   UNL A   1      39.360  22.841  26.261  1.00  0.00     0.118 C 
BRANCH  25  26
ATOM     26  N   UNL A   1      40.750  23.170  26.548  1.00  0.00    -0.352 N 
ATOM     27  C   UNL A   1      41.328  24.398  26.831  1.00  0.00     0.251 C 
ATOM     28  H   UNL A   1      41.371  22.406  26.541  1.00  0.00     0.163 HD
ATOM     29  O   UNL A   1      42.532  24.480  26.976  1.00  0.00    -0.269 OA
BRANCH  27  30
ATOM     30  C   UNL A   1      40.456  25.571  27.119  1.00  0.00     0.039 A 
ATOM     31  C   UNL A   1      40.708  26.745  26.401  1.00  0.00     0.014 A 
ATOM     32  C   UNL A   1      39.620  25.602  28.228  1.00  0.00     0.014 A 
ATOM     33  C   UNL A   1      40.372  27.972  26.967  1.00  0.00     0.010 A 
ATOM     34  C   UNL A   1      39.403  26.811  28.856  1.00  0.00     0.010 A 
ATOM     35  C   UNL A   1      39.843  27.990  28.255  1.00  0.00    -0.014 A 
BRANCH  35  36
ATOM     36  C   UNL A   1      39.827  29.183  29.089  1.00  0.00     0.031 A 
ATOM     37  C   UNL A   1      38.745  30.173  28.945  1.00  0.00     0.074 A 
ATOM     38  C   UNL A   1      40.784  29.358  30.028  1.00  0.00     0.049 A 
ATOM     39  N   UNL A   1      38.895  31.434  29.168  1.00  0.00    -0.248 NA
ATOM     40  C   UNL A   1      37.401  29.819  28.499  1.00  0.00     0.031 C 
ATOM     41  C   UNL A   1      40.807  30.363  31.086  1.00  0.00     0.029 A 
ATOM     42  N   UNL A   1      42.052  28.761  30.085  1.00  0.00    -0.354 N 
ATOM     43  C   UNL A   1      37.647  32.008  29.152  1.00  0.00     0.074 A 
ATOM     44  C   UNL A   1      36.756  30.977  28.673  1.00  0.00     0.031 C 
ATOM     45  C   UNL A   1      42.074  30.527  31.501  1.00  0.00     0.029 A 
ATOM     46  C   UNL A   1      42.921  29.730  30.630  1.00  0.00     0.049 A 
ATOM     47  H   UNL A   1      42.288  27.848  29.802  1.00  0.00     0.167 HD
ATOM     48  C   UNL A   1      37.467  33.253  29.675  1.00  0.00     0.037 A 
ATOM     49  C   UNL A   1      43.987  30.209  29.930  1.00  0.00     0.037 A 
ATOM     50  C   UNL A   1      38.710  33.790  30.212  1.00  0.00     0.049 A 
ATOM     51  C   UNL A   1      43.940  31.701  29.699  1.00  0.00     0.074 A 
ATOM     52  C   UNL A   1      39.239  33.786  31.493  1.00  0.00     0.029 A 
ATOM     53  N   UNL A   1      39.752  34.127  29.356  1.00  0.00    -0.354 N 
ATOM     54  N   UNL A   1      42.849  32.412  29.759  1.00  0.00    -0.248 NA
ATOM     55  C   UNL A   1      45.112  32.502  29.360  1.00  0.00     0.031 C 
ATOM     56  C   UNL A   1      40.616  34.092  31.403  1.00  0.00     0.029 A 
ATOM     57  C   UNL A   1      40.923  34.299  30.069  1.00  0.00     0.049 A 
ATOM     58  H   UNL A   1      39.668  34.228  28.381  1.00  0.00     0.167 HD
ATOM     59  C   UNL A   1      43.138  33.720  29.457  1.00  0.00     0.074 A 
ATOM     60  C   UNL A   1      44.571  33.727  29.235  1.00  0.00     0.031 C 
ATOM     61  C   UNL A   1      42.164  34.677  29.410  1.00  0.00     0.037 A 
BRANCH  48  62
ATOM     62  C   UNL A   1      36.100  33.813  29.972  1.00  0.00     0.057 A 
ATOM     63  C   UNL A   1      35.251  34.258  28.943  1.00  0.00     0.134 A 
ATOM     64  C   UNL A   1      35.589  33.979  31.270  1.00  0.00     0.134 A 
ATOM     65  F   UNL A   1      35.554  34.080  27.651  1.00  0.00    -0.206 F 
ATOM     66  C   UNL A   1      34.043  34.923  29.189  1.00  0.00     0.040 A 
ATOM     67  C   UNL A   1      34.407  34.688  31.535  1.00  0.00     0.040 A 
ATOM     68  F   UNL A   1      36.205  33.441  32.333  1.00  0.00    -0.206 F 
ATOM     69  C   UNL A   1      33.636  35.176  30.490  1.00  0.00     0.006 A 
ENDBRANCH  48  62
BRANCH  49  70
ATOM     70  C   UNL A   1      44.575  29.221  28.990  1.00  0.00     0.057 A 
ATOM     71  C   UNL A   1      45.456  28.249  29.494  1.00  0.00     0.134 A 
ATOM     72  C   UNL A   1      44.011  28.979  27.734  1.00  0.00     0.134 A 
ATOM     73  F   UNL A   1      46.043  28.427  30.688  1.00  0.00    -0.206 F 
ATOM     74  C   UNL A   1      45.674  27.036  28.835  1.00  0.00     0.040 A 
ATOM     75  C   UNL A   1      44.231  27.772  27.060  1.00  0.00     0.040 A 
ATOM     76  F   UNL A   1      43.148  29.851  27.193  1.00  0.00    -0.206 F 
ATOM     77  C   UNL A   1      45.030  26.781  27.630  1.00  0.00     0.006 A 
ENDBRANCH  49  70
BRANCH  61  78
ATOM     78  C   UNL A   1      42.291  36.080  28.856  1.00  0.00     0.057 A 
ATOM     79  C   UNL A   1      42.974  37.128  29.489  1.00  0.00     0.134 A 
ATOM     80  C   UNL A   1      41.831  36.380  27.550  1.00  0.00     0.134 A 
ATOM     81  F   UNL A   1      43.568  36.966  30.678  1.00  0.00    -0.206 F 
ATOM     82  C   UNL A   1      43.135  38.390  28.899  1.00  0.00     0.040 A 
ATOM     83  C   UNL A   1      42.038  37.615  26.930  1.00  0.00     0.040 A 
ATOM     84  F   UNL A   1      41.182  35.476  26.801  1.00  0.00    -0.206 F 
ATOM     85  C   UNL A   1      42.678  38.634  27.611  1.00  0.00     0.006 A 
ENDBRANCH  61  78
ENDBRANCH  35  36
ENDBRANCH  27  30
ENDBRANCH  25  26
ENDBRANCH   1  25
TORSDOF 14
ENDMDL
