MODEL 1
REMARK VINA RESULT:     -10.6      0.000      0.000
REMARK SMILES C#CC[NH2+]CC(=O)N1CC[C@](CCC)(C(=O)NCCCNC(=O)c2ccc(-c3c4nc(c(-c5c(F)cccc5F)c5ccc([nH]5)c(-c5c(F)cccc5F)c5nc(c(-c6c(F)cccc6F)c6ccc3[nH]6)C=C5)C=C4)cc2)C1
REMARK SMILES IDX 15 1 16 2 17 3 11 5 8 6 9 7 78 8 10 9 6 10 7 11 5 12 4 13
REMARK SMILES IDX 3 16 2 17 1 18 12 19 13 20 14 21 18 22 19 23 20 24 21 25
REMARK SMILES IDX 22 26 23 28 24 29 25 30 77 31 26 32 76 33 27 34 28 35 29 36
REMARK SMILES IDX 70 37 30 38 75 39 69 40 71 41 31 42 74 43 68 44 67 45 32 47
REMARK SMILES IDX 58 48 41 49 57 50 42 51 45 52 56 53 72 54 43 55 44 56 55 58
REMARK SMILES IDX 73 59 46 60 33 61 34 62 39 63 35 64 36 65 38 66 40 67 37 68
REMARK SMILES IDX 59 69 60 70 65 71 61 72 62 73 64 74 66 75 63 76 47 77 48 78
REMARK SMILES IDX 53 79 49 80 50 81 52 82 54 83 51 84
REMARK H PARENT 17 4 4 14 4 15 21 27 71 46 45 57
REMARK Flexibility Score: inf
ROOT
ATOM      1  C   UNL A   1      36.803  23.050  25.664  1.00  0.00     0.228 C 
ATOM      2  O   UNL A   1      37.316  24.019  26.224  1.00  0.00    -0.274 OA
ATOM      3  N   UNL A   1      37.640  22.099  25.145  1.00  0.00    -0.355 N 
ATOM      4  H   UNL A   1      38.597  22.291  25.273  1.00  0.00     0.163 HD
ENDROOT
BRANCH   1   5
ATOM      5  C   UNL A   1      35.289  22.901  25.521  1.00  0.00     0.068 C 
ATOM      6  N   UNL A   1      33.893  21.088  24.726  1.00  0.00    -0.337 N 
ATOM      7  C   UNL A   1      33.910  22.117  23.750  1.00  0.00     0.121 C 
ATOM      8  C   UNL A   1      34.842  21.431  25.789  1.00  0.00     0.136 C 
ATOM      9  C   UNL A   1      35.008  23.051  24.028  1.00  0.00     0.040 C 
BRANCH   6  10
ATOM     10  C   UNL A   1      32.914  20.100  24.798  1.00  0.00     0.277 C 
ATOM     11  O   UNL A   1      31.775  20.373  25.187  1.00  0.00    -0.268 OA
BRANCH  10  12
ATOM     12  C   UNL A   1      33.309  18.598  24.551  1.00  0.00     0.362 C 
BRANCH  12  13
ATOM     13  N   UNL A   1      32.247  17.539  24.588  1.00  0.00    -0.328 N 
ATOM     14  H   UNL A   1      31.441  17.876  25.113  1.00  0.00     0.347 HD
ATOM     15  H   UNL A   1      31.946  17.308  23.641  1.00  0.00     0.347 HD
BRANCH  13  16
ATOM     16  C   UNL A   1      32.799  16.376  25.233  1.00  0.00     0.352 C 
BRANCH  16  17
ATOM     17  C   UNL A   1      34.286  16.068  25.296  1.00  0.00    -0.047 C 
ATOM     18  C   UNL A   1      35.562  15.805  25.351  1.00  0.00     0.010 C 
ENDBRANCH  16  17
ENDBRANCH  13  16
ENDBRANCH  12  13
ENDBRANCH  10  12
ENDBRANCH   6  10
BRANCH   5  19
ATOM     19  C   UNL A   1      34.612  23.976  26.413  1.00  0.00     0.018 C 
BRANCH  19  20
ATOM     20  C   UNL A   1      33.524  24.897  25.844  1.00  0.00    -0.002 C 
ATOM     21  C   UNL A   1      33.992  26.302  25.497  1.00  0.00     0.004 C 
ENDBRANCH  19  20
ENDBRANCH   5  19
ENDBRANCH   1   5
BRANCH   3  22
ATOM     22  C   UNL A   1      37.373  20.850  24.433  1.00  0.00     0.117 C 
BRANCH  22  23
ATOM     23  C   UNL A   1      38.091  19.668  25.024  1.00  0.00     0.042 C 
BRANCH  23  24
ATOM     24  C   UNL A   1      39.337  20.076  25.759  1.00  0.00     0.118 C 
BRANCH  24  25
ATOM     25  N   UNL A   1      40.305  18.992  25.871  1.00  0.00    -0.352 N 
ATOM     26  C   UNL A   1      41.656  19.074  26.107  1.00  0.00     0.251 C 
ATOM     27  H   UNL A   1      39.945  18.082  25.763  1.00  0.00     0.163 HD
ATOM     28  O   UNL A   1      42.373  18.085  26.002  1.00  0.00    -0.269 OA
BRANCH  26  29
ATOM     29  C   UNL A   1      42.231  20.390  26.446  1.00  0.00     0.039 A 
ATOM     30  C   UNL A   1      42.668  21.231  25.424  1.00  0.00     0.014 A 
ATOM     31  C   UNL A   1      42.231  20.824  27.774  1.00  0.00     0.014 A 
ATOM     32  C   UNL A   1      43.027  22.543  25.729  1.00  0.00     0.010 A 
ATOM     33  C   UNL A   1      42.442  22.163  28.050  1.00  0.00     0.010 A 
ATOM     34  C   UNL A   1      42.869  23.032  27.037  1.00  0.00    -0.014 A 
BRANCH  34  35
ATOM     35  C   UNL A   1      43.184  24.435  27.392  1.00  0.00     0.031 A 
ATOM     36  C   UNL A   1      44.619  24.891  27.378  1.00  0.00     0.074 A 
ATOM     37  C   UNL A   1      42.206  25.266  27.801  1.00  0.00     0.049 A 
ATOM     38  N   UNL A   1      45.126  26.036  27.755  1.00  0.00    -0.248 NA
ATOM     39  C   UNL A   1      45.626  23.915  26.923  1.00  0.00     0.031 C 
ATOM     40  C   UNL A   1      40.787  24.918  27.924  1.00  0.00     0.029 A 
ATOM     41  N   UNL A   1      42.259  26.577  28.202  1.00  0.00    -0.354 N 
ATOM     42  C   UNL A   1      46.502  25.902  27.613  1.00  0.00     0.074 A 
ATOM     43  C   UNL A   1      46.759  24.549  27.177  1.00  0.00     0.031 C 
ATOM     44  C   UNL A   1      40.104  25.998  28.339  1.00  0.00     0.029 A 
ATOM     45  C   UNL A   1      41.037  27.099  28.550  1.00  0.00     0.049 A 
ATOM     46  H   UNL A   1      43.096  27.094  28.236  1.00  0.00     0.167 HD
ATOM     47  C   UNL A   1      47.464  26.834  27.795  1.00  0.00     0.037 A 
ATOM     48  C   UNL A   1      40.712  28.328  28.993  1.00  0.00     0.037 A 
ATOM     49  C   UNL A   1      47.197  28.198  28.163  1.00  0.00     0.049 A 
ATOM     50  C   UNL A   1      41.800  29.356  29.151  1.00  0.00     0.074 A 
ATOM     51  C   UNL A   1      48.092  29.245  28.285  1.00  0.00     0.029 A 
ATOM     52  N   UNL A   1      45.941  28.700  28.458  1.00  0.00    -0.354 N 
ATOM     53  N   UNL A   1      43.087  29.239  28.932  1.00  0.00    -0.248 NA
ATOM     54  C   UNL A   1      41.388  30.689  29.612  1.00  0.00     0.031 C 
ATOM     55  C   UNL A   1      47.379  30.377  28.690  1.00  0.00     0.029 A 
ATOM     56  C   UNL A   1      46.037  30.043  28.778  1.00  0.00     0.049 A 
ATOM     57  H   UNL A   1      45.104  28.181  28.441  1.00  0.00     0.167 HD
ATOM     58  C   UNL A   1      43.633  30.487  29.197  1.00  0.00     0.074 A 
ATOM     59  C   UNL A   1      42.535  31.352  29.578  1.00  0.00     0.031 C 
ATOM     60  C   UNL A   1      44.927  30.885  29.134  1.00  0.00     0.037 A 
BRANCH  47  61
ATOM     61  C   UNL A   1      48.887  26.422  27.576  1.00  0.00     0.057 A 
ATOM     62  C   UNL A   1      49.687  25.942  28.621  1.00  0.00     0.134 A 
ATOM     63  C   UNL A   1      49.450  26.456  26.294  1.00  0.00     0.134 A 
ATOM     64  F   UNL A   1      49.214  25.901  29.876  1.00  0.00    -0.206 F 
ATOM     65  C   UNL A   1      51.000  25.523  28.402  1.00  0.00     0.040 A 
ATOM     66  C   UNL A   1      50.753  26.016  26.057  1.00  0.00     0.040 A 
ATOM     67  F   UNL A   1      48.738  26.906  25.250  1.00  0.00    -0.206 F 
ATOM     68  C   UNL A   1      51.532  25.550  27.115  1.00  0.00     0.006 A 
ENDBRANCH  47  61
BRANCH  48  69
ATOM     69  C   UNL A   1      39.300  28.669  29.300  1.00  0.00     0.057 A 
ATOM     70  C   UNL A   1      38.469  29.241  28.328  1.00  0.00     0.134 A 
ATOM     71  C   UNL A   1      38.758  28.470  30.574  1.00  0.00     0.134 A 
ATOM     72  F   UNL A   1      38.936  29.472  27.093  1.00  0.00    -0.206 F 
ATOM     73  C   UNL A   1      37.160  29.630  28.621  1.00  0.00     0.040 A 
ATOM     74  C   UNL A   1      37.443  28.830  30.874  1.00  0.00     0.040 A 
ATOM     75  F   UNL A   1      39.498  27.918  31.547  1.00  0.00    -0.206 F 
ATOM     76  C   UNL A   1      36.644  29.424  29.898  1.00  0.00     0.006 A 
ENDBRANCH  48  69
BRANCH  60  77
ATOM     77  C   UNL A   1      45.217  32.324  29.440  1.00  0.00     0.057 A 
ATOM     78  C   UNL A   1      45.148  33.317  28.456  1.00  0.00     0.134 A 
ATOM     79  C   UNL A   1      45.524  32.723  30.747  1.00  0.00     0.134 A 
ATOM     80  F   UNL A   1      44.869  32.995  27.184  1.00  0.00    -0.206 F 
ATOM     81  C   UNL A   1      45.395  34.656  28.758  1.00  0.00     0.040 A 
ATOM     82  C   UNL A   1      45.747  34.062  31.065  1.00  0.00     0.040 A 
ATOM     83  F   UNL A   1      45.594  31.819  31.736  1.00  0.00    -0.206 F 
ATOM     84  C   UNL A   1      45.689  35.032  30.067  1.00  0.00     0.006 A 
ENDBRANCH  60  77
ENDBRANCH  34  35
ENDBRANCH  26  29
ENDBRANCH  24  25
ENDBRANCH  23  24
ENDBRANCH  22  23
ENDBRANCH   3  22
TORSDOF 17
ENDMDL
MODEL 2
REMARK VINA RESULT:     -10.5      1.124      6.397
REMARK SMILES C#CC[NH2+]CC(=O)N1CC[C@](CCC)(C(=O)NCCCNC(=O)c2ccc(-c3c4nc(c(-c5c(F)cccc5F)c5ccc([nH]5)c(-c5c(F)cccc5F)c5nc(c(-c6c(F)cccc6F)c6ccc3[nH]6)C=C5)C=C4)cc2)C1
REMARK SMILES IDX 15 1 16 2 17 3 11 5 8 6 9 7 78 8 10 9 6 10 7 11 5 12 4 13
REMARK SMILES IDX 3 16 2 17 1 18 12 19 13 20 14 21 18 22 19 23 20 24 21 25
REMARK SMILES IDX 22 26 23 28 24 29 25 30 77 31 26 32 76 33 27 34 28 35 29 36
REMARK SMILES IDX 70 37 30 38 75 39 69 40 71 41 31 42 74 43 68 44 67 45 32 47
REMARK SMILES IDX 58 48 41 49 57 50 42 51 45 52 56 53 72 54 43 55 44 56 55 58
REMARK SMILES IDX 73 59 46 60 33 61 34 62 39 63 35 64 36 65 38 66 40 67 37 68
REMARK SMILES IDX 59 69 60 70 65 71 61 72 62 73 64 74 66 75 63 76 47 77 48 78
REMARK SMILES IDX 53 79 49 80 50 81 52 82 54 83 51 84
REMARK H PARENT 17 4 4 14 4 15 21 27 71 46 45 57
REMARK Flexibility Score: inf
ROOT
ATOM      1  C   UNL A   1      36.347  22.866  23.673  1.00  0.00     0.228 C 
ATOM      2  O   UNL A   1      36.577  23.527  22.660  1.00  0.00    -0.274 OA
ATOM      3  N   UNL A   1      37.410  22.266  24.295  1.00  0.00    -0.355 N 
ATOM      4  H   UNL A   1      38.276  22.426  23.857  1.00  0.00     0.163 HD
ENDROOT
BRANCH   1   5
ATOM      5  C   UNL A   1      34.933  22.688  24.225  1.00  0.00     0.068 C 
ATOM      6  N   UNL A   1      33.252  20.978  23.888  1.00  0.00    -0.337 N 
ATOM      7  C   UNL A   1      32.860  22.150  23.193  1.00  0.00     0.121 C 
ATOM      8  C   UNL A   1      34.598  21.178  24.431  1.00  0.00     0.136 C 
ATOM      9  C   UNL A   1      34.002  23.066  23.077  1.00  0.00     0.040 C 
BRANCH   6  10
ATOM     10  C   UNL A   1      32.375  19.956  24.246  1.00  0.00     0.277 C 
ATOM     11  O   UNL A   1      31.880  19.923  25.375  1.00  0.00    -0.268 OA
BRANCH  10  12
ATOM     12  C   UNL A   1      32.154  18.746  23.267  1.00  0.00     0.362 C 
BRANCH  12  13
ATOM     13  N   UNL A   1      32.429  17.350  23.743  1.00  0.00    -0.328 N 
ATOM     14  H   UNL A   1      32.234  17.281  24.741  1.00  0.00     0.347 HD
ATOM     15  H   UNL A   1      31.836  16.685  23.249  1.00  0.00     0.347 HD
BRANCH  13  16
ATOM     16  C   UNL A   1      33.818  17.060  23.496  1.00  0.00     0.352 C 
BRANCH  16  17
ATOM     17  C   UNL A   1      34.738  16.397  24.508  1.00  0.00    -0.047 C 
ATOM     18  C   UNL A   1      35.527  15.828  25.376  1.00  0.00     0.010 C 
ENDBRANCH  16  17
ENDBRANCH  13  16
ENDBRANCH  12  13
ENDBRANCH  10  12
ENDBRANCH   6  10
BRANCH   5  19
ATOM     19  C   UNL A   1      34.793  23.579  25.488  1.00  0.00     0.018 C 
BRANCH  19  20
ATOM     20  C   UNL A   1      34.276  25.020  25.378  1.00  0.00    -0.002 C 
ATOM     21  C   UNL A   1      32.864  25.235  25.904  1.00  0.00     0.004 C 
ENDBRANCH  19  20
ENDBRANCH   5  19
ENDBRANCH   1   5
BRANCH   3  22
ATOM     22  C   UNL A   1      37.492  21.429  25.492  1.00  0.00     0.117 C 
BRANCH  22  23
ATOM     23  C   UNL A   1      38.420  20.257  25.331  1.00  0.00     0.042 C 
BRANCH  23  24
ATOM     24  C   UNL A   1      39.600  20.341  26.258  1.00  0.00     0.118 C 
BRANCH  24  25
ATOM     25  N   UNL A   1      40.502  19.203  26.125  1.00  0.00    -0.352 N 
ATOM     26  C   UNL A   1      41.875  19.201  26.087  1.00  0.00     0.251 C 
ATOM     27  H   UNL A   1      40.071  18.321  26.052  1.00  0.00     0.163 HD
ATOM     28  O   UNL A   1      42.494  18.183  25.798  1.00  0.00    -0.269 OA
BRANCH  26  29
ATOM     29  C   UNL A   1      42.586  20.465  26.359  1.00  0.00     0.039 A 
ATOM     30  C   UNL A   1      43.078  21.218  25.295  1.00  0.00     0.014 A 
ATOM     31  C   UNL A   1      42.664  20.947  27.668  1.00  0.00     0.014 A 
ATOM     32  C   UNL A   1      43.573  22.499  25.539  1.00  0.00     0.010 A 
ATOM     33  C   UNL A   1      43.014  22.268  27.886  1.00  0.00     0.010 A 
ATOM     34  C   UNL A   1      43.499  23.050  26.830  1.00  0.00    -0.014 A 
BRANCH  34  35
ATOM     35  C   UNL A   1      43.960  24.428  27.120  1.00  0.00     0.031 A 
ATOM     36  C   UNL A   1      42.958  25.457  27.573  1.00  0.00     0.074 A 
ATOM     37  C   UNL A   1      45.244  24.772  26.901  1.00  0.00     0.049 A 
ATOM     38  N   UNL A   1      43.124  26.738  27.777  1.00  0.00    -0.248 NA
ATOM     39  C   UNL A   1      41.573  24.995  27.781  1.00  0.00     0.031 C 
ATOM     40  C   UNL A   1      46.292  23.880  26.396  1.00  0.00     0.029 A 
ATOM     41  N   UNL A   1      45.885  25.974  27.066  1.00  0.00    -0.354 N 
ATOM     42  C   UNL A   1      41.866  27.232  28.101  1.00  0.00     0.074 A 
ATOM     43  C   UNL A   1      40.935  26.132  28.008  1.00  0.00     0.031 C 
ATOM     44  C   UNL A   1      47.449  24.559  26.324  1.00  0.00     0.029 A 
ATOM     45  C   UNL A   1      47.218  25.939  26.737  1.00  0.00     0.049 A 
ATOM     46  H   UNL A   1      45.431  26.785  27.391  1.00  0.00     0.167 HD
ATOM     47  C   UNL A   1      41.524  28.484  28.479  1.00  0.00     0.037 A 
ATOM     48  C   UNL A   1      48.145  26.915  26.763  1.00  0.00     0.037 A 
ATOM     49  C   UNL A   1      42.465  29.559  28.636  1.00  0.00     0.049 A 
ATOM     50  C   UNL A   1      47.741  28.290  27.222  1.00  0.00     0.074 A 
ATOM     51  C   UNL A   1      42.235  30.841  29.101  1.00  0.00     0.029 A 
ATOM     52  N   UNL A   1      43.815  29.469  28.340  1.00  0.00    -0.354 N 
ATOM     53  N   UNL A   1      46.565  28.721  27.607  1.00  0.00    -0.248 NA
ATOM     54  C   UNL A   1      48.797  29.312  27.257  1.00  0.00     0.031 C 
ATOM     55  C   UNL A   1      43.445  31.540  29.052  1.00  0.00     0.029 A 
ATOM     56  C   UNL A   1      44.431  30.681  28.598  1.00  0.00     0.049 A 
ATOM     57  H   UNL A   1      44.269  28.665  27.999  1.00  0.00     0.167 HD
ATOM     58  C   UNL A   1      46.744  30.052  27.960  1.00  0.00     0.074 A 
ATOM     59  C   UNL A   1      48.147  30.352  27.757  1.00  0.00     0.031 C 
ATOM     60  C   UNL A   1      45.832  30.948  28.408  1.00  0.00     0.037 A 
BRANCH  47  61
ATOM     61  C   UNL A   1      40.080  28.754  28.772  1.00  0.00     0.057 A 
ATOM     62  C   UNL A   1      39.553  28.632  30.065  1.00  0.00     0.134 A 
ATOM     63  C   UNL A   1      39.216  29.191  27.761  1.00  0.00     0.134 A 
ATOM     64  F   UNL A   1      40.324  28.201  31.075  1.00  0.00    -0.206 F 
ATOM     65  C   UNL A   1      38.216  28.923  30.339  1.00  0.00     0.040 A 
ATOM     66  C   UNL A   1      37.883  29.509  28.027  1.00  0.00     0.040 A 
ATOM     67  F   UNL A   1      39.656  29.328  26.501  1.00  0.00    -0.206 F 
ATOM     68  C   UNL A   1      37.380  29.372  29.320  1.00  0.00     0.006 A 
ENDBRANCH  47  61
BRANCH  48  69
ATOM     69  C   UNL A   1      49.547  26.633  26.364  1.00  0.00     0.057 A 
ATOM     70  C   UNL A   1      49.986  26.873  25.055  1.00  0.00     0.134 A 
ATOM     71  C   UNL A   1      50.469  26.086  27.262  1.00  0.00     0.134 A 
ATOM     72  F   UNL A   1      49.145  27.380  24.144  1.00  0.00    -0.206 F 
ATOM     73  C   UNL A   1      51.282  26.550  24.647  1.00  0.00     0.040 A 
ATOM     74  C   UNL A   1      51.776  25.783  26.875  1.00  0.00     0.040 A 
ATOM     75  F   UNL A   1      50.115  25.843  28.533  1.00  0.00    -0.206 F 
ATOM     76  C   UNL A   1      52.182  26.003  25.560  1.00  0.00     0.006 A 
ENDBRANCH  48  69
BRANCH  60  77
ATOM     77  C   UNL A   1      46.330  32.319  28.751  1.00  0.00     0.057 A 
ATOM     78  C   UNL A   1      46.794  32.637  30.033  1.00  0.00     0.134 A 
ATOM     79  C   UNL A   1      46.388  33.319  27.772  1.00  0.00     0.134 A 
ATOM     80  F   UNL A   1      46.754  31.725  31.016  1.00  0.00    -0.206 F 
ATOM     81  C   UNL A   1      47.279  33.910  30.335  1.00  0.00     0.040 A 
ATOM     82  C   UNL A   1      46.896  34.586  28.055  1.00  0.00     0.040 A 
ATOM     83  F   UNL A   1      45.968  33.073  26.521  1.00  0.00    -0.206 F 
ATOM     84  C   UNL A   1      47.337  34.886  29.342  1.00  0.00     0.006 A 
ENDBRANCH  60  77
ENDBRANCH  34  35
ENDBRANCH  26  29
ENDBRANCH  24  25
ENDBRANCH  23  24
ENDBRANCH  22  23
ENDBRANCH   3  22
TORSDOF 17
ENDMDL
MODEL 3
REMARK VINA RESULT:     -10.5      1.862      7.083
REMARK SMILES C#CC[NH2+]CC(=O)N1CC[C@](CCC)(C(=O)NCCCNC(=O)c2ccc(-c3c4nc(c(-c5c(F)cccc5F)c5ccc([nH]5)c(-c5c(F)cccc5F)c5nc(c(-c6c(F)cccc6F)c6ccc3[nH]6)C=C5)C=C4)cc2)C1
REMARK SMILES IDX 15 1 16 2 17 3 11 5 8 6 9 7 78 8 10 9 6 10 7 11 5 12 4 13
REMARK SMILES IDX 3 16 2 17 1 18 12 19 13 20 14 21 18 22 19 23 20 24 21 25
REMARK SMILES IDX 22 26 23 28 24 29 25 30 77 31 26 32 76 33 27 34 28 35 29 36
REMARK SMILES IDX 70 37 30 38 75 39 69 40 71 41 31 42 74 43 68 44 67 45 32 47
REMARK SMILES IDX 58 48 41 49 57 50 42 51 45 52 56 53 72 54 43 55 44 56 55 58
REMARK SMILES IDX 73 59 46 60 33 61 34 62 39 63 35 64 36 65 38 66 40 67 37 68
REMARK SMILES IDX 59 69 60 70 65 71 61 72 62 73 64 74 66 75 63 76 47 77 48 78
REMARK SMILES IDX 53 79 49 80 50 81 52 82 54 83 51 84
REMARK H PARENT 17 4 4 14 4 15 21 27 71 46 45 57
REMARK Flexibility Score: inf
ROOT
ATOM      1  C   UNL A   1      33.999  20.376  24.556  1.00  0.00     0.228 C 
ATOM      2  O   UNL A   1      33.315  19.398  24.253  1.00  0.00    -0.274 OA
ATOM      3  N   UNL A   1      35.266  20.146  25.022  1.00  0.00    -0.355 N 
ATOM      4  H   UNL A   1      35.510  19.194  25.071  1.00  0.00     0.163 HD
ENDROOT
BRANCH   1   5
ATOM      5  C   UNL A   1      33.468  21.805  24.447  1.00  0.00     0.068 C 
ATOM      6  N   UNL A   1      31.806  23.032  25.712  1.00  0.00    -0.337 N 
ATOM      7  C   UNL A   1      31.269  22.709  24.440  1.00  0.00     0.121 C 
ATOM      8  C   UNL A   1      33.111  22.379  25.853  1.00  0.00     0.136 C 
ATOM      9  C   UNL A   1      32.093  21.677  23.798  1.00  0.00     0.040 C 
BRANCH   6  10
ATOM     10  C   UNL A   1      31.311  24.043  26.531  1.00  0.00     0.277 C 
ATOM     11  O   UNL A   1      30.325  23.846  27.246  1.00  0.00    -0.268 OA
BRANCH  10  12
ATOM     12  C   UNL A   1      31.903  25.495  26.413  1.00  0.00     0.362 C 
BRANCH  12  13
ATOM     13  N   UNL A   1      31.021  26.678  26.688  1.00  0.00    -0.328 N 
ATOM     14  H   UNL A   1      30.043  26.394  26.653  1.00  0.00     0.347 HD
ATOM     15  H   UNL A   1      31.218  27.057  27.614  1.00  0.00     0.347 HD
BRANCH  13  16
ATOM     16  C   UNL A   1      31.278  27.671  25.678  1.00  0.00     0.352 C 
BRANCH  16  17
ATOM     17  C   UNL A   1      30.634  27.665  24.301  1.00  0.00    -0.047 C 
ATOM     18  C   UNL A   1      30.081  27.661  23.120  1.00  0.00     0.010 C 
ENDBRANCH  16  17
ENDBRANCH  13  16
ENDBRANCH  12  13
ENDBRANCH  10  12
ENDBRANCH   6  10
BRANCH   5  19
ATOM     19  C   UNL A   1      34.491  22.638  23.628  1.00  0.00     0.018 C 
BRANCH  19  20
ATOM     20  C   UNL A   1      34.750  24.112  23.964  1.00  0.00    -0.002 C 
ATOM     21  C   UNL A   1      33.845  25.101  23.243  1.00  0.00     0.004 C 
ENDBRANCH  19  20
ENDBRANCH   5  19
ENDBRANCH   1   5
BRANCH   3  22
ATOM     22  C   UNL A   1      36.322  21.056  25.462  1.00  0.00     0.117 C 
BRANCH  22  23
ATOM     23  C   UNL A   1      37.639  20.806  24.782  1.00  0.00     0.042 C 
BRANCH  23  24
ATOM     24  C   UNL A   1      38.800  20.971  25.723  1.00  0.00     0.118 C 
BRANCH  24  25
ATOM     25  N   UNL A   1      39.682  19.809  25.737  1.00  0.00    -0.352 N 
ATOM     26  C   UNL A   1      41.018  19.756  26.050  1.00  0.00     0.251 C 
ATOM     27  H   UNL A   1      39.266  18.952  25.490  1.00  0.00     0.163 HD
ATOM     28  O   UNL A   1      41.669  18.736  25.851  1.00  0.00    -0.269 OA
BRANCH  26  29
ATOM     29  C   UNL A   1      41.661  20.969  26.590  1.00  0.00     0.039 A 
ATOM     30  C   UNL A   1      42.145  21.937  25.712  1.00  0.00     0.014 A 
ATOM     31  C   UNL A   1      41.683  21.185  27.970  1.00  0.00     0.014 A 
ATOM     32  C   UNL A   1      42.573  23.163  26.220  1.00  0.00     0.010 A 
ATOM     33  C   UNL A   1      41.964  22.450  28.454  1.00  0.00     0.010 A 
ATOM     34  C   UNL A   1      42.439  23.445  27.590  1.00  0.00    -0.014 A 
BRANCH  34  35
ATOM     35  C   UNL A   1      42.827  24.756  28.161  1.00  0.00     0.031 A 
ATOM     36  C   UNL A   1      41.764  25.795  28.403  1.00  0.00     0.074 A 
ATOM     37  C   UNL A   1      44.125  25.040  28.383  1.00  0.00     0.049 A 
ATOM     38  N   UNL A   1      41.895  27.037  28.791  1.00  0.00    -0.248 NA
ATOM     39  C   UNL A   1      40.370  25.402  28.127  1.00  0.00     0.031 C 
ATOM     40  C   UNL A   1      45.252  24.140  28.121  1.00  0.00     0.029 A 
ATOM     41  N   UNL A   1      44.718  26.177  28.870  1.00  0.00    -0.354 N 
ATOM     42  C   UNL A   1      40.613  27.572  28.773  1.00  0.00     0.074 A 
ATOM     43  C   UNL A   1      39.725  26.547  28.278  1.00  0.00     0.031 C 
ATOM     44  C   UNL A   1      46.394  24.750  28.480  1.00  0.00     0.029 A 
ATOM     45  C   UNL A   1      46.086  26.093  28.958  1.00  0.00     0.049 A 
ATOM     46  H   UNL A   1      44.209  26.979  29.131  1.00  0.00     0.167 HD
ATOM     47  C   UNL A   1      40.207  28.800  29.168  1.00  0.00     0.037 A 
ATOM     48  C   UNL A   1      46.987  27.002  29.374  1.00  0.00     0.037 A 
ATOM     49  C   UNL A   1      41.084  29.793  29.724  1.00  0.00     0.049 A 
ATOM     50  C   UNL A   1      46.501  28.347  29.843  1.00  0.00     0.074 A 
ATOM     51  C   UNL A   1      40.759  31.034  30.241  1.00  0.00     0.029 A 
ATOM     52  N   UNL A   1      42.456  29.650  29.844  1.00  0.00    -0.354 N 
ATOM     53  N   UNL A   1      45.275  28.810  29.899  1.00  0.00    -0.248 NA
ATOM     54  C   UNL A   1      47.523  29.293  30.312  1.00  0.00     0.031 C 
ATOM     55  C   UNL A   1      41.943  31.659  30.641  1.00  0.00     0.029 A 
ATOM     56  C   UNL A   1      42.997  30.790  30.412  1.00  0.00     0.049 A 
ATOM     57  H   UNL A   1      42.970  28.857  29.567  1.00  0.00     0.167 HD
ATOM     58  C   UNL A   1      45.375  30.086  30.438  1.00  0.00     0.074 A 
ATOM     59  C   UNL A   1      46.780  30.318  30.706  1.00  0.00     0.031 C 
ATOM     60  C   UNL A   1      44.396  30.987  30.688  1.00  0.00     0.037 A 
BRANCH  47  61
ATOM     61  C   UNL A   1      38.751  29.129  29.039  1.00  0.00     0.057 A 
ATOM     62  C   UNL A   1      37.870  29.021  30.124  1.00  0.00     0.134 A 
ATOM     63  C   UNL A   1      38.232  29.606  27.830  1.00  0.00     0.134 A 
ATOM     64  F   UNL A   1      38.300  28.553  31.305  1.00  0.00    -0.206 F 
ATOM     65  C   UNL A   1      36.523  29.365  30.006  1.00  0.00     0.040 A 
ATOM     66  C   UNL A   1      36.892  29.978  27.706  1.00  0.00     0.040 A 
ATOM     67  F   UNL A   1      39.021  29.732  26.753  1.00  0.00    -0.206 F 
ATOM     68  C   UNL A   1      36.033  29.855  28.798  1.00  0.00     0.006 A 
ENDBRANCH  47  61
BRANCH  48  69
ATOM     69  C   UNL A   1      48.435  26.676  29.390  1.00  0.00     0.057 A 
ATOM     70  C   UNL A   1      49.260  27.003  28.306  1.00  0.00     0.134 A 
ATOM     71  C   UNL A   1      49.023  25.999  30.465  1.00  0.00     0.134 A 
ATOM     72  F   UNL A   1      48.752  27.636  27.240  1.00  0.00    -0.206 F 
ATOM     73  C   UNL A   1      50.609  26.642  28.277  1.00  0.00     0.040 A 
ATOM     74  C   UNL A   1      50.376  25.656  30.461  1.00  0.00     0.040 A 
ATOM     75  F   UNL A   1      48.291  25.666  31.538  1.00  0.00    -0.206 F 
ATOM     76  C   UNL A   1      51.170  25.967  29.358  1.00  0.00     0.006 A 
ENDBRANCH  48  69
BRANCH  60  77
ATOM     77  C   UNL A   1      44.802  32.285  31.319  1.00  0.00     0.057 A 
ATOM     78  C   UNL A   1      44.865  32.442  32.709  1.00  0.00     0.134 A 
ATOM     79  C   UNL A   1      45.180  33.374  30.524  1.00  0.00     0.134 A 
ATOM     80  F   UNL A   1      44.505  31.438  33.523  1.00  0.00    -0.206 F 
ATOM     81  C   UNL A   1      45.269  33.646  33.286  1.00  0.00     0.040 A 
ATOM     82  C   UNL A   1      45.611  34.573  31.089  1.00  0.00     0.040 A 
ATOM     83  F   UNL A   1      45.151  33.281  29.185  1.00  0.00    -0.206 F 
ATOM     84  C   UNL A   1      45.650  34.713  32.474  1.00  0.00     0.006 A 
ENDBRANCH  60  77
ENDBRANCH  34  35
ENDBRANCH  26  29
ENDBRANCH  24  25
ENDBRANCH  23  24
ENDBRANCH  22  23
ENDBRANCH   3  22
TORSDOF 17
ENDMDL
