MODEL 1
REMARK VINA RESULT:     -12.8      0.000      0.000
REMARK SMILES Cc1nc2cc(S(=O)(=O)N3CCC(C(=O)NCCCNC(=O)c4ccc(-c5c6nc(c(-c7c(F)cccc7F)c7ccc([nH]7)c(-c7c(F)cccc7F)c7nc(c(-c8c(F)cccc8F)c8ccc5[nH]8)C=C7)C=C6)cc4)CC3)ccc2n1C1CCCC1
REMARK SMILES IDX 17 1 16 2 14 3 15 4 13 6 10 7 11 8 78 9 12 10 77 11 7 12
REMARK SMILES IDX 8 13 9 14 6 15 1 16 2 17 3 18 82 19 4 20 81 21 5 22 80 23
REMARK SMILES IDX 79 24 83 25 84 26 87 27 85 28 86 29 18 30 19 31 20 32 21 33
REMARK SMILES IDX 22 35 23 36 24 37 76 38 25 39 75 40 26 41 27 42 28 43 69 44
REMARK SMILES IDX 29 45 74 46 68 47 70 48 30 49 73 50 67 51 66 52 31 54 57 55
REMARK SMILES IDX 40 56 56 57 41 58 44 59 55 60 71 61 42 62 43 63 54 65 72 66
REMARK SMILES IDX 45 67 32 68 33 69 38 70 34 71 35 72 37 73 39 74 36 75 58 76
REMARK SMILES IDX 59 77 64 78 60 79 61 80 63 81 65 82 62 83 46 84 47 85 52 86
REMARK SMILES IDX 48 87 49 88 51 89 53 90 50 91
REMARK H PARENT 16 5 20 34 70 53 44 64
REMARK Flexibility Score: inf
ROOT
ATOM      1  C   UNL A   1      39.247  20.924  25.948  1.00  0.00     0.117 C 
ENDROOT
BRANCH   1   2
ATOM      2  N   UNL A   1      39.055  22.280  26.449  1.00  0.00    -0.356 N 
ATOM      3  C   UNL A   1      38.034  23.164  26.285  1.00  0.00     0.223 C 
ATOM      4  O   UNL A   1      38.125  24.266  26.830  1.00  0.00    -0.275 OA
ATOM      5  H   UNL A   1      39.794  22.614  27.006  1.00  0.00     0.163 HD
BRANCH   3   6
ATOM      6  C   UNL A   1      36.808  22.811  25.462  1.00  0.00     0.081 C 
ATOM      7  N   UNL A   1      34.528  23.618  23.873  1.00  0.00    -0.198 NA
ATOM      8  C   UNL A   1      34.307  23.194  25.276  1.00  0.00     0.103 C 
ATOM      9  C   UNL A   1      35.754  23.179  23.165  1.00  0.00     0.103 C 
ATOM     10  C   UNL A   1      35.543  23.333  26.131  1.00  0.00     0.030 C 
ATOM     11  C   UNL A   1      37.005  23.240  24.012  1.00  0.00     0.030 C 
BRANCH   7  12
ATOM     12  S   UNL A   1      33.104  23.613  22.899  1.00  0.00     0.243 S 
ATOM     13  O   UNL A   1      32.160  22.702  23.520  1.00  0.00    -0.207 OA
ATOM     14  O   UNL A   1      33.519  23.455  21.525  1.00  0.00    -0.207 OA
BRANCH  12  15
ATOM     15  C   UNL A   1      32.400  25.246  23.037  1.00  0.00     0.085 A 
ATOM     16  C   UNL A   1      31.580  30.488  25.781  1.00  0.00     0.088 C 
ATOM     17  C   UNL A   1      31.685  29.271  24.936  1.00  0.00     0.106 A 
ATOM     18  N   UNL A   1      32.505  28.272  25.201  1.00  0.00    -0.233 NA
ATOM     19  N   UNL A   1      30.924  29.002  23.814  1.00  0.00    -0.325 N 
ATOM     20  C   UNL A   1      32.270  27.321  24.250  1.00  0.00     0.090 A 
ATOM     21  C   UNL A   1      31.299  27.757  23.355  1.00  0.00     0.068 A 
ATOM     22  C   UNL A   1      32.841  26.047  24.100  1.00  0.00     0.052 A 
ATOM     23  C   UNL A   1      30.867  26.979  22.284  1.00  0.00     0.030 A 
ATOM     24  C   UNL A   1      31.434  25.720  22.147  1.00  0.00     0.024 A 
BRANCH  19  25
ATOM     25  C   UNL A   1      29.858  29.815  23.260  1.00  0.00     0.089 C 
ATOM     26  C   UNL A   1      29.944  30.081  21.753  1.00  0.00     0.025 C 
ATOM     27  C   UNL A   1      28.456  29.227  23.448  1.00  0.00     0.025 C 
ATOM     28  C   UNL A   1      28.545  30.563  21.392  1.00  0.00     0.002 C 
ATOM     29  C   UNL A   1      27.591  29.901  22.386  1.00  0.00     0.002 C 
ENDBRANCH  19  25
ENDBRANCH  12  15
ENDBRANCH   7  12
ENDBRANCH   3   6
ENDBRANCH   1   2
BRANCH   1  30
ATOM     30  C   UNL A   1      40.582  20.326  26.383  1.00  0.00     0.042 C 
BRANCH  30  31
ATOM     31  C   UNL A   1      41.570  21.361  26.908  1.00  0.00     0.118 C 
BRANCH  31  32
ATOM     32  N   UNL A   1      42.278  22.065  25.860  1.00  0.00    -0.352 N 
ATOM     33  C   UNL A   1      42.608  23.366  25.624  1.00  0.00     0.251 C 
ATOM     34  H   UNL A   1      42.596  21.462  25.150  1.00  0.00     0.163 HD
ATOM     35  O   UNL A   1      43.331  23.565  24.644  1.00  0.00    -0.269 OA
BRANCH  33  36
ATOM     36  C   UNL A   1      42.105  24.538  26.387  1.00  0.00     0.039 A 
ATOM     37  C   UNL A   1      41.274  25.545  25.895  1.00  0.00     0.014 A 
ATOM     38  C   UNL A   1      42.622  24.666  27.691  1.00  0.00     0.014 A 
ATOM     39  C   UNL A   1      41.101  26.719  26.619  1.00  0.00     0.010 A 
ATOM     40  C   UNL A   1      42.428  25.821  28.429  1.00  0.00     0.010 A 
ATOM     41  C   UNL A   1      41.735  26.876  27.854  1.00  0.00    -0.014 A 
BRANCH  41  42
ATOM     42  C   UNL A   1      41.579  28.139  28.565  1.00  0.00     0.031 A 
ATOM     43  C   UNL A   1      42.685  29.104  28.323  1.00  0.00     0.074 A 
ATOM     44  C   UNL A   1      40.486  28.433  29.301  1.00  0.00     0.049 A 
ATOM     45  N   UNL A   1      43.559  29.533  29.172  1.00  0.00    -0.248 NA
ATOM     46  C   UNL A   1      42.953  29.513  26.935  1.00  0.00     0.031 C 
ATOM     47  C   UNL A   1      39.240  27.670  29.429  1.00  0.00     0.029 A 
ATOM     48  N   UNL A   1      40.232  29.544  30.051  1.00  0.00    -0.354 N 
ATOM     49  C   UNL A   1      44.370  30.426  28.474  1.00  0.00     0.074 A 
ATOM     50  C   UNL A   1      44.058  30.247  27.081  1.00  0.00     0.031 C 
ATOM     51  C   UNL A   1      38.292  28.442  30.010  1.00  0.00     0.029 A 
ATOM     52  C   UNL A   1      38.899  29.692  30.427  1.00  0.00     0.049 A 
ATOM     53  H   UNL A   1      40.933  30.188  30.304  1.00  0.00     0.167 HD
ATOM     54  C   UNL A   1      45.059  31.402  29.128  1.00  0.00     0.037 A 
ATOM     55  C   UNL A   1      38.338  30.789  31.001  1.00  0.00     0.037 A 
ATOM     56  C   UNL A   1      45.167  31.101  30.533  1.00  0.00     0.049 A 
ATOM     57  C   UNL A   1      39.435  31.592  31.594  1.00  0.00     0.074 A 
ATOM     58  C   UNL A   1      45.764  30.105  31.280  1.00  0.00     0.029 A 
ATOM     59  N   UNL A   1      44.279  31.721  31.378  1.00  0.00    -0.354 N 
ATOM     60  N   UNL A   1      40.129  31.199  32.626  1.00  0.00    -0.248 NA
ATOM     61  C   UNL A   1      40.085  32.575  30.741  1.00  0.00     0.031 C 
ATOM     62  C   UNL A   1      44.867  29.868  32.363  1.00  0.00     0.029 A 
ATOM     63  C   UNL A   1      43.815  30.779  32.257  1.00  0.00     0.049 A 
ATOM     64  H   UNL A   1      44.023  32.671  31.356  1.00  0.00     0.167 HD
ATOM     65  C   UNL A   1      41.441  31.525  32.311  1.00  0.00     0.074 A 
ATOM     66  C   UNL A   1      41.344  32.430  31.166  1.00  0.00     0.031 C 
ATOM     67  C   UNL A   1      42.485  30.804  32.815  1.00  0.00     0.037 A 
BRANCH  54  68
ATOM     68  C   UNL A   1      45.242  32.812  28.610  1.00  0.00     0.057 A 
ATOM     69  C   UNL A   1      44.201  33.752  28.474  1.00  0.00     0.134 A 
ATOM     70  C   UNL A   1      46.542  33.357  28.591  1.00  0.00     0.134 A 
ATOM     71  F   UNL A   1      42.910  33.408  28.479  1.00  0.00    -0.206 F 
ATOM     72  C   UNL A   1      44.429  35.130  28.426  1.00  0.00     0.040 A 
ATOM     73  C   UNL A   1      46.778  34.737  28.588  1.00  0.00     0.040 A 
ATOM     74  F   UNL A   1      47.623  32.567  28.681  1.00  0.00    -0.206 F 
ATOM     75  C   UNL A   1      45.716  35.629  28.530  1.00  0.00     0.006 A 
ENDBRANCH  54  68
BRANCH  55  76
ATOM     76  C   UNL A   1      36.980  31.340  30.779  1.00  0.00     0.057 A 
ATOM     77  C   UNL A   1      36.614  31.869  29.529  1.00  0.00     0.134 A 
ATOM     78  C   UNL A   1      36.101  31.609  31.838  1.00  0.00     0.134 A 
ATOM     79  F   UNL A   1      37.428  31.755  28.468  1.00  0.00    -0.206 F 
ATOM     80  C   UNL A   1      35.445  32.613  29.336  1.00  0.00     0.040 A 
ATOM     81  C   UNL A   1      34.926  32.356  31.661  1.00  0.00     0.040 A 
ATOM     82  F   UNL A   1      36.390  31.202  33.082  1.00  0.00    -0.206 F 
ATOM     83  C   UNL A   1      34.598  32.865  30.408  1.00  0.00     0.006 A 
ENDBRANCH  55  76
BRANCH  67  84
ATOM     84  C   UNL A   1      42.182  29.795  33.888  1.00  0.00     0.057 A 
ATOM     85  C   UNL A   1      42.375  30.161  35.224  1.00  0.00     0.134 A 
ATOM     86  C   UNL A   1      41.851  28.455  33.637  1.00  0.00     0.134 A 
ATOM     87  F   UNL A   1      42.754  31.411  35.533  1.00  0.00    -0.206 F 
ATOM     88  C   UNL A   1      42.232  29.244  36.266  1.00  0.00     0.040 A 
ATOM     89  C   UNL A   1      41.674  27.533  34.675  1.00  0.00     0.040 A 
ATOM     90  F   UNL A   1      41.750  27.988  32.387  1.00  0.00    -0.206 F 
ATOM     91  C   UNL A   1      41.868  27.927  35.995  1.00  0.00     0.006 A 
ENDBRANCH  67  84
ENDBRANCH  41  42
ENDBRANCH  33  36
ENDBRANCH  31  32
ENDBRANCH  30  31
ENDBRANCH   1  30
TORSDOF 13
ENDMDL
MODEL 2
REMARK VINA RESULT:     -12.8      3.349      8.472
REMARK SMILES Cc1nc2cc(S(=O)(=O)N3CCC(C(=O)NCCCNC(=O)c4ccc(-c5c6nc(c(-c7c(F)cccc7F)c7ccc([nH]7)c(-c7c(F)cccc7F)c7nc(c(-c8c(F)cccc8F)c8ccc5[nH]8)C=C7)C=C6)cc4)CC3)ccc2n1C1CCCC1
REMARK SMILES IDX 17 1 16 2 14 3 15 4 13 6 10 7 11 8 78 9 12 10 77 11 7 12
REMARK SMILES IDX 8 13 9 14 6 15 1 16 2 17 3 18 82 19 4 20 81 21 5 22 80 23
REMARK SMILES IDX 79 24 83 25 84 26 87 27 85 28 86 29 18 30 19 31 20 32 21 33
REMARK SMILES IDX 22 35 23 36 24 37 76 38 25 39 75 40 26 41 27 42 28 43 69 44
REMARK SMILES IDX 29 45 74 46 68 47 70 48 30 49 73 50 67 51 66 52 31 54 57 55
REMARK SMILES IDX 40 56 56 57 41 58 44 59 55 60 71 61 42 62 43 63 54 65 72 66
REMARK SMILES IDX 45 67 32 68 33 69 38 70 34 71 35 72 37 73 39 74 36 75 58 76
REMARK SMILES IDX 59 77 64 78 60 79 61 80 63 81 65 82 62 83 46 84 47 85 52 86
REMARK SMILES IDX 48 87 49 88 51 89 53 90 50 91
REMARK H PARENT 16 5 20 34 70 53 44 64
REMARK Flexibility Score: inf
ROOT
ATOM      1  C   UNL A   1      33.624  28.699  27.309  1.00  0.00     0.117 C 
ENDROOT
BRANCH   1   2
ATOM      2  N   UNL A   1      32.731  29.844  27.169  1.00  0.00    -0.356 N 
ATOM      3  C   UNL A   1      31.884  30.208  26.167  1.00  0.00     0.223 C 
ATOM      4  O   UNL A   1      31.231  31.244  26.306  1.00  0.00    -0.275 OA
ATOM      5  H   UNL A   1      32.742  30.462  27.935  1.00  0.00     0.163 HD
BRANCH   3   6
ATOM      6  C   UNL A   1      31.735  29.366  24.914  1.00  0.00     0.081 C 
ATOM      7  N   UNL A   1      32.491  27.070  23.321  1.00  0.00    -0.198 NA
ATOM      8  C   UNL A   1      33.018  28.404  22.947  1.00  0.00     0.103 C 
ATOM      9  C   UNL A   1      31.258  26.979  24.140  1.00  0.00     0.103 C 
ATOM     10  C   UNL A   1      33.024  29.376  24.103  1.00  0.00     0.030 C 
ATOM     11  C   UNL A   1      31.198  27.984  25.269  1.00  0.00     0.030 C 
BRANCH   7  12
ATOM     12  S   UNL A   1      32.601  25.888  22.070  1.00  0.00     0.243 S 
ATOM     13  O   UNL A   1      33.695  26.282  21.201  1.00  0.00    -0.207 OA
ATOM     14  O   UNL A   1      31.269  25.670  21.560  1.00  0.00    -0.207 OA
BRANCH  12  15
ATOM     15  C   UNL A   1      33.102  24.370  22.862  1.00  0.00     0.085 A 
ATOM     16  C   UNL A   1      37.171  20.584  25.051  1.00  0.00     0.088 C 
ATOM     17  C   UNL A   1      36.017  21.402  24.596  1.00  0.00     0.106 A 
ATOM     18  N   UNL A   1      36.135  22.636  24.143  1.00  0.00    -0.233 NA
ATOM     19  N   UNL A   1      34.703  20.978  24.541  1.00  0.00    -0.325 N 
ATOM     20  C   UNL A   1      34.882  23.026  23.766  1.00  0.00     0.090 A 
ATOM     21  C   UNL A   1      33.960  22.017  24.021  1.00  0.00     0.068 A 
ATOM     22  C   UNL A   1      34.461  24.230  23.178  1.00  0.00     0.052 A 
ATOM     23  C   UNL A   1      32.606  22.152  23.729  1.00  0.00     0.030 A 
ATOM     24  C   UNL A   1      32.199  23.343  23.145  1.00  0.00     0.024 A 
BRANCH  19  25
ATOM     25  C   UNL A   1      34.189  19.661  24.870  1.00  0.00     0.089 C 
ATOM     26  C   UNL A   1      33.100  19.626  25.947  1.00  0.00     0.025 C 
ATOM     27  C   UNL A   1      33.558  18.919  23.688  1.00  0.00     0.025 C 
ATOM     28  C   UNL A   1      32.477  18.246  25.785  1.00  0.00     0.002 C 
ATOM     29  C   UNL A   1      32.646  17.868  24.314  1.00  0.00     0.002 C 
ENDBRANCH  19  25
ENDBRANCH  12  15
ENDBRANCH   7  12
ENDBRANCH   3   6
ENDBRANCH   1   2
BRANCH   1  30
ATOM     30  C   UNL A   1      35.095  29.095  27.231  1.00  0.00     0.042 C 
BRANCH  30  31
ATOM     31  C   UNL A   1      35.418  30.386  27.974  1.00  0.00     0.118 C 
BRANCH  31  32
ATOM     32  N   UNL A   1      35.556  30.209  29.403  1.00  0.00    -0.352 N 
ATOM     33  C   UNL A   1      36.542  29.758  30.230  1.00  0.00     0.251 C 
ATOM     34  H   UNL A   1      34.747  30.477  29.895  1.00  0.00     0.163 HD
ATOM     35  O   UNL A   1      36.315  29.860  31.439  1.00  0.00    -0.269 OA
BRANCH  33  36
ATOM     36  C   UNL A   1      37.797  29.092  29.795  1.00  0.00     0.039 A 
ATOM     37  C   UNL A   1      38.400  27.993  30.407  1.00  0.00     0.014 A 
ATOM     38  C   UNL A   1      38.467  29.722  28.728  1.00  0.00     0.014 A 
ATOM     39  C   UNL A   1      39.703  27.639  30.074  1.00  0.00     0.010 A 
ATOM     40  C   UNL A   1      39.753  29.355  28.371  1.00  0.00     0.010 A 
ATOM     41  C   UNL A   1      40.396  28.368  29.103  1.00  0.00    -0.014 A 
BRANCH  41  42
ATOM     42  C   UNL A   1      41.779  28.008  28.814  1.00  0.00     0.031 A 
ATOM     43  C   UNL A   1      41.921  26.736  28.056  1.00  0.00     0.074 A 
ATOM     44  C   UNL A   1      42.823  28.804  29.129  1.00  0.00     0.049 A 
ATOM     45  N   UNL A   1      42.446  25.628  28.462  1.00  0.00    -0.248 NA
ATOM     46  C   UNL A   1      41.250  26.632  26.749  1.00  0.00     0.031 C 
ATOM     47  C   UNL A   1      42.799  30.170  29.663  1.00  0.00     0.029 A 
ATOM     48  N   UNL A   1      44.156  28.573  28.963  1.00  0.00    -0.354 N 
ATOM     49  C   UNL A   1      42.357  24.742  27.390  1.00  0.00     0.074 A 
ATOM     50  C   UNL A   1      41.472  25.355  26.436  1.00  0.00     0.031 C 
ATOM     51  C   UNL A   1      44.031  30.720  29.557  1.00  0.00     0.029 A 
ATOM     52  C   UNL A   1      44.957  29.705  29.090  1.00  0.00     0.049 A 
ATOM     53  H   UNL A   1      44.522  27.679  28.770  1.00  0.00     0.167 HD
ATOM     54  C   UNL A   1      43.209  23.685  27.285  1.00  0.00     0.037 A 
ATOM     55  C   UNL A   1      46.279  29.799  28.784  1.00  0.00     0.037 A 
ATOM     56  C   UNL A   1      43.836  23.402  28.550  1.00  0.00     0.049 A 
ATOM     57  C   UNL A   1      46.831  28.422  28.764  1.00  0.00     0.074 A 
ATOM     58  C   UNL A   1      43.395  22.990  29.792  1.00  0.00     0.029 A 
ATOM     59  N   UNL A   1      45.105  23.889  28.747  1.00  0.00    -0.354 N 
ATOM     60  N   UNL A   1      46.957  27.689  29.836  1.00  0.00    -0.248 NA
ATOM     61  C   UNL A   1      46.763  27.691  27.509  1.00  0.00     0.031 C 
ATOM     62  C   UNL A   1      44.215  23.691  30.726  1.00  0.00     0.029 A 
ATOM     63  C   UNL A   1      45.153  24.430  30.003  1.00  0.00     0.049 A 
ATOM     64  H   UNL A   1      45.846  23.856  28.100  1.00  0.00     0.167 HD
ATOM     65  C   UNL A   1      46.534  26.425  29.446  1.00  0.00     0.074 A 
ATOM     66  C   UNL A   1      46.489  26.472  27.985  1.00  0.00     0.031 C 
ATOM     67  C   UNL A   1      45.980  25.561  30.347  1.00  0.00     0.037 A 
BRANCH  54  68
ATOM     68  C   UNL A   1      43.812  23.200  25.984  1.00  0.00     0.057 A 
ATOM     69  C   UNL A   1      44.696  23.954  25.186  1.00  0.00     0.134 A 
ATOM     70  C   UNL A   1      43.795  21.818  25.709  1.00  0.00     0.134 A 
ATOM     71  F   UNL A   1      44.843  25.275  25.319  1.00  0.00    -0.206 F 
ATOM     72  C   UNL A   1      45.566  23.368  24.262  1.00  0.00     0.040 A 
ATOM     73  C   UNL A   1      44.692  21.217  24.818  1.00  0.00     0.040 A 
ATOM     74  F   UNL A   1      42.973  20.992  26.376  1.00  0.00    -0.206 F 
ATOM     75  C   UNL A   1      45.599  21.992  24.109  1.00  0.00     0.006 A 
ENDBRANCH  54  68
BRANCH  55  76
ATOM     76  C   UNL A   1      46.998  30.952  28.194  1.00  0.00     0.057 A 
ATOM     77  C   UNL A   1      47.919  31.693  28.957  1.00  0.00     0.134 A 
ATOM     78  C   UNL A   1      46.617  31.525  26.972  1.00  0.00     0.134 A 
ATOM     79  F   UNL A   1      48.279  31.287  30.185  1.00  0.00    -0.206 F 
ATOM     80  C   UNL A   1      48.436  32.921  28.534  1.00  0.00     0.040 A 
ATOM     81  C   UNL A   1      47.126  32.758  26.534  1.00  0.00     0.040 A 
ATOM     82  F   UNL A   1      45.698  30.929  26.199  1.00  0.00    -0.206 F 
ATOM     83  C   UNL A   1      48.034  33.463  27.319  1.00  0.00     0.006 A 
ENDBRANCH  55  76
BRANCH  67  84
ATOM     84  C   UNL A   1      46.046  25.934  31.802  1.00  0.00     0.057 A 
ATOM     85  C   UNL A   1      44.977  26.639  32.362  1.00  0.00     0.134 A 
ATOM     86  C   UNL A   1      47.178  25.747  32.612  1.00  0.00     0.134 A 
ATOM     87  F   UNL A   1      43.887  26.909  31.626  1.00  0.00    -0.206 F 
ATOM     88  C   UNL A   1      45.019  27.124  33.670  1.00  0.00     0.040 A 
ATOM     89  C   UNL A   1      47.221  26.201  33.934  1.00  0.00     0.040 A 
ATOM     90  F   UNL A   1      48.289  25.177  32.129  1.00  0.00    -0.206 F 
ATOM     91  C   UNL A   1      46.139  26.895  34.466  1.00  0.00     0.006 A 
ENDBRANCH  67  84
ENDBRANCH  41  42
ENDBRANCH  33  36
ENDBRANCH  31  32
ENDBRANCH  30  31
ENDBRANCH   1  30
TORSDOF 13
ENDMDL
MODEL 3
REMARK VINA RESULT:     -12.7      4.777     11.033
REMARK SMILES Cc1nc2cc(S(=O)(=O)N3CCC(C(=O)NCCCNC(=O)c4ccc(-c5c6nc(c(-c7c(F)cccc7F)c7ccc([nH]7)c(-c7c(F)cccc7F)c7nc(c(-c8c(F)cccc8F)c8ccc5[nH]8)C=C7)C=C6)cc4)CC3)ccc2n1C1CCCC1
REMARK SMILES IDX 17 1 16 2 14 3 15 4 13 6 10 7 11 8 78 9 12 10 77 11 7 12
REMARK SMILES IDX 8 13 9 14 6 15 1 16 2 17 3 18 82 19 4 20 81 21 5 22 80 23
REMARK SMILES IDX 79 24 83 25 84 26 87 27 85 28 86 29 18 30 19 31 20 32 21 33
REMARK SMILES IDX 22 35 23 36 24 37 76 38 25 39 75 40 26 41 27 42 28 43 69 44
REMARK SMILES IDX 29 45 74 46 68 47 70 48 30 49 73 50 67 51 66 52 31 54 57 55
REMARK SMILES IDX 40 56 56 57 41 58 44 59 55 60 71 61 42 62 43 63 54 65 72 66
REMARK SMILES IDX 45 67 32 68 33 69 38 70 34 71 35 72 37 73 39 74 36 75 58 76
REMARK SMILES IDX 59 77 64 78 60 79 61 80 63 81 65 82 62 83 46 84 47 85 52 86
REMARK SMILES IDX 48 87 49 88 51 89 53 90 50 91
REMARK H PARENT 16 5 20 34 70 53 44 64
REMARK Flexibility Score: inf
ROOT
ATOM      1  C   UNL A   1      33.458  35.840  29.668  1.00  0.00     0.117 C 
ENDROOT
BRANCH   1   2
ATOM      2  N   UNL A   1      32.725  35.447  30.866  1.00  0.00    -0.356 N 
ATOM      3  C   UNL A   1      33.124  34.795  31.992  1.00  0.00     0.223 C 
ATOM      4  O   UNL A   1      32.285  34.587  32.871  1.00  0.00    -0.275 OA
ATOM      5  H   UNL A   1      31.774  35.699  30.859  1.00  0.00     0.163 HD
BRANCH   3   6
ATOM      6  C   UNL A   1      34.560  34.340  32.175  1.00  0.00     0.081 C 
ATOM      7  N   UNL A   1      36.661  33.252  33.842  1.00  0.00    -0.198 NA
ATOM      8  C   UNL A   1      36.647  34.709  33.570  1.00  0.00     0.103 C 
ATOM      9  C   UNL A   1      35.954  32.333  32.918  1.00  0.00     0.103 C 
ATOM     10  C   UNL A   1      35.278  35.220  33.189  1.00  0.00     0.030 C 
ATOM     11  C   UNL A   1      34.606  32.843  32.461  1.00  0.00     0.030 C 
BRANCH   7  12
ATOM     12  S   UNL A   1      38.172  32.654  34.421  1.00  0.00     0.243 S 
ATOM     13  O   UNL A   1      38.130  31.207  34.321  1.00  0.00    -0.207 OA
ATOM     14  O   UNL A   1      38.453  33.321  35.670  1.00  0.00    -0.207 OA
BRANCH  12  15
ATOM     15  C   UNL A   1      39.405  33.208  33.256  1.00  0.00     0.085 A 
ATOM     16  C   UNL A   1      44.114  36.506  31.633  1.00  0.00     0.088 C 
ATOM     17  C   UNL A   1      42.969  35.586  31.856  1.00  0.00     0.106 A 
ATOM     18  N   UNL A   1      42.397  35.409  33.032  1.00  0.00    -0.233 NA
ATOM     19  N   UNL A   1      42.333  34.843  30.880  1.00  0.00    -0.325 N 
ATOM     20  C   UNL A   1      41.355  34.551  32.826  1.00  0.00     0.090 A 
ATOM     21  C   UNL A   1      41.301  34.163  31.492  1.00  0.00     0.068 A 
ATOM     22  C   UNL A   1      40.399  34.073  33.736  1.00  0.00     0.052 A 
ATOM     23  C   UNL A   1      40.331  33.290  31.008  1.00  0.00     0.030 A 
ATOM     24  C   UNL A   1      39.388  32.825  31.913  1.00  0.00     0.024 A 
BRANCH  19  25
ATOM     25  C   UNL A   1      42.615  34.836  29.457  1.00  0.00     0.089 C 
ATOM     26  C   UNL A   1      42.093  36.045  28.674  1.00  0.00     0.025 C 
ATOM     27  C   UNL A   1      44.106  34.791  29.110  1.00  0.00     0.025 C 
ATOM     28  C   UNL A   1      42.867  35.986  27.362  1.00  0.00     0.002 C 
ATOM     29  C   UNL A   1      44.204  35.317  27.681  1.00  0.00     0.002 C 
ENDBRANCH  19  25
ENDBRANCH  12  15
ENDBRANCH   7  12
ENDBRANCH   3   6
ENDBRANCH   1   2
BRANCH   1  30
ATOM     30  C   UNL A   1      33.388  34.783  28.569  1.00  0.00     0.042 C 
BRANCH  30  31
ATOM     31  C   UNL A   1      34.421  33.673  28.728  1.00  0.00     0.118 C 
BRANCH  31  32
ATOM     32  N   UNL A   1      34.158  32.519  27.894  1.00  0.00    -0.352 N 
ATOM     33  C   UNL A   1      34.724  31.289  27.742  1.00  0.00     0.251 C 
ATOM     34  H   UNL A   1      33.388  32.655  27.296  1.00  0.00     0.163 HD
ATOM     35  O   UNL A   1      34.132  30.518  26.981  1.00  0.00    -0.269 OA
BRANCH  33  36
ATOM     36  C   UNL A   1      36.012  30.850  28.339  1.00  0.00     0.039 A 
ATOM     37  C   UNL A   1      37.165  31.625  28.468  1.00  0.00     0.014 A 
ATOM     38  C   UNL A   1      36.069  29.490  28.700  1.00  0.00     0.014 A 
ATOM     39  C   UNL A   1      38.376  31.022  28.788  1.00  0.00     0.010 A 
ATOM     40  C   UNL A   1      37.266  28.890  29.048  1.00  0.00     0.010 A 
ATOM     41  C   UNL A   1      38.431  29.643  29.010  1.00  0.00    -0.014 A 
BRANCH  41  42
ATOM     42  C   UNL A   1      39.724  29.031  29.290  1.00  0.00     0.031 A 
ATOM     43  C   UNL A   1      40.068  28.993  30.737  1.00  0.00     0.074 A 
ATOM     44  C   UNL A   1      40.491  28.471  28.331  1.00  0.00     0.049 A 
ATOM     45  N   UNL A   1      41.017  29.628  31.340  1.00  0.00    -0.248 NA
ATOM     46  C   UNL A   1      39.144  28.298  31.649  1.00  0.00     0.031 C 
ATOM     47  C   UNL A   1      40.163  28.242  26.920  1.00  0.00     0.029 A 
ATOM     48  N   UNL A   1      41.730  27.914  28.442  1.00  0.00    -0.354 N 
ATOM     49  C   UNL A   1      40.941  29.255  32.681  1.00  0.00     0.074 A 
ATOM     50  C   UNL A   1      39.682  28.576  32.837  1.00  0.00     0.031 C 
ATOM     51  C   UNL A   1      41.069  27.396  26.375  1.00  0.00     0.029 A 
ATOM     52  C   UNL A   1      42.116  27.144  27.347  1.00  0.00     0.049 A 
ATOM     53  H   UNL A   1      42.304  28.044  29.232  1.00  0.00     0.167 HD
ATOM     54  C   UNL A   1      42.032  29.335  33.491  1.00  0.00     0.037 A 
ATOM     55  C   UNL A   1      43.200  26.326  27.275  1.00  0.00     0.037 A 
ATOM     56  C   UNL A   1      43.032  30.202  32.923  1.00  0.00     0.049 A 
ATOM     57  C   UNL A   1      44.148  26.748  28.335  1.00  0.00     0.074 A 
ATOM     58  C   UNL A   1      43.102  31.545  32.610  1.00  0.00     0.029 A 
ATOM     59  N   UNL A   1      44.073  29.607  32.253  1.00  0.00    -0.354 N 
ATOM     60  N   UNL A   1      44.790  27.883  28.308  1.00  0.00    -0.248 NA
ATOM     61  C   UNL A   1      43.991  26.149  29.652  1.00  0.00     0.031 C 
ATOM     62  C   UNL A   1      43.863  31.603  31.404  1.00  0.00     0.029 A 
ATOM     63  C   UNL A   1      44.275  30.306  31.094  1.00  0.00     0.049 A 
ATOM     64  H   UNL A   1      44.582  28.820  32.553  1.00  0.00     0.167 HD
ATOM     65  C   UNL A   1      44.719  28.357  29.611  1.00  0.00     0.074 A 
ATOM     66  C   UNL A   1      44.272  27.215  30.408  1.00  0.00     0.031 C 
ATOM     67  C   UNL A   1      44.744  29.697  29.873  1.00  0.00     0.037 A 
BRANCH  54  68
ATOM     68  C   UNL A   1      42.389  28.310  34.547  1.00  0.00     0.057 A 
ATOM     69  C   UNL A   1      42.088  28.440  35.917  1.00  0.00     0.134 A 
ATOM     70  C   UNL A   1      42.717  27.004  34.131  1.00  0.00     0.134 A 
ATOM     71  F   UNL A   1      41.750  29.606  36.477  1.00  0.00    -0.206 F 
ATOM     72  C   UNL A   1      42.018  27.345  36.783  1.00  0.00     0.040 A 
ATOM     73  C   UNL A   1      42.607  25.895  34.979  1.00  0.00     0.040 A 
ATOM     74  F   UNL A   1      43.055  26.749  32.858  1.00  0.00    -0.206 F 
ATOM     75  C   UNL A   1      42.232  26.062  36.305  1.00  0.00     0.006 A 
ENDBRANCH  54  68
BRANCH  55  76
ATOM     76  C   UNL A   1      43.313  25.023  26.580  1.00  0.00     0.057 A 
ATOM     77  C   UNL A   1      44.044  24.906  25.384  1.00  0.00     0.134 A 
ATOM     78  C   UNL A   1      42.502  23.927  26.910  1.00  0.00     0.134 A 
ATOM     79  F   UNL A   1      44.776  25.932  24.923  1.00  0.00    -0.206 F 
ATOM     80  C   UNL A   1      43.982  23.772  24.568  1.00  0.00     0.040 A 
ATOM     81  C   UNL A   1      42.427  22.783  26.100  1.00  0.00     0.040 A 
ATOM     82  F   UNL A   1      41.719  23.964  27.997  1.00  0.00    -0.206 F 
ATOM     83  C   UNL A   1      43.165  22.706  24.922  1.00  0.00     0.006 A 
ENDBRANCH  55  76
BRANCH  67  84
ATOM     84  C   UNL A   1      45.071  30.624  28.735  1.00  0.00     0.057 A 
ATOM     85  C   UNL A   1      44.027  31.093  27.933  1.00  0.00     0.134 A 
ATOM     86  C   UNL A   1      46.377  30.942  28.330  1.00  0.00     0.134 A 
ATOM     87  F   UNL A   1      42.756  30.775  28.224  1.00  0.00    -0.206 F 
ATOM     88  C   UNL A   1      44.265  31.857  26.789  1.00  0.00     0.040 A 
ATOM     89  C   UNL A   1      46.627  31.733  27.204  1.00  0.00     0.040 A 
ATOM     90  F   UNL A   1      47.442  30.451  28.975  1.00  0.00    -0.206 F 
ATOM     91  C   UNL A   1      45.567  32.190  26.427  1.00  0.00     0.006 A 
ENDBRANCH  67  84
ENDBRANCH  41  42
ENDBRANCH  33  36
ENDBRANCH  31  32
ENDBRANCH  30  31
ENDBRANCH   1  30
TORSDOF 13
ENDMDL
