MODEL 1
REMARK VINA RESULT:     -11.9      0.000      0.000
REMARK SMILES Cc1cc(C(=O)Nc2c(Cl)cc(Cl)cc2C(=O)NCCCNC(=O)c2ccc(-c3c4nc(c(-c5c(F)cccc5F)c5ccc([nH]5)c(-c5c(F)cccc5F)c5nc(c(-c6c(F)cccc6F)c6ccc3[nH]6)C=C5)C=C4)cc2)c(C)s1
REMARK SMILES IDX 20 1 19 2 18 3 16 4 17 5 15 7 8 8 9 9 10 10 11 11 14 12
REMARK SMILES IDX 12 13 13 14 7 15 5 16 6 17 4 19 1 20 2 21 3 22 81 23 79 24
REMARK SMILES IDX 80 25 21 26 22 27 23 28 24 30 25 31 26 32 78 33 27 34 77 35
REMARK SMILES IDX 28 36 29 37 30 38 71 39 31 40 76 41 70 42 72 43 32 44 75 45
REMARK SMILES IDX 69 46 68 47 33 49 59 50 42 51 58 52 43 53 46 54 57 55 73 56
REMARK SMILES IDX 44 57 45 58 56 60 74 61 47 62 34 63 35 64 40 65 36 66 37 67
REMARK SMILES IDX 39 68 41 69 38 70 60 71 61 72 66 73 62 74 63 75 65 76 67 77
REMARK SMILES IDX 64 78 48 79 49 80 54 81 50 82 51 83 53 84 55 85 52 86
REMARK H PARENT 18 6 7 18 22 29 72 48 46 59
REMARK Flexibility Score: inf
ROOT
ATOM      1  C   UNL A   1      31.881  31.784  27.200  1.00  0.00     0.042 C 
ENDROOT
BRANCH   1   2
ATOM      2  C   UNL A   1      32.567  30.489  26.845  1.00  0.00     0.118 C 
BRANCH   2   3
ATOM      3  N   UNL A   1      32.013  29.269  27.358  1.00  0.00    -0.352 N 
ATOM      4  C   UNL A   1      31.677  28.112  26.705  1.00  0.00     0.253 C 
ATOM      5  O   UNL A   1      31.270  27.191  27.419  1.00  0.00    -0.269 OA
ATOM      6  H   UNL A   1      31.849  29.261  28.329  1.00  0.00     0.163 HD
BRANCH   4   7
ATOM      7  C   UNL A   1      31.700  27.882  25.216  1.00  0.00     0.066 A 
ATOM      8  C   UNL A   1      32.576  27.107  24.417  1.00  0.00     0.073 A 
ATOM      9  C   UNL A   1      32.278  26.925  23.040  1.00  0.00     0.066 A 
ATOM     10  Cl  UNL A   1      33.195  25.846  22.036  1.00  0.00    -0.082 Cl
ATOM     11  C   UNL A   1      31.227  27.606  22.427  1.00  0.00     0.043 A 
ATOM     12  C   UNL A   1      30.644  28.562  24.561  1.00  0.00     0.036 A 
ATOM     13  C   UNL A   1      30.432  28.444  23.188  1.00  0.00     0.043 A 
ATOM     14  Cl  UNL A   1      29.172  29.339  22.435  1.00  0.00    -0.084 Cl
BRANCH   8  15
ATOM     15  N   UNL A   1      33.736  26.496  24.923  1.00  0.00    -0.320 N 
ATOM     16  C   UNL A   1      33.901  25.207  25.440  1.00  0.00     0.256 C 
ATOM     17  O   UNL A   1      35.037  24.930  25.835  1.00  0.00    -0.269 OA
ATOM     18  H   UNL A   1      34.547  27.055  24.909  1.00  0.00     0.170 HD
BRANCH  16  19
ATOM     19  C   UNL A   1      32.824  24.182  25.407  1.00  0.00     0.054 A 
ATOM     20  C   UNL A   1      29.805  22.614  27.030  1.00  0.00     0.056 C 
ATOM     21  C   UNL A   1      30.938  22.989  26.140  1.00  0.00     0.003 A 
ATOM     22  C   UNL A   1      31.506  24.231  25.979  1.00  0.00     0.029 A 
ATOM     23  S   UNL A   1      31.716  21.848  25.158  1.00  0.00    -0.145 S 
ATOM     24  C   UNL A   1      32.912  22.992  24.676  1.00  0.00     0.014 A 
ATOM     25  C   UNL A   1      33.880  22.559  23.620  1.00  0.00     0.057 C 
ENDBRANCH  16  19
ENDBRANCH   8  15
ENDBRANCH   4   7
ENDBRANCH   2   3
ENDBRANCH   1   2
BRANCH   1  26
ATOM     26  C   UNL A   1      32.583  33.038  26.730  1.00  0.00     0.118 C 
BRANCH  26  27
ATOM     27  N   UNL A   1      32.410  34.192  27.605  1.00  0.00    -0.352 N 
ATOM     28  C   UNL A   1      33.091  34.617  28.723  1.00  0.00     0.251 C 
ATOM     29  H   UNL A   1      31.665  34.780  27.347  1.00  0.00     0.163 HD
ATOM     30  O   UNL A   1      32.677  35.605  29.333  1.00  0.00    -0.269 OA
BRANCH  28  31
ATOM     31  C   UNL A   1      34.286  33.904  29.227  1.00  0.00     0.039 A 
ATOM     32  C   UNL A   1      35.563  34.394  28.929  1.00  0.00     0.014 A 
ATOM     33  C   UNL A   1      34.172  32.734  29.971  1.00  0.00     0.014 A 
ATOM     34  C   UNL A   1      36.697  33.745  29.430  1.00  0.00     0.010 A 
ATOM     35  C   UNL A   1      35.277  32.202  30.619  1.00  0.00     0.010 A 
ATOM     36  C   UNL A   1      36.560  32.660  30.310  1.00  0.00    -0.014 A 
BRANCH  36  37
ATOM     37  C   UNL A   1      37.730  31.917  30.847  1.00  0.00     0.031 A 
ATOM     38  C   UNL A   1      38.228  32.216  32.242  1.00  0.00     0.074 A 
ATOM     39  C   UNL A   1      38.386  31.033  30.072  1.00  0.00     0.049 A 
ATOM     40  N   UNL A   1      39.267  31.732  32.876  1.00  0.00    -0.248 NA
ATOM     41  C   UNL A   1      37.489  33.232  33.010  1.00  0.00     0.031 C 
ATOM     42  C   UNL A   1      38.045  30.700  28.687  1.00  0.00     0.029 A 
ATOM     43  N   UNL A   1      39.476  30.248  30.344  1.00  0.00    -0.354 N 
ATOM     44  C   UNL A   1      39.319  32.412  34.088  1.00  0.00     0.074 A 
ATOM     45  C   UNL A   1      38.269  33.402  34.064  1.00  0.00     0.031 C 
ATOM     46  C   UNL A   1      38.872  29.736  28.253  1.00  0.00     0.029 A 
ATOM     47  C   UNL A   1      39.825  29.414  29.310  1.00  0.00     0.049 A 
ATOM     48  H   UNL A   1      39.963  30.279  31.200  1.00  0.00     0.167 HD
ATOM     49  C   UNL A   1      40.138  32.205  35.147  1.00  0.00     0.037 A 
ATOM     50  C   UNL A   1      40.797  28.486  29.233  1.00  0.00     0.037 A 
ATOM     51  C   UNL A   1      41.148  31.184  35.185  1.00  0.00     0.049 A 
ATOM     52  C   UNL A   1      41.687  28.261  30.424  1.00  0.00     0.074 A 
ATOM     53  C   UNL A   1      41.983  30.832  36.229  1.00  0.00     0.029 A 
ATOM     54  N   UNL A   1      41.458  30.347  34.122  1.00  0.00    -0.354 N 
ATOM     55  N   UNL A   1      41.675  28.854  31.594  1.00  0.00    -0.248 NA
ATOM     56  C   UNL A   1      42.720  27.225  30.286  1.00  0.00     0.031 C 
ATOM     57  C   UNL A   1      42.837  29.819  35.780  1.00  0.00     0.029 A 
ATOM     58  C   UNL A   1      42.490  29.495  34.477  1.00  0.00     0.049 A 
ATOM     59  H   UNL A   1      41.010  30.358  33.245  1.00  0.00     0.167 HD
ATOM     60  C   UNL A   1      42.666  28.235  32.345  1.00  0.00     0.074 A 
ATOM     61  C   UNL A   1      43.254  27.216  31.498  1.00  0.00     0.031 C 
ATOM     62  C   UNL A   1      43.053  28.480  33.622  1.00  0.00     0.037 A 
BRANCH  49  63
ATOM     63  C   UNL A   1      39.962  33.106  36.339  1.00  0.00     0.057 A 
ATOM     64  C   UNL A   1      39.022  32.842  37.346  1.00  0.00     0.134 A 
ATOM     65  C   UNL A   1      40.734  34.268  36.474  1.00  0.00     0.134 A 
ATOM     66  F   UNL A   1      38.238  31.755  37.277  1.00  0.00    -0.206 F 
ATOM     67  C   UNL A   1      38.818  33.723  38.410  1.00  0.00     0.040 A 
ATOM     68  C   UNL A   1      40.566  35.137  37.554  1.00  0.00     0.040 A 
ATOM     69  F   UNL A   1      41.659  34.583  35.555  1.00  0.00    -0.206 F 
ATOM     70  C   UNL A   1      39.596  34.873  38.518  1.00  0.00     0.006 A 
ENDBRANCH  49  63
BRANCH  50  71
ATOM     71  C   UNL A   1      40.930  27.648  28.014  1.00  0.00     0.057 A 
ATOM     72  C   UNL A   1      40.262  26.422  27.913  1.00  0.00     0.134 A 
ATOM     73  C   UNL A   1      41.712  28.047  26.924  1.00  0.00     0.134 A 
ATOM     74  F   UNL A   1      39.508  25.979  28.930  1.00  0.00    -0.206 F 
ATOM     75  C   UNL A   1      40.384  25.611  26.784  1.00  0.00     0.040 A 
ATOM     76  C   UNL A   1      41.822  27.258  25.776  1.00  0.00     0.040 A 
ATOM     77  F   UNL A   1      42.369  29.216  26.952  1.00  0.00    -0.206 F 
ATOM     78  C   UNL A   1      41.162  26.032  25.709  1.00  0.00     0.006 A 
ENDBRANCH  50  71
BRANCH  62  79
ATOM     79  C   UNL A   1      44.118  27.594  34.200  1.00  0.00     0.057 A 
ATOM     80  C   UNL A   1      45.475  27.941  34.173  1.00  0.00     0.134 A 
ATOM     81  C   UNL A   1      43.772  26.382  34.814  1.00  0.00     0.134 A 
ATOM     82  F   UNL A   1      45.875  29.081  33.591  1.00  0.00    -0.206 F 
ATOM     83  C   UNL A   1      46.453  27.099  34.705  1.00  0.00     0.040 A 
ATOM     84  C   UNL A   1      44.738  25.549  35.381  1.00  0.00     0.040 A 
ATOM     85  F   UNL A   1      42.490  25.996  34.886  1.00  0.00    -0.206 F 
ATOM     86  C   UNL A   1      46.084  25.902  35.317  1.00  0.00     0.006 A 
ENDBRANCH  62  79
ENDBRANCH  36  37
ENDBRANCH  28  31
ENDBRANCH  26  27
ENDBRANCH   1  26
TORSDOF 12
ENDMDL
MODEL 2
REMARK VINA RESULT:     -11.9      1.139      1.507
REMARK SMILES Cc1cc(C(=O)Nc2c(Cl)cc(Cl)cc2C(=O)NCCCNC(=O)c2ccc(-c3c4nc(c(-c5c(F)cccc5F)c5ccc([nH]5)c(-c5c(F)cccc5F)c5nc(c(-c6c(F)cccc6F)c6ccc3[nH]6)C=C5)C=C4)cc2)c(C)s1
REMARK SMILES IDX 20 1 19 2 18 3 16 4 17 5 15 7 8 8 9 9 10 10 11 11 14 12
REMARK SMILES IDX 12 13 13 14 7 15 5 16 6 17 4 19 1 20 2 21 3 22 81 23 79 24
REMARK SMILES IDX 80 25 21 26 22 27 23 28 24 30 25 31 26 32 78 33 27 34 77 35
REMARK SMILES IDX 28 36 29 37 30 38 71 39 31 40 76 41 70 42 72 43 32 44 75 45
REMARK SMILES IDX 69 46 68 47 33 49 59 50 42 51 58 52 43 53 46 54 57 55 73 56
REMARK SMILES IDX 44 57 45 58 56 60 74 61 47 62 34 63 35 64 40 65 36 66 37 67
REMARK SMILES IDX 39 68 41 69 38 70 60 71 61 72 66 73 62 74 63 75 65 76 67 77
REMARK SMILES IDX 64 78 48 79 49 80 54 81 50 82 51 83 53 84 55 85 52 86
REMARK H PARENT 18 6 7 18 22 29 72 48 46 59
REMARK Flexibility Score: inf
ROOT
ATOM      1  C   UNL A   1      31.435  31.972  26.859  1.00  0.00     0.042 C 
ENDROOT
BRANCH   1   2
ATOM      2  C   UNL A   1      31.778  30.598  26.344  1.00  0.00     0.118 C 
BRANCH   2   3
ATOM      3  N   UNL A   1      31.728  29.499  27.265  1.00  0.00    -0.352 N 
ATOM      4  C   UNL A   1      31.851  28.153  27.039  1.00  0.00     0.253 C 
ATOM      5  O   UNL A   1      31.825  27.435  28.042  1.00  0.00    -0.269 OA
ATOM      6  H   UNL A   1      31.584  29.751  28.206  1.00  0.00     0.163 HD
BRANCH   4   7
ATOM      7  C   UNL A   1      31.953  27.475  25.697  1.00  0.00     0.066 A 
ATOM      8  C   UNL A   1      31.415  26.244  25.244  1.00  0.00     0.073 A 
ATOM      9  C   UNL A   1      31.522  25.907  23.868  1.00  0.00     0.066 A 
ATOM     10  Cl  UNL A   1      30.735  24.512  23.200  1.00  0.00    -0.082 Cl
ATOM     11  C   UNL A   1      32.265  26.687  22.984  1.00  0.00     0.043 A 
ATOM     12  C   UNL A   1      32.704  28.241  24.773  1.00  0.00     0.036 A 
ATOM     13  C   UNL A   1      32.876  27.838  23.450  1.00  0.00     0.043 A 
ATOM     14  Cl  UNL A   1      33.848  28.777  22.387  1.00  0.00    -0.084 Cl
BRANCH   8  15
ATOM     15  N   UNL A   1      30.769  25.331  26.095  1.00  0.00    -0.320 N 
ATOM     16  C   UNL A   1      31.189  24.061  26.507  1.00  0.00     0.256 C 
ATOM     17  O   UNL A   1      30.413  23.457  27.251  1.00  0.00    -0.269 OA
ATOM     18  H   UNL A   1      29.901  25.627  26.451  1.00  0.00     0.170 HD
BRANCH  16  19
ATOM     19  C   UNL A   1      32.533  23.512  26.184  1.00  0.00     0.054 A 
ATOM     20  C   UNL A   1      36.233  24.078  25.739  1.00  0.00     0.056 C 
ATOM     21  C   UNL A   1      34.855  23.521  25.830  1.00  0.00     0.003 A 
ATOM     22  C   UNL A   1      33.825  23.952  26.634  1.00  0.00     0.029 A 
ATOM     23  S   UNL A   1      34.361  22.204  24.887  1.00  0.00    -0.145 S 
ATOM     24  C   UNL A   1      32.733  22.349  25.432  1.00  0.00     0.014 A 
ATOM     25  C   UNL A   1      31.774  21.284  25.001  1.00  0.00     0.057 C 
ENDBRANCH  16  19
ENDBRANCH   8  15
ENDBRANCH   4   7
ENDBRANCH   2   3
ENDBRANCH   1   2
BRANCH   1  26
ATOM     26  C   UNL A   1      32.544  32.996  26.759  1.00  0.00     0.118 C 
BRANCH  26  27
ATOM     27  N   UNL A   1      32.376  34.157  27.626  1.00  0.00    -0.352 N 
ATOM     28  C   UNL A   1      33.057  34.584  28.742  1.00  0.00     0.251 C 
ATOM     29  H   UNL A   1      31.634  34.747  27.363  1.00  0.00     0.163 HD
ATOM     30  O   UNL A   1      32.648  35.579  29.346  1.00  0.00    -0.269 OA
BRANCH  28  31
ATOM     31  C   UNL A   1      34.248  33.867  29.253  1.00  0.00     0.039 A 
ATOM     32  C   UNL A   1      35.527  34.354  28.962  1.00  0.00     0.014 A 
ATOM     33  C   UNL A   1      34.125  32.698  29.996  1.00  0.00     0.014 A 
ATOM     34  C   UNL A   1      36.657  33.701  29.470  1.00  0.00     0.010 A 
ATOM     35  C   UNL A   1      35.224  32.162  30.650  1.00  0.00     0.010 A 
ATOM     36  C   UNL A   1      36.511  32.616  30.349  1.00  0.00    -0.014 A 
BRANCH  36  37
ATOM     37  C   UNL A   1      37.675  31.870  30.892  1.00  0.00     0.031 A 
ATOM     38  C   UNL A   1      38.161  32.160  32.293  1.00  0.00     0.074 A 
ATOM     39  C   UNL A   1      38.338  30.990  30.118  1.00  0.00     0.049 A 
ATOM     40  N   UNL A   1      39.193  31.671  32.934  1.00  0.00    -0.248 NA
ATOM     41  C   UNL A   1      37.415  33.172  33.061  1.00  0.00     0.031 C 
ATOM     42  C   UNL A   1      38.010  30.665  28.728  1.00  0.00     0.029 A 
ATOM     43  N   UNL A   1      39.425  30.203  30.395  1.00  0.00    -0.354 N 
ATOM     44  C   UNL A   1      39.235  32.344  34.150  1.00  0.00     0.074 A 
ATOM     45  C   UNL A   1      38.185  33.335  34.123  1.00  0.00     0.031 C 
ATOM     46  C   UNL A   1      38.841  29.703  28.296  1.00  0.00     0.029 A 
ATOM     47  C   UNL A   1      39.784  29.375  29.359  1.00  0.00     0.049 A 
ATOM     48  H   UNL A   1      39.905  30.229  31.256  1.00  0.00     0.167 HD
ATOM     49  C   UNL A   1      40.043  32.131  35.216  1.00  0.00     0.037 A 
ATOM     50  C   UNL A   1      40.756  28.447  29.287  1.00  0.00     0.037 A 
ATOM     51  C   UNL A   1      41.052  31.109  35.257  1.00  0.00     0.049 A 
ATOM     52  C   UNL A   1      41.635  28.214  30.484  1.00  0.00     0.074 A 
ATOM     53  C   UNL A   1      41.878  30.750  36.307  1.00  0.00     0.029 A 
ATOM     54  N   UNL A   1      41.372  30.278  34.193  1.00  0.00    -0.354 N 
ATOM     55  N   UNL A   1      41.612  28.800  31.658  1.00  0.00    -0.248 NA
ATOM     56  C   UNL A   1      42.668  27.178  30.349  1.00  0.00     0.031 C 
ATOM     57  C   UNL A   1      42.735  29.739  35.860  1.00  0.00     0.029 A 
ATOM     58  C   UNL A   1      42.400  29.424  34.552  1.00  0.00     0.049 A 
ATOM     59  H   UNL A   1      40.933  30.295  33.311  1.00  0.00     0.167 HD
ATOM     60  C   UNL A   1      42.596  28.176  32.415  1.00  0.00     0.074 A 
ATOM     61  C   UNL A   1      43.191  27.161  31.566  1.00  0.00     0.031 C 
ATOM     62  C   UNL A   1      42.970  28.413  33.696  1.00  0.00     0.037 A 
BRANCH  49  63
ATOM     63  C   UNL A   1      39.857  33.025  36.412  1.00  0.00     0.057 A 
ATOM     64  C   UNL A   1      38.922  32.744  37.419  1.00  0.00     0.134 A 
ATOM     65  C   UNL A   1      40.613  34.197  36.550  1.00  0.00     0.134 A 
ATOM     66  F   UNL A   1      38.153  31.646  37.347  1.00  0.00    -0.206 F 
ATOM     67  C   UNL A   1      38.707  33.618  38.487  1.00  0.00     0.040 A 
ATOM     68  C   UNL A   1      40.434  35.060  37.633  1.00  0.00     0.040 A 
ATOM     69  F   UNL A   1      41.532  34.528  35.631  1.00  0.00    -0.206 F 
ATOM     70  C   UNL A   1      39.469  34.778  38.598  1.00  0.00     0.006 A 
ENDBRANCH  49  63
BRANCH  50  71
ATOM     71  C   UNL A   1      40.900  27.616  28.063  1.00  0.00     0.057 A 
ATOM     72  C   UNL A   1      40.234  26.390  27.950  1.00  0.00     0.134 A 
ATOM     73  C   UNL A   1      41.691  28.022  26.982  1.00  0.00     0.134 A 
ATOM     74  F   UNL A   1      39.473  25.940  28.959  1.00  0.00    -0.206 F 
ATOM     75  C   UNL A   1      40.366  25.585  26.817  1.00  0.00     0.040 A 
ATOM     76  C   UNL A   1      41.811  27.240  25.831  1.00  0.00     0.040 A 
ATOM     77  F   UNL A   1      42.345  29.191  27.023  1.00  0.00    -0.206 F 
ATOM     78  C   UNL A   1      41.153  26.014  25.751  1.00  0.00     0.006 A 
ENDBRANCH  50  71
BRANCH  62  79
ATOM     79  C   UNL A   1      44.030  27.523  34.278  1.00  0.00     0.057 A 
ATOM     80  C   UNL A   1      45.387  27.873  34.273  1.00  0.00     0.134 A 
ATOM     81  C   UNL A   1      43.679  26.305  34.877  1.00  0.00     0.134 A 
ATOM     82  F   UNL A   1      45.791  29.020  33.707  1.00  0.00    -0.206 F 
ATOM     83  C   UNL A   1      46.359  27.027  34.809  1.00  0.00     0.040 A 
ATOM     84  C   UNL A   1      44.638  25.468  35.447  1.00  0.00     0.040 A 
ATOM     85  F   UNL A   1      42.397  25.916  34.928  1.00  0.00    -0.206 F 
ATOM     86  C   UNL A   1      45.984  25.823  35.403  1.00  0.00     0.006 A 
ENDBRANCH  62  79
ENDBRANCH  36  37
ENDBRANCH  28  31
ENDBRANCH  26  27
ENDBRANCH   1  26
TORSDOF 12
ENDMDL
MODEL 3
REMARK VINA RESULT:     -11.8      4.384      9.362
REMARK SMILES Cc1cc(C(=O)Nc2c(Cl)cc(Cl)cc2C(=O)NCCCNC(=O)c2ccc(-c3c4nc(c(-c5c(F)cccc5F)c5ccc([nH]5)c(-c5c(F)cccc5F)c5nc(c(-c6c(F)cccc6F)c6ccc3[nH]6)C=C5)C=C4)cc2)c(C)s1
REMARK SMILES IDX 20 1 19 2 18 3 16 4 17 5 15 7 8 8 9 9 10 10 11 11 14 12
REMARK SMILES IDX 12 13 13 14 7 15 5 16 6 17 4 19 1 20 2 21 3 22 81 23 79 24
REMARK SMILES IDX 80 25 21 26 22 27 23 28 24 30 25 31 26 32 78 33 27 34 77 35
REMARK SMILES IDX 28 36 29 37 30 38 71 39 31 40 76 41 70 42 72 43 32 44 75 45
REMARK SMILES IDX 69 46 68 47 33 49 59 50 42 51 58 52 43 53 46 54 57 55 73 56
REMARK SMILES IDX 44 57 45 58 56 60 74 61 47 62 34 63 35 64 40 65 36 66 37 67
REMARK SMILES IDX 39 68 41 69 38 70 60 71 61 72 66 73 62 74 63 75 65 76 67 77
REMARK SMILES IDX 64 78 48 79 49 80 54 81 50 82 51 83 53 84 55 85 52 86
REMARK H PARENT 18 6 7 18 22 29 72 48 46 59
REMARK Flexibility Score: inf
ROOT
ATOM      1  C   UNL A   1      38.350  20.080  24.983  1.00  0.00     0.042 C 
ENDROOT
BRANCH   1   2
ATOM      2  C   UNL A   1      37.609  21.368  25.240  1.00  0.00     0.118 C 
BRANCH   2   3
ATOM      3  N   UNL A   1      37.192  22.145  24.108  1.00  0.00    -0.352 N 
ATOM      4  C   UNL A   1      35.948  22.613  23.772  1.00  0.00     0.253 C 
ATOM      5  O   UNL A   1      35.895  23.314  22.757  1.00  0.00    -0.269 OA
ATOM      6  H   UNL A   1      37.909  22.378  23.476  1.00  0.00     0.163 HD
BRANCH   4   7
ATOM      7  C   UNL A   1      34.653  22.307  24.479  1.00  0.00     0.066 A 
ATOM      8  C   UNL A   1      33.826  23.131  25.282  1.00  0.00     0.073 A 
ATOM      9  C   UNL A   1      32.560  22.640  25.701  1.00  0.00     0.066 A 
ATOM     10  Cl  UNL A   1      31.414  23.646  26.529  1.00  0.00    -0.082 Cl
ATOM     11  C   UNL A   1      32.175  21.322  25.462  1.00  0.00     0.043 A 
ATOM     12  C   UNL A   1      34.233  20.973  24.258  1.00  0.00     0.036 A 
ATOM     13  C   UNL A   1      33.029  20.487  24.764  1.00  0.00     0.043 A 
ATOM     14  Cl  UNL A   1      32.596  18.842  24.516  1.00  0.00    -0.084 Cl
BRANCH   8  15
ATOM     15  N   UNL A   1      34.194  24.425  25.687  1.00  0.00    -0.320 N 
ATOM     16  C   UNL A   1      33.912  25.653  25.080  1.00  0.00     0.256 C 
ATOM     17  O   UNL A   1      34.377  26.647  25.643  1.00  0.00    -0.269 OA
ATOM     18  H   UNL A   1      34.724  24.473  26.516  1.00  0.00     0.170 HD
BRANCH  16  19
ATOM     19  C   UNL A   1      33.009  25.783  23.906  1.00  0.00     0.054 A 
ATOM     20  C   UNL A   1      32.524  25.642  20.171  1.00  0.00     0.056 C 
ATOM     21  C   UNL A   1      32.371  25.778  21.645  1.00  0.00     0.003 A 
ATOM     22  C   UNL A   1      33.080  25.128  22.628  1.00  0.00     0.029 A 
ATOM     23  S   UNL A   1      31.227  26.823  22.330  1.00  0.00    -0.145 S 
ATOM     24  C   UNL A   1      31.825  26.530  23.920  1.00  0.00     0.014 A 
ATOM     25  C   UNL A   1      31.060  27.132  25.056  1.00  0.00     0.057 C 
ENDBRANCH  16  19
ENDBRANCH   8  15
ENDBRANCH   4   7
ENDBRANCH   2   3
ENDBRANCH   1   2
BRANCH   1  26
ATOM     26  C   UNL A   1      39.158  19.554  26.147  1.00  0.00     0.118 C 
BRANCH  26  27
ATOM     27  N   UNL A   1      40.475  19.042  25.788  1.00  0.00    -0.352 N 
ATOM     28  C   UNL A   1      41.734  19.593  25.859  1.00  0.00     0.251 C 
ATOM     29  H   UNL A   1      40.462  18.127  25.425  1.00  0.00     0.163 HD
ATOM     30  O   UNL A   1      42.688  18.960  25.402  1.00  0.00    -0.269 OA
BRANCH  28  31
ATOM     31  C   UNL A   1      41.967  20.934  26.441  1.00  0.00     0.039 A 
ATOM     32  C   UNL A   1      41.943  21.100  27.830  1.00  0.00     0.014 A 
ATOM     33  C   UNL A   1      42.184  22.046  25.634  1.00  0.00     0.014 A 
ATOM     34  C   UNL A   1      42.196  22.359  28.389  1.00  0.00     0.010 A 
ATOM     35  C   UNL A   1      42.617  23.242  26.186  1.00  0.00     0.010 A 
ATOM     36  C   UNL A   1      42.570  23.435  27.569  1.00  0.00    -0.014 A 
BRANCH  36  37
ATOM     37  C   UNL A   1      42.821  24.797  28.107  1.00  0.00     0.031 A 
ATOM     38  C   UNL A   1      44.229  25.211  28.465  1.00  0.00     0.074 A 
ATOM     39  C   UNL A   1      41.792  25.634  28.341  1.00  0.00     0.049 A 
ATOM     40  N   UNL A   1      44.656  26.324  29.006  1.00  0.00    -0.248 NA
ATOM     41  C   UNL A   1      45.295  24.223  28.228  1.00  0.00     0.031 C 
ATOM     42  C   UNL A   1      40.379  25.333  28.099  1.00  0.00     0.029 A 
ATOM     43  N   UNL A   1      41.779  26.913  28.832  1.00  0.00    -0.354 N 
ATOM     44  C   UNL A   1      46.021  26.146  29.205  1.00  0.00     0.074 A 
ATOM     45  C   UNL A   1      46.334  24.793  28.813  1.00  0.00     0.031 C 
ATOM     46  C   UNL A   1      39.645  26.420  28.385  1.00  0.00     0.029 A 
ATOM     47  C   UNL A   1      40.527  27.476  28.870  1.00  0.00     0.049 A 
ATOM     48  H   UNL A   1      42.592  27.385  29.129  1.00  0.00     0.167 HD
ATOM     49  C   UNL A   1      46.945  27.040  29.633  1.00  0.00     0.037 A 
ATOM     50  C   UNL A   1      40.141  28.710  29.242  1.00  0.00     0.037 A 
ATOM     51  C   UNL A   1      46.636  28.402  29.973  1.00  0.00     0.049 A 
ATOM     52  C   UNL A   1      41.181  29.694  29.701  1.00  0.00     0.074 A 
ATOM     53  C   UNL A   1      47.498  29.417  30.345  1.00  0.00     0.029 A 
ATOM     54  N   UNL A   1      45.356  28.938  29.981  1.00  0.00    -0.354 N 
ATOM     55  N   UNL A   1      42.479  29.541  29.807  1.00  0.00    -0.248 NA
ATOM     56  C   UNL A   1      40.701  31.030  30.081  1.00  0.00     0.031 C 
ATOM     57  C   UNL A   1      46.734  30.553  30.631  1.00  0.00     0.029 A 
ATOM     58  C   UNL A   1      45.402  30.264  30.375  1.00  0.00     0.049 A 
ATOM     59  H   UNL A   1      44.536  28.447  29.742  1.00  0.00     0.167 HD
ATOM     60  C   UNL A   1      42.976  30.770  30.223  1.00  0.00     0.074 A 
ATOM     61  C   UNL A   1      41.836  31.659  30.342  1.00  0.00     0.031 C 
ATOM     62  C   UNL A   1      44.257  31.135  30.477  1.00  0.00     0.037 A 
BRANCH  49  63
ATOM     63  C   UNL A   1      48.365  26.560  29.752  1.00  0.00     0.057 A 
ATOM     64  C   UNL A   1      48.856  25.950  30.916  1.00  0.00     0.134 A 
ATOM     65  C   UNL A   1      49.265  26.728  28.691  1.00  0.00     0.134 A 
ATOM     66  F   UNL A   1      48.055  25.769  31.978  1.00  0.00    -0.206 F 
ATOM     67  C   UNL A   1      50.195  25.575  31.041  1.00  0.00     0.040 A 
ATOM     68  C   UNL A   1      50.598  26.322  28.789  1.00  0.00     0.040 A 
ATOM     69  F   UNL A   1      48.868  27.296  27.542  1.00  0.00    -0.206 F 
ATOM     70  C   UNL A   1      51.069  25.757  29.972  1.00  0.00     0.006 A 
ENDBRANCH  49  63
BRANCH  50  71
ATOM     71  C   UNL A   1      38.715  29.110  29.123  1.00  0.00     0.057 A 
ATOM     72  C   UNL A   1      38.195  29.547  27.899  1.00  0.00     0.134 A 
ATOM     73  C   UNL A   1      37.839  29.061  30.214  1.00  0.00     0.134 A 
ATOM     74  F   UNL A   1      38.988  29.629  26.820  1.00  0.00    -0.206 F 
ATOM     75  C   UNL A   1      36.863  29.941  27.767  1.00  0.00     0.040 A 
ATOM     76  C   UNL A   1      36.497  29.428  30.090  1.00  0.00     0.040 A 
ATOM     77  F   UNL A   1      38.272  28.641  31.412  1.00  0.00    -0.206 F 
ATOM     78  C   UNL A   1      36.008  29.877  28.865  1.00  0.00     0.006 A 
ENDBRANCH  50  71
BRANCH  62  79
ATOM     79  C   UNL A   1      44.502  32.569  30.848  1.00  0.00     0.057 A 
ATOM     80  C   UNL A   1      44.542  33.001  32.180  1.00  0.00     0.134 A 
ATOM     81  C   UNL A   1      44.727  33.528  29.851  1.00  0.00     0.134 A 
ATOM     82  F   UNL A   1      44.324  32.135  33.182  1.00  0.00    -0.206 F 
ATOM     83  C   UNL A   1      44.759  34.340  32.506  1.00  0.00     0.040 A 
ATOM     84  C   UNL A   1      44.980  34.863  30.166  1.00  0.00     0.040 A 
ATOM     85  F   UNL A   1      44.716  33.180  28.556  1.00  0.00    -0.206 F 
ATOM     86  C   UNL A   1      44.986  35.274  31.496  1.00  0.00     0.006 A 
ENDBRANCH  62  79
ENDBRANCH  36  37
ENDBRANCH  28  31
ENDBRANCH  26  27
ENDBRANCH   1  26
TORSDOF 12
ENDMDL
