MODEL 1
REMARK VINA RESULT:     -11.0      0.000      0.000
REMARK SMILES CSc1ccc(Cl)c(C(=O)N[C@@H](CO)C(=O)NCCCNC(=O)c2ccc(-c3c4nc(c(-c5c(F)cccc5F)c5ccc([nH]5)c(-c5c(F)cccc5F)c5nc(c(-c6c(F)cccc6F)c6ccc3[nH]6)C=C5)C=C4)cc2)c1
REMARK SMILES IDX 18 1 17 2 15 3 16 4 12 6 11 7 9 8 10 9 8 11 3 12 4 13 78 14
REMARK SMILES IDX 5 15 6 16 7 17 2 18 1 19 13 20 14 21 19 23 20 24 21 25 22 26
REMARK SMILES IDX 23 28 24 29 25 30 77 31 26 32 76 33 27 34 28 35 29 36 70 37
REMARK SMILES IDX 30 38 75 39 69 40 71 41 31 42 74 43 68 44 67 45 32 47 58 48
REMARK SMILES IDX 41 49 57 50 42 51 45 52 56 53 72 54 43 55 44 56 55 58 73 59
REMARK SMILES IDX 46 60 33 61 34 62 39 63 35 64 36 65 38 66 40 67 37 68 59 69
REMARK SMILES IDX 60 70 65 71 61 72 62 73 64 74 66 75 63 76 47 77 48 78 53 79
REMARK SMILES IDX 49 80 50 81 52 82 54 83 51 84
REMARK H PARENT 17 5 11 10 14 22 21 27 71 46 45 57
REMARK Flexibility Score: inf
ROOT
ATOM      1  C   UNL A   1      36.578  20.635  25.050  1.00  0.00     0.117 C 
ENDROOT
BRANCH   1   2
ATOM      2  N   UNL A   1      35.379  19.828  25.005  1.00  0.00    -0.354 N 
ATOM      3  C   UNL A   1      34.075  20.173  24.962  1.00  0.00     0.244 C 
ATOM      4  O   UNL A   1      33.261  19.251  25.091  1.00  0.00    -0.273 OA
ATOM      5  H   UNL A   1      35.543  18.858  25.005  1.00  0.00     0.163 HD
BRANCH   3   6
ATOM      6  C   UNL A   1      33.581  21.613  24.759  1.00  0.00     0.197 C 
BRANCH   6   7
ATOM      7  N   UNL A   1      33.419  22.049  23.384  1.00  0.00    -0.338 N 
ATOM      8  C   UNL A   1      33.247  23.269  22.787  1.00  0.00     0.253 C 
ATOM      9  O   UNL A   1      33.145  23.183  21.556  1.00  0.00    -0.269 OA
ATOM     10  H   UNL A   1      33.437  21.304  22.739  1.00  0.00     0.164 HD
BRANCH   8  11
ATOM     11  C   UNL A   1      33.232  24.656  23.402  1.00  0.00     0.059 A 
ATOM     12  C   UNL A   1      31.878  26.745  23.365  1.00  0.00     0.008 A 
ATOM     13  C   UNL A   1      32.793  27.375  24.190  1.00  0.00     0.016 A 
ATOM     14  C   UNL A   1      32.126  25.430  22.945  1.00  0.00     0.030 A 
ATOM     15  C   UNL A   1      33.877  26.654  24.669  1.00  0.00     0.022 A 
ATOM     16  C   UNL A   1      34.053  25.289  24.353  1.00  0.00     0.053 A 
ATOM     17  Cl  UNL A   1      35.180  24.563  25.437  1.00  0.00    -0.083 Cl
BRANCH  12  18
ATOM     18  S   UNL A   1      30.350  27.565  22.969  1.00  0.00    -0.130 SA
ATOM     19  C   UNL A   1      30.637  29.137  23.807  1.00  0.00     0.091 C 
ENDBRANCH  12  18
ENDBRANCH   8  11
ENDBRANCH   6   7
BRANCH   6  20
ATOM     20  C   UNL A   1      32.369  21.991  25.635  1.00  0.00     0.191 C 
BRANCH  20  21
ATOM     21  O   UNL A   1      31.306  21.038  25.629  1.00  0.00    -0.394 OA
ATOM     22  H   UNL A   1      31.404  20.450  24.864  1.00  0.00     0.210 HD
ENDBRANCH  20  21
ENDBRANCH   6  20
ENDBRANCH   3   6
ENDBRANCH   1   2
BRANCH   1  23
ATOM     23  C   UNL A   1      37.823  19.777  24.917  1.00  0.00     0.042 C 
BRANCH  23  24
ATOM     24  C   UNL A   1      39.006  20.284  25.723  1.00  0.00     0.118 C 
BRANCH  24  25
ATOM     25  N   UNL A   1      40.098  19.321  25.788  1.00  0.00    -0.352 N 
ATOM     26  C   UNL A   1      41.425  19.524  26.071  1.00  0.00     0.251 C 
ATOM     27  H   UNL A   1      39.847  18.387  25.601  1.00  0.00     0.163 HD
ATOM     28  O   UNL A   1      42.245  18.631  25.870  1.00  0.00    -0.269 OA
BRANCH  26  29
ATOM     29  C   UNL A   1      41.866  20.832  26.593  1.00  0.00     0.039 A 
ATOM     30  C   UNL A   1      42.310  21.807  25.700  1.00  0.00     0.014 A 
ATOM     31  C   UNL A   1      41.814  21.098  27.962  1.00  0.00     0.014 A 
ATOM     32  C   UNL A   1      42.635  23.076  26.180  1.00  0.00     0.010 A 
ATOM     33  C   UNL A   1      42.019  22.392  28.420  1.00  0.00     0.010 A 
ATOM     34  C   UNL A   1      42.451  23.390  27.538  1.00  0.00    -0.014 A 
BRANCH  34  35
ATOM     35  C   UNL A   1      42.728  24.750  28.061  1.00  0.00     0.031 A 
ATOM     36  C   UNL A   1      44.129  25.128  28.459  1.00  0.00     0.074 A 
ATOM     37  C   UNL A   1      41.712  25.618  28.235  1.00  0.00     0.049 A 
ATOM     38  N   UNL A   1      44.566  26.244  28.984  1.00  0.00    -0.248 NA
ATOM     39  C   UNL A   1      45.173  24.106  28.275  1.00  0.00     0.031 C 
ATOM     40  C   UNL A   1      40.304  25.343  27.945  1.00  0.00     0.029 A 
ATOM     41  N   UNL A   1      41.710  26.907  28.704  1.00  0.00    -0.354 N 
ATOM     42  C   UNL A   1      45.924  26.050  29.206  1.00  0.00     0.074 A 
ATOM     43  C   UNL A   1      46.226  24.689  28.827  1.00  0.00     0.031 C 
ATOM     44  C   UNL A   1      39.578  26.443  28.207  1.00  0.00     0.029 A 
ATOM     45  C   UNL A   1      40.463  27.482  28.724  1.00  0.00     0.049 A 
ATOM     46  H   UNL A   1      42.525  27.375  28.996  1.00  0.00     0.167 HD
ATOM     47  C   UNL A   1      46.843  26.935  29.656  1.00  0.00     0.037 A 
ATOM     48  C   UNL A   1      40.077  28.710  29.119  1.00  0.00     0.037 A 
ATOM     49  C   UNL A   1      46.540  28.297  30.008  1.00  0.00     0.049 A 
ATOM     50  C   UNL A   1      41.117  29.675  29.615  1.00  0.00     0.074 A 
ATOM     51  C   UNL A   1      47.407  29.295  30.415  1.00  0.00     0.029 A 
ATOM     52  N   UNL A   1      45.268  28.849  29.998  1.00  0.00    -0.354 N 
ATOM     53  N   UNL A   1      42.411  29.504  29.746  1.00  0.00    -0.248 NA
ATOM     54  C   UNL A   1      40.645  31.009  30.010  1.00  0.00     0.031 C 
ATOM     55  C   UNL A   1      46.652  30.437  30.704  1.00  0.00     0.029 A 
ATOM     56  C   UNL A   1      45.322  30.168  30.417  1.00  0.00     0.049 A 
ATOM     57  H   UNL A   1      44.447  28.374  29.734  1.00  0.00     0.167 HD
ATOM     58  C   UNL A   1      42.911  30.715  30.208  1.00  0.00     0.074 A 
ATOM     59  C   UNL A   1      41.782  31.617  30.318  1.00  0.00     0.031 C 
ATOM     60  C   UNL A   1      44.188  31.051  30.516  1.00  0.00     0.037 A 
BRANCH  47  61
ATOM     61  C   UNL A   1      48.260  26.455  29.789  1.00  0.00     0.057 A 
ATOM     62  C   UNL A   1      49.194  26.606  28.754  1.00  0.00     0.134 A 
ATOM     63  C   UNL A   1      48.706  25.857  30.974  1.00  0.00     0.134 A 
ATOM     64  F   UNL A   1      48.833  27.157  27.585  1.00  0.00    -0.206 F 
ATOM     65  C   UNL A   1      50.508  26.150  28.881  1.00  0.00     0.040 A 
ATOM     66  C   UNL A   1      50.025  25.427  31.126  1.00  0.00     0.040 A 
ATOM     67  F   UNL A   1      47.867  25.685  32.008  1.00  0.00    -0.206 F 
ATOM     68  C   UNL A   1      50.929  25.566  30.075  1.00  0.00     0.006 A 
ENDBRANCH  47  61
BRANCH  48  69
ATOM     69  C   UNL A   1      38.648  29.105  29.036  1.00  0.00     0.057 A 
ATOM     70  C   UNL A   1      38.099  29.592  27.844  1.00  0.00     0.134 A 
ATOM     71  C   UNL A   1      37.797  29.013  30.145  1.00  0.00     0.134 A 
ATOM     72  F   UNL A   1      38.865  29.718  26.751  1.00  0.00    -0.206 F 
ATOM     73  C   UNL A   1      36.764  29.996  27.762  1.00  0.00     0.040 A 
ATOM     74  C   UNL A   1      36.455  29.386  30.071  1.00  0.00     0.040 A 
ATOM     75  F   UNL A   1      38.258  28.544  31.314  1.00  0.00    -0.206 F 
ATOM     76  C   UNL A   1      35.937  29.889  28.878  1.00  0.00     0.006 A 
ENDBRANCH  48  69
BRANCH  60  77
ATOM     77  C   UNL A   1      44.436  32.463  30.962  1.00  0.00     0.057 A 
ATOM     78  C   UNL A   1      44.430  32.828  32.314  1.00  0.00     0.134 A 
ATOM     79  C   UNL A   1      44.715  33.466  30.024  1.00  0.00     0.134 A 
ATOM     80  F   UNL A   1      44.159  31.919  33.264  1.00  0.00    -0.206 F 
ATOM     81  C   UNL A   1      44.660  34.146  32.714  1.00  0.00     0.040 A 
ATOM     82  C   UNL A   1      44.978  34.779  30.414  1.00  0.00     0.040 A 
ATOM     83  F   UNL A   1      44.748  33.182  28.712  1.00  0.00    -0.206 F 
ATOM     84  C   UNL A   1      44.942  35.124  31.763  1.00  0.00     0.006 A 
ENDBRANCH  60  77
ENDBRANCH  34  35
ENDBRANCH  26  29
ENDBRANCH  24  25
ENDBRANCH  23  24
ENDBRANCH   1  23
TORSDOF 15
ENDMDL
MODEL 2
REMARK VINA RESULT:     -10.9      1.129      6.492
REMARK SMILES CSc1ccc(Cl)c(C(=O)N[C@@H](CO)C(=O)NCCCNC(=O)c2ccc(-c3c4nc(c(-c5c(F)cccc5F)c5ccc([nH]5)c(-c5c(F)cccc5F)c5nc(c(-c6c(F)cccc6F)c6ccc3[nH]6)C=C5)C=C4)cc2)c1
REMARK SMILES IDX 18 1 17 2 15 3 16 4 12 6 11 7 9 8 10 9 8 11 3 12 4 13 78 14
REMARK SMILES IDX 5 15 6 16 7 17 2 18 1 19 13 20 14 21 19 23 20 24 21 25 22 26
REMARK SMILES IDX 23 28 24 29 25 30 77 31 26 32 76 33 27 34 28 35 29 36 70 37
REMARK SMILES IDX 30 38 75 39 69 40 71 41 31 42 74 43 68 44 67 45 32 47 58 48
REMARK SMILES IDX 41 49 57 50 42 51 45 52 56 53 72 54 43 55 44 56 55 58 73 59
REMARK SMILES IDX 46 60 33 61 34 62 39 63 35 64 36 65 38 66 40 67 37 68 59 69
REMARK SMILES IDX 60 70 65 71 61 72 62 73 64 74 66 75 63 76 47 77 48 78 53 79
REMARK SMILES IDX 49 80 50 81 52 82 54 83 51 84
REMARK H PARENT 17 5 11 10 14 22 21 27 71 46 45 57
REMARK Flexibility Score: inf
ROOT
ATOM      1  C   UNL A   1      36.681  20.782  25.005  1.00  0.00     0.117 C 
ENDROOT
BRANCH   1   2
ATOM      2  N   UNL A   1      35.494  19.956  25.008  1.00  0.00    -0.354 N 
ATOM      3  C   UNL A   1      34.184  20.280  25.007  1.00  0.00     0.244 C 
ATOM      4  O   UNL A   1      33.390  19.346  25.172  1.00  0.00    -0.273 OA
ATOM      5  H   UNL A   1      35.674  18.988  25.012  1.00  0.00     0.163 HD
BRANCH   3   6
ATOM      6  C   UNL A   1      33.660  21.710  24.807  1.00  0.00     0.197 C 
BRANCH   6   7
ATOM      7  N   UNL A   1      33.548  22.167  23.434  1.00  0.00    -0.338 N 
ATOM      8  C   UNL A   1      33.382  23.395  22.851  1.00  0.00     0.253 C 
ATOM      9  O   UNL A   1      33.331  23.328  21.615  1.00  0.00    -0.269 OA
ATOM     10  H   UNL A   1      33.603  21.434  22.777  1.00  0.00     0.164 HD
BRANCH   8  11
ATOM     11  C   UNL A   1      33.320  24.771  23.488  1.00  0.00     0.059 A 
ATOM     12  C   UNL A   1      31.897  26.813  23.483  1.00  0.00     0.008 A 
ATOM     13  C   UNL A   1      32.790  27.460  24.319  1.00  0.00     0.016 A 
ATOM     14  C   UNL A   1      32.189  25.514  23.043  1.00  0.00     0.030 A 
ATOM     15  C   UNL A   1      33.897  26.769  24.787  1.00  0.00     0.022 A 
ATOM     16  C   UNL A   1      34.119  25.416  24.449  1.00  0.00     0.053 A 
ATOM     17  Cl  UNL A   1      35.270  24.710  25.523  1.00  0.00    -0.083 Cl
BRANCH  12  18
ATOM     18  S   UNL A   1      30.343  27.588  23.100  1.00  0.00    -0.130 SA
ATOM     19  C   UNL A   1      29.230  26.453  23.953  1.00  0.00     0.091 C 
ENDBRANCH  12  18
ENDBRANCH   8  11
ENDBRANCH   6   7
BRANCH   6  20
ATOM     20  C   UNL A   1      32.400  22.038  25.634  1.00  0.00     0.191 C 
BRANCH  20  21
ATOM     21  O   UNL A   1      31.382  21.038  25.595  1.00  0.00    -0.394 OA
ATOM     22  H   UNL A   1      31.632  20.346  24.964  1.00  0.00     0.210 HD
ENDBRANCH  20  21
ENDBRANCH   6  20
ENDBRANCH   3   6
ENDBRANCH   1   2
BRANCH   1  23
ATOM     23  C   UNL A   1      37.932  19.946  24.813  1.00  0.00     0.042 C 
BRANCH  23  24
ATOM     24  C   UNL A   1      39.057  20.296  25.772  1.00  0.00     0.118 C 
BRANCH  24  25
ATOM     25  N   UNL A   1      40.042  19.230  25.899  1.00  0.00    -0.352 N 
ATOM     26  C   UNL A   1      41.393  19.312  26.127  1.00  0.00     0.251 C 
ATOM     27  H   UNL A   1      39.687  18.316  25.806  1.00  0.00     0.163 HD
ATOM     28  O   UNL A   1      42.106  18.320  25.990  1.00  0.00    -0.269 OA
BRANCH  26  29
ATOM     29  C   UNL A   1      41.988  20.605  26.513  1.00  0.00     0.039 A 
ATOM     30  C   UNL A   1      42.432  21.476  25.518  1.00  0.00     0.014 A 
ATOM     31  C   UNL A   1      42.080  20.965  27.859  1.00  0.00     0.014 A 
ATOM     32  C   UNL A   1      42.905  22.739  25.875  1.00  0.00     0.010 A 
ATOM     33  C   UNL A   1      42.434  22.262  28.202  1.00  0.00     0.010 A 
ATOM     34  C   UNL A   1      42.869  23.157  27.216  1.00  0.00    -0.014 A 
BRANCH  34  35
ATOM     35  C   UNL A   1      43.307  24.516  27.613  1.00  0.00     0.031 A 
ATOM     36  C   UNL A   1      42.283  25.562  27.963  1.00  0.00     0.074 A 
ATOM     37  C   UNL A   1      44.618  24.826  27.598  1.00  0.00     0.049 A 
ATOM     38  N   UNL A   1      42.460  26.819  28.282  1.00  0.00    -0.248 NA
ATOM     39  C   UNL A   1      40.869  25.152  27.914  1.00  0.00     0.031 C 
ATOM     40  C   UNL A   1      45.700  23.916  27.216  1.00  0.00     0.029 A 
ATOM     41  N   UNL A   1      45.263  25.997  27.908  1.00  0.00    -0.354 N 
ATOM     42  C   UNL A   1      41.186  27.347  28.455  1.00  0.00     0.074 A 
ATOM     43  C   UNL A   1      40.245  26.298  28.136  1.00  0.00     0.031 C 
ATOM     44  C   UNL A   1      46.876  24.551  27.349  1.00  0.00     0.029 A 
ATOM     45  C   UNL A   1      46.629  25.922  27.783  1.00  0.00     0.049 A 
ATOM     46  H   UNL A   1      44.792  26.812  28.194  1.00  0.00     0.167 HD
ATOM     47  C   UNL A   1      40.832  28.584  28.871  1.00  0.00     0.037 A 
ATOM     48  C   UNL A   1      47.575  26.856  27.992  1.00  0.00     0.037 A 
ATOM     49  C   UNL A   1      41.775  29.616  29.211  1.00  0.00     0.049 A 
ATOM     50  C   UNL A   1      47.156  28.225  28.454  1.00  0.00     0.074 A 
ATOM     51  C   UNL A   1      41.525  30.885  29.704  1.00  0.00     0.029 A 
ATOM     52  N   UNL A   1      43.152  29.497  29.090  1.00  0.00    -0.354 N 
ATOM     53  N   UNL A   1      45.951  28.687  28.690  1.00  0.00    -0.248 NA
ATOM     54  C   UNL A   1      48.230  29.199  28.691  1.00  0.00     0.031 C 
ATOM     55  C   UNL A   1      42.748  31.552  29.829  1.00  0.00     0.029 A 
ATOM     56  C   UNL A   1      43.764  30.679  29.474  1.00  0.00     0.049 A 
ATOM     57  H   UNL A   1      43.624  28.692  28.776  1.00  0.00     0.167 HD
ATOM     58  C   UNL A   1      46.124  29.994  29.128  1.00  0.00     0.074 A 
ATOM     59  C   UNL A   1      47.551  30.243  29.144  1.00  0.00     0.031 C 
ATOM     60  C   UNL A   1      45.187  30.906  29.485  1.00  0.00     0.037 A 
BRANCH  47  61
ATOM     61  C   UNL A   1      39.365  28.885  28.983  1.00  0.00     0.057 A 
ATOM     62  C   UNL A   1      38.662  28.715  30.184  1.00  0.00     0.134 A 
ATOM     63  C   UNL A   1      38.648  29.373  27.883  1.00  0.00     0.134 A 
ATOM     64  F   UNL A   1      39.282  28.237  31.274  1.00  0.00    -0.206 F 
ATOM     65  C   UNL A   1      37.296  28.989  30.279  1.00  0.00     0.040 A 
ATOM     66  C   UNL A   1      37.290  29.682  27.973  1.00  0.00     0.040 A 
ATOM     67  F   UNL A   1      39.258  29.565  26.703  1.00  0.00    -0.206 F 
ATOM     68  C   UNL A   1      36.608  29.483  29.171  1.00  0.00     0.006 A 
ENDBRANCH  47  61
BRANCH  48  69
ATOM     69  C   UNL A   1      49.008  26.524  27.792  1.00  0.00     0.057 A 
ATOM     70  C   UNL A   1      49.795  26.049  28.849  1.00  0.00     0.134 A 
ATOM     71  C   UNL A   1      49.630  26.680  26.547  1.00  0.00     0.134 A 
ATOM     72  F   UNL A   1      49.263  25.893  30.069  1.00  0.00    -0.206 F 
ATOM     73  C   UNL A   1      51.152  25.763  28.681  1.00  0.00     0.040 A 
ATOM     74  C   UNL A   1      50.977  26.371  26.358  1.00  0.00     0.040 A 
ATOM     75  F   UNL A   1      48.930  27.121  25.492  1.00  0.00    -0.206 F 
ATOM     76  C   UNL A   1      51.745  25.921  27.431  1.00  0.00     0.006 A 
ENDBRANCH  48  69
BRANCH  60  77
ATOM     77  C   UNL A   1      45.679  32.243  29.961  1.00  0.00     0.057 A 
ATOM     78  C   UNL A   1      45.869  33.320  29.086  1.00  0.00     0.134 A 
ATOM     79  C   UNL A   1      45.937  32.462  31.321  1.00  0.00     0.134 A 
ATOM     80  F   UNL A   1      45.650  33.174  27.770  1.00  0.00    -0.206 F 
ATOM     81  C   UNL A   1      46.329  34.556  29.541  1.00  0.00     0.040 A 
ATOM     82  C   UNL A   1      46.365  33.703  31.792  1.00  0.00     0.040 A 
ATOM     83  F   UNL A   1      45.764  31.477  32.216  1.00  0.00    -0.206 F 
ATOM     84  C   UNL A   1      46.571  34.753  30.900  1.00  0.00     0.006 A 
ENDBRANCH  60  77
ENDBRANCH  34  35
ENDBRANCH  26  29
ENDBRANCH  24  25
ENDBRANCH  23  24
ENDBRANCH   1  23
TORSDOF 15
ENDMDL
MODEL 3
REMARK VINA RESULT:     -10.9      5.121      9.413
REMARK SMILES CSc1ccc(Cl)c(C(=O)N[C@@H](CO)C(=O)NCCCNC(=O)c2ccc(-c3c4nc(c(-c5c(F)cccc5F)c5ccc([nH]5)c(-c5c(F)cccc5F)c5nc(c(-c6c(F)cccc6F)c6ccc3[nH]6)C=C5)C=C4)cc2)c1
REMARK SMILES IDX 18 1 17 2 15 3 16 4 12 6 11 7 9 8 10 9 8 11 3 12 4 13 78 14
REMARK SMILES IDX 5 15 6 16 7 17 2 18 1 19 13 20 14 21 19 23 20 24 21 25 22 26
REMARK SMILES IDX 23 28 24 29 25 30 77 31 26 32 76 33 27 34 28 35 29 36 70 37
REMARK SMILES IDX 30 38 75 39 69 40 71 41 31 42 74 43 68 44 67 45 32 47 58 48
REMARK SMILES IDX 41 49 57 50 42 51 45 52 56 53 72 54 43 55 44 56 55 58 73 59
REMARK SMILES IDX 46 60 33 61 34 62 39 63 35 64 36 65 38 66 40 67 37 68 59 69
REMARK SMILES IDX 60 70 65 71 61 72 62 73 64 74 66 75 63 76 47 77 48 78 53 79
REMARK SMILES IDX 49 80 50 81 52 82 54 83 51 84
REMARK H PARENT 17 5 11 10 14 22 21 27 71 46 45 57
REMARK Flexibility Score: inf
ROOT
ATOM      1  C   UNL A   1      31.780  30.830  26.073  1.00  0.00     0.117 C 
ENDROOT
BRANCH   1   2
ATOM      2  N   UNL A   1      31.636  29.644  26.888  1.00  0.00    -0.354 N 
ATOM      3  C   UNL A   1      32.435  28.567  27.042  1.00  0.00     0.244 C 
ATOM      4  O   UNL A   1      31.966  27.628  27.695  1.00  0.00    -0.273 OA
ATOM      5  H   UNL A   1      30.812  29.618  27.424  1.00  0.00     0.163 HD
BRANCH   3   6
ATOM      6  C   UNL A   1      33.854  28.470  26.463  1.00  0.00     0.197 C 
BRANCH   6   7
ATOM      7  N   UNL A   1      33.972  28.599  25.022  1.00  0.00    -0.338 N 
ATOM      8  C   UNL A   1      33.198  28.198  23.966  1.00  0.00     0.253 C 
ATOM      9  O   UNL A   1      33.686  28.521  22.874  1.00  0.00    -0.269 OA
ATOM     10  H   UNL A   1      34.786  29.079  24.743  1.00  0.00     0.164 HD
BRANCH   8  11
ATOM     11  C   UNL A   1      31.851  27.500  23.960  1.00  0.00     0.059 A 
ATOM     12  C   UNL A   1      29.455  27.982  23.485  1.00  0.00     0.008 A 
ATOM     13  C   UNL A   1      29.101  26.703  23.876  1.00  0.00     0.016 A 
ATOM     14  C   UNL A   1      30.797  28.379  23.575  1.00  0.00     0.030 A 
ATOM     15  C   UNL A   1      30.097  25.811  24.246  1.00  0.00     0.022 A 
ATOM     16  C   UNL A   1      31.462  26.172  24.208  1.00  0.00     0.053 A 
ATOM     17  Cl  UNL A   1      32.456  24.763  24.257  1.00  0.00    -0.083 Cl
BRANCH  12  18
ATOM     18  S   UNL A   1      28.228  29.040  22.751  1.00  0.00    -0.130 SA
ATOM     19  C   UNL A   1      29.310  30.134  21.808  1.00  0.00     0.091 C 
ENDBRANCH  12  18
ENDBRANCH   8  11
ENDBRANCH   6   7
BRANCH   6  20
ATOM     20  C   UNL A   1      34.896  29.328  27.210  1.00  0.00     0.191 C 
BRANCH  20  21
ATOM     21  O   UNL A   1      34.403  29.988  28.376  1.00  0.00    -0.394 OA
ATOM     22  H   UNL A   1      33.627  30.520  28.142  1.00  0.00     0.210 HD
ENDBRANCH  20  21
ENDBRANCH   6  20
ENDBRANCH   3   6
ENDBRANCH   1   2
BRANCH   1  23
ATOM     23  C   UNL A   1      31.514  32.087  26.880  1.00  0.00     0.042 C 
BRANCH  23  24
ATOM     24  C   UNL A   1      32.771  32.845  27.268  1.00  0.00     0.118 C 
BRANCH  24  25
ATOM     25  N   UNL A   1      32.506  34.232  27.626  1.00  0.00    -0.352 N 
ATOM     26  C   UNL A   1      33.026  34.985  28.648  1.00  0.00     0.251 C 
ATOM     27  H   UNL A   1      31.857  34.698  27.050  1.00  0.00     0.163 HD
ATOM     28  O   UNL A   1      32.528  36.073  28.932  1.00  0.00    -0.269 OA
BRANCH  26  29
ATOM     29  C   UNL A   1      34.171  34.469  29.422  1.00  0.00     0.039 A 
ATOM     30  C   UNL A   1      33.941  33.857  30.654  1.00  0.00     0.014 A 
ATOM     31  C   UNL A   1      35.468  34.568  28.914  1.00  0.00     0.014 A 
ATOM     32  C   UNL A   1      35.009  33.281  31.342  1.00  0.00     0.010 A 
ATOM     33  C   UNL A   1      36.505  33.890  29.538  1.00  0.00     0.010 A 
ATOM     34  C   UNL A   1      36.292  33.257  30.769  1.00  0.00    -0.014 A 
BRANCH  34  35
ATOM     35  C   UNL A   1      37.430  32.596  31.451  1.00  0.00     0.031 A 
ATOM     36  C   UNL A   1      38.133  31.441  30.790  1.00  0.00     0.074 A 
ATOM     37  C   UNL A   1      37.788  32.993  32.687  1.00  0.00     0.049 A 
ATOM     38  N   UNL A   1      39.111  30.700  31.243  1.00  0.00    -0.248 NA
ATOM     39  C   UNL A   1      37.652  31.044  29.456  1.00  0.00     0.031 C 
ATOM     40  C   UNL A   1      37.142  34.058  33.457  1.00  0.00     0.029 A 
ATOM     41  N   UNL A   1      38.783  32.542  33.517  1.00  0.00    -0.354 N 
ATOM     42  C   UNL A   1      39.347  29.745  30.261  1.00  0.00     0.074 A 
ATOM     43  C   UNL A   1      38.367  29.955  29.221  1.00  0.00     0.031 C 
ATOM     44  C   UNL A   1      37.779  34.203  34.630  1.00  0.00     0.029 A 
ATOM     45  C   UNL A   1      38.849  33.214  34.714  1.00  0.00     0.049 A 
ATOM     46  H   UNL A   1      39.393  31.807  33.278  1.00  0.00     0.167 HD
ATOM     47  C   UNL A   1      40.314  28.799  30.215  1.00  0.00     0.037 A 
ATOM     48  C   UNL A   1      39.678  33.049  35.761  1.00  0.00     0.037 A 
ATOM     49  C   UNL A   1      41.303  28.613  31.242  1.00  0.00     0.049 A 
ATOM     50  C   UNL A   1      40.743  31.990  35.685  1.00  0.00     0.074 A 
ATOM     51  C   UNL A   1      42.365  27.726  31.266  1.00  0.00     0.029 A 
ATOM     52  N   UNL A   1      41.349  29.326  32.431  1.00  0.00    -0.354 N 
ATOM     53  N   UNL A   1      41.006  31.146  34.716  1.00  0.00    -0.248 NA
ATOM     54  C   UNL A   1      41.636  31.868  36.846  1.00  0.00     0.031 C 
ATOM     55  C   UNL A   1      43.021  27.865  32.493  1.00  0.00     0.029 A 
ATOM     56  C   UNL A   1      42.406  28.881  33.208  1.00  0.00     0.049 A 
ATOM     57  H   UNL A   1      40.723  30.041  32.685  1.00  0.00     0.167 HD
ATOM     58  C   UNL A   1      42.109  30.414  35.136  1.00  0.00     0.074 A 
ATOM     59  C   UNL A   1      42.477  30.927  36.440  1.00  0.00     0.031 C 
ATOM     60  C   UNL A   1      42.758  29.407  34.502  1.00  0.00     0.037 A 
BRANCH  47  61
ATOM     61  C   UNL A   1      40.345  27.900  29.012  1.00  0.00     0.057 A 
ATOM     62  C   UNL A   1      39.623  26.699  28.965  1.00  0.00     0.134 A 
ATOM     63  C   UNL A   1      41.087  28.249  27.876  1.00  0.00     0.134 A 
ATOM     64  F   UNL A   1      38.903  26.295  30.023  1.00  0.00    -0.206 F 
ATOM     65  C   UNL A   1      39.664  25.863  27.847  1.00  0.00     0.040 A 
ATOM     66  C   UNL A   1      41.109  27.438  26.740  1.00  0.00     0.040 A 
ATOM     67  F   UNL A   1      41.798  29.386  27.850  1.00  0.00    -0.206 F 
ATOM     68  C   UNL A   1      40.402  26.237  26.726  1.00  0.00     0.006 A 
ENDBRANCH  47  61
BRANCH  48  69
ATOM     69  C   UNL A   1      39.552  33.920  36.957  1.00  0.00     0.057 A 
ATOM     70  C   UNL A   1      38.815  33.511  38.075  1.00  0.00     0.134 A 
ATOM     71  C   UNL A   1      40.156  35.182  37.011  1.00  0.00     0.134 A 
ATOM     72  F   UNL A   1      38.199  32.320  38.079  1.00  0.00    -0.206 F 
ATOM     73  C   UNL A   1      38.663  34.335  39.193  1.00  0.00     0.040 A 
ATOM     74  C   UNL A   1      40.035  36.003  38.132  1.00  0.00     0.040 A 
ATOM     75  F   UNL A   1      40.884  35.628  35.977  1.00  0.00    -0.206 F 
ATOM     76  C   UNL A   1      39.278  35.583  39.225  1.00  0.00     0.006 A 
ENDBRANCH  48  69
BRANCH  60  77
ATOM     77  C   UNL A   1      43.958  28.824  35.193  1.00  0.00     0.057 A 
ATOM     78  C   UNL A   1      45.251  29.318  34.981  1.00  0.00     0.134 A 
ATOM     79  C   UNL A   1      43.810  27.771  36.106  1.00  0.00     0.134 A 
ATOM     80  F   UNL A   1      45.464  30.318  34.111  1.00  0.00    -0.206 F 
ATOM     81  C   UNL A   1      46.357  28.765  35.628  1.00  0.00     0.040 A 
ATOM     82  C   UNL A   1      44.904  27.232  36.782  1.00  0.00     0.040 A 
ATOM     83  F   UNL A   1      42.597  27.258  36.364  1.00  0.00    -0.206 F 
ATOM     84  C   UNL A   1      46.184  27.723  36.537  1.00  0.00     0.006 A 
ENDBRANCH  60  77
ENDBRANCH  34  35
ENDBRANCH  26  29
ENDBRANCH  24  25
ENDBRANCH  23  24
ENDBRANCH   1  23
TORSDOF 15
ENDMDL
