MODEL 1
REMARK VINA RESULT:     -11.0      0.000      0.000
REMARK SMILES CN(CC[NH+](C)C)C(=O)N1CC(n2cc(C(=O)NCCCNC(=O)c3ccc(-c4c5nc(c(-c6c(F)cccc6F)c6ccc([nH]6)c(-c6c(F)cccc6F)c6nc(c(-c7c(F)cccc7F)c7ccc4[nH]7)C=C6)C=C5)cc3)nn2)C1
REMARK SMILES IDX 16 1 17 2 18 3 15 5 13 6 14 7 80 8 79 9 12 10 8 11 9 12
REMARK SMILES IDX 10 13 11 14 81 15 2 16 1 17 3 18 4 19 5 20 6 21 7 22 19 24
REMARK SMILES IDX 20 25 21 26 22 27 23 28 24 30 25 31 26 32 78 33 27 34 77 35
REMARK SMILES IDX 28 36 29 37 30 38 71 39 31 40 76 41 70 42 72 43 32 44 75 45
REMARK SMILES IDX 69 46 68 47 33 49 59 50 42 51 58 52 43 53 46 54 57 55 73 56
REMARK SMILES IDX 44 57 45 58 56 60 74 61 47 62 34 63 35 64 40 65 36 66 37 67
REMARK SMILES IDX 39 68 41 69 38 70 60 71 61 72 66 73 62 74 63 75 65 76 67 77
REMARK SMILES IDX 64 78 48 79 49 80 54 81 50 82 51 83 53 84 55 85 52 86
REMARK H PARENT 18 4 5 23 22 29 72 48 46 59
REMARK Flexibility Score: inf
ROOT
ATOM      1  C   UNL A   1      33.643  28.460  23.537  1.00  0.00     0.273 C 
ATOM      2  O   UNL A   1      34.232  28.818  22.509  1.00  0.00    -0.267 OA
ATOM      3  N   UNL A   1      33.807  29.238  24.661  1.00  0.00    -0.351 N 
ATOM      4  H   UNL A   1      34.499  29.934  24.585  1.00  0.00     0.163 HD
ENDROOT
BRANCH   1   5
ATOM      5  C   UNL A   1      32.782  27.290  23.567  1.00  0.00     0.170 A 
ATOM      6  N   UNL A   1      31.925  25.312  23.785  1.00  0.00    -0.245 N 
ATOM      7  C   UNL A   1      33.115  25.951  23.603  1.00  0.00     0.145 A 
ATOM      8  N   UNL A   1      30.898  26.170  23.741  1.00  0.00    -0.066 NA
ATOM      9  N   UNL A   1      31.407  27.384  23.571  1.00  0.00    -0.125 NA
BRANCH   6  10
ATOM     10  C   UNL A   1      31.851  23.943  24.179  1.00  0.00     0.148 C 
ATOM     11  C   UNL A   1      32.889  21.173  25.083  1.00  0.00     0.320 C 
ATOM     12  O   UNL A   1      31.737  20.768  25.208  1.00  0.00    -0.248 OA
ATOM     13  N   UNL A   1      33.166  22.516  24.909  1.00  0.00    -0.320 N 
ATOM     14  C   UNL A   1      32.387  23.593  25.558  1.00  0.00     0.150 C 
ATOM     15  C   UNL A   1      33.046  23.169  23.601  1.00  0.00     0.150 C 
BRANCH  11  16
ATOM     16  N   UNL A   1      34.024  20.381  25.201  1.00  0.00    -0.322 N 
ATOM     17  C   UNL A   1      34.132  19.091  24.538  1.00  0.00     0.149 C 
BRANCH  16  18
ATOM     18  C   UNL A   1      35.203  20.912  25.885  1.00  0.00     0.182 C 
BRANCH  18  19
ATOM     19  C   UNL A   1      36.506  20.930  25.031  1.00  0.00     0.283 C 
BRANCH  19  20
ATOM     20  N   UNL A   1      37.379  22.116  25.021  1.00  0.00    -0.338 N 
ATOM     21  C   UNL A   1      36.675  23.369  25.253  1.00  0.00     0.332 C 
ATOM     22  C   UNL A   1      38.587  21.971  25.822  1.00  0.00     0.332 C 
ATOM     23  H   UNL A   1      37.712  22.175  24.058  1.00  0.00     0.347 HD
ENDBRANCH  19  20
ENDBRANCH  18  19
ENDBRANCH  16  18
ENDBRANCH  11  16
ENDBRANCH   6  10
ENDBRANCH   1   5
BRANCH   3  24
ATOM     24  C   UNL A   1      33.122  29.197  25.945  1.00  0.00     0.118 C 
BRANCH  24  25
ATOM     25  C   UNL A   1      33.945  28.483  27.025  1.00  0.00     0.042 C 
BRANCH  25  26
ATOM     26  C   UNL A   1      35.298  29.140  27.242  1.00  0.00     0.118 C 
BRANCH  26  27
ATOM     27  N   UNL A   1      35.389  29.814  28.539  1.00  0.00    -0.352 N 
ATOM     28  C   UNL A   1      36.361  29.691  29.511  1.00  0.00     0.251 C 
ATOM     29  H   UNL A   1      34.658  30.439  28.746  1.00  0.00     0.163 HD
ATOM     30  O   UNL A   1      36.130  30.034  30.666  1.00  0.00    -0.269 OA
BRANCH  28  31
ATOM     31  C   UNL A   1      37.682  29.149  29.148  1.00  0.00     0.039 A 
ATOM     32  C   UNL A   1      38.362  29.590  28.009  1.00  0.00     0.014 A 
ATOM     33  C   UNL A   1      38.247  28.184  29.977  1.00  0.00     0.014 A 
ATOM     34  C   UNL A   1      39.643  29.103  27.761  1.00  0.00     0.010 A 
ATOM     35  C   UNL A   1      39.563  27.838  29.831  1.00  0.00     0.010 A 
ATOM     36  C   UNL A   1      40.246  28.242  28.693  1.00  0.00    -0.014 A 
BRANCH  36  37
ATOM     37  C   UNL A   1      41.657  27.884  28.595  1.00  0.00     0.031 A 
ATOM     38  C   UNL A   1      41.872  26.611  27.855  1.00  0.00     0.074 A 
ATOM     39  C   UNL A   1      42.658  28.739  28.905  1.00  0.00     0.049 A 
ATOM     40  N   UNL A   1      42.274  25.482  28.334  1.00  0.00    -0.248 NA
ATOM     41  C   UNL A   1      41.392  26.524  26.463  1.00  0.00     0.031 C 
ATOM     42  C   UNL A   1      42.549  30.140  29.331  1.00  0.00     0.029 A 
ATOM     43  N   UNL A   1      44.008  28.571  28.808  1.00  0.00    -0.354 N 
ATOM     44  C   UNL A   1      42.348  24.616  27.245  1.00  0.00     0.074 A 
ATOM     45  C   UNL A   1      41.569  25.227  26.205  1.00  0.00     0.031 C 
ATOM     46  C   UNL A   1      43.753  30.748  29.233  1.00  0.00     0.029 A 
ATOM     47  C   UNL A   1      44.752  29.750  28.898  1.00  0.00     0.049 A 
ATOM     48  H   UNL A   1      44.425  27.688  28.683  1.00  0.00     0.167 HD
ATOM     49  C   UNL A   1      43.307  23.649  27.206  1.00  0.00     0.037 A 
ATOM     50  C   UNL A   1      46.090  29.887  28.695  1.00  0.00     0.037 A 
ATOM     51  C   UNL A   1      43.847  23.434  28.532  1.00  0.00     0.049 A 
ATOM     52  C   UNL A   1      46.684  28.534  28.787  1.00  0.00     0.074 A 
ATOM     53  C   UNL A   1      43.328  23.064  29.759  1.00  0.00     0.029 A 
ATOM     54  N   UNL A   1      45.067  24.003  28.800  1.00  0.00    -0.354 N 
ATOM     55  N   UNL A   1      46.765  27.853  29.894  1.00  0.00    -0.248 NA
ATOM     56  C   UNL A   1      46.770  27.757  27.563  1.00  0.00     0.031 C 
ATOM     57  C   UNL A   1      44.048  23.842  30.717  1.00  0.00     0.029 A 
ATOM     58  C   UNL A   1      45.025  24.573  30.042  1.00  0.00     0.049 A 
ATOM     59  H   UNL A   1      45.845  24.002  28.197  1.00  0.00     0.167 HD
ATOM     60  C   UNL A   1      46.437  26.557  29.526  1.00  0.00     0.074 A 
ATOM     61  C   UNL A   1      46.548  26.540  28.067  1.00  0.00     0.031 C 
ATOM     62  C   UNL A   1      45.817  25.723  30.412  1.00  0.00     0.037 A 
BRANCH  49  63
ATOM     63  C   UNL A   1      44.090  23.268  25.956  1.00  0.00     0.057 A 
ATOM     64  C   UNL A   1      44.222  21.898  25.646  1.00  0.00     0.134 A 
ATOM     65  C   UNL A   1      44.964  24.112  25.239  1.00  0.00     0.134 A 
ATOM     66  F   UNL A   1      43.433  20.980  26.225  1.00  0.00    -0.206 F 
ATOM     67  C   UNL A   1      45.232  21.402  24.813  1.00  0.00     0.040 A 
ATOM     68  C   UNL A   1      45.949  23.630  24.370  1.00  0.00     0.040 A 
ATOM     69  F   UNL A   1      44.983  25.440  25.382  1.00  0.00    -0.206 F 
ATOM     70  C   UNL A   1      46.116  22.270  24.188  1.00  0.00     0.006 A 
ENDBRANCH  49  63
BRANCH  50  71
ATOM     71  C   UNL A   1      46.883  31.028  28.173  1.00  0.00     0.057 A 
ATOM     72  C   UNL A   1      46.608  31.581  26.910  1.00  0.00     0.134 A 
ATOM     73  C   UNL A   1      47.702  31.798  29.014  1.00  0.00     0.134 A 
ATOM     74  F   UNL A   1      45.808  30.940  26.045  1.00  0.00    -0.206 F 
ATOM     75  C   UNL A   1      47.081  32.843  26.524  1.00  0.00     0.040 A 
ATOM     76  C   UNL A   1      48.186  33.058  28.638  1.00  0.00     0.040 A 
ATOM     77  F   UNL A   1      47.979  31.397  30.262  1.00  0.00    -0.206 F 
ATOM     78  C   UNL A   1      47.859  33.594  27.397  1.00  0.00     0.006 A 
ENDBRANCH  50  71
BRANCH  62  79
ATOM     79  C   UNL A   1      45.789  26.136  31.860  1.00  0.00     0.057 A 
ATOM     80  C   UNL A   1      44.707  26.765  32.497  1.00  0.00     0.134 A 
ATOM     81  C   UNL A   1      46.871  25.775  32.669  1.00  0.00     0.134 A 
ATOM     82  F   UNL A   1      43.584  27.065  31.831  1.00  0.00    -0.206 F 
ATOM     83  C   UNL A   1      44.727  27.064  33.864  1.00  0.00     0.040 A 
ATOM     84  C   UNL A   1      46.887  26.031  34.041  1.00  0.00     0.040 A 
ATOM     85  F   UNL A   1      47.921  25.125  32.143  1.00  0.00    -0.206 F 
ATOM     86  C   UNL A   1      45.818  26.691  34.642  1.00  0.00     0.006 A 
ENDBRANCH  62  79
ENDBRANCH  36  37
ENDBRANCH  28  31
ENDBRANCH  26  27
ENDBRANCH  25  26
ENDBRANCH  24  25
ENDBRANCH   3  24
TORSDOF 15
ENDMDL
MODEL 2
REMARK VINA RESULT:     -10.9      2.950      8.009
REMARK SMILES CN(CC[NH+](C)C)C(=O)N1CC(n2cc(C(=O)NCCCNC(=O)c3ccc(-c4c5nc(c(-c6c(F)cccc6F)c6ccc([nH]6)c(-c6c(F)cccc6F)c6nc(c(-c7c(F)cccc7F)c7ccc4[nH]7)C=C6)C=C5)cc3)nn2)C1
REMARK SMILES IDX 16 1 17 2 18 3 15 5 13 6 14 7 80 8 79 9 12 10 8 11 9 12
REMARK SMILES IDX 10 13 11 14 81 15 2 16 1 17 3 18 4 19 5 20 6 21 7 22 19 24
REMARK SMILES IDX 20 25 21 26 22 27 23 28 24 30 25 31 26 32 78 33 27 34 77 35
REMARK SMILES IDX 28 36 29 37 30 38 71 39 31 40 76 41 70 42 72 43 32 44 75 45
REMARK SMILES IDX 69 46 68 47 33 49 59 50 42 51 58 52 43 53 46 54 57 55 73 56
REMARK SMILES IDX 44 57 45 58 56 60 74 61 47 62 34 63 35 64 40 65 36 66 37 67
REMARK SMILES IDX 39 68 41 69 38 70 60 71 61 72 66 73 62 74 63 75 65 76 67 77
REMARK SMILES IDX 64 78 48 79 49 80 54 81 50 82 51 83 53 84 55 85 52 86
REMARK H PARENT 18 4 5 23 22 29 72 48 46 59
REMARK Flexibility Score: inf
ROOT
ATOM      1  C   UNL A   1      42.074  21.125  27.208  1.00  0.00     0.273 C 
ATOM      2  O   UNL A   1      42.370  21.889  28.135  1.00  0.00    -0.267 OA
ATOM      3  N   UNL A   1      43.068  20.303  26.725  1.00  0.00    -0.351 N 
ATOM      4  H   UNL A   1      43.969  20.501  27.067  1.00  0.00     0.163 HD
ENDROOT
BRANCH   1   5
ATOM      5  C   UNL A   1      40.729  21.060  26.660  1.00  0.00     0.170 A 
ATOM      6  N   UNL A   1      38.779  21.474  25.811  1.00  0.00    -0.245 N 
ATOM      7  C   UNL A   1      39.777  22.052  26.537  1.00  0.00     0.145 A 
ATOM      8  N   UNL A   1      39.020  20.175  25.597  1.00  0.00    -0.066 NA
ATOM      9  N   UNL A   1      40.198  19.898  26.143  1.00  0.00    -0.125 NA
BRANCH   6  10
ATOM     10  C   UNL A   1      37.742  22.242  25.202  1.00  0.00     0.148 C 
ATOM     11  C   UNL A   1      34.901  22.883  24.160  1.00  0.00     0.320 C 
ATOM     12  O   UNL A   1      35.248  24.027  23.882  1.00  0.00    -0.248 OA
ATOM     13  N   UNL A   1      35.694  22.058  24.935  1.00  0.00    -0.320 N 
ATOM     14  C   UNL A   1      36.524  22.554  26.057  1.00  0.00     0.150 C 
ATOM     15  C   UNL A   1      36.832  21.324  24.372  1.00  0.00     0.150 C 
BRANCH  11  16
ATOM     16  N   UNL A   1      33.671  22.327  23.835  1.00  0.00    -0.322 N 
ATOM     17  C   UNL A   1      33.046  22.551  22.541  1.00  0.00     0.149 C 
BRANCH  16  18
ATOM     18  C   UNL A   1      33.048  21.373  24.752  1.00  0.00     0.182 C 
BRANCH  18  19
ATOM     19  C   UNL A   1      33.454  19.885  24.528  1.00  0.00     0.283 C 
BRANCH  19  20
ATOM     20  N   UNL A   1      32.426  18.854  24.305  1.00  0.00    -0.338 N 
ATOM     21  C   UNL A   1      32.283  18.454  22.913  1.00  0.00     0.332 C 
ATOM     22  C   UNL A   1      32.503  17.730  25.228  1.00  0.00     0.332 C 
ATOM     23  H   UNL A   1      31.548  19.320  24.536  1.00  0.00     0.347 HD
ENDBRANCH  19  20
ENDBRANCH  18  19
ENDBRANCH  16  18
ENDBRANCH  11  16
ENDBRANCH   6  10
ENDBRANCH   1   5
BRANCH   3  24
ATOM     24  C   UNL A   1      42.999  19.189  25.790  1.00  0.00     0.118 C 
BRANCH  24  25
ATOM     25  C   UNL A   1      44.387  18.661  25.406  1.00  0.00     0.042 C 
BRANCH  25  26
ATOM     26  C   UNL A   1      45.398  19.782  25.233  1.00  0.00     0.118 C 
BRANCH  26  27
ATOM     27  N   UNL A   1      45.312  20.412  23.913  1.00  0.00    -0.352 N 
ATOM     28  C   UNL A   1      44.730  21.615  23.566  1.00  0.00     0.251 C 
ATOM     29  H   UNL A   1      45.725  19.910  23.174  1.00  0.00     0.163 HD
ATOM     30  O   UNL A   1      44.425  21.841  22.399  1.00  0.00    -0.269 OA
BRANCH  28  31
ATOM     31  C   UNL A   1      44.483  22.627  24.607  1.00  0.00     0.039 A 
ATOM     32  C   UNL A   1      45.476  22.988  25.522  1.00  0.00     0.014 A 
ATOM     33  C   UNL A   1      43.227  23.225  24.657  1.00  0.00     0.014 A 
ATOM     34  C   UNL A   1      45.212  24.009  26.432  1.00  0.00     0.010 A 
ATOM     35  C   UNL A   1      43.027  24.338  25.428  1.00  0.00     0.010 A 
ATOM     36  C   UNL A   1      43.989  24.695  26.362  1.00  0.00    -0.014 A 
BRANCH  36  37
ATOM     37  C   UNL A   1      43.754  25.909  27.137  1.00  0.00     0.031 A 
ATOM     38  C   UNL A   1      44.710  26.997  26.797  1.00  0.00     0.074 A 
ATOM     39  C   UNL A   1      42.639  26.107  27.878  1.00  0.00     0.049 A 
ATOM     40  N   UNL A   1      45.658  27.469  27.536  1.00  0.00    -0.248 NA
ATOM     41  C   UNL A   1      44.755  27.476  25.403  1.00  0.00     0.031 C 
ATOM     42  C   UNL A   1      41.476  25.222  28.012  1.00  0.00     0.029 A 
ATOM     43  N   UNL A   1      42.256  27.199  28.599  1.00  0.00    -0.354 N 
ATOM     44  C   UNL A   1      46.244  28.489  26.789  1.00  0.00     0.074 A 
ATOM     45  C   UNL A   1      45.824  28.273  25.433  1.00  0.00     0.031 C 
ATOM     46  C   UNL A   1      40.443  25.897  28.567  1.00  0.00     0.029 A 
ATOM     47  C   UNL A   1      40.912  27.206  28.979  1.00  0.00     0.049 A 
ATOM     48  H   UNL A   1      42.878  27.926  28.833  1.00  0.00     0.167 HD
ATOM     49  C   UNL A   1      46.747  29.590  27.415  1.00  0.00     0.037 A 
ATOM     50  C   UNL A   1      40.239  28.227  29.575  1.00  0.00     0.037 A 
ATOM     51  C   UNL A   1      46.944  29.313  28.822  1.00  0.00     0.049 A 
ATOM     52  C   UNL A   1      41.255  29.148  30.137  1.00  0.00     0.074 A 
ATOM     53  C   UNL A   1      47.674  28.394  29.552  1.00  0.00     0.029 A 
ATOM     54  N   UNL A   1      45.998  29.807  29.686  1.00  0.00    -0.354 N 
ATOM     55  N   UNL A   1      42.018  28.853  31.149  1.00  0.00    -0.248 NA
ATOM     56  C   UNL A   1      41.734  30.217  29.278  1.00  0.00     0.031 C 
ATOM     57  C   UNL A   1      46.842  28.054  30.661  1.00  0.00     0.029 A 
ATOM     58  C   UNL A   1      45.693  28.843  30.605  1.00  0.00     0.049 A 
ATOM     59  H   UNL A   1      45.604  30.709  29.649  1.00  0.00     0.167 HD
ATOM     60  C   UNL A   1      43.263  29.349  30.798  1.00  0.00     0.074 A 
ATOM     61  C   UNL A   1      43.005  30.262  29.685  1.00  0.00     0.031 C 
ATOM     62  C   UNL A   1      44.401  28.738  31.242  1.00  0.00     0.037 A 
BRANCH  49  63
ATOM     63  C   UNL A   1      46.593  31.015  26.898  1.00  0.00     0.057 A 
ATOM     64  C   UNL A   1      47.725  31.856  26.918  1.00  0.00     0.134 A 
ATOM     65  C   UNL A   1      45.373  31.691  26.689  1.00  0.00     0.134 A 
ATOM     66  F   UNL A   1      48.958  31.349  27.075  1.00  0.00    -0.206 F 
ATOM     67  C   UNL A   1      47.635  33.252  26.886  1.00  0.00     0.040 A 
ATOM     68  C   UNL A   1      45.276  33.084  26.610  1.00  0.00     0.040 A 
ATOM     69  F   UNL A   1      44.191  31.070  26.624  1.00  0.00    -0.206 F 
ATOM     70  C   UNL A   1      46.402  33.874  26.753  1.00  0.00     0.006 A 
ENDBRANCH  49  63
BRANCH  50  71
ATOM     71  C   UNL A   1      38.813  28.632  29.493  1.00  0.00     0.057 A 
ATOM     72  C   UNL A   1      38.008  28.678  30.643  1.00  0.00     0.134 A 
ATOM     73  C   UNL A   1      38.300  29.282  28.359  1.00  0.00     0.134 A 
ATOM     74  F   UNL A   1      38.423  28.118  31.789  1.00  0.00    -0.206 F 
ATOM     75  C   UNL A   1      36.787  29.366  30.678  1.00  0.00     0.040 A 
ATOM     76  C   UNL A   1      37.079  29.968  28.378  1.00  0.00     0.040 A 
ATOM     77  F   UNL A   1      39.011  29.354  27.225  1.00  0.00    -0.206 F 
ATOM     78  C   UNL A   1      36.327  30.029  29.546  1.00  0.00     0.006 A 
ENDBRANCH  50  71
BRANCH  62  79
ATOM     79  C   UNL A   1      44.265  27.730  32.353  1.00  0.00     0.057 A 
ATOM     80  C   UNL A   1      44.101  26.348  32.170  1.00  0.00     0.134 A 
ATOM     81  C   UNL A   1      44.423  28.175  33.670  1.00  0.00     0.134 A 
ATOM     82  F   UNL A   1      44.038  25.809  30.946  1.00  0.00    -0.206 F 
ATOM     83  C   UNL A   1      44.046  25.461  33.252  1.00  0.00     0.040 A 
ATOM     84  C   UNL A   1      44.409  27.298  34.755  1.00  0.00     0.040 A 
ATOM     85  F   UNL A   1      44.636  29.477  33.922  1.00  0.00    -0.206 F 
ATOM     86  C   UNL A   1      44.206  25.936  34.549  1.00  0.00     0.006 A 
ENDBRANCH  62  79
ENDBRANCH  36  37
ENDBRANCH  28  31
ENDBRANCH  26  27
ENDBRANCH  25  26
ENDBRANCH  24  25
ENDBRANCH   3  24
TORSDOF 15
ENDMDL
MODEL 3
REMARK VINA RESULT:     -10.6      4.183      8.548
REMARK SMILES CN(CC[NH+](C)C)C(=O)N1CC(n2cc(C(=O)NCCCNC(=O)c3ccc(-c4c5nc(c(-c6c(F)cccc6F)c6ccc([nH]6)c(-c6c(F)cccc6F)c6nc(c(-c7c(F)cccc7F)c7ccc4[nH]7)C=C6)C=C5)cc3)nn2)C1
REMARK SMILES IDX 16 1 17 2 18 3 15 5 13 6 14 7 80 8 79 9 12 10 8 11 9 12
REMARK SMILES IDX 10 13 11 14 81 15 2 16 1 17 3 18 4 19 5 20 6 21 7 22 19 24
REMARK SMILES IDX 20 25 21 26 22 27 23 28 24 30 25 31 26 32 78 33 27 34 77 35
REMARK SMILES IDX 28 36 29 37 30 38 71 39 31 40 76 41 70 42 72 43 32 44 75 45
REMARK SMILES IDX 69 46 68 47 33 49 59 50 42 51 58 52 43 53 46 54 57 55 73 56
REMARK SMILES IDX 44 57 45 58 56 60 74 61 47 62 34 63 35 64 40 65 36 66 37 67
REMARK SMILES IDX 39 68 41 69 38 70 60 71 61 72 66 73 62 74 63 75 65 76 67 77
REMARK SMILES IDX 64 78 48 79 49 80 54 81 50 82 51 83 53 84 55 85 52 86
REMARK H PARENT 18 4 5 23 22 29 72 48 46 59
REMARK Flexibility Score: inf
ROOT
ATOM      1  C   UNL A   1      35.861  33.129  28.003  1.00  0.00     0.273 C 
ATOM      2  O   UNL A   1      37.083  33.190  27.818  1.00  0.00    -0.267 OA
ATOM      3  N   UNL A   1      35.197  34.314  28.227  1.00  0.00    -0.351 N 
ATOM      4  H   UNL A   1      35.780  35.095  28.365  1.00  0.00     0.163 HD
ENDROOT
BRANCH   1   5
ATOM      5  C   UNL A   1      35.134  31.871  27.955  1.00  0.00     0.170 A 
ATOM      6  N   UNL A   1      33.796  30.229  27.498  1.00  0.00    -0.245 N 
ATOM      7  C   UNL A   1      33.907  31.583  27.393  1.00  0.00     0.145 A 
ATOM      8  N   UNL A   1      34.818  29.709  28.190  1.00  0.00    -0.066 NA
ATOM      9  N   UNL A   1      35.629  30.710  28.507  1.00  0.00    -0.125 NA
BRANCH   6  10
ATOM     10  C   UNL A   1      32.819  29.488  26.770  1.00  0.00     0.148 C 
ATOM     11  C   UNL A   1      30.931  28.792  24.421  1.00  0.00     0.320 C 
ATOM     12  O   UNL A   1      30.610  27.743  24.972  1.00  0.00    -0.248 OA
ATOM     13  N   UNL A   1      32.005  29.540  24.864  1.00  0.00    -0.320 N 
ATOM     14  C   UNL A   1      33.239  28.937  25.418  1.00  0.00     0.150 C 
ATOM     15  C   UNL A   1      31.896  30.452  26.008  1.00  0.00     0.150 C 
BRANCH  11  16
ATOM     16  N   UNL A   1      30.347  29.288  23.263  1.00  0.00    -0.322 N 
ATOM     17  C   UNL A   1      30.966  29.119  21.958  1.00  0.00     0.149 C 
BRANCH  16  18
ATOM     18  C   UNL A   1      29.004  29.866  23.326  1.00  0.00     0.182 C 
BRANCH  18  19
ATOM     19  C   UNL A   1      28.955  31.373  23.723  1.00  0.00     0.283 C 
BRANCH  19  20
ATOM     20  N   UNL A   1      29.168  32.421  22.711  1.00  0.00    -0.338 N 
ATOM     21  C   UNL A   1      28.367  32.252  21.508  1.00  0.00     0.332 C 
ATOM     22  C   UNL A   1      29.136  33.776  23.244  1.00  0.00     0.332 C 
ATOM     23  H   UNL A   1      30.133  32.285  22.406  1.00  0.00     0.347 HD
ENDBRANCH  19  20
ENDBRANCH  18  19
ENDBRANCH  16  18
ENDBRANCH  11  16
ENDBRANCH   6  10
ENDBRANCH   1   5
BRANCH   3  24
ATOM     24  C   UNL A   1      33.770  34.598  28.294  1.00  0.00     0.118 C 
BRANCH  24  25
ATOM     25  C   UNL A   1      33.334  35.083  29.682  1.00  0.00     0.042 C 
BRANCH  25  26
ATOM     26  C   UNL A   1      34.158  34.453  30.793  1.00  0.00     0.118 C 
BRANCH  26  27
ATOM     27  N   UNL A   1      34.293  35.333  31.956  1.00  0.00    -0.352 N 
ATOM     28  C   UNL A   1      35.057  35.156  33.091  1.00  0.00     0.251 C 
ATOM     29  H   UNL A   1      33.766  36.165  31.923  1.00  0.00     0.163 HD
ATOM     30  O   UNL A   1      34.803  35.785  34.114  1.00  0.00    -0.269 OA
BRANCH  28  31
ATOM     31  C   UNL A   1      36.185  34.209  33.063  1.00  0.00     0.039 A 
ATOM     32  C   UNL A   1      35.999  32.847  33.315  1.00  0.00     0.014 A 
ATOM     33  C   UNL A   1      37.452  34.706  32.770  1.00  0.00     0.014 A 
ATOM     34  C   UNL A   1      37.087  31.986  33.193  1.00  0.00     0.010 A 
ATOM     35  C   UNL A   1      38.477  33.845  32.483  1.00  0.00     0.010 A 
ATOM     36  C   UNL A   1      38.321  32.493  32.753  1.00  0.00    -0.014 A 
BRANCH  36  37
ATOM     37  C   UNL A   1      39.423  31.606  32.397  1.00  0.00     0.031 A 
ATOM     38  C   UNL A   1      40.195  31.150  33.584  1.00  0.00     0.074 A 
ATOM     39  C   UNL A   1      39.560  31.056  31.168  1.00  0.00     0.049 A 
ATOM     40  N   UNL A   1      41.400  31.476  33.910  1.00  0.00    -0.248 NA
ATOM     41  C   UNL A   1      39.478  30.410  34.640  1.00  0.00     0.031 C 
ATOM     42  C   UNL A   1      38.658  31.183  30.017  1.00  0.00     0.029 A 
ATOM     43  N   UNL A   1      40.491  30.172  30.709  1.00  0.00    -0.354 N 
ATOM     44  C   UNL A   1      41.679  30.766  35.077  1.00  0.00     0.074 A 
ATOM     45  C   UNL A   1      40.407  30.348  35.595  1.00  0.00     0.031 C 
ATOM     46  C   UNL A   1      38.955  30.243  29.091  1.00  0.00     0.029 A 
ATOM     47  C   UNL A   1      40.165  29.555  29.500  1.00  0.00     0.049 A 
ATOM     48  H   UNL A   1      41.328  29.984  31.193  1.00  0.00     0.167 HD
ATOM     49  C   UNL A   1      42.944  30.320  35.319  1.00  0.00     0.037 A 
ATOM     50  C   UNL A   1      40.839  28.540  28.894  1.00  0.00     0.037 A 
ATOM     51  C   UNL A   1      43.887  31.030  34.481  1.00  0.00     0.049 A 
ATOM     52  C   UNL A   1      42.190  28.494  29.500  1.00  0.00     0.074 A 
ATOM     53  C   UNL A   1      44.240  32.353  34.297  1.00  0.00     0.029 A 
ATOM     54  N   UNL A   1      44.347  30.365  33.371  1.00  0.00    -0.354 N 
ATOM     55  N   UNL A   1      43.095  29.412  29.319  1.00  0.00    -0.248 NA
ATOM     56  C   UNL A   1      42.368  27.658  30.674  1.00  0.00     0.031 C 
ATOM     57  C   UNL A   1      44.476  32.485  32.895  1.00  0.00     0.029 A 
ATOM     58  C   UNL A   1      44.347  31.226  32.309  1.00  0.00     0.049 A 
ATOM     59  H   UNL A   1      44.629  29.422  33.344  1.00  0.00     0.167 HD
ATOM     60  C   UNL A   1      43.670  29.581  30.568  1.00  0.00     0.074 A 
ATOM     61  C   UNL A   1      43.251  28.408  31.337  1.00  0.00     0.031 C 
ATOM     62  C   UNL A   1      44.167  30.796  30.942  1.00  0.00     0.037 A 
BRANCH  49  63
ATOM     63  C   UNL A   1      43.274  28.955  35.910  1.00  0.00     0.057 A 
ATOM     64  C   UNL A   1      44.221  28.893  36.953  1.00  0.00     0.134 A 
ATOM     65  C   UNL A   1      42.973  27.708  35.325  1.00  0.00     0.134 A 
ATOM     66  F   UNL A   1      44.580  29.998  37.625  1.00  0.00    -0.206 F 
ATOM     67  C   UNL A   1      44.914  27.722  37.281  1.00  0.00     0.040 A 
ATOM     68  C   UNL A   1      43.628  26.522  35.675  1.00  0.00     0.040 A 
ATOM     69  F   UNL A   1      42.092  27.555  34.331  1.00  0.00    -0.206 F 
ATOM     70  C   UNL A   1      44.634  26.533  36.624  1.00  0.00     0.006 A 
ENDBRANCH  49  63
BRANCH  50  71
ATOM     71  C   UNL A   1      40.360  27.434  28.027  1.00  0.00     0.057 A 
ATOM     72  C   UNL A   1      40.924  27.215  26.759  1.00  0.00     0.134 A 
ATOM     73  C   UNL A   1      39.576  26.388  28.539  1.00  0.00     0.134 A 
ATOM     74  F   UNL A   1      41.717  28.139  26.196  1.00  0.00    -0.206 F 
ATOM     75  C   UNL A   1      40.756  26.010  26.061  1.00  0.00     0.040 A 
ATOM     76  C   UNL A   1      39.397  25.181  27.850  1.00  0.00     0.040 A 
ATOM     77  F   UNL A   1      39.040  26.464  29.765  1.00  0.00    -0.206 F 
ATOM     78  C   UNL A   1      40.004  24.982  26.615  1.00  0.00     0.006 A 
ENDBRANCH  50  71
BRANCH  62  79
ATOM     79  C   UNL A   1      44.357  31.835  29.867  1.00  0.00     0.057 A 
ATOM     80  C   UNL A   1      43.381  32.759  29.460  1.00  0.00     0.134 A 
ATOM     81  C   UNL A   1      45.628  31.972  29.301  1.00  0.00     0.134 A 
ATOM     82  F   UNL A   1      42.161  32.774  30.013  1.00  0.00    -0.206 F 
ATOM     83  C   UNL A   1      43.648  33.740  28.498  1.00  0.00     0.040 A 
ATOM     84  C   UNL A   1      45.919  32.969  28.368  1.00  0.00     0.040 A 
ATOM     85  F   UNL A   1      46.627  31.158  29.677  1.00  0.00    -0.206 F 
ATOM     86  C   UNL A   1      44.923  33.850  27.953  1.00  0.00     0.006 A 
ENDBRANCH  62  79
ENDBRANCH  36  37
ENDBRANCH  28  31
ENDBRANCH  26  27
ENDBRANCH  25  26
ENDBRANCH  24  25
ENDBRANCH   3  24
TORSDOF 15
ENDMDL
