MODEL 1
REMARK VINA RESULT:     -12.4      0.000      0.000
REMARK SMILES CC(=O)Nc1cccc(NC(=O)N[C@H](C(=O)NCCCNC(=O)c2ccc(-c3c4nc(c(-c5c(F)cccc5F)c5ccc([nH]5)c(-c5c(F)cccc5F)c5nc(c(-c6c(F)cccc6F)c6ccc3[nH]6)C=C5)C=C4)cc2)C(C)C)c1
REMARK SMILES IDX 18 1 17 2 15 3 16 4 14 6 13 7 10 8 11 9 12 11 9 13 5 14 6 15
REMARK SMILES IDX 81 16 7 17 8 18 4 19 1 20 2 21 3 22 78 24 79 25 80 26 19 27
REMARK SMILES IDX 20 28 21 29 22 30 23 32 24 33 25 34 77 35 26 36 76 37 27 38
REMARK SMILES IDX 28 39 29 40 70 41 30 42 75 43 69 44 71 45 31 46 74 47 68 48
REMARK SMILES IDX 67 49 32 51 58 52 41 53 57 54 42 55 45 56 56 57 72 58 43 59
REMARK SMILES IDX 44 60 55 62 73 63 46 64 33 65 34 66 39 67 35 68 36 69 38 70
REMARK SMILES IDX 40 71 37 72 59 73 60 74 65 75 61 76 62 77 64 78 66 79 63 80
REMARK SMILES IDX 47 81 48 82 53 83 49 84 50 85 52 86 54 87 51 88
REMARK H PARENT 17 5 10 10 13 12 4 23 21 31 71 50 45 61
REMARK Flexibility Score: inf
ROOT
ATOM      1  C   UNL A   1      36.839  20.182  24.710  1.00  0.00     0.117 C 
ENDROOT
BRANCH   1   2
ATOM      2  N   UNL A   1      37.291  21.554  24.526  1.00  0.00    -0.354 N 
ATOM      3  C   UNL A   1      36.566  22.714  24.642  1.00  0.00     0.242 C 
ATOM      4  O   UNL A   1      37.176  23.779  24.757  1.00  0.00    -0.273 OA
ATOM      5  H   UNL A   1      38.239  21.663  24.287  1.00  0.00     0.163 HD
BRANCH   3   6
ATOM      6  C   UNL A   1      35.021  22.642  24.670  1.00  0.00     0.175 C 
BRANCH   6   7
ATOM      7  N   UNL A   1      34.551  22.700  26.046  1.00  0.00    -0.326 N 
ATOM      8  N   UNL A   1      32.965  20.945  26.509  1.00  0.00    -0.308 N 
ATOM      9  C   UNL A   1      33.675  22.044  26.807  1.00  0.00     0.319 C 
ATOM     10  H   UNL A   1      32.453  20.652  27.296  1.00  0.00     0.171 HD
ATOM     11  O   UNL A   1      33.541  22.473  27.962  1.00  0.00    -0.248 OA
ATOM     12  H   UNL A   1      35.000  23.417  26.550  1.00  0.00     0.166 HD
BRANCH   8  13
ATOM     13  C   UNL A   1      32.720  20.078  25.430  1.00  0.00     0.044 A 
ATOM     14  C   UNL A   1      32.706  17.799  24.585  1.00  0.00     0.043 A 
ATOM     15  C   UNL A   1      32.605  18.254  23.275  1.00  0.00     0.026 A 
ATOM     16  C   UNL A   1      32.828  18.703  25.653  1.00  0.00     0.052 A 
ATOM     17  C   UNL A   1      32.348  19.595  23.071  1.00  0.00     0.004 A 
ATOM     18  C   UNL A   1      32.320  20.460  24.163  1.00  0.00     0.026 A 
BRANCH  14  19
ATOM     19  N   UNL A   1      32.565  16.424  24.786  1.00  0.00    -0.326 N 
ATOM     20  C   UNL A   1      35.010  16.080  25.107  1.00  0.00     0.114 C 
ATOM     21  C   UNL A   1      33.590  15.567  25.107  1.00  0.00     0.221 C 
ATOM     22  O   UNL A   1      33.324  14.417  25.457  1.00  0.00    -0.275 OA
ATOM     23  H   UNL A   1      31.663  16.040  24.688  1.00  0.00     0.169 HD
ENDBRANCH  14  19
ENDBRANCH   8  13
ENDBRANCH   6   7
BRANCH   6  24
ATOM     24  C   UNL A   1      34.433  23.803  23.809  1.00  0.00     0.015 C 
ATOM     25  C   UNL A   1      33.585  23.235  22.662  1.00  0.00     0.010 C 
ATOM     26  C   UNL A   1      33.618  24.853  24.582  1.00  0.00     0.010 C 
ENDBRANCH   6  24
ENDBRANCH   3   6
ENDBRANCH   1   2
BRANCH   1  27
ATOM     27  C   UNL A   1      37.959  19.199  25.050  1.00  0.00     0.042 C 
BRANCH  27  28
ATOM     28  C   UNL A   1      39.168  19.818  25.754  1.00  0.00     0.118 C 
BRANCH  28  29
ATOM     29  N   UNL A   1      40.302  18.905  25.846  1.00  0.00    -0.352 N 
ATOM     30  C   UNL A   1      41.628  19.129  26.106  1.00  0.00     0.251 C 
ATOM     31  H   UNL A   1      40.073  17.960  25.695  1.00  0.00     0.163 HD
ATOM     32  O   UNL A   1      42.420  18.189  25.986  1.00  0.00    -0.269 OA
BRANCH  30  33
ATOM     33  C   UNL A   1      42.145  20.459  26.502  1.00  0.00     0.039 A 
ATOM     34  C   UNL A   1      42.717  21.271  25.515  1.00  0.00     0.014 A 
ATOM     35  C   UNL A   1      42.132  20.899  27.828  1.00  0.00     0.014 A 
ATOM     36  C   UNL A   1      43.214  22.536  25.843  1.00  0.00     0.010 A 
ATOM     37  C   UNL A   1      42.560  22.191  28.142  1.00  0.00     0.010 A 
ATOM     38  C   UNL A   1      43.105  23.025  27.153  1.00  0.00    -0.014 A 
BRANCH  38  39
ATOM     39  C   UNL A   1      43.534  24.407  27.494  1.00  0.00     0.031 A 
ATOM     40  C   UNL A   1      42.528  25.451  27.895  1.00  0.00     0.074 A 
ATOM     41  C   UNL A   1      44.834  24.741  27.384  1.00  0.00     0.049 A 
ATOM     42  N   UNL A   1      42.716  26.715  28.179  1.00  0.00    -0.248 NA
ATOM     43  C   UNL A   1      41.122  25.024  27.961  1.00  0.00     0.031 C 
ATOM     44  C   UNL A   1      45.906  23.838  26.959  1.00  0.00     0.029 A 
ATOM     45  N   UNL A   1      45.477  25.933  27.610  1.00  0.00    -0.354 N 
ATOM     46  C   UNL A   1      41.456  27.238  28.443  1.00  0.00     0.074 A 
ATOM     47  C   UNL A   1      40.506  26.165  28.234  1.00  0.00     0.031 C 
ATOM     48  C   UNL A   1      47.073  24.500  26.977  1.00  0.00     0.029 A 
ATOM     49  C   UNL A   1      46.830  25.883  27.375  1.00  0.00     0.049 A 
ATOM     50  H   UNL A   1      45.013  26.748  27.912  1.00  0.00     0.167 HD
ATOM     51  C   UNL A   1      41.121  28.488  28.842  1.00  0.00     0.037 A 
ATOM     52  C   UNL A   1      47.771  26.842  27.462  1.00  0.00     0.037 A 
ATOM     53  C   UNL A   1      42.070  29.549  29.066  1.00  0.00     0.049 A 
ATOM     54  C   UNL A   1      47.376  28.225  27.899  1.00  0.00     0.074 A 
ATOM     55  C   UNL A   1      41.835  30.831  29.535  1.00  0.00     0.029 A 
ATOM     56  N   UNL A   1      43.433  29.456  28.826  1.00  0.00    -0.354 N 
ATOM     57  N   UNL A   1      46.190  28.683  28.219  1.00  0.00    -0.248 NA
ATOM     58  C   UNL A   1      48.451  29.222  27.994  1.00  0.00     0.031 C 
ATOM     59  C   UNL A   1      43.048  31.530  29.527  1.00  0.00     0.029 A 
ATOM     60  C   UNL A   1      44.047  30.667  29.107  1.00  0.00     0.049 A 
ATOM     61  H   UNL A   1      43.895  28.650  28.503  1.00  0.00     0.167 HD
ATOM     62  C   UNL A   1      46.378  30.012  28.575  1.00  0.00     0.074 A 
ATOM     63  C   UNL A   1      47.796  30.282  28.448  1.00  0.00     0.031 C 
ATOM     64  C   UNL A   1      45.459  30.927  28.971  1.00  0.00     0.037 A 
BRANCH  51  65
ATOM     65  C   UNL A   1      39.662  28.780  29.056  1.00  0.00     0.057 A 
ATOM     66  C   UNL A   1      39.042  28.591  30.299  1.00  0.00     0.134 A 
ATOM     67  C   UNL A   1      38.872  29.280  28.013  1.00  0.00     0.134 A 
ATOM     68  F   UNL A   1      39.736  28.107  31.339  1.00  0.00    -0.206 F 
ATOM     69  C   UNL A   1      37.683  28.856  30.487  1.00  0.00     0.040 A 
ATOM     70  C   UNL A   1      37.520  29.577  28.196  1.00  0.00     0.040 A 
ATOM     71  F   UNL A   1      39.401  29.495  26.799  1.00  0.00    -0.206 F 
ATOM     72  C   UNL A   1      36.920  29.357  29.434  1.00  0.00     0.006 A 
ENDBRANCH  51  65
BRANCH  52  73
ATOM     73  C   UNL A   1      49.186  26.518  27.147  1.00  0.00     0.057 A 
ATOM     74  C   UNL A   1      50.043  26.000  28.124  1.00  0.00     0.134 A 
ATOM     75  C   UNL A   1      49.710  26.706  25.862  1.00  0.00     0.134 A 
ATOM     76  F   UNL A   1      49.604  25.814  29.377  1.00  0.00    -0.206 F 
ATOM     77  C   UNL A   1      51.375  25.694  27.840  1.00  0.00     0.040 A 
ATOM     78  C   UNL A   1      51.033  26.381  25.558  1.00  0.00     0.040 A 
ATOM     79  F   UNL A   1      48.937  27.190  24.880  1.00  0.00    -0.206 F 
ATOM     80  C   UNL A   1      51.871  25.878  26.551  1.00  0.00     0.006 A 
ENDBRANCH  52  73
BRANCH  64  81
ATOM     81  C   UNL A   1      45.961  32.298  29.322  1.00  0.00     0.057 A 
ATOM     82  C   UNL A   1      46.394  32.620  30.615  1.00  0.00     0.134 A 
ATOM     83  C   UNL A   1      46.045  33.299  28.346  1.00  0.00     0.134 A 
ATOM     84  F   UNL A   1      46.328  31.711  31.601  1.00  0.00    -0.206 F 
ATOM     85  C   UNL A   1      46.866  33.895  30.930  1.00  0.00     0.040 A 
ATOM     86  C   UNL A   1      46.542  34.569  28.641  1.00  0.00     0.040 A 
ATOM     87  F   UNL A   1      45.654  33.056  27.085  1.00  0.00    -0.206 F 
ATOM     88  C   UNL A   1      46.948  34.872  29.939  1.00  0.00     0.006 A 
ENDBRANCH  64  81
ENDBRANCH  38  39
ENDBRANCH  30  33
ENDBRANCH  28  29
ENDBRANCH  27  28
ENDBRANCH   1  27
TORSDOF 14
ENDMDL
MODEL 2
REMARK VINA RESULT:     -12.4      6.354     11.300
REMARK SMILES CC(=O)Nc1cccc(NC(=O)N[C@H](C(=O)NCCCNC(=O)c2ccc(-c3c4nc(c(-c5c(F)cccc5F)c5ccc([nH]5)c(-c5c(F)cccc5F)c5nc(c(-c6c(F)cccc6F)c6ccc3[nH]6)C=C5)C=C4)cc2)C(C)C)c1
REMARK SMILES IDX 18 1 17 2 15 3 16 4 14 6 13 7 10 8 11 9 12 11 9 13 5 14 6 15
REMARK SMILES IDX 81 16 7 17 8 18 4 19 1 20 2 21 3 22 78 24 79 25 80 26 19 27
REMARK SMILES IDX 20 28 21 29 22 30 23 32 24 33 25 34 77 35 26 36 76 37 27 38
REMARK SMILES IDX 28 39 29 40 70 41 30 42 75 43 69 44 71 45 31 46 74 47 68 48
REMARK SMILES IDX 67 49 32 51 58 52 41 53 57 54 42 55 45 56 56 57 72 58 43 59
REMARK SMILES IDX 44 60 55 62 73 63 46 64 33 65 34 66 39 67 35 68 36 69 38 70
REMARK SMILES IDX 40 71 37 72 59 73 60 74 65 75 61 76 62 77 64 78 66 79 63 80
REMARK SMILES IDX 47 81 48 82 53 83 49 84 50 85 52 86 54 87 51 88
REMARK H PARENT 17 5 10 10 13 12 4 23 21 31 71 50 45 61
REMARK Flexibility Score: inf
ROOT
ATOM      1  C   UNL A   1      31.343  30.866  26.064  1.00  0.00     0.117 C 
ENDROOT
BRANCH   1   2
ATOM      2  N   UNL A   1      32.185  30.050  26.927  1.00  0.00    -0.354 N 
ATOM      3  C   UNL A   1      32.800  28.857  26.639  1.00  0.00     0.242 C 
ATOM      4  O   UNL A   1      33.713  28.474  27.373  1.00  0.00    -0.273 OA
ATOM      5  H   UNL A   1      32.334  30.401  27.835  1.00  0.00     0.163 HD
BRANCH   3   6
ATOM      6  C   UNL A   1      32.359  28.062  25.387  1.00  0.00     0.175 C 
BRANCH   6   7
ATOM      7  N   UNL A   1      33.313  28.276  24.308  1.00  0.00    -0.326 N 
ATOM      8  N   UNL A   1      32.196  28.817  22.242  1.00  0.00    -0.308 N 
ATOM      9  C   UNL A   1      33.267  28.541  23.003  1.00  0.00     0.319 C 
ATOM     10  H   UNL A   1      32.482  29.037  21.327  1.00  0.00     0.171 HD
ATOM     11  O   UNL A   1      34.362  28.594  22.426  1.00  0.00    -0.248 OA
ATOM     12  H   UNL A   1      34.241  28.205  24.628  1.00  0.00     0.166 HD
BRANCH   8  13
ATOM     13  C   UNL A   1      30.795  28.893  22.336  1.00  0.00     0.044 A 
ATOM     14  C   UNL A   1      28.783  30.218  22.020  1.00  0.00     0.043 A 
ATOM     15  C   UNL A   1      28.040  29.327  22.786  1.00  0.00     0.026 A 
ATOM     16  C   UNL A   1      30.165  30.041  21.848  1.00  0.00     0.052 A 
ATOM     17  C   UNL A   1      28.625  28.127  23.136  1.00  0.00     0.004 A 
ATOM     18  C   UNL A   1      29.964  27.901  22.821  1.00  0.00     0.026 A 
BRANCH  14  19
ATOM     19  N   UNL A   1      28.070  31.215  21.349  1.00  0.00    -0.326 N 
ATOM     20  C   UNL A   1      28.753  32.983  22.965  1.00  0.00     0.114 C 
ATOM     21  C   UNL A   1      28.069  32.546  21.691  1.00  0.00     0.221 C 
ATOM     22  O   UNL A   1      27.571  33.365  20.918  1.00  0.00    -0.275 OA
ATOM     23  H   UNL A   1      27.527  30.943  20.574  1.00  0.00     0.169 HD
ENDBRANCH  14  19
ENDBRANCH   8  13
ENDBRANCH   6   7
BRANCH   6  24
ATOM     24  C   UNL A   1      32.230  26.551  25.753  1.00  0.00     0.015 C 
ATOM     25  C   UNL A   1      30.763  26.196  26.033  1.00  0.00     0.010 C 
ATOM     26  C   UNL A   1      32.810  25.568  24.722  1.00  0.00     0.010 C 
ENDBRANCH   6  24
ENDBRANCH   3   6
ENDBRANCH   1   2
BRANCH   1  27
ATOM     27  C   UNL A   1      31.273  32.337  26.474  1.00  0.00     0.042 C 
BRANCH  27  28
ATOM     28  C   UNL A   1      32.512  32.863  27.201  1.00  0.00     0.118 C 
BRANCH  28  29
ATOM     29  N   UNL A   1      32.355  34.233  27.677  1.00  0.00    -0.352 N 
ATOM     30  C   UNL A   1      33.039  34.948  28.624  1.00  0.00     0.251 C 
ATOM     31  H   UNL A   1      31.629  34.732  27.239  1.00  0.00     0.163 HD
ATOM     32  O   UNL A   1      32.612  36.061  28.945  1.00  0.00    -0.269 OA
BRANCH  30  33
ATOM     33  C   UNL A   1      34.254  34.424  29.289  1.00  0.00     0.039 A 
ATOM     34  C   UNL A   1      34.107  33.754  30.510  1.00  0.00     0.014 A 
ATOM     35  C   UNL A   1      35.535  34.629  28.770  1.00  0.00     0.014 A 
ATOM     36  C   UNL A   1      35.226  33.240  31.171  1.00  0.00     0.010 A 
ATOM     37  C   UNL A   1      36.643  34.051  29.393  1.00  0.00     0.010 A 
ATOM     38  C   UNL A   1      36.502  33.349  30.599  1.00  0.00    -0.014 A 
BRANCH  38  39
ATOM     39  C   UNL A   1      37.686  32.716  31.239  1.00  0.00     0.031 A 
ATOM     40  C   UNL A   1      38.337  31.504  30.631  1.00  0.00     0.074 A 
ATOM     41  C   UNL A   1      38.143  33.203  32.410  1.00  0.00     0.049 A 
ATOM     42  N   UNL A   1      39.344  30.795  31.076  1.00  0.00    -0.248 NA
ATOM     43  C   UNL A   1      37.764  31.007  29.371  1.00  0.00     0.031 C 
ATOM     44  C   UNL A   1      37.574  34.343  33.130  1.00  0.00     0.029 A 
ATOM     45  N   UNL A   1      39.185  32.795  33.206  1.00  0.00    -0.354 N 
ATOM     46  C   UNL A   1      39.517  29.764  30.161  1.00  0.00     0.074 A 
ATOM     47  C   UNL A   1      38.477  29.909  29.165  1.00  0.00     0.031 C 
ATOM     48  C   UNL A   1      38.286  34.557  34.248  1.00  0.00     0.029 A 
ATOM     49  C   UNL A   1      39.335  33.548  34.345  1.00  0.00     0.049 A 
ATOM     50  H   UNL A   1      39.769  32.034  32.982  1.00  0.00     0.167 HD
ATOM     51  C   UNL A   1      40.465  28.796  30.141  1.00  0.00     0.037 A 
ATOM     52  C   UNL A   1      40.213  33.436  35.360  1.00  0.00     0.037 A 
ATOM     53  C   UNL A   1      41.510  28.663  31.124  1.00  0.00     0.049 A 
ATOM     54  C   UNL A   1      41.251  32.351  35.320  1.00  0.00     0.074 A 
ATOM     55  C   UNL A   1      42.557  27.757  31.153  1.00  0.00     0.029 A 
ATOM     56  N   UNL A   1      41.634  29.452  32.259  1.00  0.00    -0.354 N 
ATOM     57  N   UNL A   1      41.449  31.429  34.409  1.00  0.00    -0.248 NA
ATOM     58  C   UNL A   1      42.193  32.294  36.447  1.00  0.00     0.031 C 
ATOM     59  C   UNL A   1      43.281  27.962  32.333  1.00  0.00     0.029 A 
ATOM     60  C   UNL A   1      42.720  29.033  33.010  1.00  0.00     0.049 A 
ATOM     61  H   UNL A   1      41.037  30.198  32.495  1.00  0.00     0.167 HD
ATOM     62  C   UNL A   1      42.549  30.699  34.838  1.00  0.00     0.074 A 
ATOM     63  C   UNL A   1      42.987  31.296  36.084  1.00  0.00     0.031 C 
ATOM     64  C   UNL A   1      43.144  29.630  34.253  1.00  0.00     0.037 A 
BRANCH  51  65
ATOM     65  C   UNL A   1      40.412  27.798  29.018  1.00  0.00     0.057 A 
ATOM     66  C   UNL A   1      41.186  27.942  27.859  1.00  0.00     0.134 A 
ATOM     67  C   UNL A   1      39.595  26.664  29.108  1.00  0.00     0.134 A 
ATOM     68  F   UNL A   1      41.984  29.009  27.702  1.00  0.00    -0.206 F 
ATOM     69  C   UNL A   1      41.123  27.015  26.817  1.00  0.00     0.040 A 
ATOM     70  C   UNL A   1      39.546  25.713  28.086  1.00  0.00     0.040 A 
ATOM     71  F   UNL A   1      38.834  26.456  30.193  1.00  0.00    -0.206 F 
ATOM     72  C   UNL A   1      40.306  25.892  26.932  1.00  0.00     0.006 A 
ENDBRANCH  51  65
BRANCH  52  73
ATOM     73  C   UNL A   1      40.158  34.397  36.491  1.00  0.00     0.057 A 
ATOM     74  C   UNL A   1      39.437  34.105  37.654  1.00  0.00     0.134 A 
ATOM     75  C   UNL A   1      40.834  35.623  36.442  1.00  0.00     0.134 A 
ATOM     76  F   UNL A   1      38.754  32.955  37.753  1.00  0.00    -0.206 F 
ATOM     77  C   UNL A   1      39.377  35.002  38.722  1.00  0.00     0.040 A 
ATOM     78  C   UNL A   1      40.804  36.518  37.513  1.00  0.00     0.040 A 
ATOM     79  F   UNL A   1      41.551  35.957  35.359  1.00  0.00    -0.206 F 
ATOM     80  C   UNL A   1      40.068  36.210  38.655  1.00  0.00     0.006 A 
ENDBRANCH  52  73
BRANCH  64  81
ATOM     81  C   UNL A   1      44.348  29.053  34.939  1.00  0.00     0.057 A 
ATOM     82  C   UNL A   1      44.240  28.025  35.885  1.00  0.00     0.134 A 
ATOM     83  C   UNL A   1      45.635  29.507  34.625  1.00  0.00     0.134 A 
ATOM     84  F   UNL A   1      43.035  27.553  36.243  1.00  0.00    -0.206 F 
ATOM     85  C   UNL A   1      45.365  27.490  36.513  1.00  0.00     0.040 A 
ATOM     86  C   UNL A   1      46.771  28.960  35.225  1.00  0.00     0.040 A 
ATOM     87  F   UNL A   1      45.812  30.483  33.721  1.00  0.00    -0.206 F 
ATOM     88  C   UNL A   1      46.637  27.953  36.177  1.00  0.00     0.006 A 
ENDBRANCH  64  81
ENDBRANCH  38  39
ENDBRANCH  30  33
ENDBRANCH  28  29
ENDBRANCH  27  28
ENDBRANCH   1  27
TORSDOF 14
ENDMDL
MODEL 3
REMARK VINA RESULT:     -12.4      0.553      6.184
REMARK SMILES CC(=O)Nc1cccc(NC(=O)N[C@H](C(=O)NCCCNC(=O)c2ccc(-c3c4nc(c(-c5c(F)cccc5F)c5ccc([nH]5)c(-c5c(F)cccc5F)c5nc(c(-c6c(F)cccc6F)c6ccc3[nH]6)C=C5)C=C4)cc2)C(C)C)c1
REMARK SMILES IDX 18 1 17 2 15 3 16 4 14 6 13 7 10 8 11 9 12 11 9 13 5 14 6 15
REMARK SMILES IDX 81 16 7 17 8 18 4 19 1 20 2 21 3 22 78 24 79 25 80 26 19 27
REMARK SMILES IDX 20 28 21 29 22 30 23 32 24 33 25 34 77 35 26 36 76 37 27 38
REMARK SMILES IDX 28 39 29 40 70 41 30 42 75 43 69 44 71 45 31 46 74 47 68 48
REMARK SMILES IDX 67 49 32 51 58 52 41 53 57 54 42 55 45 56 56 57 72 58 43 59
REMARK SMILES IDX 44 60 55 62 73 63 46 64 33 65 34 66 39 67 35 68 36 69 38 70
REMARK SMILES IDX 40 71 37 72 59 73 60 74 65 75 61 76 62 77 64 78 66 79 63 80
REMARK SMILES IDX 47 81 48 82 53 83 49 84 50 85 52 86 54 87 51 88
REMARK H PARENT 17 5 10 10 13 12 4 23 21 31 71 50 45 61
REMARK Flexibility Score: inf
ROOT
ATOM      1  C   UNL A   1      36.743  20.126  24.632  1.00  0.00     0.117 C 
ENDROOT
BRANCH   1   2
ATOM      2  N   UNL A   1      37.191  21.494  24.416  1.00  0.00    -0.354 N 
ATOM      3  C   UNL A   1      36.473  22.657  24.547  1.00  0.00     0.242 C 
ATOM      4  O   UNL A   1      37.089  23.722  24.627  1.00  0.00    -0.273 OA
ATOM      5  H   UNL A   1      38.130  21.599  24.141  1.00  0.00     0.163 HD
BRANCH   3   6
ATOM      6  C   UNL A   1      34.930  22.588  24.633  1.00  0.00     0.175 C 
BRANCH   6   7
ATOM      7  N   UNL A   1      34.514  22.601  26.027  1.00  0.00    -0.326 N 
ATOM      8  N   UNL A   1      33.026  20.769  26.518  1.00  0.00    -0.308 N 
ATOM      9  C   UNL A   1      33.699  21.894  26.810  1.00  0.00     0.319 C 
ATOM     10  H   UNL A   1      32.560  20.440  27.320  1.00  0.00     0.171 HD
ATOM     11  O   UNL A   1      33.593  22.296  27.977  1.00  0.00    -0.248 OA
ATOM     12  H   UNL A   1      34.951  23.328  26.527  1.00  0.00     0.166 HD
BRANCH   8  13
ATOM     13  C   UNL A   1      32.775  19.913  25.433  1.00  0.00     0.044 A 
ATOM     14  C   UNL A   1      32.722  17.637  24.581  1.00  0.00     0.043 A 
ATOM     15  C   UNL A   1      32.647  18.099  23.271  1.00  0.00     0.026 A 
ATOM     16  C   UNL A   1      32.851  18.534  25.653  1.00  0.00     0.052 A 
ATOM     17  C   UNL A   1      32.422  19.445  23.069  1.00  0.00     0.004 A 
ATOM     18  C   UNL A   1      32.399  20.307  24.163  1.00  0.00     0.026 A 
BRANCH  14  19
ATOM     19  N   UNL A   1      32.547  16.265  24.774  1.00  0.00    -0.326 N 
ATOM     20  C   UNL A   1      34.967  15.882  25.226  1.00  0.00     0.114 C 
ATOM     21  C   UNL A   1      33.540  15.392  25.150  1.00  0.00     0.221 C 
ATOM     22  O   UNL A   1      33.237  14.246  25.487  1.00  0.00    -0.275 OA
ATOM     23  H   UNL A   1      31.646  15.895  24.629  1.00  0.00     0.169 HD
ENDBRANCH  14  19
ENDBRANCH   8  13
ENDBRANCH   6   7
BRANCH   6  24
ATOM     24  C   UNL A   1      34.313  23.779  23.835  1.00  0.00     0.015 C 
ATOM     25  C   UNL A   1      33.624  23.266  22.563  1.00  0.00     0.010 C 
ATOM     26  C   UNL A   1      33.341  24.672  24.624  1.00  0.00     0.010 C 
ENDBRANCH   6  24
ENDBRANCH   3   6
ENDBRANCH   1   2
BRANCH   1  27
ATOM     27  C   UNL A   1      37.858  19.166  25.050  1.00  0.00     0.042 C 
BRANCH  27  28
ATOM     28  C   UNL A   1      39.023  19.819  25.797  1.00  0.00     0.118 C 
BRANCH  28  29
ATOM     29  N   UNL A   1      40.199  18.960  25.878  1.00  0.00    -0.352 N 
ATOM     30  C   UNL A   1      41.515  19.245  26.131  1.00  0.00     0.251 C 
ATOM     31  H   UNL A   1      40.014  18.006  25.725  1.00  0.00     0.163 HD
ATOM     32  O   UNL A   1      42.349  18.344  26.002  1.00  0.00    -0.269 OA
BRANCH  30  33
ATOM     33  C   UNL A   1      41.972  20.597  26.528  1.00  0.00     0.039 A 
ATOM     34  C   UNL A   1      42.295  21.513  25.519  1.00  0.00     0.014 A 
ATOM     35  C   UNL A   1      42.144  20.961  27.866  1.00  0.00     0.014 A 
ATOM     36  C   UNL A   1      42.725  22.801  25.849  1.00  0.00     0.010 A 
ATOM     37  C   UNL A   1      42.503  22.271  28.194  1.00  0.00     0.010 A 
ATOM     38  C   UNL A   1      42.797  23.206  27.190  1.00  0.00    -0.014 A 
BRANCH  38  39
ATOM     39  C   UNL A   1      43.153  24.603  27.551  1.00  0.00     0.031 A 
ATOM     40  C   UNL A   1      44.587  25.055  27.569  1.00  0.00     0.074 A 
ATOM     41  C   UNL A   1      42.180  25.458  27.924  1.00  0.00     0.049 A 
ATOM     42  N   UNL A   1      45.085  26.219  27.904  1.00  0.00    -0.248 NA
ATOM     43  C   UNL A   1      45.599  24.059  27.184  1.00  0.00     0.031 C 
ATOM     44  C   UNL A   1      40.754  25.135  27.996  1.00  0.00     0.029 A 
ATOM     45  N   UNL A   1      42.242  26.771  28.321  1.00  0.00    -0.354 N 
ATOM     46  C   UNL A   1      46.463  26.093  27.784  1.00  0.00     0.074 A 
ATOM     47  C   UNL A   1      46.726  24.723  27.397  1.00  0.00     0.031 C 
ATOM     48  C   UNL A   1      40.075  26.224  28.390  1.00  0.00     0.029 A 
ATOM     49  C   UNL A   1      41.018  27.310  28.636  1.00  0.00     0.049 A 
ATOM     50  H   UNL A   1      43.084  27.279  28.375  1.00  0.00     0.167 HD
ATOM     51  C   UNL A   1      47.421  27.034  27.962  1.00  0.00     0.037 A 
ATOM     52  C   UNL A   1      40.689  28.538  29.080  1.00  0.00     0.037 A 
ATOM     53  C   UNL A   1      47.156  28.402  28.331  1.00  0.00     0.049 A 
ATOM     54  C   UNL A   1      41.769  29.564  29.277  1.00  0.00     0.074 A 
ATOM     55  C   UNL A   1      48.054  29.447  28.469  1.00  0.00     0.029 A 
ATOM     56  N   UNL A   1      45.902  28.911  28.632  1.00  0.00    -0.354 N 
ATOM     57  N   UNL A   1      43.061  29.451  29.086  1.00  0.00    -0.248 NA
ATOM     58  C   UNL A   1      41.344  30.891  29.744  1.00  0.00     0.031 C 
ATOM     59  C   UNL A   1      47.350  30.575  28.906  1.00  0.00     0.029 A 
ATOM     60  C   UNL A   1      46.006  30.247  28.986  1.00  0.00     0.049 A 
ATOM     61  H   UNL A   1      45.062  28.399  28.600  1.00  0.00     0.167 HD
ATOM     62  C   UNL A   1      43.601  30.695  29.386  1.00  0.00     0.074 A 
ATOM     63  C   UNL A   1      42.492  31.553  29.756  1.00  0.00     0.031 C 
ATOM     64  C   UNL A   1      44.897  31.091  29.358  1.00  0.00     0.037 A 
BRANCH  51  65
ATOM     65  C   UNL A   1      48.851  26.614  27.763  1.00  0.00     0.057 A 
ATOM     66  C   UNL A   1      49.643  26.151  28.823  1.00  0.00     0.134 A 
ATOM     67  C   UNL A   1      49.437  26.651  26.491  1.00  0.00     0.134 A 
ATOM     68  F   UNL A   1      49.148  26.099  30.069  1.00  0.00    -0.206 F 
ATOM     69  C   UNL A   1      50.973  25.772  28.631  1.00  0.00     0.040 A 
ATOM     70  C   UNL A   1      50.757  26.246  26.281  1.00  0.00     0.040 A 
ATOM     71  F   UNL A   1      48.735  27.074  25.429  1.00  0.00    -0.206 F 
ATOM     72  C   UNL A   1      51.532  25.813  27.355  1.00  0.00     0.006 A 
ENDBRANCH  51  65
BRANCH  52  73
ATOM     73  C   UNL A   1      39.266  28.868  29.349  1.00  0.00     0.057 A 
ATOM     74  C   UNL A   1      38.704  28.669  30.614  1.00  0.00     0.134 A 
ATOM     75  C   UNL A   1      38.439  29.401  28.352  1.00  0.00     0.134 A 
ATOM     76  F   UNL A   1      39.441  28.146  31.605  1.00  0.00    -0.206 F 
ATOM     77  C   UNL A   1      37.367  28.973  30.877  1.00  0.00     0.040 A 
ATOM     78  C   UNL A   1      37.108  29.734  28.607  1.00  0.00     0.040 A 
ATOM     79  F   UNL A   1      38.921  29.624  27.120  1.00  0.00    -0.206 F 
ATOM     80  C   UNL A   1      36.567  29.514  29.872  1.00  0.00     0.006 A 
ENDBRANCH  52  73
BRANCH  64  81
ATOM     81  C   UNL A   1      45.186  32.521  29.712  1.00  0.00     0.057 A 
ATOM     82  C   UNL A   1      45.143  33.544  28.756  1.00  0.00     0.134 A 
ATOM     83  C   UNL A   1      45.478  32.885  31.033  1.00  0.00     0.134 A 
ATOM     84  F   UNL A   1      44.883  33.263  27.469  1.00  0.00    -0.206 F 
ATOM     85  C   UNL A   1      45.406  34.872  29.095  1.00  0.00     0.040 A 
ATOM     86  C   UNL A   1      45.715  34.214  31.390  1.00  0.00     0.040 A 
ATOM     87  F   UNL A   1      45.528  31.957  32.001  1.00  0.00    -0.206 F 
ATOM     88  C   UNL A   1      45.686  35.211  30.418  1.00  0.00     0.006 A 
ENDBRANCH  64  81
ENDBRANCH  38  39
ENDBRANCH  30  33
ENDBRANCH  28  29
ENDBRANCH  27  28
ENDBRANCH   1  27
TORSDOF 14
ENDMDL
