MODEL 1
REMARK VINA RESULT:     -11.7      0.000      0.000
REMARK SMILES Cc1cc(C)c(C(=O)NCCCNC(=O)c2ccc(-c3c4nc(c(-c5c(F)cccc5F)c5ccc([nH]5)c(-c5c(F)cccc5F)c5nc(c(-c6c(F)cccc6F)c6ccc3[nH]6)C=C5)C=C4)cc2)c(NC[C@@H]2C[N@@H+](C)CCO2)n1
REMARK SMILES IDX 10 1 9 2 7 3 8 4 6 6 1 7 2 8 3 9 80 10 4 11 70 12 5 13 71 14
REMARK SMILES IDX 72 16 73 17 74 18 79 19 75 20 78 21 76 22 77 23 11 25 12 26
REMARK SMILES IDX 13 27 14 28 15 30 16 31 17 32 69 33 18 34 68 35 19 36 20 37
REMARK SMILES IDX 21 38 62 39 22 40 67 41 61 42 63 43 23 44 66 45 60 46 59 47
REMARK SMILES IDX 24 49 50 50 33 51 49 52 34 53 37 54 48 55 64 56 35 57 36 58
REMARK SMILES IDX 47 60 65 61 38 62 25 63 26 64 31 65 27 66 28 67 30 68 32 69
REMARK SMILES IDX 29 70 51 71 52 72 57 73 53 74 54 75 56 76 58 77 55 78 39 79
REMARK SMILES IDX 40 80 45 81 41 82 42 83 44 84 46 85 43 86
REMARK H PARENT 9 5 71 15 75 24 13 29 63 48 37 59
REMARK Flexibility Score: inf
ROOT
ATOM      1  C   UNL A   1      32.700  29.506  25.825  1.00  0.00     0.118 C 
ENDROOT
BRANCH   1   2
ATOM      2  N   UNL A   1      33.608  29.412  24.701  1.00  0.00    -0.352 N 
ATOM      3  C   UNL A   1      33.707  28.491  23.683  1.00  0.00     0.255 C 
ATOM      4  O   UNL A   1      34.518  28.738  22.788  1.00  0.00    -0.269 OA
ATOM      5  H   UNL A   1      34.274  30.136  24.657  1.00  0.00     0.163 HD
BRANCH   3   6
ATOM      6  C   UNL A   1      32.936  27.214  23.651  1.00  0.00     0.085 A 
ATOM      7  C   UNL A   1      30.596  23.696  23.164  1.00  0.00     0.067 C 
ATOM      8  C   UNL A   1      31.408  24.937  23.381  1.00  0.00     0.040 A 
ATOM      9  C   UNL A   1      32.545  24.894  24.173  1.00  0.00     0.028 A 
ATOM     10  N   UNL A   1      30.982  26.072  22.791  1.00  0.00    -0.236 NA
ATOM     11  C   UNL A   1      33.295  26.059  24.370  1.00  0.00    -0.033 A 
ATOM     12  C   UNL A   1      31.711  27.206  22.937  1.00  0.00     0.139 A 
ATOM     13  C   UNL A   1      34.394  25.991  25.391  1.00  0.00     0.045 C 
BRANCH  12  14
ATOM     14  N   UNL A   1      31.238  28.354  22.317  1.00  0.00    -0.367 N 
ATOM     15  H   UNL A   1      31.525  28.544  21.395  1.00  0.00     0.162 HD
BRANCH  14  16
ATOM     16  C   UNL A   1      30.332  29.294  22.973  1.00  0.00     0.152 C 
BRANCH  16  17
ATOM     17  C   UNL A   1      29.360  29.923  21.939  1.00  0.00     0.192 C 
ATOM     18  C   UNL A   1      29.446  31.467  21.905  1.00  0.00     0.296 C 
ATOM     19  O   UNL A   1      27.985  29.516  22.151  1.00  0.00    -0.365 OA
ATOM     20  N   UNL A   1      28.904  32.080  23.138  1.00  0.00    -0.333 N 
ATOM     21  C   UNL A   1      27.431  30.084  23.343  1.00  0.00     0.222 C 
ATOM     22  C   UNL A   1      28.954  33.537  23.077  1.00  0.00     0.332 C 
ATOM     23  C   UNL A   1      27.515  31.615  23.331  1.00  0.00     0.290 C 
ATOM     24  H   UNL A   1      29.479  31.792  23.931  1.00  0.00     0.348 HD
ENDBRANCH  16  17
ENDBRANCH  14  16
ENDBRANCH  12  14
ENDBRANCH   3   6
ENDBRANCH   1   2
BRANCH   1  25
ATOM     25  C   UNL A   1      33.226  28.921  27.127  1.00  0.00     0.042 C 
BRANCH  25  26
ATOM     26  C   UNL A   1      34.682  29.234  27.450  1.00  0.00     0.118 C 
BRANCH  26  27
ATOM     27  N   UNL A   1      34.876  30.088  28.617  1.00  0.00    -0.352 N 
ATOM     28  C   UNL A   1      35.981  30.369  29.389  1.00  0.00     0.251 C 
ATOM     29  H   UNL A   1      34.060  30.553  28.909  1.00  0.00     0.163 HD
ATOM     30  O   UNL A   1      35.846  31.078  30.385  1.00  0.00    -0.269 OA
BRANCH  28  31
ATOM     31  C   UNL A   1      37.315  29.800  29.084  1.00  0.00     0.039 A 
ATOM     32  C   UNL A   1      37.816  29.917  27.781  1.00  0.00     0.014 A 
ATOM     33  C   UNL A   1      38.073  29.140  30.046  1.00  0.00     0.014 A 
ATOM     34  C   UNL A   1      39.107  29.467  27.483  1.00  0.00     0.010 A 
ATOM     35  C   UNL A   1      39.400  28.812  29.785  1.00  0.00     0.010 A 
ATOM     36  C   UNL A   1      39.935  28.964  28.498  1.00  0.00    -0.014 A 
BRANCH  36  37
ATOM     37  C   UNL A   1      41.349  28.573  28.244  1.00  0.00     0.031 A 
ATOM     38  C   UNL A   1      41.689  27.148  27.887  1.00  0.00     0.074 A 
ATOM     39  C   UNL A   1      42.339  29.472  28.420  1.00  0.00     0.049 A 
ATOM     40  N   UNL A   1      42.863  26.584  27.751  1.00  0.00    -0.248 NA
ATOM     41  C   UNL A   1      40.558  26.224  27.700  1.00  0.00     0.031 C 
ATOM     42  C   UNL A   1      42.159  30.867  28.829  1.00  0.00     0.029 A 
ATOM     43  N   UNL A   1      43.700  29.341  28.291  1.00  0.00    -0.354 N 
ATOM     44  C   UNL A   1      42.610  25.240  27.504  1.00  0.00     0.074 A 
ATOM     45  C   UNL A   1      41.177  25.060  27.568  1.00  0.00     0.031 C 
ATOM     46  C   UNL A   1      43.357  31.470  28.884  1.00  0.00     0.029 A 
ATOM     47  C   UNL A   1      44.394  30.497  28.557  1.00  0.00     0.049 A 
ATOM     48  H   UNL A   1      44.137  28.498  28.033  1.00  0.00     0.167 HD
ATOM     49  C   UNL A   1      43.487  24.248  27.218  1.00  0.00     0.037 A 
ATOM     50  C   UNL A   1      45.717  30.746  28.542  1.00  0.00     0.037 A 
ATOM     51  C   UNL A   1      44.908  24.437  27.097  1.00  0.00     0.049 A 
ATOM     52  C   UNL A   1      46.668  29.639  28.182  1.00  0.00     0.074 A 
ATOM     53  C   UNL A   1      45.874  23.514  26.736  1.00  0.00     0.029 A 
ATOM     54  N   UNL A   1      45.565  25.637  27.324  1.00  0.00    -0.354 N 
ATOM     55  N   UNL A   1      46.409  28.387  27.888  1.00  0.00    -0.248 NA
ATOM     56  C   UNL A   1      48.098  29.981  28.143  1.00  0.00     0.031 C 
ATOM     57  C   UNL A   1      47.120  24.147  26.775  1.00  0.00     0.029 A 
ATOM     58  C   UNL A   1      46.925  25.476  27.120  1.00  0.00     0.049 A 
ATOM     59  H   UNL A   1      45.129  26.478  27.590  1.00  0.00     0.167 HD
ATOM     60  C   UNL A   1      47.635  27.802  27.602  1.00  0.00     0.074 A 
ATOM     61  C   UNL A   1      48.637  28.837  27.743  1.00  0.00     0.031 C 
ATOM     62  C   UNL A   1      47.907  26.521  27.253  1.00  0.00     0.037 A 
BRANCH  49  63
ATOM     63  C   UNL A   1      42.927  22.871  26.999  1.00  0.00     0.057 A 
ATOM     64  C   UNL A   1      42.732  22.350  25.712  1.00  0.00     0.134 A 
ATOM     65  C   UNL A   1      42.597  22.050  28.084  1.00  0.00     0.134 A 
ATOM     66  F   UNL A   1      43.014  23.088  24.629  1.00  0.00    -0.206 F 
ATOM     67  C   UNL A   1      42.197  21.075  25.514  1.00  0.00     0.040 A 
ATOM     68  C   UNL A   1      42.091  20.763  27.898  1.00  0.00     0.040 A 
ATOM     69  F   UNL A   1      42.766  22.484  29.343  1.00  0.00    -0.206 F 
ATOM     70  C   UNL A   1      41.881  20.276  26.610  1.00  0.00     0.006 A 
ENDBRANCH  49  63
BRANCH  50  71
ATOM     71  C   UNL A   1      46.222  32.109  28.840  1.00  0.00     0.057 A 
ATOM     72  C   UNL A   1      46.554  32.482  30.149  1.00  0.00     0.134 A 
ATOM     73  C   UNL A   1      46.380  33.072  27.837  1.00  0.00     0.134 A 
ATOM     74  F   UNL A   1      46.406  31.609  31.156  1.00  0.00    -0.206 F 
ATOM     75  C   UNL A   1      47.003  33.768  30.453  1.00  0.00     0.040 A 
ATOM     76  C   UNL A   1      46.852  34.355  28.122  1.00  0.00     0.040 A 
ATOM     77  F   UNL A   1      46.090  32.775  26.562  1.00  0.00    -0.206 F 
ATOM     78  C   UNL A   1      47.158  34.707  29.435  1.00  0.00     0.006 A 
ENDBRANCH  50  71
BRANCH  62  79
ATOM     79  C   UNL A   1      49.338  26.179  26.961  1.00  0.00     0.057 A 
ATOM     80  C   UNL A   1      49.848  26.179  25.657  1.00  0.00     0.134 A 
ATOM     81  C   UNL A   1      50.224  25.879  28.003  1.00  0.00     0.134 A 
ATOM     82  F   UNL A   1      49.046  26.445  24.614  1.00  0.00    -0.206 F 
ATOM     83  C   UNL A   1      51.184  25.872  25.398  1.00  0.00     0.040 A 
ATOM     84  C   UNL A   1      51.568  25.595  27.759  1.00  0.00     0.040 A 
ATOM     85  F   UNL A   1      49.800  25.871  29.276  1.00  0.00    -0.206 F 
ATOM     86  C   UNL A   1      52.049  25.585  26.452  1.00  0.00     0.006 A 
ENDBRANCH  62  79
ENDBRANCH  36  37
ENDBRANCH  28  31
ENDBRANCH  26  27
ENDBRANCH  25  26
ENDBRANCH   1  25
TORSDOF 13
ENDMDL
MODEL 2
REMARK VINA RESULT:     -11.7      2.338      7.473
REMARK SMILES Cc1cc(C)c(C(=O)NCCCNC(=O)c2ccc(-c3c4nc(c(-c5c(F)cccc5F)c5ccc([nH]5)c(-c5c(F)cccc5F)c5nc(c(-c6c(F)cccc6F)c6ccc3[nH]6)C=C5)C=C4)cc2)c(NC[C@@H]2C[N@@H+](C)CCO2)n1
REMARK SMILES IDX 10 1 9 2 7 3 8 4 6 6 1 7 2 8 3 9 80 10 4 11 70 12 5 13 71 14
REMARK SMILES IDX 72 16 73 17 74 18 79 19 75 20 78 21 76 22 77 23 11 25 12 26
REMARK SMILES IDX 13 27 14 28 15 30 16 31 17 32 69 33 18 34 68 35 19 36 20 37
REMARK SMILES IDX 21 38 62 39 22 40 67 41 61 42 63 43 23 44 66 45 60 46 59 47
REMARK SMILES IDX 24 49 50 50 33 51 49 52 34 53 37 54 48 55 64 56 35 57 36 58
REMARK SMILES IDX 47 60 65 61 38 62 25 63 26 64 31 65 27 66 28 67 30 68 32 69
REMARK SMILES IDX 29 70 51 71 52 72 57 73 53 74 54 75 56 76 58 77 55 78 39 79
REMARK SMILES IDX 40 80 45 81 41 82 42 83 44 84 46 85 43 86
REMARK H PARENT 9 5 71 15 75 24 13 29 63 48 37 59
REMARK Flexibility Score: inf
ROOT
ATOM      1  C   UNL A   1      33.162  29.201  24.895  1.00  0.00     0.118 C 
ENDROOT
BRANCH   1   2
ATOM      2  N   UNL A   1      33.201  28.542  23.605  1.00  0.00    -0.352 N 
ATOM      3  C   UNL A   1      32.617  27.379  23.158  1.00  0.00     0.255 C 
ATOM      4  O   UNL A   1      32.735  27.124  21.958  1.00  0.00    -0.269 OA
ATOM      5  H   UNL A   1      33.743  29.009  22.928  1.00  0.00     0.163 HD
BRANCH   3   6
ATOM      6  C   UNL A   1      31.916  26.412  24.054  1.00  0.00     0.085 A 
ATOM      7  C   UNL A   1      30.303  23.605  26.812  1.00  0.00     0.067 C 
ATOM      8  C   UNL A   1      30.845  24.575  25.806  1.00  0.00     0.040 A 
ATOM      9  C   UNL A   1      30.018  25.542  25.256  1.00  0.00     0.028 A 
ATOM     10  N   UNL A   1      32.144  24.456  25.462  1.00  0.00    -0.236 NA
ATOM     11  C   UNL A   1      30.534  26.442  24.316  1.00  0.00    -0.033 A 
ATOM     12  C   UNL A   1      32.677  25.338  24.581  1.00  0.00     0.139 A 
ATOM     13  C   UNL A   1      29.546  27.329  23.617  1.00  0.00     0.045 C 
BRANCH  12  14
ATOM     14  N   UNL A   1      34.016  25.181  24.251  1.00  0.00    -0.367 N 
ATOM     15  H   UNL A   1      34.342  25.573  23.409  1.00  0.00     0.162 HD
BRANCH  14  16
ATOM     16  C   UNL A   1      34.963  24.460  25.097  1.00  0.00     0.152 C 
BRANCH  16  17
ATOM     17  C   UNL A   1      35.541  23.233  24.342  1.00  0.00     0.192 C 
ATOM     18  C   UNL A   1      34.458  22.454  23.558  1.00  0.00     0.296 C 
ATOM     19  O   UNL A   1      36.253  22.326  25.220  1.00  0.00    -0.365 OA
ATOM     20  N   UNL A   1      33.517  21.752  24.459  1.00  0.00    -0.333 N 
ATOM     21  C   UNL A   1      35.373  21.636  26.114  1.00  0.00     0.222 C 
ATOM     22  C   UNL A   1      32.526  20.989  23.707  1.00  0.00     0.332 C 
ATOM     23  C   UNL A   1      34.287  20.864  25.354  1.00  0.00     0.290 C 
ATOM     24  H   UNL A   1      33.009  22.444  25.011  1.00  0.00     0.348 HD
ENDBRANCH  16  17
ENDBRANCH  14  16
ENDBRANCH  12  14
ENDBRANCH   3   6
ENDBRANCH   1   2
BRANCH   1  25
ATOM     25  C   UNL A   1      34.027  28.561  25.970  1.00  0.00     0.042 C 
BRANCH  25  26
ATOM     26  C   UNL A   1      33.539  28.743  27.402  1.00  0.00     0.118 C 
BRANCH  26  27
ATOM     27  N   UNL A   1      33.679  30.098  27.925  1.00  0.00    -0.352 N 
ATOM     28  C   UNL A   1      34.743  30.779  28.470  1.00  0.00     0.251 C 
ATOM     29  H   UNL A   1      32.851  30.628  27.879  1.00  0.00     0.163 HD
ATOM     30  O   UNL A   1      34.561  31.912  28.912  1.00  0.00    -0.269 OA
BRANCH  28  31
ATOM     31  C   UNL A   1      36.088  30.166  28.586  1.00  0.00     0.039 A 
ATOM     32  C   UNL A   1      36.940  30.194  27.475  1.00  0.00     0.014 A 
ATOM     33  C   UNL A   1      36.520  29.551  29.757  1.00  0.00     0.014 A 
ATOM     34  C   UNL A   1      38.246  29.702  27.579  1.00  0.00     0.010 A 
ATOM     35  C   UNL A   1      37.854  29.182  29.901  1.00  0.00     0.010 A 
ATOM     36  C   UNL A   1      38.735  29.245  28.812  1.00  0.00    -0.014 A 
BRANCH  36  37
ATOM     37  C   UNL A   1      40.148  28.812  28.990  1.00  0.00     0.031 A 
ATOM     38  C   UNL A   1      41.169  29.770  29.552  1.00  0.00     0.074 A 
ATOM     39  C   UNL A   1      40.539  27.593  28.565  1.00  0.00     0.049 A 
ATOM     40  N   UNL A   1      42.465  29.627  29.666  1.00  0.00    -0.248 NA
ATOM     41  C   UNL A   1      40.671  31.079  30.004  1.00  0.00     0.031 C 
ATOM     42  C   UNL A   1      39.672  26.591  27.943  1.00  0.00     0.029 A 
ATOM     43  N   UNL A   1      41.774  26.994  28.581  1.00  0.00    -0.354 N 
ATOM     44  C   UNL A   1      42.936  30.837  30.164  1.00  0.00     0.074 A 
ATOM     45  C   UNL A   1      41.798  31.721  30.273  1.00  0.00     0.031 C 
ATOM     46  C   UNL A   1      40.392  25.492  27.668  1.00  0.00     0.029 A 
ATOM     47  C   UNL A   1      41.780  25.725  28.054  1.00  0.00     0.049 A 
ATOM     48  H   UNL A   1      42.581  27.432  28.937  1.00  0.00     0.167 HD
ATOM     49  C   UNL A   1      44.196  31.174  30.530  1.00  0.00     0.037 A 
ATOM     50  C   UNL A   1      42.789  24.847  27.897  1.00  0.00     0.037 A 
ATOM     51  C   UNL A   1      45.319  30.276  30.477  1.00  0.00     0.049 A 
ATOM     52  C   UNL A   1      44.171  25.228  28.347  1.00  0.00     0.074 A 
ATOM     53  C   UNL A   1      46.620  30.496  30.895  1.00  0.00     0.029 A 
ATOM     54  N   UNL A   1      45.270  28.981  29.984  1.00  0.00    -0.354 N 
ATOM     55  N   UNL A   1      44.588  26.354  28.875  1.00  0.00    -0.248 NA
ATOM     56  C   UNL A   1      45.223  24.215  28.186  1.00  0.00     0.031 C 
ATOM     57  C   UNL A   1      47.366  29.344  30.625  1.00  0.00     0.029 A 
ATOM     58  C   UNL A   1      46.520  28.393  30.078  1.00  0.00     0.049 A 
ATOM     59  H   UNL A   1      44.466  28.545  29.621  1.00  0.00     0.167 HD
ATOM     60  C   UNL A   1      45.940  26.174  29.136  1.00  0.00     0.074 A 
ATOM     61  C   UNL A   1      46.270  24.826  28.722  1.00  0.00     0.031 C 
ATOM     62  C   UNL A   1      46.828  27.046  29.672  1.00  0.00     0.037 A 
BRANCH  49  63
ATOM     63  C   UNL A   1      44.420  32.570  31.036  1.00  0.00     0.057 A 
ATOM     64  C   UNL A   1      44.296  32.892  32.395  1.00  0.00     0.134 A 
ATOM     65  C   UNL A   1      44.782  33.601  30.160  1.00  0.00     0.134 A 
ATOM     66  F   UNL A   1      43.939  31.956  33.286  1.00  0.00    -0.206 F 
ATOM     67  C   UNL A   1      44.490  34.195  32.858  1.00  0.00     0.040 A 
ATOM     68  C   UNL A   1      45.009  34.901  30.616  1.00  0.00     0.040 A 
ATOM     69  F   UNL A   1      44.925  33.362  28.847  1.00  0.00    -0.206 F 
ATOM     70  C   UNL A   1      44.854  35.202  31.967  1.00  0.00     0.006 A 
ENDBRANCH  49  63
BRANCH  50  71
ATOM     71  C   UNL A   1      42.525  23.504  27.321  1.00  0.00     0.057 A 
ATOM     72  C   UNL A   1      42.198  22.420  28.146  1.00  0.00     0.134 A 
ATOM     73  C   UNL A   1      42.598  23.266  25.944  1.00  0.00     0.134 A 
ATOM     74  F   UNL A   1      42.132  22.582  29.475  1.00  0.00    -0.206 F 
ATOM     75  C   UNL A   1      41.975  21.145  27.625  1.00  0.00     0.040 A 
ATOM     76  C   UNL A   1      42.352  22.001  25.406  1.00  0.00     0.040 A 
ATOM     77  F   UNL A   1      42.896  24.264  25.099  1.00  0.00    -0.206 F 
ATOM     78  C   UNL A   1      42.047  20.935  26.250  1.00  0.00     0.006 A 
ENDBRANCH  50  71
BRANCH  62  79
ATOM     79  C   UNL A   1      48.231  26.556  29.877  1.00  0.00     0.057 A 
ATOM     80  C   UNL A   1      48.625  25.909  31.055  1.00  0.00     0.134 A 
ATOM     81  C   UNL A   1      49.190  26.704  28.867  1.00  0.00     0.134 A 
ATOM     82  F   UNL A   1      47.756  25.749  32.064  1.00  0.00    -0.206 F 
ATOM     83  C   UNL A   1      49.929  25.447  31.229  1.00  0.00     0.040 A 
ATOM     84  C   UNL A   1      50.490  26.223  29.020  1.00  0.00     0.040 A 
ATOM     85  F   UNL A   1      48.874  27.307  27.710  1.00  0.00    -0.206 F 
ATOM     86  C   UNL A   1      50.864  25.598  30.207  1.00  0.00     0.006 A 
ENDBRANCH  62  79
ENDBRANCH  36  37
ENDBRANCH  28  31
ENDBRANCH  26  27
ENDBRANCH  25  26
ENDBRANCH   1  25
TORSDOF 13
ENDMDL
MODEL 3
REMARK VINA RESULT:     -11.5      4.057      8.718
REMARK SMILES Cc1cc(C)c(C(=O)NCCCNC(=O)c2ccc(-c3c4nc(c(-c5c(F)cccc5F)c5ccc([nH]5)c(-c5c(F)cccc5F)c5nc(c(-c6c(F)cccc6F)c6ccc3[nH]6)C=C5)C=C4)cc2)c(NC[C@@H]2C[N@@H+](C)CCO2)n1
REMARK SMILES IDX 10 1 9 2 7 3 8 4 6 6 1 7 2 8 3 9 80 10 4 11 70 12 5 13 71 14
REMARK SMILES IDX 72 16 73 17 74 18 79 19 75 20 78 21 76 22 77 23 11 25 12 26
REMARK SMILES IDX 13 27 14 28 15 30 16 31 17 32 69 33 18 34 68 35 19 36 20 37
REMARK SMILES IDX 21 38 62 39 22 40 67 41 61 42 63 43 23 44 66 45 60 46 59 47
REMARK SMILES IDX 24 49 50 50 33 51 49 52 34 53 37 54 48 55 64 56 35 57 36 58
REMARK SMILES IDX 47 60 65 61 38 62 25 63 26 64 31 65 27 66 28 67 30 68 32 69
REMARK SMILES IDX 29 70 51 71 52 72 57 73 53 74 54 75 56 76 58 77 55 78 39 79
REMARK SMILES IDX 40 80 45 81 41 82 42 83 44 84 46 85 43 86
REMARK H PARENT 9 5 71 15 75 24 13 29 63 48 37 59
REMARK Flexibility Score: inf
ROOT
ATOM      1  C   UNL A   1      36.190  21.987  25.563  1.00  0.00     0.118 C 
ENDROOT
BRANCH   1   2
ATOM      2  N   UNL A   1      35.475  22.148  26.813  1.00  0.00    -0.352 N 
ATOM      3  C   UNL A   1      34.179  22.523  27.080  1.00  0.00     0.255 C 
ATOM      4  O   UNL A   1      33.812  22.457  28.256  1.00  0.00    -0.269 OA
ATOM      5  H   UNL A   1      36.013  21.953  27.615  1.00  0.00     0.163 HD
BRANCH   3   6
ATOM      6  C   UNL A   1      33.243  23.048  26.043  1.00  0.00     0.085 A 
ATOM      7  C   UNL A   1      30.296  24.231  23.213  1.00  0.00     0.067 C 
ATOM      8  C   UNL A   1      31.368  23.822  24.178  1.00  0.00     0.040 A 
ATOM      9  C   UNL A   1      32.257  24.765  24.670  1.00  0.00     0.028 A 
ATOM     10  N   UNL A   1      31.430  22.521  24.527  1.00  0.00    -0.236 NA
ATOM     11  C   UNL A   1      33.255  24.373  25.569  1.00  0.00    -0.033 A 
ATOM     12  C   UNL A   1      32.364  22.122  25.425  1.00  0.00     0.139 A 
ATOM     13  C   UNL A   1      34.301  25.395  25.907  1.00  0.00     0.045 C 
BRANCH  12  14
ATOM     14  N   UNL A   1      32.398  20.774  25.756  1.00  0.00    -0.367 N 
ATOM     15  H   UNL A   1      31.861  20.464  26.521  1.00  0.00     0.162 HD
BRANCH  14  16
ATOM     16  C   UNL A   1      33.195  19.796  25.021  1.00  0.00     0.152 C 
BRANCH  16  17
ATOM     17  C   UNL A   1      32.466  18.427  24.973  1.00  0.00     0.192 C 
ATOM     18  C   UNL A   1      33.298  17.288  25.610  1.00  0.00     0.296 C 
ATOM     19  O   UNL A   1      32.076  18.052  23.628  1.00  0.00    -0.365 OA
ATOM     20  N   UNL A   1      34.487  16.949  24.796  1.00  0.00    -0.333 N 
ATOM     21  C   UNL A   1      33.204  17.726  22.809  1.00  0.00     0.222 C 
ATOM     22  C   UNL A   1      35.240  15.846  25.386  1.00  0.00     0.332 C 
ATOM     23  C   UNL A   1      34.046  16.603  23.429  1.00  0.00     0.290 C 
ATOM     24  H   UNL A   1      35.109  17.756  24.767  1.00  0.00     0.348 HD
ENDBRANCH  16  17
ENDBRANCH  14  16
ENDBRANCH  12  14
ENDBRANCH   3   6
ENDBRANCH   1   2
BRANCH   1  25
ATOM     25  C   UNL A   1      37.028  20.722  25.460  1.00  0.00     0.042 C 
BRANCH  25  26
ATOM     26  C   UNL A   1      38.462  20.919  24.984  1.00  0.00     0.118 C 
BRANCH  26  27
ATOM     27  N   UNL A   1      39.368  19.824  25.313  1.00  0.00    -0.352 N 
ATOM     28  C   UNL A   1      40.564  19.780  25.992  1.00  0.00     0.251 C 
ATOM     29  H   UNL A   1      39.066  18.947  24.984  1.00  0.00     0.163 HD
ATOM     30  O   UNL A   1      41.173  18.713  26.058  1.00  0.00    -0.269 OA
BRANCH  28  31
ATOM     31  C   UNL A   1      41.165  20.991  26.600  1.00  0.00     0.039 A 
ATOM     32  C   UNL A   1      41.794  21.924  25.765  1.00  0.00     0.014 A 
ATOM     33  C   UNL A   1      41.138  21.219  27.973  1.00  0.00     0.014 A 
ATOM     34  C   UNL A   1      42.294  23.118  26.298  1.00  0.00     0.010 A 
ATOM     35  C   UNL A   1      41.516  22.457  28.483  1.00  0.00     0.010 A 
ATOM     36  C   UNL A   1      42.106  23.423  27.654  1.00  0.00    -0.014 A 
BRANCH  36  37
ATOM     37  C   UNL A   1      42.528  24.725  28.237  1.00  0.00     0.031 A 
ATOM     38  C   UNL A   1      41.512  25.812  28.479  1.00  0.00     0.074 A 
ATOM     39  C   UNL A   1      43.835  24.971  28.466  1.00  0.00     0.049 A 
ATOM     40  N   UNL A   1      41.696  27.052  28.859  1.00  0.00    -0.248 NA
ATOM     41  C   UNL A   1      40.103  25.473  28.218  1.00  0.00     0.031 C 
ATOM     42  C   UNL A   1      44.932  24.034  28.214  1.00  0.00     0.029 A 
ATOM     43  N   UNL A   1      44.464  26.091  28.949  1.00  0.00    -0.354 N 
ATOM     44  C   UNL A   1      40.439  27.644  28.842  1.00  0.00     0.074 A 
ATOM     45  C   UNL A   1      39.509  26.648  28.359  1.00  0.00     0.031 C 
ATOM     46  C   UNL A   1      46.092  24.604  28.577  1.00  0.00     0.029 A 
ATOM     47  C   UNL A   1      45.829  25.961  29.046  1.00  0.00     0.049 A 
ATOM     48  H   UNL A   1      43.982  26.911  29.204  1.00  0.00     0.167 HD
ATOM     49  C   UNL A   1      40.081  28.893  29.225  1.00  0.00     0.037 A 
ATOM     50  C   UNL A   1      46.764  26.835  29.462  1.00  0.00     0.037 A 
ATOM     51  C   UNL A   1      40.996  29.865  29.762  1.00  0.00     0.049 A 
ATOM     52  C   UNL A   1      46.339  28.202  29.920  1.00  0.00     0.074 A 
ATOM     53  C   UNL A   1      40.722  31.131  30.250  1.00  0.00     0.029 A 
ATOM     54  N   UNL A   1      42.363  29.674  29.890  1.00  0.00    -0.354 N 
ATOM     55  N   UNL A   1      45.136  28.725  29.959  1.00  0.00    -0.248 NA
ATOM     56  C   UNL A   1      47.399  29.099  30.401  1.00  0.00     0.031 C 
ATOM     57  C   UNL A   1      41.928  31.718  30.645  1.00  0.00     0.029 A 
ATOM     58  C   UNL A   1      42.948  30.802  30.440  1.00  0.00     0.049 A 
ATOM     59  H   UNL A   1      42.846  28.857  29.629  1.00  0.00     0.167 HD
ATOM     60  C   UNL A   1      45.292  29.997  30.493  1.00  0.00     0.074 A 
ATOM     61  C   UNL A   1      46.703  30.162  30.777  1.00  0.00     0.031 C 
ATOM     62  C   UNL A   1      44.352  30.944  30.728  1.00  0.00     0.037 A 
BRANCH  49  63
ATOM     63  C   UNL A   1      38.633  29.270  29.093  1.00  0.00     0.057 A 
ATOM     64  C   UNL A   1      37.759  29.242  30.189  1.00  0.00     0.134 A 
ATOM     65  C   UNL A   1      38.110  29.683  27.862  1.00  0.00     0.134 A 
ATOM     66  F   UNL A   1      38.192  28.843  31.394  1.00  0.00    -0.206 F 
ATOM     67  C   UNL A   1      36.411  29.579  30.056  1.00  0.00     0.040 A 
ATOM     68  C   UNL A   1      36.770  30.052  27.724  1.00  0.00     0.040 A 
ATOM     69  F   UNL A   1      38.892  29.739  26.772  1.00  0.00    -0.206 F 
ATOM     70  C   UNL A   1      35.915  29.991  28.822  1.00  0.00     0.006 A 
ENDBRANCH  49  63
BRANCH  50  71
ATOM     71  C   UNL A   1      48.193  26.435  29.503  1.00  0.00     0.057 A 
ATOM     72  C   UNL A   1      49.044  26.701  28.423  1.00  0.00     0.134 A 
ATOM     73  C   UNL A   1      48.742  25.775  30.607  1.00  0.00     0.134 A 
ATOM     74  F   UNL A   1      48.572  27.314  27.327  1.00  0.00    -0.206 F 
ATOM     75  C   UNL A   1      50.383  26.307  28.431  1.00  0.00     0.040 A 
ATOM     76  C   UNL A   1      50.086  25.397  30.640  1.00  0.00     0.040 A 
ATOM     77  F   UNL A   1      47.982  25.500  31.678  1.00  0.00    -0.206 F 
ATOM     78  C   UNL A   1      50.908  25.657  29.546  1.00  0.00     0.006 A 
ENDBRANCH  50  71
BRANCH  62  79
ATOM     79  C   UNL A   1      44.811  32.225  31.358  1.00  0.00     0.057 A 
ATOM     80  C   UNL A   1      44.871  32.387  32.748  1.00  0.00     0.134 A 
ATOM     81  C   UNL A   1      45.232  33.298  30.562  1.00  0.00     0.134 A 
ATOM     82  F   UNL A   1      44.470  31.401  33.565  1.00  0.00    -0.206 F 
ATOM     83  C   UNL A   1      45.312  33.580  33.323  1.00  0.00     0.040 A 
ATOM     84  C   UNL A   1      45.699  34.486  31.126  1.00  0.00     0.040 A 
ATOM     85  F   UNL A   1      45.208  33.204  29.224  1.00  0.00    -0.206 F 
ATOM     86  C   UNL A   1      45.734  34.630  32.511  1.00  0.00     0.006 A 
ENDBRANCH  62  79
ENDBRANCH  36  37
ENDBRANCH  28  31
ENDBRANCH  26  27
ENDBRANCH  25  26
ENDBRANCH   1  25
TORSDOF 13
ENDMDL
