MODEL 1
REMARK VINA RESULT:     -12.6      0.000      0.000
REMARK SMILES COc1ccc(NC(=O)N[C@@H]2C=C[C@H](C(=O)NCCCNC(=O)c3ccc(-c4c5nc(c(-c6c(F)cccc6F)c6ccc([nH]6)c(-c6c(F)cccc6F)c6nc(c(-c7c(F)cccc7F)c7ccc4[nH]7)C=C6)C=C5)cc3)C2)c(C)c1
REMARK SMILES IDX 18 1 17 2 15 3 16 4 14 6 11 7 12 8 78 9 13 10 10 11 7 12
REMARK SMILES IDX 8 13 9 15 6 17 3 18 4 19 81 20 5 21 79 22 80 23 2 24 1 25
REMARK SMILES IDX 19 26 20 27 21 28 22 29 23 31 24 32 25 33 77 34 26 35 76 36
REMARK SMILES IDX 27 37 28 38 29 39 70 40 30 41 75 42 69 43 71 44 31 45 74 46
REMARK SMILES IDX 68 47 67 48 32 50 58 51 41 52 57 53 42 54 45 55 56 56 72 57
REMARK SMILES IDX 43 58 44 59 55 61 73 62 46 63 33 64 34 65 39 66 35 67 36 68
REMARK SMILES IDX 38 69 40 70 37 71 59 72 60 73 65 74 61 75 62 76 64 77 66 78
REMARK SMILES IDX 63 79 47 80 48 81 53 82 49 83 50 84 52 85 54 86 51 87
REMARK H PARENT 17 5 7 14 10 16 21 30 71 49 45 60
REMARK Flexibility Score: inf
ROOT
ATOM      1  C   UNL A   1      37.788  22.016  25.295  1.00  0.00     0.117 C 
ENDROOT
BRANCH   1   2
ATOM      2  N   UNL A   1      36.653  21.695  26.145  1.00  0.00    -0.356 N 
ATOM      3  C   UNL A   1      35.307  21.800  26.034  1.00  0.00     0.227 C 
ATOM      4  O   UNL A   1      34.679  21.471  27.053  1.00  0.00    -0.274 OA
ATOM      5  H   UNL A   1      36.929  21.307  27.007  1.00  0.00     0.163 HD
BRANCH   3   6
ATOM      6  C   UNL A   1      34.501  22.311  24.824  1.00  0.00     0.103 C 
ATOM      7  C   UNL A   1      32.179  23.212  24.588  1.00  0.00     0.107 C 
ATOM      8  C   UNL A   1      32.324  21.803  24.084  1.00  0.00    -0.006 C 
ATOM      9  C   UNL A   1      33.656  23.576  24.872  1.00  0.00     0.047 C 
ATOM     10  C   UNL A   1      33.554  21.303  24.254  1.00  0.00    -0.016 C 
BRANCH   7  11
ATOM     11  N   UNL A   1      31.317  23.129  25.756  1.00  0.00    -0.332 N 
ATOM     12  N   UNL A   1      30.558  25.269  26.540  1.00  0.00    -0.308 N 
ATOM     13  C   UNL A   1      30.596  23.932  26.543  1.00  0.00     0.319 C 
ATOM     14  H   UNL A   1      29.850  25.627  27.124  1.00  0.00     0.171 HD
ATOM     15  O   UNL A   1      29.821  23.360  27.321  1.00  0.00    -0.248 OA
ATOM     16  H   UNL A   1      31.241  22.194  26.059  1.00  0.00     0.165 HD
BRANCH  12  17
ATOM     17  C   UNL A   1      31.284  26.277  25.903  1.00  0.00     0.046 A 
ATOM     18  C   UNL A   1      33.092  27.774  24.422  1.00  0.00     0.119 A 
ATOM     19  C   UNL A   1      33.329  27.559  25.768  1.00  0.00     0.048 A 
ATOM     20  C   UNL A   1      31.840  27.481  23.890  1.00  0.00     0.052 A 
ATOM     21  C   UNL A   1      32.399  26.839  26.503  1.00  0.00     0.030 A 
ATOM     22  C   UNL A   1      30.897  26.756  24.643  1.00  0.00    -0.024 A 
ATOM     23  C   UNL A   1      29.508  26.614  24.081  1.00  0.00     0.047 C 
BRANCH  18  24
ATOM     24  O   UNL A   1      34.036  28.335  23.610  1.00  0.00    -0.497 OA
ATOM     25  C   UNL A   1      33.799  27.971  22.244  1.00  0.00     0.278 C 
ENDBRANCH  18  24
ENDBRANCH  12  17
ENDBRANCH   7  11
ENDBRANCH   3   6
ENDBRANCH   1   2
BRANCH   1  26
ATOM     26  C   UNL A   1      38.841  22.824  26.025  1.00  0.00     0.042 C 
BRANCH  26  27
ATOM     27  C   UNL A   1      39.785  22.015  26.890  1.00  0.00     0.118 C 
BRANCH  27  28
ATOM     28  N   UNL A   1      40.482  20.946  26.153  1.00  0.00    -0.352 N 
ATOM     29  C   UNL A   1      41.837  20.737  26.013  1.00  0.00     0.251 C 
ATOM     30  H   UNL A   1      39.902  20.293  25.700  1.00  0.00     0.163 HD
ATOM     31  O   UNL A   1      42.282  19.760  25.444  1.00  0.00    -0.269 OA
BRANCH  29  32
ATOM     32  C   UNL A   1      42.746  21.686  26.702  1.00  0.00     0.039 A 
ATOM     33  C   UNL A   1      42.854  21.567  28.088  1.00  0.00     0.014 A 
ATOM     34  C   UNL A   1      43.121  22.855  26.045  1.00  0.00     0.014 A 
ATOM     35  C   UNL A   1      43.049  22.718  28.838  1.00  0.00     0.010 A 
ATOM     36  C   UNL A   1      43.194  24.014  26.792  1.00  0.00     0.010 A 
ATOM     37  C   UNL A   1      43.075  23.952  28.186  1.00  0.00    -0.014 A 
BRANCH  37  38
ATOM     38  C   UNL A   1      42.806  25.203  28.889  1.00  0.00     0.031 A 
ATOM     39  C   UNL A   1      41.611  26.006  28.565  1.00  0.00     0.074 A 
ATOM     40  C   UNL A   1      43.660  25.666  29.833  1.00  0.00     0.049 A 
ATOM     41  N   UNL A   1      41.597  27.298  28.592  1.00  0.00    -0.248 NA
ATOM     42  C   UNL A   1      40.345  25.415  28.146  1.00  0.00     0.031 C 
ATOM     43  C   UNL A   1      43.434  26.784  30.746  1.00  0.00     0.029 A 
ATOM     44  N   UNL A   1      45.009  25.334  30.016  1.00  0.00    -0.354 N 
ATOM     45  C   UNL A   1      40.289  27.690  28.460  1.00  0.00     0.074 A 
ATOM     46  C   UNL A   1      39.557  26.493  28.112  1.00  0.00     0.031 C 
ATOM     47  C   UNL A   1      44.619  27.232  31.186  1.00  0.00     0.029 A 
ATOM     48  C   UNL A   1      45.654  26.500  30.478  1.00  0.00     0.049 A 
ATOM     49  H   UNL A   1      45.425  24.456  29.853  1.00  0.00     0.167 HD
ATOM     50  C   UNL A   1      39.908  28.952  28.797  1.00  0.00     0.037 A 
ATOM     51  C   UNL A   1      46.707  27.063  29.822  1.00  0.00     0.037 A 
ATOM     52  C   UNL A   1      41.011  29.746  29.316  1.00  0.00     0.049 A 
ATOM     53  C   UNL A   1      46.482  28.497  29.411  1.00  0.00     0.074 A 
ATOM     54  C   UNL A   1      41.433  30.010  30.608  1.00  0.00     0.029 A 
ATOM     55  N   UNL A   1      42.048  30.136  28.477  1.00  0.00    -0.354 N 
ATOM     56  N   UNL A   1      45.307  29.056  29.351  1.00  0.00    -0.248 NA
ATOM     57  C   UNL A   1      47.550  29.397  28.980  1.00  0.00     0.031 C 
ATOM     58  C   UNL A   1      42.739  30.546  30.550  1.00  0.00     0.029 A 
ATOM     59  C   UNL A   1      43.111  30.615  29.220  1.00  0.00     0.049 A 
ATOM     60  H   UNL A   1      42.028  30.079  27.495  1.00  0.00     0.167 HD
ATOM     61  C   UNL A   1      45.428  30.321  28.833  1.00  0.00     0.074 A 
ATOM     62  C   UNL A   1      46.854  30.499  28.650  1.00  0.00     0.031 C 
ATOM     63  C   UNL A   1      44.328  31.091  28.581  1.00  0.00     0.037 A 
BRANCH  50  64
ATOM     64  C   UNL A   1      38.455  29.297  28.943  1.00  0.00     0.057 A 
ATOM     65  C   UNL A   1      37.702  29.797  27.867  1.00  0.00     0.134 A 
ATOM     66  C   UNL A   1      37.769  29.212  30.166  1.00  0.00     0.134 A 
ATOM     67  F   UNL A   1      38.201  29.869  26.627  1.00  0.00    -0.206 F 
ATOM     68  C   UNL A   1      36.398  30.281  28.022  1.00  0.00     0.040 A 
ATOM     69  C   UNL A   1      36.482  29.735  30.346  1.00  0.00     0.040 A 
ATOM     70  F   UNL A   1      38.337  28.631  31.234  1.00  0.00    -0.206 F 
ATOM     71  C   UNL A   1      35.797  30.287  29.272  1.00  0.00     0.006 A 
ENDBRANCH  50  64
BRANCH  51  72
ATOM     72  C   UNL A   1      47.520  26.088  29.055  1.00  0.00     0.057 A 
ATOM     73  C   UNL A   1      47.248  25.902  27.690  1.00  0.00     0.134 A 
ATOM     74  C   UNL A   1      48.751  25.630  29.531  1.00  0.00     0.134 A 
ATOM     75  F   UNL A   1      46.084  26.321  27.171  1.00  0.00    -0.206 F 
ATOM     76  C   UNL A   1      48.203  25.383  26.813  1.00  0.00     0.040 A 
ATOM     77  C   UNL A   1      49.713  25.104  28.663  1.00  0.00     0.040 A 
ATOM     78  F   UNL A   1      49.089  25.793  30.818  1.00  0.00    -0.206 F 
ATOM     79  C   UNL A   1      49.455  25.014  27.295  1.00  0.00     0.006 A 
ENDBRANCH  51  72
BRANCH  63  80
ATOM     80  C   UNL A   1      44.287  32.390  27.811  1.00  0.00     0.057 A 
ATOM     81  C   UNL A   1      44.636  32.525  26.460  1.00  0.00     0.134 A 
ATOM     82  C   UNL A   1      43.733  33.552  28.401  1.00  0.00     0.134 A 
ATOM     83  F   UNL A   1      45.074  31.486  25.739  1.00  0.00    -0.206 F 
ATOM     84  C   UNL A   1      44.494  33.734  25.762  1.00  0.00     0.040 A 
ATOM     85  C   UNL A   1      43.537  34.746  27.700  1.00  0.00     0.040 A 
ATOM     86  F   UNL A   1      43.332  33.573  29.680  1.00  0.00    -0.206 F 
ATOM     87  C   UNL A   1      43.930  34.846  26.376  1.00  0.00     0.006 A 
ENDBRANCH  63  80
ENDBRANCH  37  38
ENDBRANCH  29  32
ENDBRANCH  27  28
ENDBRANCH  26  27
ENDBRANCH   1  26
TORSDOF 13
ENDMDL
MODEL 2
REMARK VINA RESULT:     -12.6      2.460      3.983
REMARK SMILES COc1ccc(NC(=O)N[C@@H]2C=C[C@H](C(=O)NCCCNC(=O)c3ccc(-c4c5nc(c(-c6c(F)cccc6F)c6ccc([nH]6)c(-c6c(F)cccc6F)c6nc(c(-c7c(F)cccc7F)c7ccc4[nH]7)C=C6)C=C5)cc3)C2)c(C)c1
REMARK SMILES IDX 18 1 17 2 15 3 16 4 14 6 11 7 12 8 78 9 13 10 10 11 7 12
REMARK SMILES IDX 8 13 9 15 6 17 3 18 4 19 81 20 5 21 79 22 80 23 2 24 1 25
REMARK SMILES IDX 19 26 20 27 21 28 22 29 23 31 24 32 25 33 77 34 26 35 76 36
REMARK SMILES IDX 27 37 28 38 29 39 70 40 30 41 75 42 69 43 71 44 31 45 74 46
REMARK SMILES IDX 68 47 67 48 32 50 58 51 41 52 57 53 42 54 45 55 56 56 72 57
REMARK SMILES IDX 43 58 44 59 55 61 73 62 46 63 33 64 34 65 39 66 35 67 36 68
REMARK SMILES IDX 38 69 40 70 37 71 59 72 60 73 65 74 61 75 62 76 64 77 66 78
REMARK SMILES IDX 63 79 47 80 48 81 53 82 49 83 50 84 52 85 54 86 51 87
REMARK H PARENT 17 5 7 14 10 16 21 30 71 49 45 60
REMARK Flexibility Score: inf
ROOT
ATOM      1  C   UNL A   1      37.390  21.529  25.104  1.00  0.00     0.117 C 
ENDROOT
BRANCH   1   2
ATOM      2  N   UNL A   1      36.474  22.055  26.102  1.00  0.00    -0.356 N 
ATOM      3  C   UNL A   1      35.193  22.495  26.096  1.00  0.00     0.227 C 
ATOM      4  O   UNL A   1      34.799  22.945  27.184  1.00  0.00    -0.274 OA
ATOM      5  H   UNL A   1      36.883  22.102  26.997  1.00  0.00     0.163 HD
BRANCH   3   6
ATOM      6  C   UNL A   1      34.217  22.531  24.904  1.00  0.00     0.103 C 
ATOM      7  C   UNL A   1      31.742  22.858  24.744  1.00  0.00     0.107 C 
ATOM      8  C   UNL A   1      32.168  21.430  24.543  1.00  0.00    -0.006 C 
ATOM      9  C   UNL A   1      33.115  23.572  24.774  1.00  0.00     0.047 C 
ATOM     10  C   UNL A   1      33.487  21.246  24.676  1.00  0.00    -0.016 C 
BRANCH   7  11
ATOM     11  N   UNL A   1      30.997  22.877  25.993  1.00  0.00    -0.332 N 
ATOM     12  N   UNL A   1      29.740  24.898  26.326  1.00  0.00    -0.308 N 
ATOM     13  C   UNL A   1      30.133  23.659  26.645  1.00  0.00     0.319 C 
ATOM     14  H   UNL A   1      28.995  25.214  26.887  1.00  0.00     0.171 HD
ATOM     15  O   UNL A   1      29.579  23.141  27.624  1.00  0.00    -0.248 OA
ATOM     16  H   UNL A   1      31.188  22.065  26.517  1.00  0.00     0.165 HD
BRANCH  12  17
ATOM     17  C   UNL A   1      30.138  25.849  25.384  1.00  0.00     0.046 A 
ATOM     18  C   UNL A   1      30.417  28.078  23.754  1.00  0.00     0.119 A 
ATOM     19  C   UNL A   1      29.671  27.000  23.311  1.00  0.00     0.048 A 
ATOM     20  C   UNL A   1      31.233  27.933  24.872  1.00  0.00     0.052 A 
ATOM     21  C   UNL A   1      29.569  25.879  24.121  1.00  0.00     0.030 A 
ATOM     22  C   UNL A   1      31.132  26.790  25.687  1.00  0.00    -0.024 A 
ATOM     23  C   UNL A   1      32.151  26.614  26.780  1.00  0.00     0.047 C 
BRANCH  18  24
ATOM     24  O   UNL A   1      30.428  29.266  23.081  1.00  0.00    -0.497 OA
ATOM     25  C   UNL A   1      29.161  29.495  22.453  1.00  0.00     0.278 C 
ENDBRANCH  18  24
ENDBRANCH  12  17
ENDBRANCH   7  11
ENDBRANCH   3   6
ENDBRANCH   1   2
BRANCH   1  26
ATOM     26  C   UNL A   1      38.809  21.425  25.625  1.00  0.00     0.042 C 
BRANCH  26  27
ATOM     27  C   UNL A   1      39.256  22.576  26.503  1.00  0.00     0.118 C 
BRANCH  27  28
ATOM     28  N   UNL A   1      40.683  22.907  26.351  1.00  0.00    -0.352 N 
ATOM     29  C   UNL A   1      41.302  24.133  26.476  1.00  0.00     0.251 C 
ATOM     30  H   UNL A   1      41.275  22.152  26.130  1.00  0.00     0.163 HD
ATOM     31  O   UNL A   1      42.509  24.254  26.408  1.00  0.00    -0.269 OA
BRANCH  29  32
ATOM     32  C   UNL A   1      40.448  25.293  26.832  1.00  0.00     0.039 A 
ATOM     33  C   UNL A   1      40.748  26.511  26.221  1.00  0.00     0.014 A 
ATOM     34  C   UNL A   1      39.687  25.234  27.996  1.00  0.00     0.014 A 
ATOM     35  C   UNL A   1      40.543  27.679  26.941  1.00  0.00     0.010 A 
ATOM     36  C   UNL A   1      39.595  26.381  28.759  1.00  0.00     0.010 A 
ATOM     37  C   UNL A   1      40.099  27.590  28.262  1.00  0.00    -0.014 A 
BRANCH  37  38
ATOM     38  C   UNL A   1      40.300  28.674  29.219  1.00  0.00     0.031 A 
ATOM     39  C   UNL A   1      39.238  29.669  29.462  1.00  0.00     0.074 A 
ATOM     40  C   UNL A   1      41.474  28.806  29.882  1.00  0.00     0.049 A 
ATOM     41  N   UNL A   1      39.476  30.914  29.714  1.00  0.00    -0.248 NA
ATOM     42  C   UNL A   1      37.816  29.346  29.402  1.00  0.00     0.031 C 
ATOM     43  C   UNL A   1      41.754  29.709  30.995  1.00  0.00     0.029 A 
ATOM     44  N   UNL A   1      42.725  28.279  29.537  1.00  0.00    -0.354 N 
ATOM     45  C   UNL A   1      38.291  31.482  30.102  1.00  0.00     0.074 A 
ATOM     46  C   UNL A   1      37.274  30.492  29.823  1.00  0.00     0.031 C 
ATOM     47  C   UNL A   1      43.080  29.900  31.076  1.00  0.00     0.029 A 
ATOM     48  C   UNL A   1      43.689  29.224  29.946  1.00  0.00     0.049 A 
ATOM     49  H   UNL A   1      42.898  27.416  29.093  1.00  0.00     0.167 HD
ATOM     50  C   UNL A   1      38.277  32.674  30.760  1.00  0.00     0.037 A 
ATOM     51  C   UNL A   1      44.576  29.787  29.078  1.00  0.00     0.037 A 
ATOM     52  C   UNL A   1      39.615  33.190  31.002  1.00  0.00     0.049 A 
ATOM     53  C   UNL A   1      44.511  31.294  29.020  1.00  0.00     0.074 A 
ATOM     54  C   UNL A   1      40.455  33.104  32.100  1.00  0.00     0.029 A 
ATOM     55  N   UNL A   1      40.399  33.629  29.941  1.00  0.00    -0.354 N 
ATOM     56  N   UNL A   1      43.503  31.991  29.460  1.00  0.00    -0.248 NA
ATOM     57  C   UNL A   1      45.546  32.130  28.415  1.00  0.00     0.031 C 
ATOM     58  C   UNL A   1      41.756  33.476  31.695  1.00  0.00     0.029 A 
ATOM     59  C   UNL A   1      41.708  33.796  30.351  1.00  0.00     0.049 A 
ATOM     60  H   UNL A   1      40.068  33.796  29.030  1.00  0.00     0.167 HD
ATOM     61  C   UNL A   1      43.696  33.316  29.157  1.00  0.00     0.074 A 
ATOM     62  C   UNL A   1      45.004  33.355  28.534  1.00  0.00     0.031 C 
ATOM     63  C   UNL A   1      42.738  34.251  29.429  1.00  0.00     0.037 A 
BRANCH  50  64
ATOM     64  C   UNL A   1      37.031  33.152  31.447  1.00  0.00     0.057 A 
ATOM     65  C   UNL A   1      36.787  32.886  32.805  1.00  0.00     0.134 A 
ATOM     66  C   UNL A   1      36.001  33.830  30.774  1.00  0.00     0.134 A 
ATOM     67  F   UNL A   1      37.706  32.310  33.589  1.00  0.00    -0.206 F 
ATOM     68  C   UNL A   1      35.564  33.174  33.420  1.00  0.00     0.040 A 
ATOM     69  C   UNL A   1      34.755  34.082  31.364  1.00  0.00     0.040 A 
ATOM     70  F   UNL A   1      36.166  34.255  29.512  1.00  0.00    -0.206 F 
ATOM     71  C   UNL A   1      34.529  33.740  32.690  1.00  0.00     0.006 A 
ENDBRANCH  50  64
BRANCH  51  72
ATOM     72  C   UNL A   1      44.916  28.918  27.926  1.00  0.00     0.057 A 
ATOM     73  C   UNL A   1      45.856  27.890  28.104  1.00  0.00     0.134 A 
ATOM     74  C   UNL A   1      44.092  28.844  26.800  1.00  0.00     0.134 A 
ATOM     75  F   UNL A   1      46.675  27.902  29.168  1.00  0.00    -0.206 F 
ATOM     76  C   UNL A   1      45.902  26.778  27.261  1.00  0.00     0.040 A 
ATOM     77  C   UNL A   1      44.133  27.738  25.944  1.00  0.00     0.040 A 
ATOM     78  F   UNL A   1      43.157  29.778  26.575  1.00  0.00    -0.206 F 
ATOM     79  C   UNL A   1      45.012  26.685  26.194  1.00  0.00     0.006 A 
ENDBRANCH  51  72
BRANCH  63  80
ATOM     80  C   UNL A   1      42.708  35.684  28.954  1.00  0.00     0.057 A 
ATOM     81  C   UNL A   1      41.893  36.163  27.918  1.00  0.00     0.134 A 
ATOM     82  C   UNL A   1      43.424  36.684  29.656  1.00  0.00     0.134 A 
ATOM     83  F   UNL A   1      41.078  35.351  27.232  1.00  0.00    -0.206 F 
ATOM     84  C   UNL A   1      41.833  37.521  27.573  1.00  0.00     0.040 A 
ATOM     85  C   UNL A   1      43.329  38.046  29.355  1.00  0.00     0.040 A 
ATOM     86  F   UNL A   1      44.230  36.385  30.685  1.00  0.00    -0.206 F 
ATOM     87  C   UNL A   1      42.540  38.470  28.299  1.00  0.00     0.006 A 
ENDBRANCH  63  80
ENDBRANCH  37  38
ENDBRANCH  29  32
ENDBRANCH  27  28
ENDBRANCH  26  27
ENDBRANCH   1  26
TORSDOF 13
ENDMDL
MODEL 3
REMARK VINA RESULT:     -12.6      2.653      4.243
REMARK SMILES COc1ccc(NC(=O)N[C@@H]2C=C[C@H](C(=O)NCCCNC(=O)c3ccc(-c4c5nc(c(-c6c(F)cccc6F)c6ccc([nH]6)c(-c6c(F)cccc6F)c6nc(c(-c7c(F)cccc7F)c7ccc4[nH]7)C=C6)C=C5)cc3)C2)c(C)c1
REMARK SMILES IDX 18 1 17 2 15 3 16 4 14 6 11 7 12 8 78 9 13 10 10 11 7 12
REMARK SMILES IDX 8 13 9 15 6 17 3 18 4 19 81 20 5 21 79 22 80 23 2 24 1 25
REMARK SMILES IDX 19 26 20 27 21 28 22 29 23 31 24 32 25 33 77 34 26 35 76 36
REMARK SMILES IDX 27 37 28 38 29 39 70 40 30 41 75 42 69 43 71 44 31 45 74 46
REMARK SMILES IDX 68 47 67 48 32 50 58 51 41 52 57 53 42 54 45 55 56 56 72 57
REMARK SMILES IDX 43 58 44 59 55 61 73 62 46 63 33 64 34 65 39 66 35 67 36 68
REMARK SMILES IDX 38 69 40 70 37 71 59 72 60 73 65 74 61 75 62 76 64 77 66 78
REMARK SMILES IDX 63 79 47 80 48 81 53 82 49 83 50 84 52 85 54 86 51 87
REMARK H PARENT 17 5 7 14 10 16 21 30 71 49 45 60
REMARK Flexibility Score: inf
ROOT
ATOM      1  C   UNL A   1      37.338  21.467  25.113  1.00  0.00     0.117 C 
ENDROOT
BRANCH   1   2
ATOM      2  N   UNL A   1      36.360  21.739  26.153  1.00  0.00    -0.356 N 
ATOM      3  C   UNL A   1      35.057  22.109  26.176  1.00  0.00     0.227 C 
ATOM      4  O   UNL A   1      34.600  22.315  27.312  1.00  0.00    -0.274 OA
ATOM      5  H   UNL A   1      36.734  21.628  27.058  1.00  0.00     0.163 HD
BRANCH   3   6
ATOM      6  C   UNL A   1      34.122  22.333  24.972  1.00  0.00     0.103 C 
ATOM      7  C   UNL A   1      31.694  22.909  24.790  1.00  0.00     0.107 C 
ATOM      8  C   UNL A   1      31.988  21.467  24.481  1.00  0.00    -0.006 C 
ATOM      9  C   UNL A   1      33.127  23.483  24.905  1.00  0.00     0.047 C 
ATOM     10  C   UNL A   1      33.280  21.147  24.625  1.00  0.00    -0.016 C 
BRANCH   7  11
ATOM     11  N   UNL A   1      30.920  22.901  26.021  1.00  0.00    -0.332 N 
ATOM     12  N   UNL A   1      29.688  24.931  26.390  1.00  0.00    -0.308 N 
ATOM     13  C   UNL A   1      30.053  23.676  26.678  1.00  0.00     0.319 C 
ATOM     14  H   UNL A   1      28.935  25.241  26.943  1.00  0.00     0.171 HD
ATOM     15  O   UNL A   1      29.468  23.137  27.627  1.00  0.00    -0.248 OA
ATOM     16  H   UNL A   1      31.085  22.070  26.523  1.00  0.00     0.165 HD
BRANCH  12  17
ATOM     17  C   UNL A   1      30.123  25.904  25.488  1.00  0.00     0.046 A 
ATOM     18  C   UNL A   1      30.503  28.195  23.968  1.00  0.00     0.119 A 
ATOM     19  C   UNL A   1      29.683  27.189  23.489  1.00  0.00     0.048 A 
ATOM     20  C   UNL A   1      31.334  27.943  25.056  1.00  0.00     0.052 A 
ATOM     21  C   UNL A   1      29.530  26.035  24.243  1.00  0.00     0.030 A 
ATOM     22  C   UNL A   1      31.179  26.766  25.814  1.00  0.00    -0.024 A 
ATOM     23  C   UNL A   1      32.209  26.471  26.871  1.00  0.00     0.047 C 
BRANCH  18  24
ATOM     24  O   UNL A   1      30.573  29.414  23.357  1.00  0.00    -0.497 OA
ATOM     25  C   UNL A   1      29.872  29.386  22.107  1.00  0.00     0.278 C 
ENDBRANCH  18  24
ENDBRANCH  12  17
ENDBRANCH   7  11
ENDBRANCH   3   6
ENDBRANCH   1   2
BRANCH   1  26
ATOM     26  C   UNL A   1      38.760  21.665  25.598  1.00  0.00     0.042 C 
BRANCH  26  27
ATOM     27  C   UNL A   1      39.045  23.017  26.217  1.00  0.00     0.118 C 
BRANCH  27  28
ATOM     28  N   UNL A   1      40.481  23.271  26.429  1.00  0.00    -0.352 N 
ATOM     29  C   UNL A   1      41.097  24.422  26.874  1.00  0.00     0.251 C 
ATOM     30  H   UNL A   1      41.082  22.518  26.226  1.00  0.00     0.163 HD
ATOM     31  O   UNL A   1      42.292  24.471  27.087  1.00  0.00    -0.269 OA
BRANCH  29  32
ATOM     32  C   UNL A   1      40.223  25.572  27.214  1.00  0.00     0.039 A 
ATOM     33  C   UNL A   1      40.459  26.768  26.535  1.00  0.00     0.014 A 
ATOM     34  C   UNL A   1      39.517  25.547  28.414  1.00  0.00     0.014 A 
ATOM     35  C   UNL A   1      40.249  27.963  27.209  1.00  0.00     0.010 A 
ATOM     36  C   UNL A   1      39.423  26.726  29.126  1.00  0.00     0.010 A 
ATOM     37  C   UNL A   1      39.867  27.924  28.551  1.00  0.00    -0.014 A 
BRANCH  37  38
ATOM     38  C   UNL A   1      40.075  29.058  29.447  1.00  0.00     0.031 A 
ATOM     39  C   UNL A   1      39.010  30.056  29.656  1.00  0.00     0.074 A 
ATOM     40  C   UNL A   1      41.259  29.232  30.081  1.00  0.00     0.049 A 
ATOM     41  N   UNL A   1      39.243  31.315  29.839  1.00  0.00    -0.248 NA
ATOM     42  C   UNL A   1      37.590  29.721  29.638  1.00  0.00     0.031 C 
ATOM     43  C   UNL A   1      41.552  30.194  31.141  1.00  0.00     0.029 A 
ATOM     44  N   UNL A   1      42.509  28.697  29.741  1.00  0.00    -0.354 N 
ATOM     45  C   UNL A   1      38.060  31.894  30.218  1.00  0.00     0.074 A 
ATOM     46  C   UNL A   1      37.046  30.884  30.009  1.00  0.00     0.031 C 
ATOM     47  C   UNL A   1      42.877  30.398  31.188  1.00  0.00     0.029 A 
ATOM     48  C   UNL A   1      43.472  29.668  30.084  1.00  0.00     0.049 A 
ATOM     49  H   UNL A   1      42.681  27.813  29.341  1.00  0.00     0.167 HD
ATOM     50  C   UNL A   1      38.048  33.118  30.813  1.00  0.00     0.037 A 
ATOM     51  C   UNL A   1      44.340  30.192  29.173  1.00  0.00     0.037 A 
ATOM     52  C   UNL A   1      39.386  33.656  31.004  1.00  0.00     0.049 A 
ATOM     53  C   UNL A   1      44.262  31.693  29.038  1.00  0.00     0.074 A 
ATOM     54  C   UNL A   1      40.245  33.633  32.090  1.00  0.00     0.029 A 
ATOM     55  N   UNL A   1      40.148  34.044  29.908  1.00  0.00    -0.354 N 
ATOM     56  N   UNL A   1      43.256  32.405  29.458  1.00  0.00    -0.248 NA
ATOM     57  C   UNL A   1      45.279  32.504  28.371  1.00  0.00     0.031 C 
ATOM     58  C   UNL A   1      41.536  33.992  31.644  1.00  0.00     0.029 A 
ATOM     59  C   UNL A   1      41.463  34.241  30.285  1.00  0.00     0.049 A 
ATOM     60  H   UNL A   1      39.800  34.161  28.996  1.00  0.00     0.167 HD
ATOM     61  C   UNL A   1      43.433  33.713  29.083  1.00  0.00     0.074 A 
ATOM     62  C   UNL A   1      44.730  33.729  28.436  1.00  0.00     0.031 C 
ATOM     63  C   UNL A   1      42.473  34.655  29.323  1.00  0.00     0.037 A 
BRANCH  50  64
ATOM     64  C   UNL A   1      36.810  33.623  31.496  1.00  0.00     0.057 A 
ATOM     65  C   UNL A   1      35.737  34.169  30.773  1.00  0.00     0.134 A 
ATOM     66  C   UNL A   1      36.666  33.648  32.893  1.00  0.00     0.134 A 
ATOM     67  F   UNL A   1      35.703  34.150  29.435  1.00  0.00    -0.206 F 
ATOM     68  C   UNL A   1      34.652  34.796  31.395  1.00  0.00     0.040 A 
ATOM     69  C   UNL A   1      35.610  34.313  33.529  1.00  0.00     0.040 A 
ATOM     70  F   UNL A   1      37.561  33.042  33.689  1.00  0.00    -0.206 F 
ATOM     71  C   UNL A   1      34.603  34.904  32.777  1.00  0.00     0.006 A 
ENDBRANCH  50  64
BRANCH  51  72
ATOM     72  C   UNL A   1      44.666  29.266  28.061  1.00  0.00     0.057 A 
ATOM     73  C   UNL A   1      45.617  28.254  28.277  1.00  0.00     0.134 A 
ATOM     74  C   UNL A   1      43.825  29.129  26.954  1.00  0.00     0.134 A 
ATOM     75  F   UNL A   1      46.453  28.327  29.324  1.00  0.00    -0.206 F 
ATOM     76  C   UNL A   1      45.656  27.101  27.491  1.00  0.00     0.040 A 
ATOM     77  C   UNL A   1      43.858  27.980  26.157  1.00  0.00     0.040 A 
ATOM     78  F   UNL A   1      42.879  30.044  26.698  1.00  0.00    -0.206 F 
ATOM     79  C   UNL A   1      44.749  26.946  26.446  1.00  0.00     0.006 A 
ENDBRANCH  51  72
BRANCH  63  80
ATOM     80  C   UNL A   1      42.424  36.061  28.775  1.00  0.00     0.057 A 
ATOM     81  C   UNL A   1      43.032  37.172  29.378  1.00  0.00     0.134 A 
ATOM     82  C   UNL A   1      41.861  36.311  27.500  1.00  0.00     0.134 A 
ATOM     83  F   UNL A   1      43.696  37.069  30.535  1.00  0.00    -0.206 F 
ATOM     84  C   UNL A   1      43.037  38.443  28.783  1.00  0.00     0.040 A 
ATOM     85  C   UNL A   1      41.908  37.561  26.875  1.00  0.00     0.040 A 
ATOM     86  F   UNL A   1      41.262  35.344  26.791  1.00  0.00    -0.206 F 
ATOM     87  C   UNL A   1      42.487  38.639  27.523  1.00  0.00     0.006 A 
ENDBRANCH  63  80
ENDBRANCH  37  38
ENDBRANCH  29  32
ENDBRANCH  27  28
ENDBRANCH  26  27
ENDBRANCH   1  26
TORSDOF 13
ENDMDL
