MODEL 1
REMARK VINA RESULT:     -12.4      0.000      0.000
REMARK SMILES Cc1ccc(OC2(C(=O)NCCCNC(=O)c3ccc(-c4c5nc(c(-c6c(F)cccc6F)c6ccc([nH]6)c(-c6c(F)cccc6F)c6nc(c(-c7c(F)cccc7F)c7ccc4[nH]7)C=C6)C=C5)cc3)CC[NH+](C[C@@H]3CC=CCC3)CC2)cn1
REMARK SMILES IDX 12 1 11 2 10 3 8 4 9 5 7 7 71 8 82 9 72 10 81 11 73 12 6 14
REMARK SMILES IDX 5 15 1 16 2 17 3 18 84 19 4 20 83 21 74 22 75 23 76 24 80 25
REMARK SMILES IDX 77 26 79 27 78 28 13 29 14 30 15 31 16 33 17 34 18 35 70 36
REMARK SMILES IDX 19 37 69 38 20 39 21 40 22 41 63 42 23 43 68 44 62 45 64 46
REMARK SMILES IDX 24 47 67 48 61 49 60 50 25 52 51 53 34 54 50 55 35 56 38 57
REMARK SMILES IDX 49 58 65 59 36 60 37 61 48 63 66 64 39 65 26 66 27 67 32 68
REMARK SMILES IDX 28 69 29 70 31 71 33 72 30 73 52 74 53 75 58 76 54 77 55 78
REMARK SMILES IDX 57 79 59 80 56 81 40 82 41 83 46 84 42 85 43 86 45 87 47 88
REMARK SMILES IDX 44 89
REMARK H PARENT 10 6 73 13 14 32 64 51 38 62
REMARK Flexibility Score: inf
ROOT
ATOM      1  C   UNL A   1      38.981  21.362  26.117  1.00  0.00     0.042 C 
ENDROOT
BRANCH   1   2
ATOM      2  C   UNL A   1      37.863  22.373  25.809  1.00  0.00     0.118 C 
BRANCH   2   3
ATOM      3  N   UNL A   1      37.411  22.435  24.418  1.00  0.00    -0.353 N 
ATOM      4  C   UNL A   1      36.277  22.890  23.793  1.00  0.00     0.264 C 
ATOM      5  O   UNL A   1      36.382  23.024  22.566  1.00  0.00    -0.270 OA
ATOM      6  H   UNL A   1      38.071  22.067  23.787  1.00  0.00     0.163 HD
BRANCH   4   7
ATOM      7  C   UNL A   1      34.927  23.208  24.518  1.00  0.00     0.197 C 
ATOM      8  C   UNL A   1      34.999  24.581  25.149  1.00  0.00     0.120 C 
ATOM      9  C   UNL A   1      33.749  23.236  23.512  1.00  0.00     0.120 C 
ATOM     10  C   UNL A   1      33.720  25.047  25.791  1.00  0.00     0.267 C 
ATOM     11  C   UNL A   1      32.455  23.797  24.156  1.00  0.00     0.267 C 
ATOM     12  N   UNL A   1      32.685  25.110  24.773  1.00  0.00    -0.334 N 
ATOM     13  H   UNL A   1      33.038  25.698  24.017  1.00  0.00     0.348 HD
BRANCH   7  14
ATOM     14  O   UNL A   1      34.574  22.117  25.398  1.00  0.00    -0.475 OA
BRANCH  14  15
ATOM     15  C   UNL A   1      34.202  20.854  25.068  1.00  0.00     0.139 A 
ATOM     16  C   UNL A   1      32.679  16.857  25.027  1.00  0.00     0.066 C 
ATOM     17  C   UNL A   1      33.210  18.258  24.990  1.00  0.00     0.038 A 
ATOM     18  C   UNL A   1      34.519  18.503  24.606  1.00  0.00     0.027 A 
ATOM     19  N   UNL A   1      32.371  19.254  25.344  1.00  0.00    -0.258 NA
ATOM     20  C   UNL A   1      35.009  19.812  24.643  1.00  0.00     0.050 A 
ATOM     21  C   UNL A   1      32.887  20.513  25.381  1.00  0.00     0.157 A 
ENDBRANCH  14  15
ENDBRANCH   7  14
BRANCH  12  22
ATOM     22  C   UNL A   1      31.481  25.849  25.188  1.00  0.00     0.266 C 
BRANCH  22  23
ATOM     23  C   UNL A   1      31.495  27.383  25.472  1.00  0.00     0.048 C 
ATOM     24  C   UNL A   1      32.482  28.198  24.590  1.00  0.00     0.036 C 
ATOM     25  C   UNL A   1      31.566  27.696  26.977  1.00  0.00     0.014 C 
ATOM     26  C   UNL A   1      33.418  29.113  25.328  1.00  0.00    -0.031 C 
ATOM     27  C   UNL A   1      31.892  29.158  27.269  1.00  0.00     0.027 C 
ATOM     28  C   UNL A   1      33.140  29.571  26.555  1.00  0.00    -0.031 C 
ENDBRANCH  22  23
ENDBRANCH  12  22
ENDBRANCH   4   7
ENDBRANCH   2   3
ENDBRANCH   1   2
BRANCH   1  29
ATOM     29  C   UNL A   1      38.947  20.068  25.320  1.00  0.00     0.118 C 
BRANCH  29  30
ATOM     30  N   UNL A   1      40.045  19.188  25.666  1.00  0.00    -0.352 N 
ATOM     31  C   UNL A   1      41.327  19.454  26.077  1.00  0.00     0.251 C 
ATOM     32  H   UNL A   1      39.834  18.229  25.592  1.00  0.00     0.163 HD
ATOM     33  O   UNL A   1      42.145  18.528  26.044  1.00  0.00    -0.269 OA
BRANCH  31  34
ATOM     34  C   UNL A   1      41.780  20.789  26.553  1.00  0.00     0.039 A 
ATOM     35  C   UNL A   1      41.665  21.071  27.922  1.00  0.00     0.014 A 
ATOM     36  C   UNL A   1      42.182  21.813  25.690  1.00  0.00     0.014 A 
ATOM     37  C   UNL A   1      41.957  22.346  28.419  1.00  0.00     0.010 A 
ATOM     38  C   UNL A   1      42.547  23.068  26.196  1.00  0.00     0.010 A 
ATOM     39  C   UNL A   1      42.412  23.359  27.561  1.00  0.00    -0.014 A 
BRANCH  39  40
ATOM     40  C   UNL A   1      42.703  24.727  28.076  1.00  0.00     0.031 A 
ATOM     41  C   UNL A   1      44.108  25.124  28.450  1.00  0.00     0.074 A 
ATOM     42  C   UNL A   1      41.701  25.613  28.239  1.00  0.00     0.049 A 
ATOM     43  N   UNL A   1      44.545  26.254  28.951  1.00  0.00    -0.248 NA
ATOM     44  C   UNL A   1      45.155  24.110  28.260  1.00  0.00     0.031 C 
ATOM     45  C   UNL A   1      40.290  25.355  27.956  1.00  0.00     0.029 A 
ATOM     46  N   UNL A   1      41.718  26.910  28.693  1.00  0.00    -0.354 N 
ATOM     47  C   UNL A   1      45.909  26.079  29.156  1.00  0.00     0.074 A 
ATOM     48  C   UNL A   1      46.218  24.719  28.764  1.00  0.00     0.031 C 
ATOM     49  C   UNL A   1      39.579  26.461  28.224  1.00  0.00     0.029 A 
ATOM     50  C   UNL A   1      40.478  27.497  28.725  1.00  0.00     0.049 A 
ATOM     51  H   UNL A   1      42.542  27.372  28.970  1.00  0.00     0.167 HD
ATOM     52  C   UNL A   1      46.824  26.968  29.611  1.00  0.00     0.037 A 
ATOM     53  C   UNL A   1      40.101  28.730  29.116  1.00  0.00     0.037 A 
ATOM     54  C   UNL A   1      46.531  28.332  29.966  1.00  0.00     0.049 A 
ATOM     55  C   UNL A   1      41.136  29.709  29.595  1.00  0.00     0.074 A 
ATOM     56  C   UNL A   1      47.408  29.328  30.364  1.00  0.00     0.029 A 
ATOM     57  N   UNL A   1      45.264  28.894  29.967  1.00  0.00    -0.354 N 
ATOM     58  N   UNL A   1      42.429  29.545  29.727  1.00  0.00    -0.248 NA
ATOM     59  C   UNL A   1      40.657  31.047  29.973  1.00  0.00     0.031 C 
ATOM     60  C   UNL A   1      46.665  30.482  30.639  1.00  0.00     0.029 A 
ATOM     61  C   UNL A   1      45.331  30.216  30.377  1.00  0.00     0.049 A 
ATOM     62  H   UNL A   1      44.438  28.422  29.712  1.00  0.00     0.167 HD
ATOM     63  C   UNL A   1      42.922  30.758  30.189  1.00  0.00     0.074 A 
ATOM     64  C   UNL A   1      41.790  31.656  30.299  1.00  0.00     0.031 C 
ATOM     65  C   UNL A   1      44.198  31.097  30.493  1.00  0.00     0.037 A 
BRANCH  52  66
ATOM     66  C   UNL A   1      48.240  26.487  29.751  1.00  0.00     0.057 A 
ATOM     67  C   UNL A   1      49.183  26.652  28.727  1.00  0.00     0.134 A 
ATOM     68  C   UNL A   1      48.670  25.866  30.931  1.00  0.00     0.134 A 
ATOM     69  F   UNL A   1      48.832  27.230  27.568  1.00  0.00    -0.206 F 
ATOM     70  C   UNL A   1      50.492  26.189  28.859  1.00  0.00     0.040 A 
ATOM     71  C   UNL A   1      49.985  25.421  31.084  1.00  0.00     0.040 A 
ATOM     72  F   UNL A   1      47.822  25.684  31.954  1.00  0.00    -0.206 F 
ATOM     73  C   UNL A   1      50.898  25.575  30.042  1.00  0.00     0.006 A 
ENDBRANCH  52  66
BRANCH  53  74
ATOM     74  C   UNL A   1      38.671  29.114  29.041  1.00  0.00     0.057 A 
ATOM     75  C   UNL A   1      37.845  29.040  30.167  1.00  0.00     0.134 A 
ATOM     76  C   UNL A   1      38.105  29.586  27.851  1.00  0.00     0.134 A 
ATOM     77  F   UNL A   1      38.329  28.576  31.328  1.00  0.00    -0.206 F 
ATOM     78  C   UNL A   1      36.503  29.419  30.114  1.00  0.00     0.040 A 
ATOM     79  C   UNL A   1      36.769  29.987  27.788  1.00  0.00     0.040 A 
ATOM     80  F   UNL A   1      38.849  29.686  26.739  1.00  0.00    -0.206 F 
ATOM     81  C   UNL A   1      35.965  29.901  28.923  1.00  0.00     0.006 A 
ENDBRANCH  53  74
BRANCH  65  82
ATOM     82  C   UNL A   1      44.439  32.499  30.967  1.00  0.00     0.057 A 
ATOM     83  C   UNL A   1      44.377  32.836  32.325  1.00  0.00     0.134 A 
ATOM     84  C   UNL A   1      44.765  33.515  30.060  1.00  0.00     0.134 A 
ATOM     85  F   UNL A   1      44.056  31.910  33.241  1.00  0.00    -0.206 F 
ATOM     86  C   UNL A   1      44.614  34.140  32.763  1.00  0.00     0.040 A 
ATOM     87  C   UNL A   1      45.023  34.818  30.489  1.00  0.00     0.040 A 
ATOM     88  F   UNL A   1      44.846  33.256  28.746  1.00  0.00    -0.206 F 
ATOM     89  C   UNL A   1      44.943  35.134  31.843  1.00  0.00     0.006 A 
ENDBRANCH  65  82
ENDBRANCH  39  40
ENDBRANCH  31  34
ENDBRANCH  29  30
ENDBRANCH   1  29
TORSDOF 14
ENDMDL
MODEL 2
REMARK VINA RESULT:     -12.3      0.339      6.043
REMARK SMILES Cc1ccc(OC2(C(=O)NCCCNC(=O)c3ccc(-c4c5nc(c(-c6c(F)cccc6F)c6ccc([nH]6)c(-c6c(F)cccc6F)c6nc(c(-c7c(F)cccc7F)c7ccc4[nH]7)C=C6)C=C5)cc3)CC[NH+](C[C@@H]3CC=CCC3)CC2)cn1
REMARK SMILES IDX 12 1 11 2 10 3 8 4 9 5 7 7 71 8 82 9 72 10 81 11 73 12 6 14
REMARK SMILES IDX 5 15 1 16 2 17 3 18 84 19 4 20 83 21 74 22 75 23 76 24 80 25
REMARK SMILES IDX 77 26 79 27 78 28 13 29 14 30 15 31 16 33 17 34 18 35 70 36
REMARK SMILES IDX 19 37 69 38 20 39 21 40 22 41 63 42 23 43 68 44 62 45 64 46
REMARK SMILES IDX 24 47 67 48 61 49 60 50 25 52 51 53 34 54 50 55 35 56 38 57
REMARK SMILES IDX 49 58 65 59 36 60 37 61 48 63 66 64 39 65 26 66 27 67 32 68
REMARK SMILES IDX 28 69 29 70 31 71 33 72 30 73 52 74 53 75 58 76 54 77 55 78
REMARK SMILES IDX 57 79 59 80 56 81 40 82 41 83 46 84 42 85 43 86 45 87 47 88
REMARK SMILES IDX 44 89
REMARK H PARENT 10 6 73 13 14 32 64 51 38 62
REMARK Flexibility Score: inf
ROOT
ATOM      1  C   UNL A   1      38.847  21.537  26.169  1.00  0.00     0.042 C 
ENDROOT
BRANCH   1   2
ATOM      2  C   UNL A   1      37.837  22.637  25.798  1.00  0.00     0.118 C 
BRANCH   2   3
ATOM      3  N   UNL A   1      37.334  22.618  24.423  1.00  0.00    -0.353 N 
ATOM      4  C   UNL A   1      36.164  23.008  23.820  1.00  0.00     0.264 C 
ATOM      5  O   UNL A   1      36.221  23.085  22.585  1.00  0.00    -0.270 OA
ATOM      6  H   UNL A   1      37.982  22.240  23.786  1.00  0.00     0.163 HD
BRANCH   4   7
ATOM      7  C   UNL A   1      34.831  23.321  24.580  1.00  0.00     0.197 C 
ATOM      8  C   UNL A   1      34.928  24.677  25.241  1.00  0.00     0.120 C 
ATOM      9  C   UNL A   1      33.635  23.383  23.598  1.00  0.00     0.120 C 
ATOM     10  C   UNL A   1      33.667  25.139  25.919  1.00  0.00     0.267 C 
ATOM     11  C   UNL A   1      32.358  23.940  24.281  1.00  0.00     0.267 C 
ATOM     12  N   UNL A   1      32.613  25.236  24.925  1.00  0.00    -0.334 N 
ATOM     13  H   UNL A   1      32.956  25.838  24.176  1.00  0.00     0.348 HD
BRANCH   7  14
ATOM     14  O   UNL A   1      34.486  22.211  25.440  1.00  0.00    -0.475 OA
BRANCH  14  15
ATOM     15  C   UNL A   1      34.151  20.944  25.089  1.00  0.00     0.139 A 
ATOM     16  C   UNL A   1      32.716  16.916  24.968  1.00  0.00     0.066 C 
ATOM     17  C   UNL A   1      33.218  18.329  24.959  1.00  0.00     0.038 A 
ATOM     18  C   UNL A   1      34.534  18.604  24.620  1.00  0.00     0.027 A 
ATOM     19  N   UNL A   1      32.348  19.304  25.293  1.00  0.00    -0.258 NA
ATOM     20  C   UNL A   1      34.994  19.922  24.682  1.00  0.00     0.050 A 
ATOM     21  C   UNL A   1      32.835  20.573  25.356  1.00  0.00     0.157 A 
ENDBRANCH  14  15
ENDBRANCH   7  14
BRANCH  12  22
ATOM     22  C   UNL A   1      31.425  25.975  25.381  1.00  0.00     0.266 C 
BRANCH  22  23
ATOM     23  C   UNL A   1      31.425  27.521  25.583  1.00  0.00     0.048 C 
ATOM     24  C   UNL A   1      32.329  28.306  24.591  1.00  0.00     0.036 C 
ATOM     25  C   UNL A   1      31.597  27.916  27.061  1.00  0.00     0.014 C 
ATOM     26  C   UNL A   1      33.295  29.275  25.211  1.00  0.00    -0.031 C 
ATOM     27  C   UNL A   1      31.912  29.397  27.253  1.00  0.00     0.027 C 
ATOM     28  C   UNL A   1      33.096  29.793  26.429  1.00  0.00    -0.031 C 
ENDBRANCH  22  23
ENDBRANCH  12  22
ENDBRANCH   4   7
ENDBRANCH   2   3
ENDBRANCH   1   2
BRANCH   1  29
ATOM     29  C   UNL A   1      38.862  20.315  25.264  1.00  0.00     0.118 C 
BRANCH  29  30
ATOM     30  N   UNL A   1      39.888  19.367  25.649  1.00  0.00    -0.352 N 
ATOM     31  C   UNL A   1      41.173  19.551  26.092  1.00  0.00     0.251 C 
ATOM     32  H   UNL A   1      39.615  18.424  25.580  1.00  0.00     0.163 HD
ATOM     33  O   UNL A   1      41.927  18.571  26.092  1.00  0.00    -0.269 OA
BRANCH  31  34
ATOM     34  C   UNL A   1      41.703  20.858  26.567  1.00  0.00     0.039 A 
ATOM     35  C   UNL A   1      41.674  21.116  27.945  1.00  0.00     0.014 A 
ATOM     36  C   UNL A   1      42.097  21.883  25.702  1.00  0.00     0.014 A 
ATOM     37  C   UNL A   1      42.042  22.369  28.448  1.00  0.00     0.010 A 
ATOM     38  C   UNL A   1      42.537  23.113  26.209  1.00  0.00     0.010 A 
ATOM     39  C   UNL A   1      42.489  23.381  27.585  1.00  0.00    -0.014 A 
BRANCH  39  40
ATOM     40  C   UNL A   1      42.860  24.727  28.108  1.00  0.00     0.031 A 
ATOM     41  C   UNL A   1      41.803  25.775  28.347  1.00  0.00     0.074 A 
ATOM     42  C   UNL A   1      44.152  25.027  28.341  1.00  0.00     0.049 A 
ATOM     43  N   UNL A   1      41.940  27.012  28.760  1.00  0.00    -0.248 NA
ATOM     44  C   UNL A   1      40.413  25.390  28.062  1.00  0.00     0.031 C 
ATOM     45  C   UNL A   1      45.283  24.126  28.119  1.00  0.00     0.029 A 
ATOM     46  N   UNL A   1      44.732  26.180  28.812  1.00  0.00    -0.354 N 
ATOM     47  C   UNL A   1      40.662  27.557  28.762  1.00  0.00     0.074 A 
ATOM     48  C   UNL A   1      39.768  26.529  28.270  1.00  0.00     0.031 C 
ATOM     49  C   UNL A   1      46.417  24.752  28.468  1.00  0.00     0.029 A 
ATOM     50  C   UNL A   1      46.099  26.107  28.912  1.00  0.00     0.049 A 
ATOM     51  H   UNL A   1      44.216  26.983  29.052  1.00  0.00     0.167 HD
ATOM     52  C   UNL A   1      40.262  28.791  29.153  1.00  0.00     0.037 A 
ATOM     53  C   UNL A   1      47.000  27.025  29.313  1.00  0.00     0.037 A 
ATOM     54  C   UNL A   1      41.138  29.805  29.678  1.00  0.00     0.049 A 
ATOM     55  C   UNL A   1      46.533  28.380  29.764  1.00  0.00     0.074 A 
ATOM     56  C   UNL A   1      40.812  31.058  30.171  1.00  0.00     0.029 A 
ATOM     57  N   UNL A   1      42.516  29.684  29.781  1.00  0.00    -0.354 N 
ATOM     58  N   UNL A   1      45.315  28.858  29.815  1.00  0.00    -0.248 NA
ATOM     59  C   UNL A   1      47.569  29.319  30.220  1.00  0.00     0.031 C 
ATOM     60  C   UNL A   1      41.997  31.707  30.539  1.00  0.00     0.029 A 
ATOM     61  C   UNL A   1      43.056  30.845  30.310  1.00  0.00     0.049 A 
ATOM     62  H   UNL A   1      43.033  28.889  29.518  1.00  0.00     0.167 HD
ATOM     63  C   UNL A   1      45.432  30.146  30.320  1.00  0.00     0.074 A 
ATOM     64  C   UNL A   1      46.841  30.370  30.576  1.00  0.00     0.031 C 
ATOM     65  C   UNL A   1      44.459  31.061  30.551  1.00  0.00     0.037 A 
BRANCH  52  66
ATOM     66  C   UNL A   1      38.801  29.114  29.023  1.00  0.00     0.057 A 
ATOM     67  C   UNL A   1      37.928  29.045  30.117  1.00  0.00     0.134 A 
ATOM     68  C   UNL A   1      38.264  29.516  27.793  1.00  0.00     0.134 A 
ATOM     69  F   UNL A   1      38.377  28.658  31.321  1.00  0.00    -0.206 F 
ATOM     70  C   UNL A   1      36.568  29.332  29.985  1.00  0.00     0.040 A 
ATOM     71  C   UNL A   1      36.911  29.829  27.655  1.00  0.00     0.040 A 
ATOM     72  F   UNL A   1      39.046  29.611  26.707  1.00  0.00    -0.206 F 
ATOM     73  C   UNL A   1      36.057  29.729  28.752  1.00  0.00     0.006 A 
ENDBRANCH  52  66
BRANCH  53  74
ATOM     74  C   UNL A   1      48.440  26.674  29.330  1.00  0.00     0.057 A 
ATOM     75  C   UNL A   1      49.008  26.011  30.423  1.00  0.00     0.134 A 
ATOM     76  C   UNL A   1      49.275  26.969  28.245  1.00  0.00     0.134 A 
ATOM     77  F   UNL A   1      48.260  25.721  31.498  1.00  0.00    -0.206 F 
ATOM     78  C   UNL A   1      50.358  25.657  30.441  1.00  0.00     0.040 A 
ATOM     79  C   UNL A   1      50.622  26.603  28.242  1.00  0.00     0.040 A 
ATOM     80  F   UNL A   1      48.786  27.597  27.166  1.00  0.00    -0.206 F 
ATOM     81  C   UNL A   1      51.166  25.947  29.344  1.00  0.00     0.006 A 
ENDBRANCH  53  74
BRANCH  65  82
ATOM     82  C   UNL A   1      44.884  32.383  31.115  1.00  0.00     0.057 A 
ATOM     83  C   UNL A   1      44.984  32.596  32.496  1.00  0.00     0.134 A 
ATOM     84  C   UNL A   1      45.225  33.446  30.269  1.00  0.00     0.134 A 
ATOM     85  F   UNL A   1      44.658  31.621  33.358  1.00  0.00    -0.206 F 
ATOM     86  C   UNL A   1      45.391  33.825  33.017  1.00  0.00     0.040 A 
ATOM     87  C   UNL A   1      45.652  34.674  30.778  1.00  0.00     0.040 A 
ATOM     88  F   UNL A   1      45.156  33.306  28.937  1.00  0.00    -0.206 F 
ATOM     89  C   UNL A   1      45.731  34.867  32.155  1.00  0.00     0.006 A 
ENDBRANCH  65  82
ENDBRANCH  39  40
ENDBRANCH  31  34
ENDBRANCH  29  30
ENDBRANCH   1  29
TORSDOF 14
ENDMDL
MODEL 3
REMARK VINA RESULT:     -12.3      4.088      7.901
REMARK SMILES Cc1ccc(OC2(C(=O)NCCCNC(=O)c3ccc(-c4c5nc(c(-c6c(F)cccc6F)c6ccc([nH]6)c(-c6c(F)cccc6F)c6nc(c(-c7c(F)cccc7F)c7ccc4[nH]7)C=C6)C=C5)cc3)CC[NH+](C[C@@H]3CC=CCC3)CC2)cn1
REMARK SMILES IDX 12 1 11 2 10 3 8 4 9 5 7 7 71 8 82 9 72 10 81 11 73 12 6 14
REMARK SMILES IDX 5 15 1 16 2 17 3 18 84 19 4 20 83 21 74 22 75 23 76 24 80 25
REMARK SMILES IDX 77 26 79 27 78 28 13 29 14 30 15 31 16 33 17 34 18 35 70 36
REMARK SMILES IDX 19 37 69 38 20 39 21 40 22 41 63 42 23 43 68 44 62 45 64 46
REMARK SMILES IDX 24 47 67 48 61 49 60 50 25 52 51 53 34 54 50 55 35 56 38 57
REMARK SMILES IDX 49 58 65 59 36 60 37 61 48 63 66 64 39 65 26 66 27 67 32 68
REMARK SMILES IDX 28 69 29 70 31 71 33 72 30 73 52 74 53 75 58 76 54 77 55 78
REMARK SMILES IDX 57 79 59 80 56 81 40 82 41 83 46 84 42 85 43 86 45 87 47 88
REMARK SMILES IDX 44 89
REMARK H PARENT 10 6 73 13 14 32 64 51 38 62
REMARK Flexibility Score: inf
ROOT
ATOM      1  C   UNL A   1      38.579  23.296  26.357  1.00  0.00     0.042 C 
ENDROOT
BRANCH   1   2
ATOM      2  C   UNL A   1      37.876  22.072  25.742  1.00  0.00     0.118 C 
BRANCH   2   3
ATOM      3  N   UNL A   1      37.371  22.232  24.378  1.00  0.00    -0.353 N 
ATOM      4  C   UNL A   1      36.220  22.742  23.831  1.00  0.00     0.264 C 
ATOM      5  O   UNL A   1      36.279  22.955  22.612  1.00  0.00    -0.270 OA
ATOM      6  H   UNL A   1      37.999  21.898  23.698  1.00  0.00     0.163 HD
BRANCH   4   7
ATOM      7  C   UNL A   1      34.904  23.029  24.630  1.00  0.00     0.197 C 
ATOM      8  C   UNL A   1      35.007  24.374  25.314  1.00  0.00     0.120 C 
ATOM      9  C   UNL A   1      33.683  23.100  23.680  1.00  0.00     0.120 C 
ATOM     10  C   UNL A   1      33.760  24.812  26.032  1.00  0.00     0.267 C 
ATOM     11  C   UNL A   1      32.420  23.632  24.406  1.00  0.00     0.267 C 
ATOM     12  N   UNL A   1      32.680  24.918  25.067  1.00  0.00    -0.334 N 
ATOM     13  H   UNL A   1      32.999  25.537  24.321  1.00  0.00     0.348 HD
BRANCH   7  14
ATOM     14  O   UNL A   1      34.590  21.901  25.478  1.00  0.00    -0.475 OA
BRANCH  14  15
ATOM     15  C   UNL A   1      34.211  20.650  25.112  1.00  0.00     0.139 A 
ATOM     16  C   UNL A   1      32.692  16.654  24.964  1.00  0.00     0.066 C 
ATOM     17  C   UNL A   1      33.220  18.057  24.965  1.00  0.00     0.038 A 
ATOM     18  C   UNL A   1      34.519  18.318  24.556  1.00  0.00     0.027 A 
ATOM     19  N   UNL A   1      32.390  19.038  25.376  1.00  0.00    -0.258 NA
ATOM     20  C   UNL A   1      35.009  19.626  24.628  1.00  0.00     0.050 A 
ATOM     21  C   UNL A   1      32.906  20.296  25.445  1.00  0.00     0.157 A 
ENDBRANCH  14  15
ENDBRANCH   7  14
BRANCH  12  22
ATOM     22  C   UNL A   1      31.498  25.639  25.567  1.00  0.00     0.266 C 
BRANCH  22  23
ATOM     23  C   UNL A   1      31.396  27.195  25.553  1.00  0.00     0.048 C 
ATOM     24  C   UNL A   1      32.169  27.887  24.395  1.00  0.00     0.036 C 
ATOM     25  C   UNL A   1      31.638  27.807  26.944  1.00  0.00     0.014 C 
ATOM     26  C   UNL A   1      33.099  28.995  24.798  1.00  0.00    -0.031 C 
ATOM     27  C   UNL A   1      31.853  29.317  26.905  1.00  0.00     0.027 C 
ATOM     28  C   UNL A   1      32.946  29.668  25.945  1.00  0.00    -0.031 C 
ENDBRANCH  22  23
ENDBRANCH  12  22
ENDBRANCH   4   7
ENDBRANCH   2   3
ENDBRANCH   1   2
BRANCH   1  29
ATOM     29  C   UNL A   1      39.979  23.056  26.900  1.00  0.00     0.118 C 
BRANCH  29  30
ATOM     30  N   UNL A   1      40.989  23.745  26.122  1.00  0.00    -0.352 N 
ATOM     31  C   UNL A   1      41.401  25.053  26.125  1.00  0.00     0.251 C 
ATOM     32  H   UNL A   1      41.463  23.172  25.477  1.00  0.00     0.163 HD
ATOM     33  O   UNL A   1      42.090  25.441  25.174  1.00  0.00    -0.269 OA
BRANCH  31  34
ATOM     34  C   UNL A   1      41.063  26.022  27.202  1.00  0.00     0.039 A 
ATOM     35  C   UNL A   1      41.774  27.230  27.245  1.00  0.00     0.014 A 
ATOM     36  C   UNL A   1      40.177  25.730  28.243  1.00  0.00     0.014 A 
ATOM     37  C   UNL A   1      41.593  28.132  28.299  1.00  0.00     0.010 A 
ATOM     38  C   UNL A   1      39.940  26.665  29.259  1.00  0.00     0.010 A 
ATOM     39  C   UNL A   1      40.664  27.864  29.316  1.00  0.00    -0.014 A 
BRANCH  39  40
ATOM     40  C   UNL A   1      40.482  28.807  30.456  1.00  0.00     0.031 A 
ATOM     41  C   UNL A   1      39.408  29.864  30.414  1.00  0.00     0.074 A 
ATOM     42  C   UNL A   1      41.299  28.738  31.524  1.00  0.00     0.049 A 
ATOM     43  N   UNL A   1      39.126  30.795  31.293  1.00  0.00    -0.248 NA
ATOM     44  C   UNL A   1      38.556  29.895  29.217  1.00  0.00     0.031 C 
ATOM     45  C   UNL A   1      42.405  27.793  31.685  1.00  0.00     0.029 A 
ATOM     46  N   UNL A   1      41.331  29.486  32.676  1.00  0.00    -0.354 N 
ATOM     47  C   UNL A   1      38.083  31.533  30.746  1.00  0.00     0.074 A 
ATOM     48  C   UNL A   1      37.811  30.967  29.441  1.00  0.00     0.031 C 
ATOM     49  C   UNL A   1      42.994  28.005  32.871  1.00  0.00     0.029 A 
ATOM     50  C   UNL A   1      42.329  29.118  33.544  1.00  0.00     0.049 A 
ATOM     51  H   UNL A   1      40.698  30.218  32.861  1.00  0.00     0.167 HD
ATOM     52  C   UNL A   1      37.401  32.573  31.283  1.00  0.00     0.037 A 
ATOM     53  C   UNL A   1      42.676  29.618  34.746  1.00  0.00     0.037 A 
ATOM     54  C   UNL A   1      37.640  33.117  32.594  1.00  0.00     0.049 A 
ATOM     55  C   UNL A   1      41.892  30.757  35.334  1.00  0.00     0.074 A 
ATOM     56  C   UNL A   1      36.949  34.121  33.253  1.00  0.00     0.029 A 
ATOM     57  N   UNL A   1      38.650  32.702  33.449  1.00  0.00    -0.354 N 
ATOM     58  N   UNL A   1      40.872  31.404  34.828  1.00  0.00    -0.248 NA
ATOM     59  C   UNL A   1      42.306  31.230  36.663  1.00  0.00     0.031 C 
ATOM     60  C   UNL A   1      37.563  34.337  34.492  1.00  0.00     0.029 A 
ATOM     61  C   UNL A   1      38.613  33.443  34.620  1.00  0.00     0.049 A 
ATOM     62  H   UNL A   1      39.297  31.986  33.254  1.00  0.00     0.167 HD
ATOM     63  C   UNL A   1      40.511  32.350  35.778  1.00  0.00     0.074 A 
ATOM     64  C   UNL A   1      41.412  32.182  36.900  1.00  0.00     0.031 C 
ATOM     65  C   UNL A   1      39.521  33.274  35.726  1.00  0.00     0.037 A 
BRANCH  52  66
ATOM     66  C   UNL A   1      36.323  33.195  30.443  1.00  0.00     0.057 A 
ATOM     67  C   UNL A   1      36.618  34.076  29.394  1.00  0.00     0.134 A 
ATOM     68  C   UNL A   1      34.974  32.895  30.674  1.00  0.00     0.134 A 
ATOM     69  F   UNL A   1      37.889  34.413  29.126  1.00  0.00    -0.206 F 
ATOM     70  C   UNL A   1      35.610  34.662  28.627  1.00  0.00     0.040 A 
ATOM     71  C   UNL A   1      33.958  33.456  29.897  1.00  0.00     0.040 A 
ATOM     72  F   UNL A   1      34.622  32.053  31.656  1.00  0.00    -0.206 F 
ATOM     73  C   UNL A   1      34.275  34.349  28.875  1.00  0.00     0.006 A 
ENDBRANCH  52  66
BRANCH  53  74
ATOM     74  C   UNL A   1      43.812  29.018  35.486  1.00  0.00     0.057 A 
ATOM     75  C   UNL A   1      45.119  29.479  35.298  1.00  0.00     0.134 A 
ATOM     76  C   UNL A   1      43.614  27.989  36.414  1.00  0.00     0.134 A 
ATOM     77  F   UNL A   1      45.369  30.449  34.406  1.00  0.00    -0.206 F 
ATOM     78  C   UNL A   1      46.193  28.936  36.004  1.00  0.00     0.040 A 
ATOM     79  C   UNL A   1      44.677  27.450  37.142  1.00  0.00     0.040 A 
ATOM     80  F   UNL A   1      42.383  27.510  36.643  1.00  0.00    -0.206 F 
ATOM     81  C   UNL A   1      45.971  27.924  36.935  1.00  0.00     0.006 A 
ENDBRANCH  53  74
BRANCH  65  82
ATOM     82  C   UNL A   1      39.356  34.169  36.918  1.00  0.00     0.057 A 
ATOM     83  C   UNL A   1      38.669  33.747  38.064  1.00  0.00     0.134 A 
ATOM     84  C   UNL A   1      39.914  35.453  36.931  1.00  0.00     0.134 A 
ATOM     85  F   UNL A   1      38.100  32.534  38.106  1.00  0.00    -0.206 F 
ATOM     86  C   UNL A   1      38.528  34.579  39.175  1.00  0.00     0.040 A 
ATOM     87  C   UNL A   1      39.797  36.286  38.045  1.00  0.00     0.040 A 
ATOM     88  F   UNL A   1      40.589  35.914  35.867  1.00  0.00    -0.206 F 
ATOM     89  C   UNL A   1      39.098  35.852  39.169  1.00  0.00     0.006 A 
ENDBRANCH  65  82
ENDBRANCH  39  40
ENDBRANCH  31  34
ENDBRANCH  29  30
ENDBRANCH   1  29
TORSDOF 14
ENDMDL
