MODEL 1
REMARK VINA RESULT:     -12.0      0.000      0.000
REMARK SMILES CC[C@](C)(NC(=O)c1cccc2ncccc12)C(=O)NCCCNC(=O)c1ccc(-c2c3nc(c(-c4c(F)cccc4F)c4ccc([nH]4)c(-c4c(F)cccc4F)c4nc(c(-c5c(F)cccc5F)c5ccc2[nH]5)C=C4)C=C3)cc1
REMARK SMILES IDX 22 1 21 2 20 3 18 4 19 5 3 7 4 8 2 9 1 10 5 11 6 12 7 14
REMARK SMILES IDX 8 15 9 16 17 17 10 18 12 19 16 20 11 21 13 22 15 23 14 24
REMARK SMILES IDX 23 25 24 26 25 27 26 29 27 30 28 31 80 32 29 33 79 34 30 35
REMARK SMILES IDX 31 36 32 37 73 38 33 39 78 40 72 41 74 42 34 43 77 44 71 45
REMARK SMILES IDX 70 46 35 48 61 49 44 50 60 51 45 52 48 53 59 54 75 55 46 56
REMARK SMILES IDX 47 57 58 59 76 60 49 61 36 62 37 63 42 64 38 65 39 66 41 67
REMARK SMILES IDX 43 68 40 69 62 70 63 71 68 72 64 73 65 74 67 75 69 76 66 77
REMARK SMILES IDX 50 78 51 79 56 80 52 81 53 82 55 83 57 84 54 85
REMARK H PARENT 20 6 5 13 24 28 74 47 48 58
REMARK Flexibility Score: inf
ROOT
ATOM      1  C   UNL A   1      37.379  19.591  24.963  1.00  0.00     0.042 C 
ENDROOT
BRANCH   1   2
ATOM      2  C   UNL A   1      36.117  20.454  24.869  1.00  0.00     0.117 C 
BRANCH   2   3
ATOM      3  N   UNL A   1      35.601  21.098  26.074  1.00  0.00    -0.354 N 
ATOM      4  C   UNL A   1      34.342  21.455  26.496  1.00  0.00     0.245 C 
ATOM      5  O   UNL A   1      34.244  21.785  27.684  1.00  0.00    -0.272 OA
ATOM      6  H   UNL A   1      36.306  21.324  26.722  1.00  0.00     0.163 HD
BRANCH   4   7
ATOM      7  C   UNL A   1      33.088  21.397  25.570  1.00  0.00     0.116 C 
ATOM      8  C   UNL A   1      32.683  19.944  25.243  1.00  0.00     0.045 C 
BRANCH   7   9
ATOM      9  C   UNL A   1      33.558  22.133  24.256  1.00  0.00     0.035 C 
ATOM     10  C   UNL A   1      32.534  22.242  23.126  1.00  0.00     0.007 C 
ENDBRANCH   7   9
BRANCH   7  11
ATOM     11  N   UNL A   1      31.861  22.074  26.114  1.00  0.00    -0.338 N 
ATOM     12  C   UNL A   1      31.533  23.357  26.546  1.00  0.00     0.252 C 
ATOM     13  H   UNL A   1      31.098  21.456  26.182  1.00  0.00     0.164 HD
ATOM     14  O   UNL A   1      30.630  23.388  27.385  1.00  0.00    -0.269 OA
BRANCH  12  15
ATOM     15  C   UNL A   1      32.078  24.665  26.008  1.00  0.00     0.049 A 
ATOM     16  C   UNL A   1      33.435  24.931  26.141  1.00  0.00     0.014 A 
ATOM     17  C   UNL A   1      31.332  25.561  25.169  1.00  0.00     0.013 A 
ATOM     18  C   UNL A   1      34.075  26.025  25.580  1.00  0.00     0.003 A 
ATOM     19  C   UNL A   1      32.003  26.667  24.565  1.00  0.00     0.071 A 
ATOM     20  C   UNL A   1      29.963  25.454  24.822  1.00  0.00     0.013 A 
ATOM     21  C   UNL A   1      33.343  26.888  24.797  1.00  0.00     0.029 A 
ATOM     22  N   UNL A   1      31.434  27.535  23.721  1.00  0.00    -0.256 NA
ATOM     23  C   UNL A   1      29.368  26.347  23.929  1.00  0.00     0.021 A 
ATOM     24  C   UNL A   1      30.141  27.358  23.406  1.00  0.00     0.112 A 
ENDBRANCH  12  15
ENDBRANCH   7  11
ENDBRANCH   4   7
ENDBRANCH   2   3
ENDBRANCH   1   2
BRANCH   1  25
ATOM     25  C   UNL A   1      38.601  20.130  25.699  1.00  0.00     0.118 C 
BRANCH  25  26
ATOM     26  N   UNL A   1      39.762  19.269  25.657  1.00  0.00    -0.352 N 
ATOM     27  C   UNL A   1      41.054  19.510  26.058  1.00  0.00     0.251 C 
ATOM     28  H   UNL A   1      39.602  18.372  25.281  1.00  0.00     0.163 HD
ATOM     29  O   UNL A   1      41.900  18.637  25.903  1.00  0.00    -0.269 OA
BRANCH  27  30
ATOM     30  C   UNL A   1      41.456  20.815  26.636  1.00  0.00     0.039 A 
ATOM     31  C   UNL A   1      41.867  21.818  25.751  1.00  0.00     0.014 A 
ATOM     32  C   UNL A   1      41.500  21.052  28.014  1.00  0.00     0.014 A 
ATOM     33  C   UNL A   1      42.279  23.061  26.237  1.00  0.00     0.010 A 
ATOM     34  C   UNL A   1      41.868  22.315  28.498  1.00  0.00     0.010 A 
ATOM     35  C   UNL A   1      42.265  23.333  27.615  1.00  0.00    -0.014 A 
BRANCH  35  36
ATOM     36  C   UNL A   1      42.654  24.680  28.119  1.00  0.00     0.031 A 
ATOM     37  C   UNL A   1      41.622  25.754  28.333  1.00  0.00     0.074 A 
ATOM     38  C   UNL A   1      43.950  24.945  28.381  1.00  0.00     0.049 A 
ATOM     39  N   UNL A   1      41.780  26.981  28.766  1.00  0.00    -0.248 NA
ATOM     40  C   UNL A   1      40.231  25.409  28.006  1.00  0.00     0.031 C 
ATOM     41  C   UNL A   1      45.056  24.006  28.198  1.00  0.00     0.029 A 
ATOM     42  N   UNL A   1      44.556  26.084  28.855  1.00  0.00    -0.354 N 
ATOM     43  C   UNL A   1      40.515  27.554  28.761  1.00  0.00     0.074 A 
ATOM     44  C   UNL A   1      39.606  26.556  28.237  1.00  0.00     0.031 C 
ATOM     45  C   UNL A   1      46.201  24.598  28.574  1.00  0.00     0.029 A 
ATOM     46  C   UNL A   1      45.919  25.969  28.987  1.00  0.00     0.049 A 
ATOM     47  H   UNL A   1      44.060  26.904  29.078  1.00  0.00     0.167 HD
ATOM     48  C   UNL A   1      40.139  28.791  29.171  1.00  0.00     0.037 A 
ATOM     49  C   UNL A   1      46.841  26.867  29.384  1.00  0.00     0.037 A 
ATOM     50  C   UNL A   1      41.041  29.785  29.696  1.00  0.00     0.049 A 
ATOM     51  C   UNL A   1      46.404  28.247  29.795  1.00  0.00     0.074 A 
ATOM     52  C   UNL A   1      40.743  31.050  30.179  1.00  0.00     0.029 A 
ATOM     53  N   UNL A   1      42.416  29.636  29.798  1.00  0.00    -0.354 N 
ATOM     54  N   UNL A   1      45.195  28.752  29.847  1.00  0.00    -0.248 NA
ATOM     55  C   UNL A   1      47.461  29.183  30.206  1.00  0.00     0.031 C 
ATOM     56  C   UNL A   1      41.942  31.685  30.518  1.00  0.00     0.029 A 
ATOM     57  C   UNL A   1      42.983  30.796  30.305  1.00  0.00     0.049 A 
ATOM     58  H   UNL A   1      42.916  28.826  29.547  1.00  0.00     0.167 HD
ATOM     59  C   UNL A   1      45.343  30.048  30.323  1.00  0.00     0.074 A 
ATOM     60  C   UNL A   1      46.757  30.248  30.561  1.00  0.00     0.031 C 
ATOM     61  C   UNL A   1      44.391  30.987  30.543  1.00  0.00     0.037 A 
BRANCH  48  62
ATOM     62  C   UNL A   1      38.683  29.148  29.060  1.00  0.00     0.057 A 
ATOM     63  C   UNL A   1      37.814  29.062  30.156  1.00  0.00     0.134 A 
ATOM     64  C   UNL A   1      38.153  29.626  27.854  1.00  0.00     0.134 A 
ATOM     65  F   UNL A   1      38.254  28.608  31.339  1.00  0.00    -0.206 F 
ATOM     66  C   UNL A   1      36.465  29.411  30.049  1.00  0.00     0.040 A 
ATOM     67  C   UNL A   1      36.814  30.006  27.743  1.00  0.00     0.040 A 
ATOM     68  F   UNL A   1      38.931  29.745  26.767  1.00  0.00    -0.206 F 
ATOM     69  C   UNL A   1      35.964  29.891  28.841  1.00  0.00     0.006 A 
ENDBRANCH  48  62
BRANCH  49  70
ATOM     70  C   UNL A   1      48.279  26.491  29.420  1.00  0.00     0.057 A 
ATOM     71  C   UNL A   1      49.112  26.700  28.315  1.00  0.00     0.134 A 
ATOM     72  C   UNL A   1      48.848  25.895  30.551  1.00  0.00     0.134 A 
ATOM     73  F   UNL A   1      48.620  27.247  27.192  1.00  0.00    -0.206 F 
ATOM     74  C   UNL A   1      50.452  26.312  28.324  1.00  0.00     0.040 A 
ATOM     75  C   UNL A   1      50.195  25.528  30.586  1.00  0.00     0.040 A 
ATOM     76  F   UNL A   1      48.106  25.670  31.645  1.00  0.00    -0.206 F 
ATOM     77  C   UNL A   1      50.998  25.728  29.466  1.00  0.00     0.006 A 
ENDBRANCH  49  70
BRANCH  61  78
ATOM     78  C   UNL A   1      44.839  32.309  31.104  1.00  0.00     0.057 A 
ATOM     79  C   UNL A   1      44.955  32.531  32.482  1.00  0.00     0.134 A 
ATOM     80  C   UNL A   1      45.192  33.363  30.249  1.00  0.00     0.134 A 
ATOM     81  F   UNL A   1      44.621  31.570  33.357  1.00  0.00    -0.206 F 
ATOM     82  C   UNL A   1      45.379  33.761  32.990  1.00  0.00     0.040 A 
ATOM     83  C   UNL A   1      45.646  34.586  30.745  1.00  0.00     0.040 A 
ATOM     84  F   UNL A   1      45.113  33.216  28.918  1.00  0.00    -0.206 F 
ATOM     85  C   UNL A   1      45.733  34.790  32.120  1.00  0.00     0.006 A 
ENDBRANCH  61  78
ENDBRANCH  35  36
ENDBRANCH  27  30
ENDBRANCH  25  26
ENDBRANCH   1  25
TORSDOF 13
ENDMDL
MODEL 2
REMARK VINA RESULT:     -12.0      4.298      8.631
REMARK SMILES CC[C@](C)(NC(=O)c1cccc2ncccc12)C(=O)NCCCNC(=O)c1ccc(-c2c3nc(c(-c4c(F)cccc4F)c4ccc([nH]4)c(-c4c(F)cccc4F)c4nc(c(-c5c(F)cccc5F)c5ccc2[nH]5)C=C4)C=C3)cc1
REMARK SMILES IDX 22 1 21 2 20 3 18 4 19 5 3 7 4 8 2 9 1 10 5 11 6 12 7 14
REMARK SMILES IDX 8 15 9 16 17 17 10 18 12 19 16 20 11 21 13 22 15 23 14 24
REMARK SMILES IDX 23 25 24 26 25 27 26 29 27 30 28 31 80 32 29 33 79 34 30 35
REMARK SMILES IDX 31 36 32 37 73 38 33 39 78 40 72 41 74 42 34 43 77 44 71 45
REMARK SMILES IDX 70 46 35 48 61 49 44 50 60 51 45 52 48 53 59 54 75 55 46 56
REMARK SMILES IDX 47 57 58 59 76 60 49 61 36 62 37 63 42 64 38 65 39 66 41 67
REMARK SMILES IDX 43 68 40 69 62 70 63 71 68 72 64 73 65 74 67 75 69 76 66 77
REMARK SMILES IDX 50 78 51 79 56 80 52 81 53 82 55 83 57 84 54 85
REMARK H PARENT 20 6 5 13 24 28 74 47 48 58
REMARK Flexibility Score: inf
ROOT
ATOM      1  C   UNL A   1      31.131  31.643  26.156  1.00  0.00     0.042 C 
ENDROOT
BRANCH   1   2
ATOM      2  C   UNL A   1      31.170  30.279  25.459  1.00  0.00     0.117 C 
BRANCH   2   3
ATOM      3  N   UNL A   1      32.370  29.886  24.726  1.00  0.00    -0.354 N 
ATOM      4  C   UNL A   1      32.602  29.043  23.664  1.00  0.00     0.245 C 
ATOM      5  O   UNL A   1      33.723  29.118  23.149  1.00  0.00    -0.272 OA
ATOM      6  H   UNL A   1      33.187  30.317  25.063  1.00  0.00     0.163 HD
BRANCH   4   7
ATOM      7  C   UNL A   1      31.513  28.086  23.087  1.00  0.00     0.116 C 
ATOM      8  C   UNL A   1      30.384  28.862  22.378  1.00  0.00     0.045 C 
BRANCH   7   9
ATOM      9  C   UNL A   1      30.943  27.354  24.363  1.00  0.00     0.035 C 
ATOM     10  C   UNL A   1      30.024  26.158  24.116  1.00  0.00     0.007 C 
ENDBRANCH   7   9
BRANCH   7  11
ATOM     11  N   UNL A   1      32.017  27.065  22.104  1.00  0.00    -0.338 N 
ATOM     12  C   UNL A   1      33.017  26.096  22.091  1.00  0.00     0.252 C 
ATOM     13  H   UNL A   1      31.513  27.087  21.259  1.00  0.00     0.164 HD
ATOM     14  O   UNL A   1      33.452  25.840  20.965  1.00  0.00    -0.269 OA
BRANCH  12  15
ATOM     15  C   UNL A   1      33.509  25.279  23.269  1.00  0.00     0.049 A 
ATOM     16  C   UNL A   1      34.109  25.935  24.336  1.00  0.00     0.014 A 
ATOM     17  C   UNL A   1      33.201  23.889  23.466  1.00  0.00     0.013 A 
ATOM     18  C   UNL A   1      34.480  25.320  25.522  1.00  0.00     0.003 A 
ATOM     19  C   UNL A   1      33.554  23.269  24.702  1.00  0.00     0.071 A 
ATOM     20  C   UNL A   1      32.527  23.036  22.560  1.00  0.00     0.013 A 
ATOM     21  C   UNL A   1      34.200  23.984  25.688  1.00  0.00     0.029 A 
ATOM     22  N   UNL A   1      33.271  22.003  25.027  1.00  0.00    -0.256 NA
ATOM     23  C   UNL A   1      32.214  21.718  22.901  1.00  0.00     0.021 A 
ATOM     24  C   UNL A   1      32.599  21.255  24.138  1.00  0.00     0.112 A 
ENDBRANCH  12  15
ENDBRANCH   7  11
ENDBRANCH   4   7
ENDBRANCH   2   3
ENDBRANCH   1   2
BRANCH   1  25
ATOM     25  C   UNL A   1      32.392  32.174  26.830  1.00  0.00     0.118 C 
BRANCH  25  26
ATOM     26  N   UNL A   1      32.294  33.534  27.312  1.00  0.00    -0.352 N 
ATOM     27  C   UNL A   1      33.120  34.230  28.161  1.00  0.00     0.251 C 
ATOM     28  H   UNL A   1      31.515  34.038  26.980  1.00  0.00     0.163 HD
ATOM     29  O   UNL A   1      32.829  35.382  28.465  1.00  0.00    -0.269 OA
BRANCH  27  30
ATOM     30  C   UNL A   1      34.330  33.607  28.752  1.00  0.00     0.039 A 
ATOM     31  C   UNL A   1      34.143  32.544  29.642  1.00  0.00     0.014 A 
ATOM     32  C   UNL A   1      35.622  34.081  28.503  1.00  0.00     0.014 A 
ATOM     33  C   UNL A   1      35.244  31.931  30.247  1.00  0.00     0.010 A 
ATOM     34  C   UNL A   1      36.727  33.435  29.075  1.00  0.00     0.010 A 
ATOM     35  C   UNL A   1      36.550  32.355  29.955  1.00  0.00    -0.014 A 
BRANCH  35  36
ATOM     36  C   UNL A   1      37.719  31.659  30.564  1.00  0.00     0.031 A 
ATOM     37  C   UNL A   1      38.165  31.977  31.965  1.00  0.00     0.074 A 
ATOM     38  C   UNL A   1      38.393  30.737  29.848  1.00  0.00     0.049 A 
ATOM     39  N   UNL A   1      39.158  31.469  32.654  1.00  0.00    -0.248 NA
ATOM     40  C   UNL A   1      37.403  33.008  32.684  1.00  0.00     0.031 C 
ATOM     41  C   UNL A   1      38.085  30.347  28.472  1.00  0.00     0.029 A 
ATOM     42  N   UNL A   1      39.479  29.961  30.177  1.00  0.00    -0.354 N 
ATOM     43  C   UNL A   1      39.143  32.119  33.882  1.00  0.00     0.074 A 
ATOM     44  C   UNL A   1      38.071  33.092  33.827  1.00  0.00     0.031 C 
ATOM     45  C   UNL A   1      38.946  29.393  28.082  1.00  0.00     0.029 A 
ATOM     46  C   UNL A   1      39.892  29.130  29.162  1.00  0.00     0.049 A 
ATOM     47  H   UNL A   1      39.920  29.998  31.056  1.00  0.00     0.167 HD
ATOM     48  C   UNL A   1      39.936  31.915  34.963  1.00  0.00     0.037 A 
ATOM     49  C   UNL A   1      40.920  28.263  29.102  1.00  0.00     0.037 A 
ATOM     50  C   UNL A   1      41.001  30.946  35.022  1.00  0.00     0.049 A 
ATOM     51  C   UNL A   1      41.812  28.084  30.300  1.00  0.00     0.074 A 
ATOM     52  C   UNL A   1      41.827  30.637  36.091  1.00  0.00     0.029 A 
ATOM     53  N   UNL A   1      41.397  30.136  33.968  1.00  0.00    -0.354 N 
ATOM     54  N   UNL A   1      41.743  28.659  31.477  1.00  0.00    -0.248 NA
ATOM     55  C   UNL A   1      42.923  27.131  30.165  1.00  0.00     0.031 C 
ATOM     56  C   UNL A   1      42.759  29.684  35.667  1.00  0.00     0.029 A 
ATOM     57  C   UNL A   1      42.475  29.352  34.352  1.00  0.00     0.049 A 
ATOM     58  H   UNL A   1      40.976  30.121  33.079  1.00  0.00     0.167 HD
ATOM     59  C   UNL A   1      42.779  28.117  32.227  1.00  0.00     0.074 A 
ATOM     60  C   UNL A   1      43.451  27.156  31.380  1.00  0.00     0.031 C 
ATOM     61  C   UNL A   1      43.138  28.394  33.504  1.00  0.00     0.037 A 
BRANCH  48  62
ATOM     62  C   UNL A   1      39.689  32.766  36.177  1.00  0.00     0.057 A 
ATOM     63  C   UNL A   1      40.354  33.984  36.375  1.00  0.00     0.134 A 
ATOM     64  C   UNL A   1      38.743  32.386  37.138  1.00  0.00     0.134 A 
ATOM     65  F   UNL A   1      41.276  34.406  35.497  1.00  0.00    -0.206 F 
ATOM     66  C   UNL A   1      40.107  34.778  37.498  1.00  0.00     0.040 A 
ATOM     67  C   UNL A   1      38.466  33.186  38.249  1.00  0.00     0.040 A 
ATOM     68  F   UNL A   1      38.060  31.239  37.007  1.00  0.00    -0.206 F 
ATOM     69  C   UNL A   1      39.156  34.382  38.435  1.00  0.00     0.006 A 
ENDBRANCH  48  62
BRANCH  49  70
ATOM     70  C   UNL A   1      41.166  27.486  27.859  1.00  0.00     0.057 A 
ATOM     71  C   UNL A   1      41.934  28.013  26.812  1.00  0.00     0.134 A 
ATOM     72  C   UNL A   1      40.622  26.209  27.677  1.00  0.00     0.134 A 
ATOM     73  F   UNL A   1      42.463  29.242  26.916  1.00  0.00    -0.206 F 
ATOM     74  C   UNL A   1      42.135  27.308  25.625  1.00  0.00     0.040 A 
ATOM     75  C   UNL A   1      40.839  25.480  26.506  1.00  0.00     0.040 A 
ATOM     76  F   UNL A   1      39.880  25.646  28.641  1.00  0.00    -0.206 F 
ATOM     77  C   UNL A   1      41.590  26.035  25.472  1.00  0.00     0.006 A 
ENDBRANCH  49  70
BRANCH  61  78
ATOM     78  C   UNL A   1      44.292  27.621  34.081  1.00  0.00     0.057 A 
ATOM     79  C   UNL A   1      44.117  26.377  34.703  1.00  0.00     0.134 A 
ATOM     80  C   UNL A   1      45.601  28.113  33.982  1.00  0.00     0.134 A 
ATOM     81  F   UNL A   1      42.890  25.853  34.843  1.00  0.00    -0.206 F 
ATOM     82  C   UNL A   1      45.198  25.665  35.227  1.00  0.00     0.040 A 
ATOM     83  C   UNL A   1      46.691  27.396  34.477  1.00  0.00     0.040 A 
ATOM     84  F   UNL A   1      45.842  29.293  33.392  1.00  0.00    -0.206 F 
ATOM     85  C   UNL A   1      46.490  26.171  35.108  1.00  0.00     0.006 A 
ENDBRANCH  61  78
ENDBRANCH  35  36
ENDBRANCH  27  30
ENDBRANCH  25  26
ENDBRANCH   1  25
TORSDOF 13
ENDMDL
MODEL 3
REMARK VINA RESULT:     -12.0      2.173      7.299
REMARK SMILES CC[C@](C)(NC(=O)c1cccc2ncccc12)C(=O)NCCCNC(=O)c1ccc(-c2c3nc(c(-c4c(F)cccc4F)c4ccc([nH]4)c(-c4c(F)cccc4F)c4nc(c(-c5c(F)cccc5F)c5ccc2[nH]5)C=C4)C=C3)cc1
REMARK SMILES IDX 22 1 21 2 20 3 18 4 19 5 3 7 4 8 2 9 1 10 5 11 6 12 7 14
REMARK SMILES IDX 8 15 9 16 17 17 10 18 12 19 16 20 11 21 13 22 15 23 14 24
REMARK SMILES IDX 23 25 24 26 25 27 26 29 27 30 28 31 80 32 29 33 79 34 30 35
REMARK SMILES IDX 31 36 32 37 73 38 33 39 78 40 72 41 74 42 34 43 77 44 71 45
REMARK SMILES IDX 70 46 35 48 61 49 44 50 60 51 45 52 48 53 59 54 75 55 46 56
REMARK SMILES IDX 47 57 58 59 76 60 49 61 36 62 37 63 42 64 38 65 39 66 41 67
REMARK SMILES IDX 43 68 40 69 62 70 63 71 68 72 64 73 65 74 67 75 69 76 66 77
REMARK SMILES IDX 50 78 51 79 56 80 52 81 53 82 55 83 57 84 54 85
REMARK H PARENT 20 6 5 13 24 28 74 47 48 58
REMARK Flexibility Score: inf
ROOT
ATOM      1  C   UNL A   1      34.115  27.994  25.853  1.00  0.00     0.042 C 
ENDROOT
BRANCH   1   2
ATOM      2  C   UNL A   1      33.126  28.104  24.689  1.00  0.00     0.117 C 
BRANCH   2   3
ATOM      3  N   UNL A   1      33.216  27.154  23.584  1.00  0.00    -0.354 N 
ATOM      4  C   UNL A   1      32.393  26.153  23.120  1.00  0.00     0.245 C 
ATOM      5  O   UNL A   1      32.681  25.687  22.012  1.00  0.00    -0.272 OA
ATOM      6  H   UNL A   1      34.041  27.251  23.058  1.00  0.00     0.163 HD
BRANCH   4   7
ATOM      7  C   UNL A   1      31.133  25.662  23.898  1.00  0.00     0.116 C 
ATOM      8  C   UNL A   1      30.547  24.373  23.287  1.00  0.00     0.045 C 
BRANCH   7   9
ATOM      9  C   UNL A   1      30.107  26.849  23.737  1.00  0.00     0.035 C 
ATOM     10  C   UNL A   1      28.647  26.547  24.076  1.00  0.00     0.007 C 
ENDBRANCH   7   9
BRANCH   7  11
ATOM     11  N   UNL A   1      31.354  25.384  25.359  1.00  0.00    -0.338 N 
ATOM     12  C   UNL A   1      32.029  24.420  26.105  1.00  0.00     0.252 C 
ATOM     13  H   UNL A   1      30.912  26.051  25.933  1.00  0.00     0.164 HD
ATOM     14  O   UNL A   1      31.552  24.230  27.227  1.00  0.00    -0.269 OA
BRANCH  12  15
ATOM     15  C   UNL A   1      33.311  23.707  25.724  1.00  0.00     0.049 A 
ATOM     16  C   UNL A   1      34.525  24.339  25.962  1.00  0.00     0.014 A 
ATOM     17  C   UNL A   1      33.375  22.325  25.336  1.00  0.00     0.013 A 
ATOM     18  C   UNL A   1      35.763  23.743  25.780  1.00  0.00     0.003 A 
ATOM     19  C   UNL A   1      34.653  21.706  25.184  1.00  0.00     0.071 A 
ATOM     20  C   UNL A   1      32.280  21.456  25.115  1.00  0.00     0.013 A 
ATOM     21  C   UNL A   1      35.811  22.426  25.386  1.00  0.00     0.029 A 
ATOM     22  N   UNL A   1      34.843  20.417  24.884  1.00  0.00    -0.256 NA
ATOM     23  C   UNL A   1      32.473  20.105  24.819  1.00  0.00     0.021 A 
ATOM     24  C   UNL A   1      33.763  19.637  24.721  1.00  0.00     0.112 A 
ENDBRANCH  12  15
ENDBRANCH   7  11
ENDBRANCH   4   7
ENDBRANCH   2   3
ENDBRANCH   1   2
BRANCH   1  25
ATOM     25  C   UNL A   1      33.635  28.286  27.272  1.00  0.00     0.118 C 
BRANCH  25  26
ATOM     26  N   UNL A   1      33.520  29.690  27.595  1.00  0.00    -0.352 N 
ATOM     27  C   UNL A   1      34.462  30.562  28.088  1.00  0.00     0.251 C 
ATOM     28  H   UNL A   1      32.631  30.083  27.438  1.00  0.00     0.163 HD
ATOM     29  O   UNL A   1      34.139  31.721  28.320  1.00  0.00    -0.269 OA
BRANCH  27  30
ATOM     30  C   UNL A   1      35.847  30.121  28.385  1.00  0.00     0.039 A 
ATOM     31  C   UNL A   1      36.786  30.191  27.350  1.00  0.00     0.014 A 
ATOM     32  C   UNL A   1      36.223  29.588  29.622  1.00  0.00     0.014 A 
ATOM     33  C   UNL A   1      38.101  29.770  27.563  1.00  0.00     0.010 A 
ATOM     34  C   UNL A   1      37.553  29.210  29.848  1.00  0.00     0.010 A 
ATOM     35  C   UNL A   1      38.507  29.294  28.820  1.00  0.00    -0.014 A 
BRANCH  35  36
ATOM     36  C   UNL A   1      39.925  28.899  29.051  1.00  0.00     0.031 A 
ATOM     37  C   UNL A   1      40.892  29.840  29.717  1.00  0.00     0.074 A 
ATOM     38  C   UNL A   1      40.352  27.684  28.652  1.00  0.00     0.049 A 
ATOM     39  N   UNL A   1      42.159  29.662  30.000  1.00  0.00    -0.248 NA
ATOM     40  C   UNL A   1      40.370  31.158  30.107  1.00  0.00     0.031 C 
ATOM     41  C   UNL A   1      39.530  26.681  27.975  1.00  0.00     0.029 A 
ATOM     42  N   UNL A   1      41.585  27.086  28.756  1.00  0.00    -0.354 N 
ATOM     43  C   UNL A   1      42.586  30.842  30.595  1.00  0.00     0.074 A 
ATOM     44  C   UNL A   1      41.456  31.747  30.591  1.00  0.00     0.031 C 
ATOM     45  C   UNL A   1      40.273  25.588  27.742  1.00  0.00     0.029 A 
ATOM     46  C   UNL A   1      41.633  25.822  28.217  1.00  0.00     0.049 A 
ATOM     47  H   UNL A   1      42.361  27.522  29.176  1.00  0.00     0.167 HD
ATOM     48  C   UNL A   1      43.803  31.142  31.115  1.00  0.00     0.037 A 
ATOM     49  C   UNL A   1      42.656  24.954  28.105  1.00  0.00     0.037 A 
ATOM     50  C   UNL A   1      44.930  30.243  31.123  1.00  0.00     0.049 A 
ATOM     51  C   UNL A   1      44.008  25.326  28.652  1.00  0.00     0.074 A 
ATOM     52  C   UNL A   1      46.188  30.444  31.669  1.00  0.00     0.029 A 
ATOM     53  N   UNL A   1      44.942  28.979  30.553  1.00  0.00    -0.354 N 
ATOM     54  N   UNL A   1      44.378  26.420  29.272  1.00  0.00    -0.248 NA
ATOM     55  C   UNL A   1      45.085  24.338  28.488  1.00  0.00     0.031 C 
ATOM     56  C   UNL A   1      46.978  29.327  31.377  1.00  0.00     0.029 A 
ATOM     57  C   UNL A   1      46.195  28.403  30.704  1.00  0.00     0.049 A 
ATOM     58  H   UNL A   1      44.175  28.554  30.105  1.00  0.00     0.167 HD
ATOM     59  C   UNL A   1      45.717  26.241  29.596  1.00  0.00     0.074 A 
ATOM     60  C   UNL A   1      46.090  24.926  29.120  1.00  0.00     0.031 C 
ATOM     61  C   UNL A   1      46.559  27.091  30.232  1.00  0.00     0.037 A 
BRANCH  48  62
ATOM     62  C   UNL A   1      43.987  32.509  31.712  1.00  0.00     0.057 A 
ATOM     63  C   UNL A   1      44.413  33.601  30.945  1.00  0.00     0.134 A 
ATOM     64  C   UNL A   1      43.691  32.747  33.061  1.00  0.00     0.134 A 
ATOM     65  F   UNL A   1      44.718  33.444  29.648  1.00  0.00    -0.206 F 
ATOM     66  C   UNL A   1      44.566  34.873  31.503  1.00  0.00     0.040 A 
ATOM     67  C   UNL A   1      43.812  34.019  33.623  1.00  0.00     0.040 A 
ATOM     68  F   UNL A   1      43.266  31.750  33.852  1.00  0.00    -0.206 F 
ATOM     69  C   UNL A   1      44.258  35.085  32.845  1.00  0.00     0.006 A 
ENDBRANCH  48  62
BRANCH  49  70
ATOM     70  C   UNL A   1      42.446  23.636  27.451  1.00  0.00     0.057 A 
ATOM     71  C   UNL A   1      42.124  22.497  28.199  1.00  0.00     0.134 A 
ATOM     72  C   UNL A   1      42.585  23.479  26.067  1.00  0.00     0.134 A 
ATOM     73  F   UNL A   1      42.000  22.578  29.533  1.00  0.00    -0.206 F 
ATOM     74  C   UNL A   1      41.966  21.247  27.598  1.00  0.00     0.040 A 
ATOM     75  C   UNL A   1      42.401  22.241  25.449  1.00  0.00     0.040 A 
ATOM     76  F   UNL A   1      42.889  24.530  25.293  1.00  0.00    -0.206 F 
ATOM     77  C   UNL A   1      42.100  21.118  26.217  1.00  0.00     0.006 A 
ENDBRANCH  49  70
BRANCH  61  78
ATOM     78  C   UNL A   1      47.963  26.615  30.484  1.00  0.00     0.057 A 
ATOM     79  C   UNL A   1      49.009  26.876  29.590  1.00  0.00     0.134 A 
ATOM     80  C   UNL A   1      48.278  25.912  31.656  1.00  0.00     0.134 A 
ATOM     81  F   UNL A   1      48.776  27.532  28.443  1.00  0.00    -0.206 F 
ATOM     82  C   UNL A   1      50.310  26.434  29.839  1.00  0.00     0.040 A 
ATOM     83  C   UNL A   1      49.580  25.492  31.930  1.00  0.00     0.040 A 
ATOM     84  F   UNL A   1      47.326  25.634  32.560  1.00  0.00    -0.206 F 
ATOM     85  C   UNL A   1      50.600  25.747  31.016  1.00  0.00     0.006 A 
ENDBRANCH  61  78
ENDBRANCH  35  36
ENDBRANCH  27  30
ENDBRANCH  25  26
ENDBRANCH   1  25
TORSDOF 13
ENDMDL
