MODEL 1
REMARK VINA RESULT:      -9.6      0.000      0.000
REMARK SMILES CC[C@@](C)(NC(=O)N(C)CCO)C(=O)NCCCNC(=O)c1ccc(-c2c3nc(c(-c4c(F)cccc4F)c4ccc([nH]4)c(-c4c(F)cccc4F)c4nc(c(-c5c(F)cccc5F)c5ccc2[nH]5)C=C4)C=C3)cc1
REMARK SMILES IDX 13 1 14 2 15 3 3 5 4 6 2 7 1 8 5 9 6 10 7 12 8 13 9 14 10 15
REMARK SMILES IDX 11 16 12 17 16 19 17 20 18 21 19 22 20 23 21 25 22 26 23 27
REMARK SMILES IDX 75 28 24 29 74 30 25 31 26 32 27 33 68 34 28 35 73 36 67 37
REMARK SMILES IDX 69 38 29 39 72 40 66 41 65 42 30 44 56 45 39 46 55 47 40 48
REMARK SMILES IDX 43 49 54 50 70 51 41 52 42 53 53 55 71 56 44 57 31 58 32 59
REMARK SMILES IDX 37 60 33 61 34 62 36 63 38 64 35 65 57 66 58 67 63 68 59 69
REMARK SMILES IDX 60 70 62 71 64 72 61 73 45 74 46 75 51 76 47 77 48 78 50 79
REMARK SMILES IDX 52 80 49 81
REMARK H PARENT 15 4 5 11 12 18 19 24 69 43 43 54
REMARK Flexibility Score: inf
ROOT
ATOM      1  C   UNL A   1      31.817  28.529  27.057  1.00  0.00     0.245 C 
ATOM      2  O   UNL A   1      31.260  27.831  27.912  1.00  0.00    -0.272 OA
ATOM      3  N   UNL A   1      31.402  29.827  27.025  1.00  0.00    -0.354 N 
ATOM      4  H   UNL A   1      30.658  30.009  27.644  1.00  0.00     0.163 HD
ENDROOT
BRANCH   1   5
ATOM      5  C   UNL A   1      32.980  27.970  26.179  1.00  0.00     0.117 C 
ATOM      6  C   UNL A   1      34.299  28.407  26.876  1.00  0.00     0.045 C 
BRANCH   5   7
ATOM      7  C   UNL A   1      33.049  26.411  26.065  1.00  0.00     0.035 C 
ATOM      8  C   UNL A   1      34.237  25.819  25.311  1.00  0.00     0.007 C 
ENDBRANCH   5   7
BRANCH   5   9
ATOM      9  N   UNL A   1      32.987  28.539  24.807  1.00  0.00    -0.324 N 
ATOM     10  C   UNL A   1      32.210  28.571  23.712  1.00  0.00     0.318 C 
ATOM     11  H   UNL A   1      33.814  29.050  24.653  1.00  0.00     0.166 HD
ATOM     12  O   UNL A   1      32.807  28.951  22.697  1.00  0.00    -0.249 OA
BRANCH  10  13
ATOM     13  N   UNL A   1      30.866  28.337  23.692  1.00  0.00    -0.326 N 
ATOM     14  C   UNL A   1      30.185  27.053  23.701  1.00  0.00     0.148 C 
BRANCH  13  15
ATOM     15  C   UNL A   1      29.947  29.481  23.469  1.00  0.00     0.149 C 
BRANCH  15  16
ATOM     16  C   UNL A   1      29.489  29.745  22.024  1.00  0.00     0.177 C 
BRANCH  16  17
ATOM     17  O   UNL A   1      30.566  30.152  21.187  1.00  0.00    -0.395 OA
ATOM     18  H   UNL A   1      31.083  29.374  20.925  1.00  0.00     0.210 HD
ENDBRANCH  16  17
ENDBRANCH  15  16
ENDBRANCH  13  15
ENDBRANCH  10  13
ENDBRANCH   5   9
ENDBRANCH   1   5
BRANCH   3  19
ATOM     19  C   UNL A   1      31.818  31.003  26.277  1.00  0.00     0.117 C 
BRANCH  19  20
ATOM     20  C   UNL A   1      31.592  32.327  26.999  1.00  0.00     0.042 C 
BRANCH  20  21
ATOM     21  C   UNL A   1      32.805  33.247  27.079  1.00  0.00     0.118 C 
BRANCH  21  22
ATOM     22  N   UNL A   1      32.597  34.375  27.969  1.00  0.00    -0.352 N 
ATOM     23  C   UNL A   1      33.222  34.723  29.141  1.00  0.00     0.251 C 
ATOM     24  H   UNL A   1      31.889  34.997  27.683  1.00  0.00     0.163 HD
ATOM     25  O   UNL A   1      32.743  35.627  29.820  1.00  0.00    -0.269 OA
BRANCH  23  26
ATOM     26  C   UNL A   1      34.445  34.031  29.622  1.00  0.00     0.039 A 
ATOM     27  C   UNL A   1      35.663  34.343  29.007  1.00  0.00     0.014 A 
ATOM     28  C   UNL A   1      34.408  33.018  30.586  1.00  0.00     0.014 A 
ATOM     29  C   UNL A   1      36.838  33.683  29.385  1.00  0.00     0.010 A 
ATOM     30  C   UNL A   1      35.591  32.402  31.008  1.00  0.00     0.010 A 
ATOM     31  C   UNL A   1      36.818  32.721  30.407  1.00  0.00    -0.014 A 
BRANCH  31  32
ATOM     32  C   UNL A   1      38.067  32.035  30.835  1.00  0.00     0.031 A 
ATOM     33  C   UNL A   1      38.890  32.573  31.975  1.00  0.00     0.074 A 
ATOM     34  C   UNL A   1      38.489  30.936  30.179  1.00  0.00     0.049 A 
ATOM     35  N   UNL A   1      40.033  32.141  32.448  1.00  0.00    -0.248 NA
ATOM     36  C   UNL A   1      38.368  33.763  32.664  1.00  0.00     0.031 C 
ATOM     37  C   UNL A   1      37.809  30.318  29.040  1.00  0.00     0.029 A 
ATOM     38  N   UNL A   1      39.599  30.149  30.370  1.00  0.00    -0.354 N 
ATOM     39  C   UNL A   1      40.375  33.013  33.474  1.00  0.00     0.074 A 
ATOM     40  C   UNL A   1      39.335  34.018  33.535  1.00  0.00     0.031 C 
ATOM     41  C   UNL A   1      38.507  29.240  28.644  1.00  0.00     0.029 A 
ATOM     42  C   UNL A   1      39.699  29.111  29.477  1.00  0.00     0.049 A 
ATOM     43  H   UNL A   1      40.259  30.314  31.082  1.00  0.00     0.167 HD
ATOM     44  C   UNL A   1      41.447  32.973  34.301  1.00  0.00     0.037 A 
ATOM     45  C   UNL A   1      40.650  28.167  29.333  1.00  0.00     0.037 A 
ATOM     46  C   UNL A   1      42.470  31.960  34.272  1.00  0.00     0.049 A 
ATOM     47  C   UNL A   1      41.835  28.152  30.256  1.00  0.00     0.074 A 
ATOM     48  C   UNL A   1      43.556  31.807  35.117  1.00  0.00     0.029 A 
ATOM     49  N   UNL A   1      42.533  30.926  33.352  1.00  0.00    -0.354 N 
ATOM     50  N   UNL A   1      42.117  28.955  31.252  1.00  0.00    -0.248 NA
ATOM     51  C   UNL A   1      42.836  27.098  30.032  1.00  0.00     0.031 C 
ATOM     52  C   UNL A   1      44.296  30.700  34.688  1.00  0.00     0.029 A 
ATOM     53  C   UNL A   1      43.650  30.144  33.596  1.00  0.00     0.049 A 
ATOM     54  H   UNL A   1      41.880  30.770  32.631  1.00  0.00     0.167 HD
ATOM     55  C   UNL A   1      43.313  28.493  31.784  1.00  0.00     0.074 A 
ATOM     56  C   UNL A   1      43.700  27.332  31.009  1.00  0.00     0.031 C 
ATOM     57  C   UNL A   1      44.026  28.989  32.823  1.00  0.00     0.037 A 
BRANCH  44  58
ATOM     58  C   UNL A   1      41.573  34.065  35.322  1.00  0.00     0.057 A 
ATOM     59  C   UNL A   1      42.322  35.220  35.076  1.00  0.00     0.134 A 
ATOM     60  C   UNL A   1      40.895  33.979  36.545  1.00  0.00     0.134 A 
ATOM     61  F   UNL A   1      43.001  35.357  33.927  1.00  0.00    -0.206 F 
ATOM     62  C   UNL A   1      42.410  36.247  36.018  1.00  0.00     0.040 A 
ATOM     63  C   UNL A   1      40.958  35.007  37.487  1.00  0.00     0.040 A 
ATOM     64  F   UNL A   1      40.154  32.900  36.840  1.00  0.00    -0.206 F 
ATOM     65  C   UNL A   1      41.721  36.145  37.225  1.00  0.00     0.006 A 
ENDBRANCH  44  58
BRANCH  45  66
ATOM     66  C   UNL A   1      40.516  27.144  28.269  1.00  0.00     0.057 A 
ATOM     67  C   UNL A   1      41.129  27.314  27.023  1.00  0.00     0.134 A 
ATOM     68  C   UNL A   1      39.768  25.978  28.470  1.00  0.00     0.134 A 
ATOM     69  F   UNL A   1      41.839  28.423  26.767  1.00  0.00    -0.206 F 
ATOM     70  C   UNL A   1      40.996  26.366  26.009  1.00  0.00     0.040 A 
ATOM     71  C   UNL A   1      39.643  25.012  27.471  1.00  0.00     0.040 A 
ATOM     72  F   UNL A   1      39.155  25.760  29.642  1.00  0.00    -0.206 F 
ATOM     73  C   UNL A   1      40.254  25.207  26.234  1.00  0.00     0.006 A 
ENDBRANCH  45  66
BRANCH  57  74
ATOM     74  C   UNL A   1      45.284  28.266  33.201  1.00  0.00     0.057 A 
ATOM     75  C   UNL A   1      45.273  27.194  34.100  1.00  0.00     0.134 A 
ATOM     76  C   UNL A   1      46.513  28.625  32.633  1.00  0.00     0.134 A 
ATOM     77  F   UNL A   1      44.130  26.811  34.688  1.00  0.00    -0.206 F 
ATOM     78  C   UNL A   1      46.446  26.511  34.432  1.00  0.00     0.040 A 
ATOM     79  C   UNL A   1      47.688  27.939  32.943  1.00  0.00     0.040 A 
ATOM     80  F   UNL A   1      46.589  29.642  31.761  1.00  0.00    -0.206 F 
ATOM     81  C   UNL A   1      47.656  26.880  33.848  1.00  0.00     0.006 A 
ENDBRANCH  57  74
ENDBRANCH  31  32
ENDBRANCH  23  26
ENDBRANCH  21  22
ENDBRANCH  20  21
ENDBRANCH  19  20
ENDBRANCH   3  19
TORSDOF 16
ENDMDL
MODEL 2
REMARK VINA RESULT:      -9.5      0.323      6.412
REMARK SMILES CC[C@@](C)(NC(=O)N(C)CCO)C(=O)NCCCNC(=O)c1ccc(-c2c3nc(c(-c4c(F)cccc4F)c4ccc([nH]4)c(-c4c(F)cccc4F)c4nc(c(-c5c(F)cccc5F)c5ccc2[nH]5)C=C4)C=C3)cc1
REMARK SMILES IDX 13 1 14 2 15 3 3 5 4 6 2 7 1 8 5 9 6 10 7 12 8 13 9 14 10 15
REMARK SMILES IDX 11 16 12 17 16 19 17 20 18 21 19 22 20 23 21 25 22 26 23 27
REMARK SMILES IDX 75 28 24 29 74 30 25 31 26 32 27 33 68 34 28 35 73 36 67 37
REMARK SMILES IDX 69 38 29 39 72 40 66 41 65 42 30 44 56 45 39 46 55 47 40 48
REMARK SMILES IDX 43 49 54 50 70 51 41 52 42 53 53 55 71 56 44 57 31 58 32 59
REMARK SMILES IDX 37 60 33 61 34 62 36 63 38 64 35 65 57 66 58 67 63 68 59 69
REMARK SMILES IDX 60 70 62 71 64 72 61 73 45 74 46 75 51 76 47 77 48 78 50 79
REMARK SMILES IDX 52 80 49 81
REMARK H PARENT 15 4 5 11 12 18 19 24 69 43 43 54
REMARK Flexibility Score: inf
ROOT
ATOM      1  C   UNL A   1      31.774  28.420  26.891  1.00  0.00     0.245 C 
ATOM      2  O   UNL A   1      31.249  27.706  27.753  1.00  0.00    -0.272 OA
ATOM      3  N   UNL A   1      31.378  29.724  26.915  1.00  0.00    -0.354 N 
ATOM      4  H   UNL A   1      30.669  29.900  27.575  1.00  0.00     0.163 HD
ENDROOT
BRANCH   1   5
ATOM      5  C   UNL A   1      32.882  27.868  25.940  1.00  0.00     0.117 C 
ATOM      6  C   UNL A   1      34.240  28.183  26.628  1.00  0.00     0.045 C 
BRANCH   5   7
ATOM      7  C   UNL A   1      32.863  26.321  25.709  1.00  0.00     0.035 C 
ATOM      8  C   UNL A   1      34.211  25.605  25.671  1.00  0.00     0.007 C 
ENDBRANCH   5   7
BRANCH   5   9
ATOM      9  N   UNL A   1      32.884  28.538  24.614  1.00  0.00    -0.324 N 
ATOM     10  C   UNL A   1      32.132  28.605  23.504  1.00  0.00     0.318 C 
ATOM     11  H   UNL A   1      33.682  29.108  24.521  1.00  0.00     0.166 HD
ATOM     12  O   UNL A   1      32.727  29.095  22.536  1.00  0.00    -0.249 OA
BRANCH  10  13
ATOM     13  N   UNL A   1      30.806  28.293  23.430  1.00  0.00    -0.326 N 
ATOM     14  C   UNL A   1      30.209  26.990  23.187  1.00  0.00     0.148 C 
BRANCH  13  15
ATOM     15  C   UNL A   1      29.814  29.397  23.425  1.00  0.00     0.149 C 
BRANCH  15  16
ATOM     16  C   UNL A   1      29.352  29.922  22.054  1.00  0.00     0.177 C 
BRANCH  16  17
ATOM     17  O   UNL A   1      30.444  30.136  21.167  1.00  0.00    -0.395 OA
ATOM     18  H   UNL A   1      31.096  29.426  21.280  1.00  0.00     0.210 HD
ENDBRANCH  16  17
ENDBRANCH  15  16
ENDBRANCH  13  15
ENDBRANCH  10  13
ENDBRANCH   5   9
ENDBRANCH   1   5
BRANCH   3  19
ATOM     19  C   UNL A   1      31.775  30.915  26.179  1.00  0.00     0.117 C 
BRANCH  19  20
ATOM     20  C   UNL A   1      31.552  32.226  26.924  1.00  0.00     0.042 C 
BRANCH  20  21
ATOM     21  C   UNL A   1      32.783  33.111  27.080  1.00  0.00     0.118 C 
BRANCH  21  22
ATOM     22  N   UNL A   1      32.565  34.223  27.988  1.00  0.00    -0.352 N 
ATOM     23  C   UNL A   1      33.233  34.597  29.127  1.00  0.00     0.251 C 
ATOM     24  H   UNL A   1      31.811  34.807  27.745  1.00  0.00     0.163 HD
ATOM     25  O   UNL A   1      32.745  35.472  29.838  1.00  0.00    -0.269 OA
BRANCH  23  26
ATOM     26  C   UNL A   1      34.515  33.968  29.537  1.00  0.00     0.039 A 
ATOM     27  C   UNL A   1      34.479  32.992  30.539  1.00  0.00     0.014 A 
ATOM     28  C   UNL A   1      35.752  34.383  29.033  1.00  0.00     0.014 A 
ATOM     29  C   UNL A   1      35.663  32.404  30.999  1.00  0.00     0.010 A 
ATOM     30  C   UNL A   1      36.930  33.752  29.448  1.00  0.00     0.010 A 
ATOM     31  C   UNL A   1      36.900  32.762  30.442  1.00  0.00    -0.014 A 
BRANCH  31  32
ATOM     32  C   UNL A   1      38.161  32.121  30.905  1.00  0.00     0.031 A 
ATOM     33  C   UNL A   1      38.706  30.902  30.210  1.00  0.00     0.074 A 
ATOM     34  C   UNL A   1      38.810  32.615  31.978  1.00  0.00     0.049 A 
ATOM     35  N   UNL A   1      39.757  30.179  30.510  1.00  0.00    -0.248 NA
ATOM     36  C   UNL A   1      37.964  30.423  29.035  1.00  0.00     0.031 C 
ATOM     37  C   UNL A   1      38.385  33.772  32.766  1.00  0.00     0.029 A 
ATOM     38  N   UNL A   1      39.963  32.196  32.598  1.00  0.00    -0.354 N 
ATOM     39  C   UNL A   1      39.792  29.153  29.573  1.00  0.00     0.074 A 
ATOM     40  C   UNL A   1      38.639  29.327  28.716  1.00  0.00     0.031 C 
ATOM     41  C   UNL A   1      39.271  33.981  33.753  1.00  0.00     0.029 A 
ATOM     42  C   UNL A   1      40.307  32.954  33.690  1.00  0.00     0.049 A 
ATOM     43  H   UNL A   1      40.492  31.427  32.287  1.00  0.00     0.167 HD
ATOM     44  C   UNL A   1      40.708  28.165  29.430  1.00  0.00     0.037 A 
ATOM     45  C   UNL A   1      41.333  32.831  34.554  1.00  0.00     0.037 A 
ATOM     46  C   UNL A   1      41.876  28.001  30.256  1.00  0.00     0.049 A 
ATOM     47  C   UNL A   1      42.329  31.719  34.380  1.00  0.00     0.074 A 
ATOM     48  C   UNL A   1      42.891  27.066  30.138  1.00  0.00     0.029 A 
ATOM     49  N   UNL A   1      42.188  28.791  31.351  1.00  0.00    -0.354 N 
ATOM     50  N   UNL A   1      42.374  30.787  33.460  1.00  0.00    -0.248 NA
ATOM     51  C   UNL A   1      43.417  31.642  35.367  1.00  0.00     0.031 C 
ATOM     52  C   UNL A   1      43.800  27.268  31.182  1.00  0.00     0.029 A 
ATOM     53  C   UNL A   1      43.368  28.352  31.930  1.00  0.00     0.049 A 
ATOM     54  H   UNL A   1      41.651  29.552  31.670  1.00  0.00     0.167 HD
ATOM     55  C   UNL A   1      43.501  30.028  33.746  1.00  0.00     0.074 A 
ATOM     56  C   UNL A   1      44.119  30.613  34.916  1.00  0.00     0.031 C 
ATOM     57  C   UNL A   1      43.979  28.942  33.092  1.00  0.00     0.037 A 
BRANCH  44  58
ATOM     58  C   UNL A   1      40.487  27.173  28.327  1.00  0.00     0.057 A 
ATOM     59  C   UNL A   1      41.127  27.295  27.089  1.00  0.00     0.134 A 
ATOM     60  C   UNL A   1      39.663  26.058  28.525  1.00  0.00     0.134 A 
ATOM     61  F   UNL A   1      41.921  28.346  26.835  1.00  0.00    -0.206 F 
ATOM     62  C   UNL A   1      40.942  26.351  26.077  1.00  0.00     0.040 A 
ATOM     63  C   UNL A   1      39.486  25.096  27.529  1.00  0.00     0.040 A 
ATOM     64  F   UNL A   1      39.026  25.878  29.692  1.00  0.00    -0.206 F 
ATOM     65  C   UNL A   1      40.125  25.244  26.298  1.00  0.00     0.006 A 
ENDBRANCH  44  58
BRANCH  45  66
ATOM     66  C   UNL A   1      41.479  33.798  35.668  1.00  0.00     0.057 A 
ATOM     67  C   UNL A   1      40.810  33.607  36.882  1.00  0.00     0.134 A 
ATOM     68  C   UNL A   1      42.282  34.937  35.542  1.00  0.00     0.134 A 
ATOM     69  F   UNL A   1      40.008  32.544  37.049  1.00  0.00    -0.206 F 
ATOM     70  C   UNL A   1      40.926  34.519  37.930  1.00  0.00     0.040 A 
ATOM     71  C   UNL A   1      42.423  35.848  36.590  1.00  0.00     0.040 A 
ATOM     72  F   UNL A   1      42.945  35.176  34.402  1.00  0.00    -0.206 F 
ATOM     73  C   UNL A   1      41.739  35.642  37.787  1.00  0.00     0.006 A 
ENDBRANCH  45  66
BRANCH  57  74
ATOM     74  C   UNL A   1      45.244  28.328  33.612  1.00  0.00     0.057 A 
ATOM     75  C   UNL A   1      45.225  27.279  34.538  1.00  0.00     0.134 A 
ATOM     76  C   UNL A   1      46.492  28.768  33.154  1.00  0.00     0.134 A 
ATOM     77  F   UNL A   1      44.062  26.822  35.025  1.00  0.00    -0.206 F 
ATOM     78  C   UNL A   1      46.407  26.697  35.002  1.00  0.00     0.040 A 
ATOM     79  C   UNL A   1      47.679  28.181  33.596  1.00  0.00     0.040 A 
ATOM     80  F   UNL A   1      46.577  29.767  32.262  1.00  0.00    -0.206 F 
ATOM     81  C   UNL A   1      47.638  27.145  34.526  1.00  0.00     0.006 A 
ENDBRANCH  57  74
ENDBRANCH  31  32
ENDBRANCH  23  26
ENDBRANCH  21  22
ENDBRANCH  20  21
ENDBRANCH  19  20
ENDBRANCH   3  19
TORSDOF 16
ENDMDL
MODEL 3
REMARK VINA RESULT:      -9.4      1.407      2.391
REMARK SMILES CC[C@@](C)(NC(=O)N(C)CCO)C(=O)NCCCNC(=O)c1ccc(-c2c3nc(c(-c4c(F)cccc4F)c4ccc([nH]4)c(-c4c(F)cccc4F)c4nc(c(-c5c(F)cccc5F)c5ccc2[nH]5)C=C4)C=C3)cc1
REMARK SMILES IDX 13 1 14 2 15 3 3 5 4 6 2 7 1 8 5 9 6 10 7 12 8 13 9 14 10 15
REMARK SMILES IDX 11 16 12 17 16 19 17 20 18 21 19 22 20 23 21 25 22 26 23 27
REMARK SMILES IDX 75 28 24 29 74 30 25 31 26 32 27 33 68 34 28 35 73 36 67 37
REMARK SMILES IDX 69 38 29 39 72 40 66 41 65 42 30 44 56 45 39 46 55 47 40 48
REMARK SMILES IDX 43 49 54 50 70 51 41 52 42 53 53 55 71 56 44 57 31 58 32 59
REMARK SMILES IDX 37 60 33 61 34 62 36 63 38 64 35 65 57 66 58 67 63 68 59 69
REMARK SMILES IDX 60 70 62 71 64 72 61 73 45 74 46 75 51 76 47 77 48 78 50 79
REMARK SMILES IDX 52 80 49 81
REMARK H PARENT 15 4 5 11 12 18 19 24 69 43 43 54
REMARK Flexibility Score: inf
ROOT
ATOM      1  C   UNL A   1      32.838  28.929  24.588  1.00  0.00     0.245 C 
ATOM      2  O   UNL A   1      33.493  28.815  23.546  1.00  0.00    -0.272 OA
ATOM      3  N   UNL A   1      32.009  30.010  24.625  1.00  0.00    -0.354 N 
ATOM      4  H   UNL A   1      32.104  30.595  23.838  1.00  0.00     0.163 HD
ENDROOT
BRANCH   1   5
ATOM      5  C   UNL A   1      32.892  27.841  25.707  1.00  0.00     0.117 C 
ATOM      6  C   UNL A   1      34.062  26.889  25.330  1.00  0.00     0.045 C 
BRANCH   5   7
ATOM      7  C   UNL A   1      33.209  28.368  27.145  1.00  0.00     0.035 C 
ATOM      8  C   UNL A   1      34.510  29.146  27.332  1.00  0.00     0.007 C 
ENDBRANCH   5   7
BRANCH   5   9
ATOM      9  N   UNL A   1      31.652  27.024  25.772  1.00  0.00    -0.324 N 
ATOM     10  C   UNL A   1      30.932  26.200  24.995  1.00  0.00     0.318 C 
ATOM     11  H   UNL A   1      31.230  27.115  26.657  1.00  0.00     0.166 HD
ATOM     12  O   UNL A   1      29.791  25.991  25.426  1.00  0.00    -0.249 OA
BRANCH  10  13
ATOM     13  N   UNL A   1      31.403  25.537  23.900  1.00  0.00    -0.326 N 
ATOM     14  C   UNL A   1      32.102  24.263  23.861  1.00  0.00     0.148 C 
BRANCH  13  15
ATOM     15  C   UNL A   1      31.374  26.224  22.584  1.00  0.00     0.149 C 
BRANCH  15  16
ATOM     16  C   UNL A   1      32.180  25.584  21.439  1.00  0.00     0.177 C 
BRANCH  16  17
ATOM     17  O   UNL A   1      31.632  25.893  20.162  1.00  0.00    -0.395 OA
ATOM     18  H   UNL A   1      31.337  25.075  19.732  1.00  0.00     0.210 HD
ENDBRANCH  16  17
ENDBRANCH  15  16
ENDBRANCH  13  15
ENDBRANCH  10  13
ENDBRANCH   5   9
ENDBRANCH   1   5
BRANCH   3  19
ATOM     19  C   UNL A   1      31.015  30.491  25.571  1.00  0.00     0.117 C 
BRANCH  19  20
ATOM     20  C   UNL A   1      31.174  31.953  25.972  1.00  0.00     0.042 C 
BRANCH  20  21
ATOM     21  C   UNL A   1      32.150  32.220  27.112  1.00  0.00     0.118 C 
BRANCH  21  22
ATOM     22  N   UNL A   1      32.251  33.628  27.448  1.00  0.00    -0.352 N 
ATOM     23  C   UNL A   1      33.140  34.299  28.252  1.00  0.00     0.251 C 
ATOM     24  H   UNL A   1      31.568  34.199  27.029  1.00  0.00     0.163 HD
ATOM     25  O   UNL A   1      32.910  35.472  28.537  1.00  0.00    -0.269 OA
BRANCH  23  26
ATOM     26  C   UNL A   1      34.357  33.649  28.802  1.00  0.00     0.039 A 
ATOM     27  C   UNL A   1      34.190  32.538  29.637  1.00  0.00     0.014 A 
ATOM     28  C   UNL A   1      35.642  34.162  28.598  1.00  0.00     0.014 A 
ATOM     29  C   UNL A   1      35.300  31.920  30.225  1.00  0.00     0.010 A 
ATOM     30  C   UNL A   1      36.756  33.507  29.133  1.00  0.00     0.010 A 
ATOM     31  C   UNL A   1      36.598  32.384  29.960  1.00  0.00    -0.014 A 
BRANCH  31  32
ATOM     32  C   UNL A   1      37.785  31.715  30.557  1.00  0.00     0.031 A 
ATOM     33  C   UNL A   1      38.290  32.112  31.918  1.00  0.00     0.074 A 
ATOM     34  C   UNL A   1      38.440  30.763  29.862  1.00  0.00     0.049 A 
ATOM     35  N   UNL A   1      39.342  31.679  32.570  1.00  0.00    -0.248 NA
ATOM     36  C   UNL A   1      37.523  33.141  32.635  1.00  0.00     0.031 C 
ATOM     37  C   UNL A   1      38.081  30.297  28.523  1.00  0.00     0.029 A 
ATOM     38  N   UNL A   1      39.553  30.025  30.185  1.00  0.00    -0.354 N 
ATOM     39  C   UNL A   1      39.372  32.394  33.761  1.00  0.00     0.074 A 
ATOM     40  C   UNL A   1      38.252  33.311  33.729  1.00  0.00     0.031 C 
ATOM     41  C   UNL A   1      38.946  29.341  28.144  1.00  0.00     0.029 A 
ATOM     42  C   UNL A   1      39.940  29.152  29.197  1.00  0.00     0.049 A 
ATOM     43  H   UNL A   1      40.027  30.113  31.043  1.00  0.00     0.167 HD
ATOM     44  C   UNL A   1      40.242  32.287  34.794  1.00  0.00     0.037 A 
ATOM     45  C   UNL A   1      40.984  28.303  29.138  1.00  0.00     0.037 A 
ATOM     46  C   UNL A   1      41.338  31.355  34.852  1.00  0.00     0.049 A 
ATOM     47  C   UNL A   1      41.940  28.212  30.292  1.00  0.00     0.074 A 
ATOM     48  C   UNL A   1      42.228  31.135  35.890  1.00  0.00     0.029 A 
ATOM     49  N   UNL A   1      41.694  30.489  33.831  1.00  0.00    -0.354 N 
ATOM     50  N   UNL A   1      41.926  28.859  31.431  1.00  0.00    -0.248 NA
ATOM     51  C   UNL A   1      43.062  27.270  30.151  1.00  0.00     0.031 C 
ATOM     52  C   UNL A   1      43.144  30.158  35.484  1.00  0.00     0.029 A 
ATOM     53  C   UNL A   1      42.803  29.747  34.206  1.00  0.00     0.049 A 
ATOM     54  H   UNL A   1      41.228  30.411  32.967  1.00  0.00     0.167 HD
ATOM     55  C   UNL A   1      43.019  28.391  32.148  1.00  0.00     0.074 A 
ATOM     56  C   UNL A   1      43.670  27.396  31.322  1.00  0.00     0.031 C 
ATOM     57  C   UNL A   1      43.443  28.756  33.381  1.00  0.00     0.037 A 
BRANCH  44  58
ATOM     58  C   UNL A   1      40.042  33.205  35.963  1.00  0.00     0.057 A 
ATOM     59  C   UNL A   1      40.617  34.481  36.004  1.00  0.00     0.134 A 
ATOM     60  C   UNL A   1      39.225  32.827  37.036  1.00  0.00     0.134 A 
ATOM     61  F   UNL A   1      41.417  34.897  35.010  1.00  0.00    -0.206 F 
ATOM     62  C   UNL A   1      40.402  35.343  37.080  1.00  0.00     0.040 A 
ATOM     63  C   UNL A   1      38.986  33.688  38.108  1.00  0.00     0.040 A 
ATOM     64  F   UNL A   1      38.639  31.620  37.055  1.00  0.00    -0.206 F 
ATOM     65  C   UNL A   1      39.578  34.950  38.133  1.00  0.00     0.006 A 
ENDBRANCH  44  58
BRANCH  45  66
ATOM     66  C   UNL A   1      41.178  27.458  27.935  1.00  0.00     0.057 A 
ATOM     67  C   UNL A   1      40.590  26.192  27.842  1.00  0.00     0.134 A 
ATOM     68  C   UNL A   1      41.959  27.892  26.858  1.00  0.00     0.134 A 
ATOM     69  F   UNL A   1      39.851  25.715  28.855  1.00  0.00    -0.206 F 
ATOM     70  C   UNL A   1      40.780  25.380  26.724  1.00  0.00     0.040 A 
ATOM     71  C   UNL A   1      42.140  27.099  25.725  1.00  0.00     0.040 A 
ATOM     72  F   UNL A   1      42.549  29.095  26.891  1.00  0.00    -0.206 F 
ATOM     73  C   UNL A   1      41.554  25.836  25.657  1.00  0.00     0.006 A 
ENDBRANCH  45  66
BRANCH  57  74
ATOM     74  C   UNL A   1      44.653  28.060  33.926  1.00  0.00     0.057 A 
ATOM     75  C   UNL A   1      45.940  28.588  33.765  1.00  0.00     0.134 A 
ATOM     76  C   UNL A   1      44.527  26.867  34.649  1.00  0.00     0.134 A 
ATOM     77  F   UNL A   1      46.127  29.720  33.070  1.00  0.00    -0.206 F 
ATOM     78  C   UNL A   1      47.061  27.946  34.293  1.00  0.00     0.040 A 
ATOM     79  C   UNL A   1      45.639  26.226  35.198  1.00  0.00     0.040 A 
ATOM     80  F   UNL A   1      43.321  26.312  34.843  1.00  0.00    -0.206 F 
ATOM     81  C   UNL A   1      46.911  26.764  35.017  1.00  0.00     0.006 A 
ENDBRANCH  57  74
ENDBRANCH  31  32
ENDBRANCH  23  26
ENDBRANCH  21  22
ENDBRANCH  20  21
ENDBRANCH  19  20
ENDBRANCH   3  19
TORSDOF 16
ENDMDL
