MODEL 1
REMARK VINA RESULT:     -13.8      0.000      0.000
REMARK SMILES Cc1ccc(-c2cc(C[C@H]3CCCC3=O)ccc2[C@@H](C)C(=O)NCCCNC(=O)c2ccc(-c3c4nc(c(-c5c(F)cccc5F)c5ccc([nH]5)c(-c5c(F)cccc5F)c5nc(c(-c6c(F)cccc6F)c6ccc3[nH]6)C=C5)C=C4)cc2)cc1
REMARK SMILES IDX 24 1 23 2 21 3 22 4 19 6 20 7 18 8 6 9 7 10 8 11 17 12 16 13
REMARK SMILES IDX 5 14 1 15 2 16 3 17 85 18 4 19 84 20 9 21 10 22 11 23 14 24
REMARK SMILES IDX 12 25 13 26 15 27 25 28 26 29 27 30 28 31 29 33 30 34 31 35
REMARK SMILES IDX 83 36 32 37 82 38 33 39 34 40 35 41 76 42 36 43 81 44 75 45
REMARK SMILES IDX 77 46 37 47 80 48 74 49 73 50 38 52 64 53 47 54 63 55 48 56
REMARK SMILES IDX 51 57 62 58 78 59 49 60 50 61 61 63 79 64 52 65 39 66 40 67
REMARK SMILES IDX 45 68 41 69 42 70 44 71 46 72 43 73 65 74 66 75 71 76 67 77
REMARK SMILES IDX 68 78 70 79 72 80 69 81 53 82 54 83 59 84 55 85 56 86 58 87
REMARK SMILES IDX 60 88 57 89
REMARK H PARENT 23 5 27 32 77 51 51 62
REMARK Flexibility Score: inf
ROOT
ATOM      1  C   UNL A   1      32.583  30.981  26.882  1.00  0.00     0.117 C 
ENDROOT
BRANCH   1   2
ATOM      2  N   UNL A   1      33.179  29.986  26.005  1.00  0.00    -0.356 N 
ATOM      3  C   UNL A   1      32.830  28.713  25.668  1.00  0.00     0.227 C 
ATOM      4  O   UNL A   1      33.629  28.127  24.925  1.00  0.00    -0.274 OA
ATOM      5  H   UNL A   1      34.003  30.296  25.564  1.00  0.00     0.163 HD
BRANCH   3   6
ATOM      6  C   UNL A   1      31.557  27.985  26.154  1.00  0.00     0.106 C 
ATOM      7  C   UNL A   1      31.369  27.984  27.670  1.00  0.00     0.023 C 
BRANCH   6   8
ATOM      8  C   UNL A   1      31.345  26.646  25.445  1.00  0.00    -0.028 A 
ATOM      9  C   UNL A   1      30.881  26.560  24.109  1.00  0.00    -0.014 A 
ATOM     10  C   UNL A   1      30.955  25.323  23.429  1.00  0.00     0.012 A 
ATOM     11  C   UNL A   1      31.399  24.157  24.065  1.00  0.00    -0.047 A 
ATOM     12  C   UNL A   1      31.657  25.447  26.100  1.00  0.00     0.005 A 
ATOM     13  C   UNL A   1      31.704  24.227  25.423  1.00  0.00     0.004 A 
BRANCH   9  14
ATOM     14  C   UNL A   1      30.122  27.651  23.474  1.00  0.00    -0.018 A 
ATOM     15  C   UNL A   1      28.055  30.773  21.306  1.00  0.00     0.044 C 
ATOM     16  C   UNL A   1      28.779  29.713  22.082  1.00  0.00    -0.051 A 
ATOM     17  C   UNL A   1      28.066  28.787  22.856  1.00  0.00     0.004 A 
ATOM     18  C   UNL A   1      30.169  29.617  22.022  1.00  0.00     0.004 A 
ATOM     19  C   UNL A   1      28.731  27.768  23.552  1.00  0.00     0.009 A 
ATOM     20  C   UNL A   1      30.830  28.599  22.710  1.00  0.00     0.009 A 
ENDBRANCH   9  14
BRANCH  11  21
ATOM     21  C   UNL A   1      31.456  22.835  23.342  1.00  0.00     0.047 C 
BRANCH  21  22
ATOM     22  C   UNL A   1      32.839  22.298  22.966  1.00  0.00     0.060 C 
ATOM     23  C   UNL A   1      33.867  23.340  22.508  1.00  0.00     0.012 C 
ATOM     24  C   UNL A   1      33.563  21.597  24.095  1.00  0.00     0.136 C 
ATOM     25  C   UNL A   1      34.842  23.518  23.664  1.00  0.00     0.009 C 
ATOM     26  C   UNL A   1      34.945  22.149  24.315  1.00  0.00     0.076 C 
ATOM     27  O   UNL A   1      33.110  20.649  24.723  1.00  0.00    -0.299 OA
ENDBRANCH  21  22
ENDBRANCH  11  21
ENDBRANCH   6   8
ENDBRANCH   3   6
ENDBRANCH   1   2
BRANCH   1  28
ATOM     28  C   UNL A   1      33.628  31.841  27.588  1.00  0.00     0.042 C 
BRANCH  28  29
ATOM     29  C   UNL A   1      34.938  31.135  27.890  1.00  0.00     0.118 C 
BRANCH  29  30
ATOM     30  N   UNL A   1      35.704  31.762  28.971  1.00  0.00    -0.352 N 
ATOM     31  C   UNL A   1      36.837  31.273  29.605  1.00  0.00     0.251 C 
ATOM     32  H   UNL A   1      35.375  32.635  29.285  1.00  0.00     0.163 HD
ATOM     33  O   UNL A   1      37.461  31.940  30.412  1.00  0.00    -0.269 OA
BRANCH  31  34
ATOM     34  C   UNL A   1      37.326  29.947  29.173  1.00  0.00     0.039 A 
ATOM     35  C   UNL A   1      37.556  28.996  30.168  1.00  0.00     0.014 A 
ATOM     36  C   UNL A   1      37.881  29.821  27.902  1.00  0.00     0.014 A 
ATOM     37  C   UNL A   1      38.566  28.062  29.973  1.00  0.00     0.010 A 
ATOM     38  C   UNL A   1      38.946  28.952  27.744  1.00  0.00     0.010 A 
ATOM     39  C   UNL A   1      39.336  28.131  28.809  1.00  0.00    -0.014 A 
BRANCH  39  40
ATOM     40  C   UNL A   1      40.644  27.489  28.710  1.00  0.00     0.031 A 
ATOM     41  C   UNL A   1      40.752  26.052  28.392  1.00  0.00     0.074 A 
ATOM     42  C   UNL A   1      41.776  28.198  28.924  1.00  0.00     0.049 A 
ATOM     43  N   UNL A   1      41.686  25.283  28.843  1.00  0.00    -0.248 NA
ATOM     44  C   UNL A   1      39.779  25.358  27.559  1.00  0.00     0.031 C 
ATOM     45  C   UNL A   1      43.147  27.757  28.685  1.00  0.00     0.029 A 
ATOM     46  N   UNL A   1      41.914  29.411  29.612  1.00  0.00    -0.354 N 
ATOM     47  C   UNL A   1      41.603  24.088  28.167  1.00  0.00     0.074 A 
ATOM     48  C   UNL A   1      40.363  24.162  27.426  1.00  0.00     0.031 C 
ATOM     49  C   UNL A   1      43.977  28.496  29.437  1.00  0.00     0.029 A 
ATOM     50  C   UNL A   1      43.163  29.363  30.268  1.00  0.00     0.049 A 
ATOM     51  H   UNL A   1      41.266  30.152  29.635  1.00  0.00     0.167 HD
ATOM     52  C   UNL A   1      42.653  23.217  28.191  1.00  0.00     0.037 A 
ATOM     53  C   UNL A   1      43.272  29.491  31.621  1.00  0.00     0.037 A 
ATOM     54  C   UNL A   1      43.761  23.728  28.992  1.00  0.00     0.049 A 
ATOM     55  C   UNL A   1      43.882  28.292  32.307  1.00  0.00     0.074 A 
ATOM     56  C   UNL A   1      44.917  24.411  28.647  1.00  0.00     0.029 A 
ATOM     57  N   UNL A   1      43.634  23.841  30.371  1.00  0.00    -0.354 N 
ATOM     58  N   UNL A   1      44.052  27.137  31.725  1.00  0.00    -0.248 NA
ATOM     59  C   UNL A   1      44.299  28.273  33.708  1.00  0.00     0.031 C 
ATOM     60  C   UNL A   1      45.464  24.975  29.821  1.00  0.00     0.029 A 
ATOM     61  C   UNL A   1      44.651  24.625  30.883  1.00  0.00     0.049 A 
ATOM     62  H   UNL A   1      42.923  23.422  30.907  1.00  0.00     0.167 HD
ATOM     63  C   UNL A   1      44.530  26.232  32.635  1.00  0.00     0.074 A 
ATOM     64  C   UNL A   1      44.699  26.997  33.854  1.00  0.00     0.031 C 
ATOM     65  C   UNL A   1      44.726  24.922  32.304  1.00  0.00     0.037 A 
BRANCH  52  66
ATOM     66  C   UNL A   1      42.779  22.069  27.217  1.00  0.00     0.057 A 
ATOM     67  C   UNL A   1      41.995  20.906  27.351  1.00  0.00     0.134 A 
ATOM     68  C   UNL A   1      43.699  22.031  26.156  1.00  0.00     0.134 A 
ATOM     69  F   UNL A   1      40.986  20.829  28.227  1.00  0.00    -0.206 F 
ATOM     70  C   UNL A   1      42.212  19.751  26.589  1.00  0.00     0.040 A 
ATOM     71  C   UNL A   1      43.967  20.865  25.423  1.00  0.00     0.040 A 
ATOM     72  F   UNL A   1      44.352  23.133  25.763  1.00  0.00    -0.206 F 
ATOM     73  C   UNL A   1      43.233  19.710  25.653  1.00  0.00     0.006 A 
ENDBRANCH  52  66
BRANCH  53  74
ATOM     74  C   UNL A   1      42.242  30.384  32.203  1.00  0.00     0.057 A 
ATOM     75  C   UNL A   1      42.450  31.773  32.127  1.00  0.00     0.134 A 
ATOM     76  C   UNL A   1      40.936  29.944  32.435  1.00  0.00     0.134 A 
ATOM     77  F   UNL A   1      43.683  32.258  31.910  1.00  0.00    -0.206 F 
ATOM     78  C   UNL A   1      41.389  32.679  32.146  1.00  0.00     0.040 A 
ATOM     79  C   UNL A   1      39.867  30.846  32.468  1.00  0.00     0.040 A 
ATOM     80  F   UNL A   1      40.661  28.635  32.507  1.00  0.00    -0.206 F 
ATOM     81  C   UNL A   1      40.086  32.210  32.277  1.00  0.00     0.006 A 
ENDBRANCH  53  74
BRANCH  65  82
ATOM     82  C   UNL A   1      45.091  23.818  33.261  1.00  0.00     0.057 A 
ATOM     83  C   UNL A   1      46.352  23.676  33.855  1.00  0.00     0.134 A 
ATOM     84  C   UNL A   1      44.100  22.924  33.725  1.00  0.00     0.134 A 
ATOM     85  F   UNL A   1      47.352  24.524  33.579  1.00  0.00    -0.206 F 
ATOM     86  C   UNL A   1      46.626  22.681  34.802  1.00  0.00     0.040 A 
ATOM     87  C   UNL A   1      44.348  21.959  34.704  1.00  0.00     0.040 A 
ATOM     88  F   UNL A   1      42.843  22.964  33.257  1.00  0.00    -0.206 F 
ATOM     89  C   UNL A   1      45.620  21.825  35.238  1.00  0.00     0.006 A 
ENDBRANCH  65  82
ENDBRANCH  39  40
ENDBRANCH  31  34
ENDBRANCH  29  30
ENDBRANCH  28  29
ENDBRANCH   1  28
TORSDOF 14
ENDMDL
MODEL 2
REMARK VINA RESULT:     -13.4      1.799      4.148
REMARK SMILES Cc1ccc(-c2cc(C[C@H]3CCCC3=O)ccc2[C@@H](C)C(=O)NCCCNC(=O)c2ccc(-c3c4nc(c(-c5c(F)cccc5F)c5ccc([nH]5)c(-c5c(F)cccc5F)c5nc(c(-c6c(F)cccc6F)c6ccc3[nH]6)C=C5)C=C4)cc2)cc1
REMARK SMILES IDX 24 1 23 2 21 3 22 4 19 6 20 7 18 8 6 9 7 10 8 11 17 12 16 13
REMARK SMILES IDX 5 14 1 15 2 16 3 17 85 18 4 19 84 20 9 21 10 22 11 23 14 24
REMARK SMILES IDX 12 25 13 26 15 27 25 28 26 29 27 30 28 31 29 33 30 34 31 35
REMARK SMILES IDX 83 36 32 37 82 38 33 39 34 40 35 41 76 42 36 43 81 44 75 45
REMARK SMILES IDX 77 46 37 47 80 48 74 49 73 50 38 52 64 53 47 54 63 55 48 56
REMARK SMILES IDX 51 57 62 58 78 59 49 60 50 61 61 63 79 64 52 65 39 66 40 67
REMARK SMILES IDX 45 68 41 69 42 70 44 71 46 72 43 73 65 74 66 75 71 76 67 77
REMARK SMILES IDX 68 78 70 79 72 80 69 81 53 82 54 83 59 84 55 85 56 86 58 87
REMARK SMILES IDX 60 88 57 89
REMARK H PARENT 23 5 27 32 77 51 51 62
REMARK Flexibility Score: inf
ROOT
ATOM      1  C   UNL A   1      32.712  29.737  26.096  1.00  0.00     0.117 C 
ENDROOT
BRANCH   1   2
ATOM      2  N   UNL A   1      33.614  29.707  24.956  1.00  0.00    -0.356 N 
ATOM      3  C   UNL A   1      33.795  28.824  23.935  1.00  0.00     0.227 C 
ATOM      4  O   UNL A   1      34.723  29.097  23.161  1.00  0.00    -0.274 OA
ATOM      5  H   UNL A   1      34.216  30.485  24.914  1.00  0.00     0.163 HD
BRANCH   3   6
ATOM      6  C   UNL A   1      32.956  27.548  23.707  1.00  0.00     0.106 C 
ATOM      7  C   UNL A   1      33.680  26.443  22.940  1.00  0.00     0.023 C 
BRANCH   6   8
ATOM      8  C   UNL A   1      31.528  27.862  23.256  1.00  0.00    -0.028 A 
ATOM      9  C   UNL A   1      30.402  27.161  23.758  1.00  0.00    -0.014 A 
ATOM     10  C   UNL A   1      29.106  27.666  23.506  1.00  0.00     0.012 A 
ATOM     11  C   UNL A   1      28.896  28.795  22.706  1.00  0.00    -0.047 A 
ATOM     12  C   UNL A   1      31.291  28.906  22.352  1.00  0.00     0.005 A 
ATOM     13  C   UNL A   1      30.003  29.380  22.095  1.00  0.00     0.004 A 
BRANCH   9  14
ATOM     14  C   UNL A   1      30.517  25.813  24.339  1.00  0.00    -0.018 A 
ATOM     15  C   UNL A   1      31.146  21.807  25.848  1.00  0.00     0.044 C 
ATOM     16  C   UNL A   1      30.895  23.188  25.319  1.00  0.00    -0.051 A 
ATOM     17  C   UNL A   1      30.724  24.265  26.200  1.00  0.00     0.004 A 
ATOM     18  C   UNL A   1      30.858  23.425  23.945  1.00  0.00     0.004 A 
ATOM     19  C   UNL A   1      30.529  25.566  25.715  1.00  0.00     0.009 A 
ATOM     20  C   UNL A   1      30.671  24.721  23.464  1.00  0.00     0.009 A 
ENDBRANCH   9  14
BRANCH  11  21
ATOM     21  C   UNL A   1      27.510  29.317  22.423  1.00  0.00     0.047 C 
BRANCH  21  22
ATOM     22  C   UNL A   1      27.259  30.809  22.654  1.00  0.00     0.060 C 
ATOM     23  C   UNL A   1      27.795  31.389  23.969  1.00  0.00     0.012 C 
ATOM     24  C   UNL A   1      27.887  31.714  21.616  1.00  0.00     0.136 C 
ATOM     25  C   UNL A   1      29.032  32.201  23.606  1.00  0.00     0.009 C 
ATOM     26  C   UNL A   1      28.739  32.787  22.236  1.00  0.00     0.076 C 
ATOM     27  O   UNL A   1      27.684  31.628  20.411  1.00  0.00    -0.299 OA
ENDBRANCH  21  22
ENDBRANCH  11  21
ENDBRANCH   6   8
ENDBRANCH   3   6
ENDBRANCH   1   2
BRANCH   1  28
ATOM     28  C   UNL A   1      33.250  30.583  27.248  1.00  0.00     0.042 C 
BRANCH  28  29
ATOM     29  C   UNL A   1      34.724  30.382  27.553  1.00  0.00     0.118 C 
BRANCH  29  30
ATOM     30  N   UNL A   1      35.166  31.063  28.773  1.00  0.00    -0.352 N 
ATOM     31  C   UNL A   1      36.295  30.797  29.534  1.00  0.00     0.251 C 
ATOM     32  H   UNL A   1      34.593  31.798  29.091  1.00  0.00     0.163 HD
ATOM     33  O   UNL A   1      36.626  31.510  30.465  1.00  0.00    -0.269 OA
BRANCH  31  34
ATOM     34  C   UNL A   1      37.149  29.675  29.094  1.00  0.00     0.039 A 
ATOM     35  C   UNL A   1      37.437  28.685  30.034  1.00  0.00     0.014 A 
ATOM     36  C   UNL A   1      37.914  29.828  27.940  1.00  0.00     0.014 A 
ATOM     37  C   UNL A   1      38.660  28.029  29.955  1.00  0.00     0.010 A 
ATOM     38  C   UNL A   1      39.167  29.242  27.911  1.00  0.00     0.010 A 
ATOM     39  C   UNL A   1      39.567  28.406  28.961  1.00  0.00    -0.014 A 
BRANCH  39  40
ATOM     40  C   UNL A   1      40.989  28.086  29.052  1.00  0.00     0.031 A 
ATOM     41  C   UNL A   1      41.526  26.870  28.412  1.00  0.00     0.074 A 
ATOM     42  C   UNL A   1      41.831  28.891  29.739  1.00  0.00     0.049 A 
ATOM     43  N   UNL A   1      42.519  26.188  28.881  1.00  0.00    -0.248 NA
ATOM     44  C   UNL A   1      40.954  26.303  27.199  1.00  0.00     0.031 C 
ATOM     45  C   UNL A   1      43.289  28.814  29.770  1.00  0.00     0.029 A 
ATOM     46  N   UNL A   1      41.510  29.828  30.729  1.00  0.00    -0.354 N 
ATOM     47  C   UNL A   1      42.884  25.274  27.921  1.00  0.00     0.074 A 
ATOM     48  C   UNL A   1      41.841  25.343  26.921  1.00  0.00     0.031 C 
ATOM     49  C   UNL A   1      43.731  29.420  30.882  1.00  0.00     0.029 A 
ATOM     50  C   UNL A   1      42.572  29.812  31.660  1.00  0.00     0.049 A 
ATOM     51  H   UNL A   1      40.701  30.389  30.769  1.00  0.00     0.167 HD
ATOM     52  C   UNL A   1      44.097  24.654  27.998  1.00  0.00     0.037 A 
ATOM     53  C   UNL A   1      42.370  29.525  32.977  1.00  0.00     0.037 A 
ATOM     54  C   UNL A   1      44.851  25.085  29.171  1.00  0.00     0.049 A 
ATOM     55  C   UNL A   1      43.119  28.309  33.465  1.00  0.00     0.074 A 
ATOM     56  C   UNL A   1      45.836  26.046  29.338  1.00  0.00     0.029 A 
ATOM     57  N   UNL A   1      44.426  24.732  30.446  1.00  0.00    -0.354 N 
ATOM     58  N   UNL A   1      43.696  27.450  32.671  1.00  0.00    -0.248 NA
ATOM     59  C   UNL A   1      43.238  27.928  34.872  1.00  0.00     0.031 C 
ATOM     60  C   UNL A   1      45.972  26.304  30.721  1.00  0.00     0.029 A 
ATOM     61  C   UNL A   1      45.081  25.491  31.397  1.00  0.00     0.049 A 
ATOM     62  H   UNL A   1      43.756  24.039  30.644  1.00  0.00     0.167 HD
ATOM     63  C   UNL A   1      44.200  26.411  33.408  1.00  0.00     0.074 A 
ATOM     64  C   UNL A   1      43.918  26.770  34.783  1.00  0.00     0.031 C 
ATOM     65  C   UNL A   1      44.791  25.333  32.813  1.00  0.00     0.037 A 
BRANCH  52  66
ATOM     66  C   UNL A   1      44.709  23.917  26.830  1.00  0.00     0.057 A 
ATOM     67  C   UNL A   1      44.337  22.592  26.524  1.00  0.00     0.134 A 
ATOM     68  C   UNL A   1      45.714  24.444  26.002  1.00  0.00     0.134 A 
ATOM     69  F   UNL A   1      43.309  21.987  27.132  1.00  0.00    -0.206 F 
ATOM     70  C   UNL A   1      45.010  21.813  25.575  1.00  0.00     0.040 A 
ATOM     71  C   UNL A   1      46.434  23.661  25.087  1.00  0.00     0.040 A 
ATOM     72  F   UNL A   1      46.015  25.750  26.020  1.00  0.00    -0.206 F 
ATOM     73  C   UNL A   1      46.094  22.331  24.885  1.00  0.00     0.006 A 
ENDBRANCH  52  66
BRANCH  53  74
ATOM     74  C   UNL A   1      41.049  29.979  33.474  1.00  0.00     0.057 A 
ATOM     75  C   UNL A   1      40.885  31.345  33.766  1.00  0.00     0.134 A 
ATOM     76  C   UNL A   1      39.891  29.224  33.272  1.00  0.00     0.134 A 
ATOM     77  F   UNL A   1      41.959  32.123  33.975  1.00  0.00    -0.206 F 
ATOM     78  C   UNL A   1      39.633  31.961  33.726  1.00  0.00     0.040 A 
ATOM     79  C   UNL A   1      38.630  29.830  33.242  1.00  0.00     0.040 A 
ATOM     80  F   UNL A   1      39.971  27.919  32.977  1.00  0.00    -0.206 F 
ATOM     81  C   UNL A   1      38.504  31.207  33.424  1.00  0.00     0.006 A 
ENDBRANCH  53  74
BRANCH  65  82
ATOM     82  C   UNL A   1      45.229  24.074  33.511  1.00  0.00     0.057 A 
ATOM     83  C   UNL A   1      46.495  23.891  34.083  1.00  0.00     0.134 A 
ATOM     84  C   UNL A   1      44.303  23.034  33.748  1.00  0.00     0.134 A 
ATOM     85  F   UNL A   1      47.434  24.846  34.018  1.00  0.00    -0.206 F 
ATOM     86  C   UNL A   1      46.836  22.733  34.794  1.00  0.00     0.040 A 
ATOM     87  C   UNL A   1      44.615  21.896  34.497  1.00  0.00     0.040 A 
ATOM     88  F   UNL A   1      43.048  23.090  33.277  1.00  0.00    -0.206 F 
ATOM     89  C   UNL A   1      45.892  21.736  35.012  1.00  0.00     0.006 A 
ENDBRANCH  65  82
ENDBRANCH  39  40
ENDBRANCH  31  34
ENDBRANCH  29  30
ENDBRANCH  28  29
ENDBRANCH   1  28
TORSDOF 14
ENDMDL
MODEL 3
REMARK VINA RESULT:     -13.1      2.687      5.474
REMARK SMILES Cc1ccc(-c2cc(C[C@H]3CCCC3=O)ccc2[C@@H](C)C(=O)NCCCNC(=O)c2ccc(-c3c4nc(c(-c5c(F)cccc5F)c5ccc([nH]5)c(-c5c(F)cccc5F)c5nc(c(-c6c(F)cccc6F)c6ccc3[nH]6)C=C5)C=C4)cc2)cc1
REMARK SMILES IDX 24 1 23 2 21 3 22 4 19 6 20 7 18 8 6 9 7 10 8 11 17 12 16 13
REMARK SMILES IDX 5 14 1 15 2 16 3 17 85 18 4 19 84 20 9 21 10 22 11 23 14 24
REMARK SMILES IDX 12 25 13 26 15 27 25 28 26 29 27 30 28 31 29 33 30 34 31 35
REMARK SMILES IDX 83 36 32 37 82 38 33 39 34 40 35 41 76 42 36 43 81 44 75 45
REMARK SMILES IDX 77 46 37 47 80 48 74 49 73 50 38 52 64 53 47 54 63 55 48 56
REMARK SMILES IDX 51 57 62 58 78 59 49 60 50 61 61 63 79 64 52 65 39 66 40 67
REMARK SMILES IDX 45 68 41 69 42 70 44 71 46 72 43 73 65 74 66 75 71 76 67 77
REMARK SMILES IDX 68 78 70 79 72 80 69 81 53 82 54 83 59 84 55 85 56 86 58 87
REMARK SMILES IDX 60 88 57 89
REMARK H PARENT 23 5 27 32 77 51 51 62
REMARK Flexibility Score: inf
ROOT
ATOM      1  C   UNL A   1      33.595  30.458  26.961  1.00  0.00     0.117 C 
ENDROOT
BRANCH   1   2
ATOM      2  N   UNL A   1      32.682  29.555  27.643  1.00  0.00    -0.356 N 
ATOM      3  C   UNL A   1      32.140  28.351  27.308  1.00  0.00     0.227 C 
ATOM      4  O   UNL A   1      31.330  27.892  28.126  1.00  0.00    -0.274 OA
ATOM      5  H   UNL A   1      32.398  29.880  28.528  1.00  0.00     0.163 HD
BRANCH   3   6
ATOM      6  C   UNL A   1      32.451  27.568  26.013  1.00  0.00     0.106 C 
ATOM      7  C   UNL A   1      33.924  27.573  25.611  1.00  0.00     0.023 C 
BRANCH   6   8
ATOM      8  C   UNL A   1      31.443  27.859  24.900  1.00  0.00    -0.028 A 
ATOM      9  C   UNL A   1      30.498  26.899  24.461  1.00  0.00    -0.014 A 
ATOM     10  C   UNL A   1      29.434  27.307  23.624  1.00  0.00     0.012 A 
ATOM     11  C   UNL A   1      29.333  28.620  23.148  1.00  0.00    -0.047 A 
ATOM     12  C   UNL A   1      31.399  29.129  24.307  1.00  0.00     0.005 A 
ATOM     13  C   UNL A   1      30.355  29.512  23.464  1.00  0.00     0.004 A 
BRANCH   9  14
ATOM     14  C   UNL A   1      30.704  25.454  24.660  1.00  0.00    -0.018 A 
ATOM     15  C   UNL A   1      31.636  21.253  25.111  1.00  0.00     0.044 C 
ATOM     16  C   UNL A   1      31.283  22.700  24.940  1.00  0.00    -0.051 A 
ATOM     17  C   UNL A   1      30.786  23.443  26.021  1.00  0.00     0.004 A 
ATOM     18  C   UNL A   1      31.471  23.335  23.712  1.00  0.00     0.004 A 
ATOM     19  C   UNL A   1      30.492  24.806  25.881  1.00  0.00     0.009 A 
ATOM     20  C   UNL A   1      31.184  24.694  23.576  1.00  0.00     0.009 A 
ENDBRANCH   9  14
BRANCH  11  21
ATOM     21  C   UNL A   1      28.208  29.045  22.238  1.00  0.00     0.047 C 
BRANCH  21  22
ATOM     22  C   UNL A   1      27.551  30.399  22.518  1.00  0.00     0.060 C 
ATOM     23  C   UNL A   1      27.933  31.075  23.840  1.00  0.00     0.012 C 
ATOM     24  C   UNL A   1      27.872  31.469  21.497  1.00  0.00     0.136 C 
ATOM     25  C   UNL A   1      28.880  32.214  23.482  1.00  0.00     0.009 C 
ATOM     26  C   UNL A   1      28.399  32.725  22.135  1.00  0.00     0.076 C 
ATOM     27  O   UNL A   1      27.671  31.359  20.294  1.00  0.00    -0.299 OA
ENDBRANCH  21  22
ENDBRANCH  11  21
ENDBRANCH   6   8
ENDBRANCH   3   6
ENDBRANCH   1   2
BRANCH   1  28
ATOM     28  C   UNL A   1      34.971  30.509  27.622  1.00  0.00     0.042 C 
BRANCH  28  29
ATOM     29  C   UNL A   1      35.424  31.895  28.046  1.00  0.00     0.118 C 
BRANCH  29  30
ATOM     30  N   UNL A   1      34.361  32.694  28.661  1.00  0.00    -0.352 N 
ATOM     31  C   UNL A   1      34.421  33.430  29.837  1.00  0.00     0.251 C 
ATOM     32  H   UNL A   1      33.501  32.713  28.184  1.00  0.00     0.163 HD
ATOM     33  O   UNL A   1      33.508  34.155  30.189  1.00  0.00    -0.269 OA
BRANCH  31  34
ATOM     34  C   UNL A   1      35.693  33.387  30.588  1.00  0.00     0.039 A 
ATOM     35  C   UNL A   1      36.729  34.204  30.135  1.00  0.00     0.014 A 
ATOM     36  C   UNL A   1      35.932  32.311  31.438  1.00  0.00     0.014 A 
ATOM     37  C   UNL A   1      38.039  33.774  30.311  1.00  0.00     0.010 A 
ATOM     38  C   UNL A   1      37.228  31.838  31.535  1.00  0.00     0.010 A 
ATOM     39  C   UNL A   1      38.269  32.529  30.902  1.00  0.00    -0.014 A 
BRANCH  39  40
ATOM     40  C   UNL A   1      39.540  31.827  30.752  1.00  0.00     0.031 A 
ATOM     41  C   UNL A   1      39.625  30.592  29.949  1.00  0.00     0.074 A 
ATOM     42  C   UNL A   1      40.657  32.290  31.360  1.00  0.00     0.049 A 
ATOM     43  N   UNL A   1      40.432  29.617  30.209  1.00  0.00    -0.248 NA
ATOM     44  C   UNL A   1      38.767  30.344  28.798  1.00  0.00     0.031 C 
ATOM     45  C   UNL A   1      42.024  31.817  31.163  1.00  0.00     0.029 A 
ATOM     46  N   UNL A   1      40.743  33.159  32.455  1.00  0.00    -0.354 N 
ATOM     47  C   UNL A   1      40.399  28.755  29.139  1.00  0.00     0.074 A 
ATOM     48  C   UNL A   1      39.302  29.217  28.318  1.00  0.00     0.031 C 
ATOM     49  C   UNL A   1      42.757  32.149  32.237  1.00  0.00     0.029 A 
ATOM     50  C   UNL A   1      41.864  32.750  33.209  1.00  0.00     0.049 A 
ATOM     51  H   UNL A   1      40.139  33.910  32.660  1.00  0.00     0.167 HD
ATOM     52  C   UNL A   1      41.385  27.824  28.984  1.00  0.00     0.037 A 
ATOM     53  C   UNL A   1      41.756  32.379  34.517  1.00  0.00     0.037 A 
ATOM     54  C   UNL A   1      42.372  27.898  30.057  1.00  0.00     0.049 A 
ATOM     55  C   UNL A   1      42.182  30.958  34.793  1.00  0.00     0.074 A 
ATOM     56  C   UNL A   1      43.602  28.530  30.144  1.00  0.00     0.029 A 
ATOM     57  N   UNL A   1      42.027  27.529  31.352  1.00  0.00    -0.354 N 
ATOM     58  N   UNL A   1      42.386  30.071  33.859  1.00  0.00    -0.248 NA
ATOM     59  C   UNL A   1      42.363  30.402  36.133  1.00  0.00     0.031 C 
ATOM     60  C   UNL A   1      43.978  28.581  31.505  1.00  0.00     0.029 A 
ATOM     61  C   UNL A   1      42.985  27.969  32.247  1.00  0.00     0.049 A 
ATOM     62  H   UNL A   1      41.217  27.027  31.598  1.00  0.00     0.167 HD
ATOM     63  C   UNL A   1      42.662  28.857  34.430  1.00  0.00     0.074 A 
ATOM     64  C   UNL A   1      42.668  29.120  35.856  1.00  0.00     0.031 C 
ATOM     65  C   UNL A   1      42.841  27.735  33.674  1.00  0.00     0.037 A 
BRANCH  52  66
ATOM     66  C   UNL A   1      41.610  27.087  27.685  1.00  0.00     0.057 A 
ATOM     67  C   UNL A   1      41.376  25.701  27.579  1.00  0.00     0.134 A 
ATOM     68  C   UNL A   1      42.111  27.682  26.515  1.00  0.00     0.134 A 
ATOM     69  F   UNL A   1      40.782  25.007  28.557  1.00  0.00    -0.206 F 
ATOM     70  C   UNL A   1      41.749  24.950  26.457  1.00  0.00     0.040 A 
ATOM     71  C   UNL A   1      42.540  26.937  25.407  1.00  0.00     0.040 A 
ATOM     72  F   UNL A   1      42.171  29.014  26.385  1.00  0.00    -0.206 F 
ATOM     73  C   UNL A   1      42.377  25.559  25.384  1.00  0.00     0.006 A 
ENDBRANCH  52  66
BRANCH  53  74
ATOM     74  C   UNL A   1      40.692  33.115  35.241  1.00  0.00     0.057 A 
ATOM     75  C   UNL A   1      39.437  32.495  35.384  1.00  0.00     0.134 A 
ATOM     76  C   UNL A   1      40.989  34.165  36.113  1.00  0.00     0.134 A 
ATOM     77  F   UNL A   1      39.090  31.483  34.572  1.00  0.00    -0.206 F 
ATOM     78  C   UNL A   1      38.573  32.815  36.432  1.00  0.00     0.040 A 
ATOM     79  C   UNL A   1      40.124  34.501  37.160  1.00  0.00     0.040 A 
ATOM     80  F   UNL A   1      42.171  34.794  36.045  1.00  0.00    -0.206 F 
ATOM     81  C   UNL A   1      38.935  33.795  37.348  1.00  0.00     0.006 A 
ENDBRANCH  53  74
BRANCH  65  82
ATOM     82  C   UNL A   1      42.987  26.333  34.202  1.00  0.00     0.057 A 
ATOM     83  C   UNL A   1      42.009  25.670  34.955  1.00  0.00     0.134 A 
ATOM     84  C   UNL A   1      44.101  25.546  33.831  1.00  0.00     0.134 A 
ATOM     85  F   UNL A   1      40.858  26.271  35.287  1.00  0.00    -0.206 F 
ATOM     86  C   UNL A   1      42.151  24.336  35.358  1.00  0.00     0.040 A 
ATOM     87  C   UNL A   1      44.231  24.201  34.186  1.00  0.00     0.040 A 
ATOM     88  F   UNL A   1      45.100  26.050  33.091  1.00  0.00    -0.206 F 
ATOM     89  C   UNL A   1      43.260  23.594  34.965  1.00  0.00     0.006 A 
ENDBRANCH  65  82
ENDBRANCH  39  40
ENDBRANCH  31  34
ENDBRANCH  29  30
ENDBRANCH  28  29
ENDBRANCH   1  28
TORSDOF 14
ENDMDL
