MODEL 1
REMARK VINA RESULT:     -12.1      0.000      0.000
REMARK SMILES C[C@@H](Sc1nc(C[NH+]2CCCC2)nc2ccccc12)C(=O)NCCCNC(=O)c1ccc(-c2c3nc(c(-c4c(F)cccc4F)c4ccc([nH]4)c(-c4c(F)cccc4F)c4nc(c(-c5c(F)cccc5F)c5ccc2[nH]5)C=C4)C=C3)cc1
REMARK SMILES IDX 23 1 22 2 20 3 21 4 2 6 1 7 3 8 4 9 5 10 19 11 6 12 14 13
REMARK SMILES IDX 18 14 13 15 15 16 17 17 16 18 7 19 8 20 9 21 12 22 10 24
REMARK SMILES IDX 11 25 24 26 25 27 26 28 27 29 28 31 29 32 30 33 82 34 31 35
REMARK SMILES IDX 81 36 32 37 33 38 34 39 75 40 35 41 80 42 74 43 76 44 36 45
REMARK SMILES IDX 79 46 73 47 72 48 37 50 63 51 46 52 62 53 47 54 50 55 61 56
REMARK SMILES IDX 77 57 48 58 49 59 60 61 78 62 51 63 38 64 39 65 44 66 40 67
REMARK SMILES IDX 41 68 43 69 45 70 42 71 64 72 65 73 70 74 66 75 67 76 69 77
REMARK SMILES IDX 71 78 68 79 52 80 53 81 58 82 54 83 55 84 57 85 59 86 56 87
REMARK H PARENT 22 5 8 23 26 30 76 49 50 60
REMARK Flexibility Score: inf
ROOT
ATOM      1  C   UNL A   1      33.520  27.064  25.204  1.00  0.00     0.117 C 
ENDROOT
BRANCH   1   2
ATOM      2  N   UNL A   1      33.803  26.923  23.782  1.00  0.00    -0.355 N 
ATOM      3  C   UNL A   1      33.337  26.023  22.858  1.00  0.00     0.233 C 
ATOM      4  O   UNL A   1      33.666  26.205  21.682  1.00  0.00    -0.274 OA
ATOM      5  H   UNL A   1      34.436  27.586  23.423  1.00  0.00     0.163 HD
BRANCH   3   6
ATOM      6  C   UNL A   1      32.536  24.774  23.263  1.00  0.00     0.139 C 
ATOM      7  C   UNL A   1      31.064  25.161  23.225  1.00  0.00     0.030 C 
BRANCH   6   8
ATOM      8  S   UNL A   1      33.156  23.362  22.248  1.00  0.00    -0.093 SA
BRANCH   8   9
ATOM      9  C   UNL A   1      33.926  22.194  23.336  1.00  0.00     0.109 A 
ATOM     10  N   UNL A   1      33.144  21.112  23.489  1.00  0.00    -0.220 NA
ATOM     11  C   UNL A   1      35.051  22.425  24.139  1.00  0.00     0.033 A 
ATOM     12  C   UNL A   1      33.455  20.261  24.473  1.00  0.00     0.185 A 
ATOM     13  C   UNL A   1      35.412  21.351  24.957  1.00  0.00     0.075 A 
ATOM     14  C   UNL A   1      35.806  23.624  24.232  1.00  0.00     0.013 A 
ATOM     15  N   UNL A   1      34.617  20.294  25.147  1.00  0.00    -0.227 NA
ATOM     16  C   UNL A   1      36.613  21.416  25.655  1.00  0.00     0.029 A 
ATOM     17  C   UNL A   1      36.998  23.679  24.945  1.00  0.00     0.001 A 
ATOM     18  C   UNL A   1      37.425  22.552  25.628  1.00  0.00     0.002 A 
BRANCH  12  19
ATOM     19  C   UNL A   1      32.354  19.331  24.972  1.00  0.00     0.340 C 
BRANCH  19  20
ATOM     20  N   UNL A   1      32.235  17.989  24.344  1.00  0.00    -0.329 N 
ATOM     21  C   UNL A   1      32.723  16.878  25.165  1.00  0.00     0.262 C 
ATOM     22  C   UNL A   1      32.858  17.878  23.023  1.00  0.00     0.262 C 
ATOM     23  H   UNL A   1      31.224  17.906  24.247  1.00  0.00     0.348 HD
ATOM     24  C   UNL A   1      34.046  16.437  24.569  1.00  0.00     0.067 C 
ATOM     25  C   UNL A   1      33.971  16.841  23.113  1.00  0.00     0.067 C 
ENDBRANCH  19  20
ENDBRANCH  12  19
ENDBRANCH   8   9
ENDBRANCH   6   8
ENDBRANCH   3   6
ENDBRANCH   1   2
BRANCH   1  26
ATOM     26  C   UNL A   1      33.867  28.430  25.764  1.00  0.00     0.042 C 
BRANCH  26  27
ATOM     27  C   UNL A   1      33.647  28.568  27.257  1.00  0.00     0.118 C 
BRANCH  27  28
ATOM     28  N   UNL A   1      33.659  29.951  27.707  1.00  0.00    -0.352 N 
ATOM     29  C   UNL A   1      34.644  30.679  28.329  1.00  0.00     0.251 C 
ATOM     30  H   UNL A   1      32.825  30.447  27.540  1.00  0.00     0.163 HD
ATOM     31  O   UNL A   1      34.383  31.794  28.769  1.00  0.00    -0.269 OA
BRANCH  29  32
ATOM     32  C   UNL A   1      36.006  30.123  28.500  1.00  0.00     0.039 A 
ATOM     33  C   UNL A   1      36.886  30.168  27.416  1.00  0.00     0.014 A 
ATOM     34  C   UNL A   1      36.419  29.544  29.704  1.00  0.00     0.014 A 
ATOM     35  C   UNL A   1      38.193  29.701  27.560  1.00  0.00     0.010 A 
ATOM     36  C   UNL A   1      37.749  29.172  29.878  1.00  0.00     0.010 A 
ATOM     37  C   UNL A   1      38.650  29.241  28.807  1.00  0.00    -0.014 A 
BRANCH  37  38
ATOM     38  C   UNL A   1      40.070  28.848  28.999  1.00  0.00     0.031 A 
ATOM     39  C   UNL A   1      41.054  29.803  29.617  1.00  0.00     0.074 A 
ATOM     40  C   UNL A   1      40.483  27.638  28.573  1.00  0.00     0.049 A 
ATOM     41  N   UNL A   1      42.332  29.634  29.852  1.00  0.00    -0.248 NA
ATOM     42  C   UNL A   1      40.547  31.131  29.997  1.00  0.00     0.031 C 
ATOM     43  C   UNL A   1      39.641  26.644  27.904  1.00  0.00     0.029 A 
ATOM     44  N   UNL A   1      41.715  27.037  28.638  1.00  0.00    -0.354 N 
ATOM     45  C   UNL A   1      42.779  30.831  30.400  1.00  0.00     0.074 A 
ATOM     46  C   UNL A   1      41.651  31.738  30.405  1.00  0.00     0.031 C 
ATOM     47  C   UNL A   1      40.369  25.545  27.656  1.00  0.00     0.029 A 
ATOM     48  C   UNL A   1      41.738  25.770  28.109  1.00  0.00     0.049 A 
ATOM     49  H   UNL A   1      42.507  27.473  29.026  1.00  0.00     0.167 HD
ATOM     50  C   UNL A   1      44.008  31.137  30.879  1.00  0.00     0.037 A 
ATOM     51  C   UNL A   1      42.748  24.886  27.999  1.00  0.00     0.037 A 
ATOM     52  C   UNL A   1      45.124  30.228  30.885  1.00  0.00     0.049 A 
ATOM     53  C   UNL A   1      44.103  25.253  28.535  1.00  0.00     0.074 A 
ATOM     54  C   UNL A   1      46.395  30.426  31.397  1.00  0.00     0.029 A 
ATOM     55  N   UNL A   1      45.106  28.949  30.347  1.00  0.00    -0.354 N 
ATOM     56  N   UNL A   1      44.491  26.362  29.119  1.00  0.00    -0.248 NA
ATOM     57  C   UNL A   1      45.160  24.241  28.406  1.00  0.00     0.031 C 
ATOM     58  C   UNL A   1      47.161  29.288  31.121  1.00  0.00     0.029 A 
ATOM     59  C   UNL A   1      46.351  28.356  30.493  1.00  0.00     0.049 A 
ATOM     60  H   UNL A   1      44.325  28.525  29.924  1.00  0.00     0.167 HD
ATOM     61  C   UNL A   1      45.825  26.169  29.454  1.00  0.00     0.074 A 
ATOM     62  C   UNL A   1      46.172  24.829  29.025  1.00  0.00     0.031 C 
ATOM     63  C   UNL A   1      46.685  27.023  30.062  1.00  0.00     0.037 A 
BRANCH  50  64
ATOM     64  C   UNL A   1      44.209  32.517  31.440  1.00  0.00     0.057 A 
ATOM     65  C   UNL A   1      44.623  33.590  30.637  1.00  0.00     0.134 A 
ATOM     66  C   UNL A   1      43.947  32.788  32.789  1.00  0.00     0.134 A 
ATOM     67  F   UNL A   1      44.903  33.399  29.339  1.00  0.00    -0.206 F 
ATOM     68  C   UNL A   1      44.797  34.871  31.162  1.00  0.00     0.040 A 
ATOM     69  C   UNL A   1      44.087  34.073  33.318  1.00  0.00     0.040 A 
ATOM     70  F   UNL A   1      43.540  31.811  33.614  1.00  0.00    -0.206 F 
ATOM     71  C   UNL A   1      44.521  35.117  32.505  1.00  0.00     0.006 A 
ENDBRANCH  50  64
BRANCH  51  72
ATOM     72  C   UNL A   1      42.510  23.557  27.381  1.00  0.00     0.057 A 
ATOM     73  C   UNL A   1      42.142  22.452  28.159  1.00  0.00     0.134 A 
ATOM     74  C   UNL A   1      42.654  23.354  26.003  1.00  0.00     0.134 A 
ATOM     75  F   UNL A   1      42.004  22.579  29.487  1.00  0.00    -0.206 F 
ATOM     76  C   UNL A   1      41.951  21.191  27.594  1.00  0.00     0.040 A 
ATOM     77  C   UNL A   1      42.437  22.105  25.421  1.00  0.00     0.040 A 
ATOM     78  F   UNL A   1      42.994  24.374  25.200  1.00  0.00    -0.206 F 
ATOM     79  C   UNL A   1      42.093  21.017  26.219  1.00  0.00     0.006 A 
ENDBRANCH  51  72
BRANCH  63  80
ATOM     80  C   UNL A   1      48.073  26.516  30.334  1.00  0.00     0.057 A 
ATOM     81  C   UNL A   1      48.401  25.845  31.520  1.00  0.00     0.134 A 
ATOM     82  C   UNL A   1      49.093  26.694  29.391  1.00  0.00     0.134 A 
ATOM     83  F   UNL A   1      47.475  25.650  32.471  1.00  0.00    -0.206 F 
ATOM     84  C   UNL A   1      49.701  25.402  31.773  1.00  0.00     0.040 A 
ATOM     85  C   UNL A   1      50.389  26.229  29.618  1.00  0.00     0.040 A 
ATOM     86  F   UNL A   1      48.846  27.319  28.229  1.00  0.00    -0.206 F 
ATOM     87  C   UNL A   1      50.699  25.590  30.817  1.00  0.00     0.006 A 
ENDBRANCH  63  80
ENDBRANCH  37  38
ENDBRANCH  29  32
ENDBRANCH  27  28
ENDBRANCH  26  27
ENDBRANCH   1  26
TORSDOF 14
ENDMDL
MODEL 2
REMARK VINA RESULT:     -11.7      4.370      9.404
REMARK SMILES C[C@@H](Sc1nc(C[NH+]2CCCC2)nc2ccccc12)C(=O)NCCCNC(=O)c1ccc(-c2c3nc(c(-c4c(F)cccc4F)c4ccc([nH]4)c(-c4c(F)cccc4F)c4nc(c(-c5c(F)cccc5F)c5ccc2[nH]5)C=C4)C=C3)cc1
REMARK SMILES IDX 23 1 22 2 20 3 21 4 2 6 1 7 3 8 4 9 5 10 19 11 6 12 14 13
REMARK SMILES IDX 18 14 13 15 15 16 17 17 16 18 7 19 8 20 9 21 12 22 10 24
REMARK SMILES IDX 11 25 24 26 25 27 26 28 27 29 28 31 29 32 30 33 82 34 31 35
REMARK SMILES IDX 81 36 32 37 33 38 34 39 75 40 35 41 80 42 74 43 76 44 36 45
REMARK SMILES IDX 79 46 73 47 72 48 37 50 63 51 46 52 62 53 47 54 50 55 61 56
REMARK SMILES IDX 77 57 48 58 49 59 60 61 78 62 51 63 38 64 39 65 44 66 40 67
REMARK SMILES IDX 41 68 43 69 45 70 42 71 64 72 65 73 70 74 66 75 67 76 69 77
REMARK SMILES IDX 71 78 68 79 52 80 53 81 58 82 54 83 55 84 57 85 59 86 56 87
REMARK H PARENT 22 5 8 23 26 30 76 49 50 60
REMARK Flexibility Score: inf
ROOT
ATOM      1  C   UNL A   1      35.361  23.213  25.598  1.00  0.00     0.117 C 
ENDROOT
BRANCH   1   2
ATOM      2  N   UNL A   1      34.431  23.047  24.489  1.00  0.00    -0.355 N 
ATOM      3  C   UNL A   1      33.779  23.973  23.716  1.00  0.00     0.233 C 
ATOM      4  O   UNL A   1      33.123  23.545  22.761  1.00  0.00    -0.274 OA
ATOM      5  H   UNL A   1      34.237  22.110  24.254  1.00  0.00     0.163 HD
BRANCH   3   6
ATOM      6  C   UNL A   1      33.758  25.469  24.074  1.00  0.00     0.139 C 
ATOM      7  C   UNL A   1      33.724  26.237  22.759  1.00  0.00     0.030 C 
BRANCH   6   8
ATOM      8  S   UNL A   1      32.436  25.722  25.336  1.00  0.00    -0.093 SA
BRANCH   8   9
ATOM      9  C   UNL A   1      32.070  27.454  25.416  1.00  0.00     0.109 A 
ATOM     10  N   UNL A   1      31.104  27.769  24.536  1.00  0.00    -0.220 NA
ATOM     11  C   UNL A   1      32.820  28.430  26.087  1.00  0.00     0.033 A 
ATOM     12  C   UNL A   1      30.896  29.066  24.287  1.00  0.00     0.185 A 
ATOM     13  C   UNL A   1      32.345  29.735  25.932  1.00  0.00     0.075 A 
ATOM     14  C   UNL A   1      34.003  28.230  26.846  1.00  0.00     0.013 A 
ATOM     15  N   UNL A   1      31.416  30.060  25.027  1.00  0.00    -0.227 NA
ATOM     16  C   UNL A   1      32.910  30.748  26.699  1.00  0.00     0.029 A 
ATOM     17  C   UNL A   1      34.566  29.256  27.598  1.00  0.00     0.001 A 
ATOM     18  C   UNL A   1      33.989  30.515  27.555  1.00  0.00     0.002 A 
BRANCH  12  19
ATOM     19  C   UNL A   1      30.185  29.427  22.987  1.00  0.00     0.340 C 
BRANCH  19  20
ATOM     20  N   UNL A   1      28.855  30.083  23.077  1.00  0.00    -0.329 N 
ATOM     21  C   UNL A   1      28.056  30.028  21.851  1.00  0.00     0.262 C 
ATOM     22  C   UNL A   1      28.893  31.477  23.526  1.00  0.00     0.262 C 
ATOM     23  H   UNL A   1      28.401  29.513  23.790  1.00  0.00     0.348 HD
ATOM     24  C   UNL A   1      28.090  31.415  21.239  1.00  0.00     0.067 C 
ATOM     25  C   UNL A   1      28.342  32.348  22.403  1.00  0.00     0.067 C 
ENDBRANCH  19  20
ENDBRANCH  12  19
ENDBRANCH   8   9
ENDBRANCH   6   8
ENDBRANCH   3   6
ENDBRANCH   1   2
BRANCH   1  26
ATOM     26  C   UNL A   1      36.817  23.229  25.178  1.00  0.00     0.042 C 
BRANCH  26  27
ATOM     27  C   UNL A   1      37.713  24.078  26.058  1.00  0.00     0.118 C 
BRANCH  27  28
ATOM     28  N   UNL A   1      39.110  23.676  26.002  1.00  0.00    -0.352 N 
ATOM     29  C   UNL A   1      40.229  24.259  26.545  1.00  0.00     0.251 C 
ATOM     30  H   UNL A   1      39.282  22.852  25.490  1.00  0.00     0.163 HD
ATOM     31  O   UNL A   1      41.338  23.836  26.237  1.00  0.00    -0.269 OA
BRANCH  29  32
ATOM     32  C   UNL A   1      40.113  25.407  27.473  1.00  0.00     0.039 A 
ATOM     33  C   UNL A   1      39.239  25.301  28.558  1.00  0.00     0.014 A 
ATOM     34  C   UNL A   1      40.836  26.587  27.278  1.00  0.00     0.014 A 
ATOM     35  C   UNL A   1      39.147  26.344  29.481  1.00  0.00     0.010 A 
ATOM     36  C   UNL A   1      40.820  27.583  28.250  1.00  0.00     0.010 A 
ATOM     37  C   UNL A   1      39.970  27.477  29.360  1.00  0.00    -0.014 A 
BRANCH  37  38
ATOM     38  C   UNL A   1      39.960  28.540  30.397  1.00  0.00     0.031 A 
ATOM     39  C   UNL A   1      38.981  29.679  30.319  1.00  0.00     0.074 A 
ATOM     40  C   UNL A   1      40.869  28.501  31.391  1.00  0.00     0.049 A 
ATOM     41  N   UNL A   1      38.835  30.699  31.129  1.00  0.00    -0.248 NA
ATOM     42  C   UNL A   1      38.062  29.693  29.170  1.00  0.00     0.031 C 
ATOM     43  C   UNL A   1      41.910  27.482  31.545  1.00  0.00     0.029 A 
ATOM     44  N   UNL A   1      41.066  29.338  32.460  1.00  0.00    -0.354 N 
ATOM     45  C   UNL A   1      37.817  31.473  30.585  1.00  0.00     0.074 A 
ATOM     46  C   UNL A   1      37.423  30.840  29.345  1.00  0.00     0.031 C 
ATOM     47  C   UNL A   1      42.609  27.732  32.662  1.00  0.00     0.029 A 
ATOM     48  C   UNL A   1      42.095  28.949  33.282  1.00  0.00     0.049 A 
ATOM     49  H   UNL A   1      40.521  30.142  32.622  1.00  0.00     0.167 HD
ATOM     50  C   UNL A   1      37.244  32.593  31.086  1.00  0.00     0.037 A 
ATOM     51  C   UNL A   1      42.573  29.509  34.409  1.00  0.00     0.037 A 
ATOM     52  C   UNL A   1      37.629  33.214  32.327  1.00  0.00     0.049 A 
ATOM     53  C   UNL A   1      41.922  30.755  34.941  1.00  0.00     0.074 A 
ATOM     54  C   UNL A   1      37.074  34.321  32.946  1.00  0.00     0.029 A 
ATOM     55  N   UNL A   1      38.671  32.786  33.136  1.00  0.00    -0.354 N 
ATOM     56  N   UNL A   1      40.911  31.434  34.455  1.00  0.00    -0.248 NA
ATOM     57  C   UNL A   1      42.474  31.308  36.185  1.00  0.00     0.031 C 
ATOM     58  C   UNL A   1      37.814  34.594  34.101  1.00  0.00     0.029 A 
ATOM     59  C   UNL A   1      38.791  33.621  34.235  1.00  0.00     0.049 A 
ATOM     60  H   UNL A   1      39.242  32.005  32.956  1.00  0.00     0.167 HD
ATOM     61  C   UNL A   1      40.685  32.473  35.348  1.00  0.00     0.074 A 
ATOM     62  C   UNL A   1      41.654  32.323  36.414  1.00  0.00     0.031 C 
ATOM     63  C   UNL A   1      39.759  33.462  35.291  1.00  0.00     0.037 A 
BRANCH  50  64
ATOM     64  C   UNL A   1      36.135  33.221  30.288  1.00  0.00     0.057 A 
ATOM     65  C   UNL A   1      36.389  33.971  29.131  1.00  0.00     0.134 A 
ATOM     66  C   UNL A   1      34.796  33.041  30.656  1.00  0.00     0.134 A 
ATOM     67  F   UNL A   1      37.649  34.193  28.727  1.00  0.00    -0.206 F 
ATOM     68  C   UNL A   1      35.354  34.542  28.388  1.00  0.00     0.040 A 
ATOM     69  C   UNL A   1      33.752  33.581  29.903  1.00  0.00     0.040 A 
ATOM     70  F   UNL A   1      34.479  32.328  31.748  1.00  0.00    -0.206 F 
ATOM     71  C   UNL A   1      34.029  34.340  28.769  1.00  0.00     0.006 A 
ENDBRANCH  50  64
BRANCH  51  72
ATOM     72  C   UNL A   1      43.711  28.882  35.127  1.00  0.00     0.057 A 
ATOM     73  C   UNL A   1      43.496  27.961  36.160  1.00  0.00     0.134 A 
ATOM     74  C   UNL A   1      45.039  29.192  34.808  1.00  0.00     0.134 A 
ATOM     75  F   UNL A   1      42.247  27.635  36.523  1.00  0.00    -0.206 F 
ATOM     76  C   UNL A   1      44.557  27.392  36.866  1.00  0.00     0.040 A 
ATOM     77  C   UNL A   1      46.110  28.608  35.487  1.00  0.00     0.040 A 
ATOM     78  F   UNL A   1      45.313  30.058  33.821  1.00  0.00    -0.206 F 
ATOM     79  C   UNL A   1      45.869  27.712  36.525  1.00  0.00     0.006 A 
ENDBRANCH  51  72
BRANCH  63  80
ATOM     80  C   UNL A   1      39.727  34.435  36.436  1.00  0.00     0.057 A 
ATOM     81  C   UNL A   1      40.466  35.625  36.422  1.00  0.00     0.134 A 
ATOM     82  C   UNL A   1      38.937  34.179  37.565  1.00  0.00     0.134 A 
ATOM     83  F   UNL A   1      41.252  35.927  35.377  1.00  0.00    -0.206 F 
ATOM     84  C   UNL A   1      40.449  36.508  37.504  1.00  0.00     0.040 A 
ATOM     85  C   UNL A   1      38.887  35.068  38.638  1.00  0.00     0.040 A 
ATOM     86  F   UNL A   1      38.197  33.063  37.639  1.00  0.00    -0.206 F 
ATOM     87  C   UNL A   1      39.652  36.232  38.614  1.00  0.00     0.006 A 
ENDBRANCH  63  80
ENDBRANCH  37  38
ENDBRANCH  29  32
ENDBRANCH  27  28
ENDBRANCH  26  27
ENDBRANCH   1  26
TORSDOF 14
ENDMDL
MODEL 3
REMARK VINA RESULT:     -11.6      1.171      6.328
REMARK SMILES C[C@@H](Sc1nc(C[NH+]2CCCC2)nc2ccccc12)C(=O)NCCCNC(=O)c1ccc(-c2c3nc(c(-c4c(F)cccc4F)c4ccc([nH]4)c(-c4c(F)cccc4F)c4nc(c(-c5c(F)cccc5F)c5ccc2[nH]5)C=C4)C=C3)cc1
REMARK SMILES IDX 23 1 22 2 20 3 21 4 2 6 1 7 3 8 4 9 5 10 19 11 6 12 14 13
REMARK SMILES IDX 18 14 13 15 15 16 17 17 16 18 7 19 8 20 9 21 12 22 10 24
REMARK SMILES IDX 11 25 24 26 25 27 26 28 27 29 28 31 29 32 30 33 82 34 31 35
REMARK SMILES IDX 81 36 32 37 33 38 34 39 75 40 35 41 80 42 74 43 76 44 36 45
REMARK SMILES IDX 79 46 73 47 72 48 37 50 63 51 46 52 62 53 47 54 50 55 61 56
REMARK SMILES IDX 77 57 48 58 49 59 60 61 78 62 51 63 38 64 39 65 44 66 40 67
REMARK SMILES IDX 41 68 43 69 45 70 42 71 64 72 65 73 70 74 66 75 67 76 69 77
REMARK SMILES IDX 71 78 68 79 52 80 53 81 58 82 54 83 55 84 57 85 59 86 56 87
REMARK H PARENT 22 5 8 23 26 30 76 49 50 60
REMARK Flexibility Score: inf
ROOT
ATOM      1  C   UNL A   1      31.930  27.290  25.607  1.00  0.00     0.117 C 
ENDROOT
BRANCH   1   2
ATOM      2  N   UNL A   1      31.656  26.178  26.507  1.00  0.00    -0.355 N 
ATOM      3  C   UNL A   1      31.712  24.823  26.306  1.00  0.00     0.233 C 
ATOM      4  O   UNL A   1      31.528  24.101  27.291  1.00  0.00    -0.274 OA
ATOM      5  H   UNL A   1      31.384  26.445  27.415  1.00  0.00     0.163 HD
BRANCH   3   6
ATOM      6  C   UNL A   1      31.878  24.210  24.905  1.00  0.00     0.139 C 
ATOM      7  C   UNL A   1      30.693  24.681  24.073  1.00  0.00     0.030 C 
BRANCH   6   8
ATOM      8  S   UNL A   1      33.604  24.552  24.347  1.00  0.00    -0.093 SA
BRANCH   8   9
ATOM      9  C   UNL A   1      34.554  23.070  24.547  1.00  0.00     0.109 A 
ATOM     10  N   UNL A   1      33.794  21.990  24.299  1.00  0.00    -0.220 NA
ATOM     11  C   UNL A   1      35.828  22.973  25.124  1.00  0.00     0.033 A 
ATOM     12  C   UNL A   1      34.282  20.797  24.656  1.00  0.00     0.185 A 
ATOM     13  C   UNL A   1      36.324  21.670  25.220  1.00  0.00     0.075 A 
ATOM     14  C   UNL A   1      36.616  24.032  25.645  1.00  0.00     0.013 A 
ATOM     15  N   UNL A   1      35.559  20.592  25.018  1.00  0.00    -0.227 NA
ATOM     16  C   UNL A   1      37.646  21.484  25.611  1.00  0.00     0.029 A 
ATOM     17  C   UNL A   1      37.933  23.830  26.045  1.00  0.00     0.001 A 
ATOM     18  C   UNL A   1      38.464  22.552  25.988  1.00  0.00     0.002 A 
BRANCH  12  19
ATOM     19  C   UNL A   1      33.286  19.656  24.837  1.00  0.00     0.340 C 
BRANCH  19  20
ATOM     20  N   UNL A   1      33.811  18.332  25.264  1.00  0.00    -0.329 N 
ATOM     21  C   UNL A   1      34.677  17.667  24.288  1.00  0.00     0.262 C 
ATOM     22  C   UNL A   1      32.782  17.374  25.677  1.00  0.00     0.262 C 
ATOM     23  H   UNL A   1      34.371  18.594  26.075  1.00  0.00     0.348 HD
ATOM     24  C   UNL A   1      33.868  16.539  23.677  1.00  0.00     0.067 C 
ATOM     25  C   UNL A   1      32.841  16.183  24.729  1.00  0.00     0.067 C 
ENDBRANCH  19  20
ENDBRANCH  12  19
ENDBRANCH   8   9
ENDBRANCH   6   8
ENDBRANCH   3   6
ENDBRANCH   1   2
BRANCH   1  26
ATOM     26  C   UNL A   1      33.293  27.921  25.813  1.00  0.00     0.042 C 
BRANCH  26  27
ATOM     27  C   UNL A   1      33.621  28.244  27.257  1.00  0.00     0.118 C 
BRANCH  27  28
ATOM     28  N   UNL A   1      33.569  29.668  27.547  1.00  0.00    -0.352 N 
ATOM     29  C   UNL A   1      34.517  30.506  28.083  1.00  0.00     0.251 C 
ATOM     30  H   UNL A   1      32.714  30.104  27.323  1.00  0.00     0.163 HD
ATOM     31  O   UNL A   1      34.204  31.651  28.392  1.00  0.00    -0.269 OA
BRANCH  29  32
ATOM     32  C   UNL A   1      35.901  30.034  28.318  1.00  0.00     0.039 A 
ATOM     33  C   UNL A   1      36.836  30.172  27.288  1.00  0.00     0.014 A 
ATOM     34  C   UNL A   1      36.283  29.446  29.526  1.00  0.00     0.014 A 
ATOM     35  C   UNL A   1      38.161  29.788  27.496  1.00  0.00     0.010 A 
ATOM     36  C   UNL A   1      37.623  29.156  29.768  1.00  0.00     0.010 A 
ATOM     37  C   UNL A   1      38.577  29.318  28.753  1.00  0.00    -0.014 A 
BRANCH  37  38
ATOM     38  C   UNL A   1      40.006  29.013  29.017  1.00  0.00     0.031 A 
ATOM     39  C   UNL A   1      40.593  27.683  28.628  1.00  0.00     0.074 A 
ATOM     40  C   UNL A   1      40.769  29.924  29.653  1.00  0.00     0.049 A 
ATOM     41  N   UNL A   1      41.815  27.240  28.789  1.00  0.00    -0.248 NA
ATOM     42  C   UNL A   1      39.684  26.712  27.998  1.00  0.00     0.031 C 
ATOM     43  C   UNL A   1      40.305  31.226  30.136  1.00  0.00     0.029 A 
ATOM     44  N   UNL A   1      42.096  29.895  30.003  1.00  0.00    -0.354 N 
ATOM     45  C   UNL A   1      41.819  25.944  28.288  1.00  0.00     0.074 A 
ATOM     46  C   UNL A   1      40.464  25.649  27.874  1.00  0.00     0.031 C 
ATOM     47  C   UNL A   1      41.336  31.886  30.684  1.00  0.00     0.029 A 
ATOM     48  C   UNL A   1      42.524  31.040  30.629  1.00  0.00     0.049 A 
ATOM     49  H   UNL A   1      42.684  29.127  29.823  1.00  0.00     0.167 HD
ATOM     50  C   UNL A   1      42.861  25.088  28.160  1.00  0.00     0.037 A 
ATOM     51  C   UNL A   1      43.738  31.373  31.106  1.00  0.00     0.037 A 
ATOM     52  C   UNL A   1      44.211  25.390  28.561  1.00  0.00     0.049 A 
ATOM     53  C   UNL A   1      44.876  30.403  30.955  1.00  0.00     0.074 A 
ATOM     54  C   UNL A   1      45.345  24.609  28.423  1.00  0.00     0.029 A 
ATOM     55  N   UNL A   1      44.607  26.564  29.184  1.00  0.00    -0.354 N 
ATOM     56  N   UNL A   1      44.881  29.210  30.411  1.00  0.00    -0.248 NA
ATOM     57  C   UNL A   1      46.182  30.830  31.477  1.00  0.00     0.031 C 
ATOM     58  C   UNL A   1      46.418  25.288  29.011  1.00  0.00     0.029 A 
ATOM     59  C   UNL A   1      45.965  26.518  29.459  1.00  0.00     0.049 A 
ATOM     60  H   UNL A   1      44.013  27.318  29.399  1.00  0.00     0.167 HD
ATOM     61  C   UNL A   1      46.192  28.758  30.496  1.00  0.00     0.074 A 
ATOM     62  C   UNL A   1      46.955  29.814  31.127  1.00  0.00     0.031 C 
ATOM     63  C   UNL A   1      46.715  27.576  30.088  1.00  0.00     0.037 A 
BRANCH  50  64
ATOM     64  C   UNL A   1      42.579  23.739  27.559  1.00  0.00     0.057 A 
ATOM     65  C   UNL A   1      42.259  22.628  28.350  1.00  0.00     0.134 A 
ATOM     66  C   UNL A   1      42.589  23.558  26.170  1.00  0.00     0.134 A 
ATOM     67  F   UNL A   1      42.244  22.728  29.689  1.00  0.00    -0.206 F 
ATOM     68  C   UNL A   1      41.988  21.381  27.785  1.00  0.00     0.040 A 
ATOM     69  C   UNL A   1      42.288  22.323  25.592  1.00  0.00     0.040 A 
ATOM     70  F   UNL A   1      42.879  24.580  25.350  1.00  0.00    -0.206 F 
ATOM     71  C   UNL A   1      41.994  21.228  26.400  1.00  0.00     0.006 A 
ENDBRANCH  50  64
BRANCH  51  72
ATOM     72  C   UNL A   1      43.949  32.696  31.747  1.00  0.00     0.057 A 
ATOM     73  C   UNL A   1      44.351  33.808  30.997  1.00  0.00     0.134 A 
ATOM     74  C   UNL A   1      43.764  32.881  33.122  1.00  0.00     0.134 A 
ATOM     75  F   UNL A   1      44.561  33.691  29.677  1.00  0.00    -0.206 F 
ATOM     76  C   UNL A   1      44.586  35.048  31.594  1.00  0.00     0.040 A 
ATOM     77  C   UNL A   1      43.967  34.122  33.728  1.00  0.00     0.040 A 
ATOM     78  F   UNL A   1      43.368  31.859  33.896  1.00  0.00    -0.206 F 
ATOM     79  C   UNL A   1      44.389  35.207  32.964  1.00  0.00     0.006 A 
ENDBRANCH  51  72
BRANCH  63  80
ATOM     80  C   UNL A   1      48.193  27.381  30.277  1.00  0.00     0.057 A 
ATOM     81  C   UNL A   1      48.722  26.755  31.414  1.00  0.00     0.134 A 
ATOM     82  C   UNL A   1      49.099  27.819  29.302  1.00  0.00     0.134 A 
ATOM     83  F   UNL A   1      47.912  26.323  32.392  1.00  0.00    -0.206 F 
ATOM     84  C   UNL A   1      50.099  26.605  31.591  1.00  0.00     0.040 A 
ATOM     85  C   UNL A   1      50.475  27.647  29.452  1.00  0.00     0.040 A 
ATOM     86  F   UNL A   1      48.660  28.418  28.184  1.00  0.00    -0.206 F 
ATOM     87  C   UNL A   1      50.980  27.047  30.605  1.00  0.00     0.006 A 
ENDBRANCH  63  80
ENDBRANCH  37  38
ENDBRANCH  29  32
ENDBRANCH  27  28
ENDBRANCH  26  27
ENDBRANCH   1  26
TORSDOF 14
ENDMDL
