MODEL 1
REMARK VINA RESULT:     -11.5      0.000      0.000
REMARK SMILES CC(=O)N1[C@@H](c2c(F)cccc2Cl)SC[C@H]1C(=O)NCCCNC(=O)c1ccc(-c2c3nc(c(-c4c(F)cccc4F)c4ccc([nH]4)c(-c4c(F)cccc4F)c4nc(c(-c5c(F)cccc5F)c5ccc2[nH]5)C=C4)C=C3)cc1
REMARK SMILES IDX 21 1 20 2 19 3 17 4 18 5 16 7 4 8 5 9 14 10 15 11 2 12 1 13
REMARK SMILES IDX 3 14 6 15 7 16 12 17 8 18 9 19 11 20 13 21 10 22 22 23 23 24
REMARK SMILES IDX 24 25 25 27 26 28 27 29 79 30 28 31 78 32 29 33 30 34 31 35
REMARK SMILES IDX 72 36 32 37 77 38 71 39 73 40 33 41 76 42 70 43 69 44 34 46
REMARK SMILES IDX 60 47 43 48 59 49 44 50 47 51 58 52 74 53 45 54 46 55 57 57
REMARK SMILES IDX 75 58 48 59 35 60 36 61 41 62 37 63 38 64 40 65 42 66 39 67
REMARK SMILES IDX 61 68 62 69 67 70 63 71 64 72 66 73 68 74 65 75 49 76 50 77
REMARK SMILES IDX 55 78 51 79 52 80 54 81 56 82 53 83
REMARK H PARENT 19 6 23 26 73 45 47 56
REMARK Flexibility Score: inf
ROOT
ATOM      1  C   UNL A   1      37.444  20.055  24.611  1.00  0.00     0.042 C 
ENDROOT
BRANCH   1   2
ATOM      2  C   UNL A   1      36.001  20.218  25.059  1.00  0.00     0.117 C 
BRANCH   2   3
ATOM      3  N   UNL A   1      35.825  21.213  26.083  1.00  0.00    -0.354 N 
ATOM      4  C   UNL A   1      34.929  22.235  26.148  1.00  0.00     0.243 C 
ATOM      5  O   UNL A   1      34.748  22.732  27.267  1.00  0.00    -0.273 OA
ATOM      6  H   UNL A   1      36.442  21.145  26.847  1.00  0.00     0.163 HD
BRANCH   4   7
ATOM      7  C   UNL A   1      34.012  22.643  24.970  1.00  0.00     0.185 C 
ATOM      8  N   UNL A   1      32.725  23.319  25.233  1.00  0.00    -0.314 N 
ATOM      9  C   UNL A   1      32.393  24.431  24.321  1.00  0.00     0.179 C 
ATOM     10  S   UNL A   1      33.538  24.231  22.915  1.00  0.00    -0.129 SA
ATOM     11  C   UNL A   1      34.805  23.409  23.920  1.00  0.00     0.107 C 
BRANCH   8  12
ATOM     12  C   UNL A   1      31.790  22.467  25.812  1.00  0.00     0.221 C 
ATOM     13  C   UNL A   1      30.803  23.056  26.790  1.00  0.00     0.114 C 
ATOM     14  O   UNL A   1      31.635  21.318  25.398  1.00  0.00    -0.275 OA
ENDBRANCH   8  12
BRANCH   9  15
ATOM     15  C   UNL A   1      32.397  25.802  25.008  1.00  0.00     0.039 A 
ATOM     16  C   UNL A   1      33.518  26.320  25.688  1.00  0.00     0.130 A 
ATOM     17  C   UNL A   1      31.238  26.608  25.078  1.00  0.00     0.050 A 
ATOM     18  F   UNL A   1      34.689  25.672  25.696  1.00  0.00    -0.207 F 
ATOM     19  C   UNL A   1      33.474  27.486  26.460  1.00  0.00     0.040 A 
ATOM     20  C   UNL A   1      31.187  27.779  25.856  1.00  0.00     0.021 A 
ATOM     21  Cl  UNL A   1      29.789  26.264  24.211  1.00  0.00    -0.084 Cl
ATOM     22  C   UNL A   1      32.299  28.209  26.565  1.00  0.00     0.005 A 
ENDBRANCH   9  15
ENDBRANCH   4   7
ENDBRANCH   2   3
ENDBRANCH   1   2
BRANCH   1  23
ATOM     23  C   UNL A   1      38.470  20.347  25.699  1.00  0.00     0.118 C 
BRANCH  23  24
ATOM     24  N   UNL A   1      39.628  19.456  25.686  1.00  0.00    -0.352 N 
ATOM     25  C   UNL A   1      40.941  19.635  26.044  1.00  0.00     0.251 C 
ATOM     26  H   UNL A   1      39.428  18.551  25.354  1.00  0.00     0.163 HD
ATOM     27  O   UNL A   1      41.735  18.718  25.834  1.00  0.00    -0.269 OA
BRANCH  25  28
ATOM     28  C   UNL A   1      41.439  20.903  26.629  1.00  0.00     0.039 A 
ATOM     29  C   UNL A   1      41.844  21.926  25.761  1.00  0.00     0.014 A 
ATOM     30  C   UNL A   1      41.551  21.097  28.004  1.00  0.00     0.014 A 
ATOM     31  C   UNL A   1      42.278  23.154  26.269  1.00  0.00     0.010 A 
ATOM     32  C   UNL A   1      41.871  22.354  28.509  1.00  0.00     0.010 A 
ATOM     33  C   UNL A   1      42.254  23.394  27.649  1.00  0.00    -0.014 A 
BRANCH  33  34
ATOM     34  C   UNL A   1      42.662  24.697  28.234  1.00  0.00     0.031 A 
ATOM     35  C   UNL A   1      41.628  25.766  28.468  1.00  0.00     0.074 A 
ATOM     36  C   UNL A   1      43.964  24.961  28.456  1.00  0.00     0.049 A 
ATOM     37  N   UNL A   1      41.790  27.019  28.811  1.00  0.00    -0.248 NA
ATOM     38  C   UNL A   1      40.224  25.385  28.240  1.00  0.00     0.031 C 
ATOM     39  C   UNL A   1      45.071  24.031  28.223  1.00  0.00     0.029 A 
ATOM     40  N   UNL A   1      44.579  26.103  28.905  1.00  0.00    -0.354 N 
ATOM     41  C   UNL A   1      40.519  27.581  28.799  1.00  0.00     0.074 A 
ATOM     42  C   UNL A   1      39.604  26.549  28.363  1.00  0.00     0.031 C 
ATOM     43  C   UNL A   1      46.228  24.636  28.539  1.00  0.00     0.029 A 
ATOM     44  C   UNL A   1      45.949  26.007  28.953  1.00  0.00     0.049 A 
ATOM     45  H   UNL A   1      44.086  26.913  29.168  1.00  0.00     0.167 HD
ATOM     46  C   UNL A   1      40.143  28.836  29.142  1.00  0.00     0.037 A 
ATOM     47  C   UNL A   1      46.879  26.927  29.275  1.00  0.00     0.037 A 
ATOM     48  C   UNL A   1      41.050  29.845  29.620  1.00  0.00     0.049 A 
ATOM     49  C   UNL A   1      46.438  28.307  29.677  1.00  0.00     0.074 A 
ATOM     50  C   UNL A   1      40.761  31.118  30.078  1.00  0.00     0.029 A 
ATOM     51  N   UNL A   1      42.427  29.692  29.704  1.00  0.00    -0.354 N 
ATOM     52  N   UNL A   1      45.226  28.805  29.731  1.00  0.00    -0.248 NA
ATOM     53  C   UNL A   1      47.492  29.252  30.071  1.00  0.00     0.031 C 
ATOM     54  C   UNL A   1      41.968  31.753  30.393  1.00  0.00     0.029 A 
ATOM     55  C   UNL A   1      43.003  30.856  30.183  1.00  0.00     0.049 A 
ATOM     56  H   UNL A   1      42.920  28.876  29.459  1.00  0.00     0.167 HD
ATOM     57  C   UNL A   1      45.369  30.109  30.188  1.00  0.00     0.074 A 
ATOM     58  C   UNL A   1      46.784  30.320  30.411  1.00  0.00     0.031 C 
ATOM     59  C   UNL A   1      44.415  31.048  30.404  1.00  0.00     0.037 A 
BRANCH  46  60
ATOM     60  C   UNL A   1      38.688  29.185  29.007  1.00  0.00     0.057 A 
ATOM     61  C   UNL A   1      37.806  29.136  30.095  1.00  0.00     0.134 A 
ATOM     62  C   UNL A   1      38.164  29.591  27.773  1.00  0.00     0.134 A 
ATOM     63  F   UNL A   1      38.238  28.743  31.303  1.00  0.00    -0.206 F 
ATOM     64  C   UNL A   1      36.451  29.439  29.952  1.00  0.00     0.040 A 
ATOM     65  C   UNL A   1      36.817  29.929  27.625  1.00  0.00     0.040 A 
ATOM     66  F   UNL A   1      38.952  29.669  26.690  1.00  0.00    -0.206 F 
ATOM     67  C   UNL A   1      35.954  29.844  28.715  1.00  0.00     0.006 A 
ENDBRANCH  46  60
BRANCH  47  68
ATOM     68  C   UNL A   1      48.318  26.566  29.245  1.00  0.00     0.057 A 
ATOM     69  C   UNL A   1      48.928  25.937  30.337  1.00  0.00     0.134 A 
ATOM     70  C   UNL A   1      49.117  26.831  28.126  1.00  0.00     0.134 A 
ATOM     71  F   UNL A   1      48.220  25.672  31.444  1.00  0.00    -0.206 F 
ATOM     72  C   UNL A   1      50.283  25.600  30.325  1.00  0.00     0.040 A 
ATOM     73  C   UNL A   1      50.466  26.476  28.090  1.00  0.00     0.040 A 
ATOM     74  F   UNL A   1      48.591  27.423  27.043  1.00  0.00    -0.206 F 
ATOM     75  C   UNL A   1      51.055  25.865  29.195  1.00  0.00     0.006 A 
ENDBRANCH  47  68
BRANCH  59  76
ATOM     76  C   UNL A   1      44.864  32.376  30.940  1.00  0.00     0.057 A 
ATOM     77  C   UNL A   1      45.187  33.446  30.097  1.00  0.00     0.134 A 
ATOM     78  C   UNL A   1      44.932  32.598  32.322  1.00  0.00     0.134 A 
ATOM     79  F   UNL A   1      45.154  33.295  28.764  1.00  0.00    -0.206 F 
ATOM     80  C   UNL A   1      45.584  34.682  30.608  1.00  0.00     0.040 A 
ATOM     81  C   UNL A   1      45.299  33.838  32.844  1.00  0.00     0.040 A 
ATOM     82  F   UNL A   1      44.626  31.618  33.186  1.00  0.00    -0.206 F 
ATOM     83  C   UNL A   1      45.633  34.883  31.986  1.00  0.00     0.006 A 
ENDBRANCH  59  76
ENDBRANCH  33  34
ENDBRANCH  25  28
ENDBRANCH  23  24
ENDBRANCH   1  23
TORSDOF 12
ENDMDL
MODEL 2
REMARK VINA RESULT:     -11.5      4.651      9.224
REMARK SMILES CC(=O)N1[C@@H](c2c(F)cccc2Cl)SC[C@H]1C(=O)NCCCNC(=O)c1ccc(-c2c3nc(c(-c4c(F)cccc4F)c4ccc([nH]4)c(-c4c(F)cccc4F)c4nc(c(-c5c(F)cccc5F)c5ccc2[nH]5)C=C4)C=C3)cc1
REMARK SMILES IDX 21 1 20 2 19 3 17 4 18 5 16 7 4 8 5 9 14 10 15 11 2 12 1 13
REMARK SMILES IDX 3 14 6 15 7 16 12 17 8 18 9 19 11 20 13 21 10 22 22 23 23 24
REMARK SMILES IDX 24 25 25 27 26 28 27 29 79 30 28 31 78 32 29 33 30 34 31 35
REMARK SMILES IDX 72 36 32 37 77 38 71 39 73 40 33 41 76 42 70 43 69 44 34 46
REMARK SMILES IDX 60 47 43 48 59 49 44 50 47 51 58 52 74 53 45 54 46 55 57 57
REMARK SMILES IDX 75 58 48 59 35 60 36 61 41 62 37 63 38 64 40 65 42 66 39 67
REMARK SMILES IDX 61 68 62 69 67 70 63 71 64 72 66 73 68 74 65 75 49 76 50 77
REMARK SMILES IDX 55 78 51 79 52 80 54 81 56 82 53 83
REMARK H PARENT 19 6 23 26 73 45 47 56
REMARK Flexibility Score: inf
ROOT
ATOM      1  C   UNL A   1      30.847  31.744  26.045  1.00  0.00     0.042 C 
ENDROOT
BRANCH   1   2
ATOM      2  C   UNL A   1      31.015  30.583  25.079  1.00  0.00     0.117 C 
BRANCH   2   3
ATOM      3  N   UNL A   1      32.351  30.052  25.042  1.00  0.00    -0.354 N 
ATOM      4  C   UNL A   1      32.769  28.779  24.808  1.00  0.00     0.243 C 
ATOM      5  O   UNL A   1      33.957  28.643  24.489  1.00  0.00    -0.273 OA
ATOM      6  H   UNL A   1      33.069  30.706  25.211  1.00  0.00     0.163 HD
BRANCH   4   7
ATOM      7  C   UNL A   1      31.808  27.568  24.723  1.00  0.00     0.185 C 
ATOM      8  N   UNL A   1      32.100  26.455  23.797  1.00  0.00    -0.314 N 
ATOM      9  C   UNL A   1      31.851  25.101  24.331  1.00  0.00     0.179 C 
ATOM     10  S   UNL A   1      30.830  25.374  25.818  1.00  0.00    -0.129 SA
ATOM     11  C   UNL A   1      31.507  27.030  26.116  1.00  0.00     0.107 C 
BRANCH   8  12
ATOM     12  C   UNL A   1      31.937  26.820  22.465  1.00  0.00     0.221 C 
ATOM     13  C   UNL A   1      32.882  26.231  21.446  1.00  0.00     0.114 C 
ATOM     14  O   UNL A   1      30.941  27.440  22.093  1.00  0.00    -0.275 OA
ENDBRANCH   8  12
BRANCH   9  15
ATOM     15  C   UNL A   1      33.132  24.281  24.531  1.00  0.00     0.039 A 
ATOM     16  C   UNL A   1      34.218  24.727  25.310  1.00  0.00     0.130 A 
ATOM     17  C   UNL A   1      33.343  23.051  23.870  1.00  0.00     0.050 A 
ATOM     18  F   UNL A   1      34.156  25.869  26.004  1.00  0.00    -0.207 F 
ATOM     19  C   UNL A   1      35.451  24.066  25.354  1.00  0.00     0.040 A 
ATOM     20  C   UNL A   1      34.582  22.384  23.907  1.00  0.00     0.021 A 
ATOM     21  Cl  UNL A   1      32.119  22.229  22.977  1.00  0.00    -0.084 Cl
ATOM     22  C   UNL A   1      35.644  22.901  24.633  1.00  0.00     0.005 A 
ENDBRANCH   9  15
ENDBRANCH   4   7
ENDBRANCH   2   3
ENDBRANCH   1   2
BRANCH   1  23
ATOM     23  C   UNL A   1      32.126  32.132  26.777  1.00  0.00     0.118 C 
BRANCH  23  24
ATOM     24  N   UNL A   1      32.153  33.517  27.244  1.00  0.00    -0.352 N 
ATOM     25  C   UNL A   1      32.996  34.195  28.088  1.00  0.00     0.251 C 
ATOM     26  H   UNL A   1      31.423  34.071  26.884  1.00  0.00     0.163 HD
ATOM     27  O   UNL A   1      32.718  35.358  28.382  1.00  0.00    -0.269 OA
BRANCH  25  28
ATOM     28  C   UNL A   1      34.196  33.565  28.688  1.00  0.00     0.039 A 
ATOM     29  C   UNL A   1      35.433  34.209  28.541  1.00  0.00     0.014 A 
ATOM     30  C   UNL A   1      34.142  32.346  29.360  1.00  0.00     0.014 A 
ATOM     31  C   UNL A   1      36.582  33.673  29.130  1.00  0.00     0.010 A 
ATOM     32  C   UNL A   1      35.259  31.874  30.043  1.00  0.00     0.010 A 
ATOM     33  C   UNL A   1      36.497  32.522  29.924  1.00  0.00    -0.014 A 
BRANCH  33  34
ATOM     34  C   UNL A   1      37.681  31.941  30.608  1.00  0.00     0.031 A 
ATOM     35  C   UNL A   1      38.497  30.882  29.917  1.00  0.00     0.074 A 
ATOM     36  C   UNL A   1      37.962  32.283  31.881  1.00  0.00     0.049 A 
ATOM     37  N   UNL A   1      39.460  30.133  30.391  1.00  0.00    -0.248 NA
ATOM     38  C   UNL A   1      38.152  30.595  28.514  1.00  0.00     0.031 C 
ATOM     39  C   UNL A   1      37.219  33.257  32.682  1.00  0.00     0.029 A 
ATOM     40  N   UNL A   1      38.935  31.826  32.733  1.00  0.00    -0.354 N 
ATOM     41  C   UNL A   1      39.803  29.263  29.362  1.00  0.00     0.074 A 
ATOM     42  C   UNL A   1      38.911  29.541  28.258  1.00  0.00     0.031 C 
ATOM     43  C   UNL A   1      37.768  33.332  33.905  1.00  0.00     0.029 A 
ATOM     44  C   UNL A   1      38.872  32.380  33.989  1.00  0.00     0.049 A 
ATOM     45  H   UNL A   1      39.615  31.164  32.470  1.00  0.00     0.167 HD
ATOM     46  C   UNL A   1      40.787  28.333  29.330  1.00  0.00     0.037 A 
ATOM     47  C   UNL A   1      39.607  32.135  35.090  1.00  0.00     0.037 A 
ATOM     48  C   UNL A   1      41.703  28.093  30.413  1.00  0.00     0.049 A 
ATOM     49  C   UNL A   1      40.711  31.116  35.025  1.00  0.00     0.074 A 
ATOM     50  C   UNL A   1      42.789  27.238  30.451  1.00  0.00     0.029 A 
ATOM     51  N   UNL A   1      41.638  28.714  31.653  1.00  0.00    -0.354 N 
ATOM     52  N   UNL A   1      41.072  30.352  34.023  1.00  0.00    -0.248 NA
ATOM     53  C   UNL A   1      41.515  30.931  36.241  1.00  0.00     0.031 C 
ATOM     54  C   UNL A   1      43.353  27.304  31.730  1.00  0.00     0.029 A 
ATOM     55  C   UNL A   1      42.650  28.243  32.471  1.00  0.00     0.049 A 
ATOM     56  H   UNL A   1      40.970  29.389  31.912  1.00  0.00     0.167 HD
ATOM     57  C   UNL A   1      42.159  29.616  34.478  1.00  0.00     0.074 A 
ATOM     58  C   UNL A   1      42.408  30.036  35.841  1.00  0.00     0.031 C 
ATOM     59  C   UNL A   1      42.887  28.676  33.825  1.00  0.00     0.037 A 
BRANCH  46  60
ATOM     60  C   UNL A   1      40.918  27.506  28.082  1.00  0.00     0.057 A 
ATOM     61  C   UNL A   1      41.709  27.913  26.999  1.00  0.00     0.134 A 
ATOM     62  C   UNL A   1      40.256  26.277  27.969  1.00  0.00     0.134 A 
ATOM     63  F   UNL A   1      42.360  29.085  27.034  1.00  0.00    -0.206 F 
ATOM     64  C   UNL A   1      41.804  27.147  25.835  1.00  0.00     0.040 A 
ATOM     65  C   UNL A   1      40.370  25.487  26.824  1.00  0.00     0.040 A 
ATOM     66  F   UNL A   1      39.488  25.821  28.971  1.00  0.00    -0.206 F 
ATOM     67  C   UNL A   1      41.138  25.926  25.748  1.00  0.00     0.006 A 
ENDBRANCH  46  60
BRANCH  47  68
ATOM     68  C   UNL A   1      39.332  32.880  36.344  1.00  0.00     0.057 A 
ATOM     69  C   UNL A   1      38.454  32.372  37.309  1.00  0.00     0.134 A 
ATOM     70  C   UNL A   1      39.942  34.112  36.615  1.00  0.00     0.134 A 
ATOM     71  F   UNL A   1      37.825  31.206  37.100  1.00  0.00    -0.206 F 
ATOM     72  C   UNL A   1      38.179  33.067  38.488  1.00  0.00     0.040 A 
ATOM     73  C   UNL A   1      39.697  34.804  37.801  1.00  0.00     0.040 A 
ATOM     74  F   UNL A   1      40.801  34.649  35.736  1.00  0.00    -0.206 F 
ATOM     75  C   UNL A   1      38.807  34.285  38.739  1.00  0.00     0.006 A 
ENDBRANCH  47  68
BRANCH  59  76
ATOM     76  C   UNL A   1      44.042  28.063  34.563  1.00  0.00     0.057 A 
ATOM     77  C   UNL A   1      43.911  26.873  35.289  1.00  0.00     0.134 A 
ATOM     78  C   UNL A   1      45.311  28.652  34.510  1.00  0.00     0.134 A 
ATOM     79  F   UNL A   1      42.719  26.266  35.390  1.00  0.00    -0.206 F 
ATOM     80  C   UNL A   1      44.997  26.303  35.955  1.00  0.00     0.040 A 
ATOM     81  C   UNL A   1      46.410  28.076  35.147  1.00  0.00     0.040 A 
ATOM     82  F   UNL A   1      45.508  29.788  33.823  1.00  0.00    -0.206 F 
ATOM     83  C   UNL A   1      46.254  26.901  35.877  1.00  0.00     0.006 A 
ENDBRANCH  59  76
ENDBRANCH  33  34
ENDBRANCH  25  28
ENDBRANCH  23  24
ENDBRANCH   1  23
TORSDOF 12
ENDMDL
MODEL 3
REMARK VINA RESULT:     -11.5      1.150      1.556
REMARK SMILES CC(=O)N1[C@@H](c2c(F)cccc2Cl)SC[C@H]1C(=O)NCCCNC(=O)c1ccc(-c2c3nc(c(-c4c(F)cccc4F)c4ccc([nH]4)c(-c4c(F)cccc4F)c4nc(c(-c5c(F)cccc5F)c5ccc2[nH]5)C=C4)C=C3)cc1
REMARK SMILES IDX 21 1 20 2 19 3 17 4 18 5 16 7 4 8 5 9 14 10 15 11 2 12 1 13
REMARK SMILES IDX 3 14 6 15 7 16 12 17 8 18 9 19 11 20 13 21 10 22 22 23 23 24
REMARK SMILES IDX 24 25 25 27 26 28 27 29 79 30 28 31 78 32 29 33 30 34 31 35
REMARK SMILES IDX 72 36 32 37 77 38 71 39 73 40 33 41 76 42 70 43 69 44 34 46
REMARK SMILES IDX 60 47 43 48 59 49 44 50 47 51 58 52 74 53 45 54 46 55 57 57
REMARK SMILES IDX 75 58 48 59 35 60 36 61 41 62 37 63 38 64 40 65 42 66 39 67
REMARK SMILES IDX 61 68 62 69 67 70 63 71 64 72 66 73 68 74 65 75 49 76 50 77
REMARK SMILES IDX 55 78 51 79 52 80 54 81 56 82 53 83
REMARK H PARENT 19 6 23 26 73 45 47 56
REMARK Flexibility Score: inf
ROOT
ATOM      1  C   UNL A   1      37.618  19.541  24.989  1.00  0.00     0.042 C 
ENDROOT
BRANCH   1   2
ATOM      2  C   UNL A   1      36.434  20.494  24.999  1.00  0.00     0.117 C 
BRANCH   2   3
ATOM      3  N   UNL A   1      36.776  21.833  25.399  1.00  0.00    -0.354 N 
ATOM      4  C   UNL A   1      36.016  22.961  25.378  1.00  0.00     0.243 C 
ATOM      5  O   UNL A   1      36.410  23.898  26.084  1.00  0.00    -0.273 OA
ATOM      6  H   UNL A   1      37.694  21.950  25.736  1.00  0.00     0.163 HD
BRANCH   4   7
ATOM      7  C   UNL A   1      34.626  23.041  24.701  1.00  0.00     0.185 C 
ATOM      8  N   UNL A   1      33.433  23.383  25.502  1.00  0.00    -0.314 N 
ATOM      9  C   UNL A   1      32.480  24.310  24.858  1.00  0.00     0.179 C 
ATOM     10  S   UNL A   1      32.960  24.315  23.098  1.00  0.00    -0.129 SA
ATOM     11  C   UNL A   1      34.692  23.912  23.454  1.00  0.00     0.107 C 
BRANCH   8  12
ATOM     12  C   UNL A   1      33.072  22.362  26.374  1.00  0.00     0.221 C 
ATOM     13  C   UNL A   1      33.251  22.597  27.855  1.00  0.00     0.114 C 
ATOM     14  O   UNL A   1      32.445  21.380  25.979  1.00  0.00    -0.275 OA
ENDBRANCH   8  12
BRANCH   9  15
ATOM     15  C   UNL A   1      32.409  25.680  25.545  1.00  0.00     0.039 A 
ATOM     16  C   UNL A   1      33.522  26.533  25.680  1.00  0.00     0.130 A 
ATOM     17  C   UNL A   1      31.229  26.145  26.167  1.00  0.00     0.050 A 
ATOM     18  F   UNL A   1      34.704  26.230  25.130  1.00  0.00    -0.207 F 
ATOM     19  C   UNL A   1      33.504  27.700  26.453  1.00  0.00     0.040 A 
ATOM     20  C   UNL A   1      31.205  27.314  26.949  1.00  0.00     0.021 A 
ATOM     21  Cl  UNL A   1      29.704  25.355  26.022  1.00  0.00    -0.084 Cl
ATOM     22  C   UNL A   1      32.348  28.083  27.109  1.00  0.00     0.005 A 
ENDBRANCH   9  15
ENDBRANCH   4   7
ENDBRANCH   2   3
ENDBRANCH   1   2
BRANCH   1  23
ATOM     23  C   UNL A   1      38.839  20.057  25.740  1.00  0.00     0.118 C 
BRANCH  23  24
ATOM     24  N   UNL A   1      39.964  19.125  25.770  1.00  0.00    -0.352 N 
ATOM     25  C   UNL A   1      41.294  19.286  26.066  1.00  0.00     0.251 C 
ATOM     26  H   UNL A   1      39.720  18.203  25.530  1.00  0.00     0.163 HD
ATOM     27  O   UNL A   1      42.047  18.323  25.914  1.00  0.00    -0.269 OA
BRANCH  25  28
ATOM     28  C   UNL A   1      41.858  20.581  26.514  1.00  0.00     0.039 A 
ATOM     29  C   UNL A   1      42.210  21.529  25.542  1.00  0.00     0.014 A 
ATOM     30  C   UNL A   1      42.081  20.873  27.857  1.00  0.00     0.014 A 
ATOM     31  C   UNL A   1      42.703  22.781  25.923  1.00  0.00     0.010 A 
ATOM     32  C   UNL A   1      42.461  22.156  28.240  1.00  0.00     0.010 A 
ATOM     33  C   UNL A   1      42.792  23.121  27.279  1.00  0.00    -0.014 A 
BRANCH  33  34
ATOM     34  C   UNL A   1      43.266  24.454  27.732  1.00  0.00     0.031 A 
ATOM     35  C   UNL A   1      42.266  25.515  28.107  1.00  0.00     0.074 A 
ATOM     36  C   UNL A   1      44.581  24.749  27.706  1.00  0.00     0.049 A 
ATOM     37  N   UNL A   1      42.456  26.782  28.369  1.00  0.00    -0.248 NA
ATOM     38  C   UNL A   1      40.853  25.101  28.150  1.00  0.00     0.031 C 
ATOM     39  C   UNL A   1      45.650  23.830  27.312  1.00  0.00     0.029 A 
ATOM     40  N   UNL A   1      45.239  25.919  27.993  1.00  0.00    -0.354 N 
ATOM     41  C   UNL A   1      41.191  27.322  28.564  1.00  0.00     0.074 A 
ATOM     42  C   UNL A   1      40.237  26.258  28.339  1.00  0.00     0.031 C 
ATOM     43  C   UNL A   1      46.830  24.467  27.391  1.00  0.00     0.029 A 
ATOM     44  C   UNL A   1      46.597  25.849  27.797  1.00  0.00     0.049 A 
ATOM     45  H   UNL A   1      44.781  26.731  28.310  1.00  0.00     0.167 HD
ATOM     46  C   UNL A   1      40.852  28.583  28.922  1.00  0.00     0.037 A 
ATOM     47  C   UNL A   1      47.546  26.797  27.912  1.00  0.00     0.037 A 
ATOM     48  C   UNL A   1      41.805  29.627  29.191  1.00  0.00     0.049 A 
ATOM     49  C   UNL A   1      47.151  28.185  28.335  1.00  0.00     0.074 A 
ATOM     50  C   UNL A   1      41.572  30.912  29.645  1.00  0.00     0.029 A 
ATOM     51  N   UNL A   1      43.178  29.501  29.032  1.00  0.00    -0.354 N 
ATOM     52  N   UNL A   1      45.957  28.664  28.587  1.00  0.00    -0.248 NA
ATOM     53  C   UNL A   1      48.236  29.163  28.497  1.00  0.00     0.031 C 
ATOM     54  C   UNL A   1      42.800  31.581  29.713  1.00  0.00     0.029 A 
ATOM     55  C   UNL A   1      43.802  30.693  29.355  1.00  0.00     0.049 A 
ATOM     56  H   UNL A   1      43.639  28.684  28.732  1.00  0.00     0.167 HD
ATOM     57  C   UNL A   1      46.148  29.988  28.962  1.00  0.00     0.074 A 
ATOM     58  C   UNL A   1      47.575  30.232  28.918  1.00  0.00     0.031 C 
ATOM     59  C   UNL A   1      45.225  30.918  29.311  1.00  0.00     0.037 A 
BRANCH  46  60
ATOM     60  C   UNL A   1      39.388  28.902  29.038  1.00  0.00     0.057 A 
ATOM     61  C   UNL A   1      38.690  28.768  30.246  1.00  0.00     0.134 A 
ATOM     62  C   UNL A   1      38.668  29.363  27.928  1.00  0.00     0.134 A 
ATOM     63  F   UNL A   1      39.313  28.319  31.345  1.00  0.00    -0.206 F 
ATOM     64  C   UNL A   1      37.324  29.044  30.336  1.00  0.00     0.040 A 
ATOM     65  C   UNL A   1      37.310  29.674  28.014  1.00  0.00     0.040 A 
ATOM     66  F   UNL A   1      39.274  29.523  26.741  1.00  0.00    -0.206 F 
ATOM     67  C   UNL A   1      36.631  29.505  29.219  1.00  0.00     0.006 A 
ENDBRANCH  46  60
BRANCH  47  68
ATOM     68  C   UNL A   1      48.966  26.460  27.637  1.00  0.00     0.057 A 
ATOM     69  C   UNL A   1      49.528  26.676  26.374  1.00  0.00     0.134 A 
ATOM     70  C   UNL A   1      49.797  25.922  28.628  1.00  0.00     0.134 A 
ATOM     71  F   UNL A   1      48.778  27.172  25.379  1.00  0.00    -0.206 F 
ATOM     72  C   UNL A   1      50.859  26.355  26.099  1.00  0.00     0.040 A 
ATOM     73  C   UNL A   1      51.136  25.622  28.376  1.00  0.00     0.040 A 
ATOM     74  F   UNL A   1      49.322  25.701  29.863  1.00  0.00    -0.206 F 
ATOM     75  C   UNL A   1      51.669  25.831  27.106  1.00  0.00     0.006 A 
ENDBRANCH  47  68
BRANCH  59  76
ATOM     76  C   UNL A   1      45.731  32.275  29.707  1.00  0.00     0.057 A 
ATOM     77  C   UNL A   1      45.850  33.321  28.784  1.00  0.00     0.134 A 
ATOM     78  C   UNL A   1      46.062  32.548  31.041  1.00  0.00     0.134 A 
ATOM     79  F   UNL A   1      45.561  33.122  27.490  1.00  0.00    -0.206 F 
ATOM     80  C   UNL A   1      46.303  34.584  29.169  1.00  0.00     0.040 A 
ATOM     81  C   UNL A   1      46.487  33.814  31.443  1.00  0.00     0.040 A 
ATOM     82  F   UNL A   1      45.961  31.592  31.978  1.00  0.00    -0.206 F 
ATOM     83  C   UNL A   1      46.615  34.835  30.504  1.00  0.00     0.006 A 
ENDBRANCH  59  76
ENDBRANCH  33  34
ENDBRANCH  25  28
ENDBRANCH  23  24
ENDBRANCH   1  23
TORSDOF 12
ENDMDL
