MODEL 1
REMARK VINA RESULT:      -9.9      0.000      0.000
REMARK SMILES Cc1cc(C)c(S(=O)(=O)Nc2ccc(N3CCN(c4ccccn4)CC3)c(C(=O)NCCCNC(=O)c3ccc(-c4c5nc(c(-c6c(F)cccc6F)c6ccc([nH]6)c(-c6c(F)cccc6F)c6nc(c(-c7c(F)cccc7F)c7ccc4[nH]7)C=C6)C=C5)cc3)c2)c(C)c1
REMARK SMILES IDX 31 1 30 2 28 3 29 4 27 6 11 7 12 8 91 9 13 10 14 11 10 12
REMARK SMILES IDX 7 14 8 15 9 16 6 17 1 18 2 19 3 20 94 21 4 22 92 23 5 24
REMARK SMILES IDX 93 25 15 26 16 27 26 28 17 29 25 30 18 31 19 32 20 33 24 34
REMARK SMILES IDX 21 35 23 36 22 37 32 38 33 39 34 40 35 41 36 43 37 44 38 45
REMARK SMILES IDX 90 46 39 47 89 48 40 49 41 50 42 51 83 52 43 53 88 54 82 55
REMARK SMILES IDX 84 56 44 57 87 58 81 59 80 60 45 62 71 63 54 64 70 65 55 66
REMARK SMILES IDX 58 67 69 68 85 69 56 70 57 71 68 73 86 74 59 75 46 76 47 77
REMARK SMILES IDX 52 78 48 79 49 80 51 81 53 82 50 83 72 84 73 85 78 86 74 87
REMARK SMILES IDX 75 88 77 89 79 90 76 91 60 92 61 93 66 94 62 95 63 96 65 97
REMARK SMILES IDX 67 98 64 99
REMARK H PARENT 30 5 10 13 34 42 84 61 58 72
REMARK Flexibility Score: inf
ROOT
ATOM      1  C   UNL A   1      42.253  35.133  34.772  1.00  0.00     0.118 C 
ENDROOT
BRANCH   1   2
ATOM      2  N   UNL A   1      41.471  35.136  33.556  1.00  0.00    -0.352 N 
ATOM      3  C   UNL A   1      40.940  34.128  32.791  1.00  0.00     0.253 C 
ATOM      4  O   UNL A   1      40.584  34.463  31.661  1.00  0.00    -0.269 OA
ATOM      5  H   UNL A   1      41.283  36.037  33.209  1.00  0.00     0.163 HD
BRANCH   3   6
ATOM      6  C   UNL A   1      40.787  32.716  33.279  1.00  0.00     0.065 A 
ATOM      7  C   UNL A   1      41.656  30.851  34.560  1.00  0.00     0.050 A 
ATOM      8  C   UNL A   1      40.504  30.118  34.300  1.00  0.00     0.029 A 
ATOM      9  C   UNL A   1      41.862  32.053  33.896  1.00  0.00     0.042 A 
ATOM     10  C   UNL A   1      39.450  30.723  33.626  1.00  0.00     0.029 A 
ATOM     11  C   UNL A   1      39.525  32.066  33.219  1.00  0.00     0.050 A 
BRANCH   7  12
ATOM     12  N   UNL A   1      42.483  30.373  35.610  1.00  0.00    -0.280 N 
ATOM     13  H   UNL A   1      43.061  31.035  36.053  1.00  0.00     0.180 HD
BRANCH  12  14
ATOM     14  S   UNL A   1      42.580  28.800  36.173  1.00  0.00     0.262 S 
ATOM     15  O   UNL A   1      41.218  28.302  36.217  1.00  0.00    -0.201 OA
ATOM     16  O   UNL A   1      43.378  28.893  37.379  1.00  0.00    -0.201 OA
BRANCH  14  17
ATOM     17  C   UNL A   1      43.485  27.695  35.063  1.00  0.00     0.093 A 
ATOM     18  C   UNL A   1      44.472  24.971  31.834  1.00  0.00     0.044 C 
ATOM     19  C   UNL A   1      44.182  25.895  32.980  1.00  0.00    -0.051 A 
ATOM     20  C   UNL A   1      43.516  25.436  34.111  1.00  0.00     0.008 A 
ATOM     21  C   UNL A   1      44.637  27.213  32.975  1.00  0.00     0.008 A 
ATOM     22  C   UNL A   1      43.160  26.312  35.156  1.00  0.00    -0.030 A 
ATOM     23  C   UNL A   1      44.345  28.113  34.029  1.00  0.00    -0.030 A 
ATOM     24  C   UNL A   1      42.541  25.659  36.369  1.00  0.00     0.046 C 
ATOM     25  C   UNL A   1      45.048  29.432  33.941  1.00  0.00     0.046 C 
ENDBRANCH  14  17
ENDBRANCH  12  14
ENDBRANCH   7  12
BRANCH  11  26
ATOM     26  N   UNL A   1      38.345  32.730  32.927  1.00  0.00    -0.367 N 
ATOM     27  C   UNL A   1      37.482  33.214  34.027  1.00  0.00     0.138 C 
ATOM     28  C   UNL A   1      37.629  32.437  31.676  1.00  0.00     0.138 C 
ATOM     29  C   UNL A   1      36.627  34.426  33.580  1.00  0.00     0.139 C 
ATOM     30  C   UNL A   1      36.863  33.700  31.227  1.00  0.00     0.139 C 
ATOM     31  N   UNL A   1      35.952  34.120  32.311  1.00  0.00    -0.353 N 
BRANCH  31  32
ATOM     32  C   UNL A   1      34.818  34.838  31.980  1.00  0.00     0.128 A 
ATOM     33  C   UNL A   1      34.319  35.782  32.880  1.00  0.00     0.047 A 
ATOM     34  N   UNL A   1      34.246  34.664  30.771  1.00  0.00    -0.239 NA
ATOM     35  C   UNL A   1      33.204  36.546  32.547  1.00  0.00     0.005 A 
ATOM     36  C   UNL A   1      33.150  35.400  30.474  1.00  0.00     0.113 A 
ATOM     37  C   UNL A   1      32.598  36.345  31.320  1.00  0.00     0.020 A 
ENDBRANCH  31  32
ENDBRANCH  11  26
ENDBRANCH   3   6
ENDBRANCH   1   2
BRANCH   1  38
ATOM     38  C   UNL A   1      43.331  36.211  34.715  1.00  0.00     0.042 C 
BRANCH  38  39
ATOM     39  C   UNL A   1      43.599  36.685  33.295  1.00  0.00     0.118 C 
BRANCH  39  40
ATOM     40  N   UNL A   1      45.014  36.937  33.069  1.00  0.00    -0.352 N 
ATOM     41  C   UNL A   1      45.983  36.082  32.616  1.00  0.00     0.251 C 
ATOM     42  H   UNL A   1      45.317  37.852  33.270  1.00  0.00     0.163 HD
ATOM     43  O   UNL A   1      47.166  36.402  32.697  1.00  0.00    -0.269 OA
BRANCH  41  44
ATOM     44  C   UNL A   1      45.607  34.774  32.041  1.00  0.00     0.039 A 
ATOM     45  C   UNL A   1      45.433  33.687  32.901  1.00  0.00     0.014 A 
ATOM     46  C   UNL A   1      45.459  34.607  30.661  1.00  0.00     0.014 A 
ATOM     47  C   UNL A   1      45.083  32.442  32.380  1.00  0.00     0.010 A 
ATOM     48  C   UNL A   1      45.028  33.387  30.150  1.00  0.00     0.010 A 
ATOM     49  C   UNL A   1      44.863  32.286  31.002  1.00  0.00    -0.014 A 
BRANCH  49  50
ATOM     50  C   UNL A   1      44.508  30.965  30.430  1.00  0.00     0.031 A 
ATOM     51  C   UNL A   1      45.589  29.964  30.128  1.00  0.00     0.074 A 
ATOM     52  C   UNL A   1      43.224  30.686  30.138  1.00  0.00     0.049 A 
ATOM     53  N   UNL A   1      45.490  28.775  29.588  1.00  0.00    -0.248 NA
ATOM     54  C   UNL A   1      46.969  30.365  30.443  1.00  0.00     0.031 C 
ATOM     55  C   UNL A   1      42.093  31.596  30.328  1.00  0.00     0.029 A 
ATOM     56  N   UNL A   1      42.654  29.554  29.613  1.00  0.00    -0.354 N 
ATOM     57  C   UNL A   1      46.791  28.303  29.477  1.00  0.00     0.074 A 
ATOM     58  C   UNL A   1      47.666  29.349  29.954  1.00  0.00     0.031 C 
ATOM     59  C   UNL A   1      40.963  30.977  29.951  1.00  0.00     0.029 A 
ATOM     60  C   UNL A   1      41.292  29.640  29.469  1.00  0.00     0.049 A 
ATOM     61  H   UNL A   1      43.174  28.755  29.363  1.00  0.00     0.167 HD
ATOM     62  C   UNL A   1      47.218  27.094  29.039  1.00  0.00     0.037 A 
ATOM     63  C   UNL A   1      40.408  28.737  29.005  1.00  0.00     0.037 A 
ATOM     64  C   UNL A   1      46.342  26.038  28.608  1.00  0.00     0.049 A 
ATOM     65  C   UNL A   1      40.901  27.385  28.569  1.00  0.00     0.074 A 
ATOM     66  C   UNL A   1      46.668  24.752  28.216  1.00  0.00     0.029 A 
ATOM     67  N   UNL A   1      44.963  26.149  28.518  1.00  0.00    -0.354 N 
ATOM     68  N   UNL A   1      42.127  26.924  28.536  1.00  0.00    -0.248 NA
ATOM     69  C   UNL A   1      39.885  26.425  28.120  1.00  0.00     0.031 C 
ATOM     70  C   UNL A   1      45.486  24.092  27.861  1.00  0.00     0.029 A 
ATOM     71  C   UNL A   1      44.422  24.956  28.067  1.00  0.00     0.049 A 
ATOM     72  H   UNL A   1      44.444  26.955  28.742  1.00  0.00     0.167 HD
ATOM     73  C   UNL A   1      42.030  25.615  28.087  1.00  0.00     0.074 A 
ATOM     74  C   UNL A   1      40.621  25.350  27.873  1.00  0.00     0.031 C 
ATOM     75  C   UNL A   1      43.017  24.712  27.868  1.00  0.00     0.037 A 
BRANCH  62  76
ATOM     76  C   UNL A   1      48.699  26.854  29.017  1.00  0.00     0.057 A 
ATOM     77  C   UNL A   1      49.372  26.289  30.108  1.00  0.00     0.134 A 
ATOM     78  C   UNL A   1      49.459  27.177  27.886  1.00  0.00     0.134 A 
ATOM     79  F   UNL A   1      48.704  25.970  31.227  1.00  0.00    -0.206 F 
ATOM     80  C   UNL A   1      50.752  26.083  30.089  1.00  0.00     0.040 A 
ATOM     81  C   UNL A   1      50.836  26.951  27.845  1.00  0.00     0.040 A 
ATOM     82  F   UNL A   1      48.877  27.716  26.804  1.00  0.00    -0.206 F 
ATOM     83  C   UNL A   1      51.488  26.409  28.950  1.00  0.00     0.006 A 
ENDBRANCH  62  76
BRANCH  63  84
ATOM     84  C   UNL A   1      38.963  29.068  28.971  1.00  0.00     0.057 A 
ATOM     85  C   UNL A   1      38.169  28.941  30.116  1.00  0.00     0.134 A 
ATOM     86  C   UNL A   1      38.344  29.525  27.802  1.00  0.00     0.134 A 
ATOM     87  F   UNL A   1      38.704  28.492  31.262  1.00  0.00    -0.206 F 
ATOM     88  C   UNL A   1      36.806  29.242  30.098  1.00  0.00     0.040 A 
ATOM     89  C   UNL A   1      36.988  29.849  27.774  1.00  0.00     0.040 A 
ATOM     90  F   UNL A   1      39.055  29.674  26.674  1.00  0.00    -0.206 F 
ATOM     91  C   UNL A   1      36.213  29.702  28.924  1.00  0.00     0.006 A 
ENDBRANCH  63  84
BRANCH  75  92
ATOM     92  C   UNL A   1      42.603  23.348  27.404  1.00  0.00     0.057 A 
ATOM     93  C   UNL A   1      42.553  23.016  26.044  1.00  0.00     0.134 A 
ATOM     94  C   UNL A   1      42.285  22.347  28.329  1.00  0.00     0.134 A 
ATOM     95  F   UNL A   1      42.835  23.936  25.110  1.00  0.00    -0.206 F 
ATOM     96  C   UNL A   1      42.178  21.740  25.620  1.00  0.00     0.040 A 
ATOM     97  C   UNL A   1      41.931  21.062  27.919  1.00  0.00     0.040 A 
ATOM     98  F   UNL A   1      42.321  22.600  29.646  1.00  0.00    -0.206 F 
ATOM     99  C   UNL A   1      41.872  20.757  26.560  1.00  0.00     0.006 A 
ENDBRANCH  75  92
ENDBRANCH  49  50
ENDBRANCH  41  44
ENDBRANCH  39  40
ENDBRANCH  38  39
ENDBRANCH   1  38
TORSDOF 15
ENDMDL
MODEL 2
REMARK VINA RESULT:      -9.8      3.432     10.764
REMARK SMILES Cc1cc(C)c(S(=O)(=O)Nc2ccc(N3CCN(c4ccccn4)CC3)c(C(=O)NCCCNC(=O)c3ccc(-c4c5nc(c(-c6c(F)cccc6F)c6ccc([nH]6)c(-c6c(F)cccc6F)c6nc(c(-c7c(F)cccc7F)c7ccc4[nH]7)C=C6)C=C5)cc3)c2)c(C)c1
REMARK SMILES IDX 31 1 30 2 28 3 29 4 27 6 11 7 12 8 91 9 13 10 14 11 10 12
REMARK SMILES IDX 7 14 8 15 9 16 6 17 1 18 2 19 3 20 94 21 4 22 92 23 5 24
REMARK SMILES IDX 93 25 15 26 16 27 26 28 17 29 25 30 18 31 19 32 20 33 24 34
REMARK SMILES IDX 21 35 23 36 22 37 32 38 33 39 34 40 35 41 36 43 37 44 38 45
REMARK SMILES IDX 90 46 39 47 89 48 40 49 41 50 42 51 83 52 43 53 88 54 82 55
REMARK SMILES IDX 84 56 44 57 87 58 81 59 80 60 45 62 71 63 54 64 70 65 55 66
REMARK SMILES IDX 58 67 69 68 85 69 56 70 57 71 68 73 86 74 59 75 46 76 47 77
REMARK SMILES IDX 52 78 48 79 49 80 51 81 53 82 50 83 72 84 73 85 78 86 74 87
REMARK SMILES IDX 75 88 77 89 79 90 76 91 60 92 61 93 66 94 62 95 63 96 65 97
REMARK SMILES IDX 67 98 64 99
REMARK H PARENT 30 5 10 13 34 42 84 61 58 72
REMARK Flexibility Score: inf
ROOT
ATOM      1  C   UNL A   1      48.516  26.287  29.236  1.00  0.00     0.118 C 
ENDROOT
BRANCH   1   2
ATOM      2  N   UNL A   1      48.784  26.099  27.828  1.00  0.00    -0.352 N 
ATOM      3  C   UNL A   1      48.063  26.389  26.698  1.00  0.00     0.253 C 
ATOM      4  O   UNL A   1      48.450  25.830  25.673  1.00  0.00    -0.269 OA
ATOM      5  H   UNL A   1      49.656  25.681  27.644  1.00  0.00     0.163 HD
BRANCH   3   6
ATOM      6  C   UNL A   1      46.888  27.326  26.689  1.00  0.00     0.065 A 
ATOM      7  C   UNL A   1      46.014  29.566  26.389  1.00  0.00     0.050 A 
ATOM      8  C   UNL A   1      44.717  29.099  26.561  1.00  0.00     0.029 A 
ATOM      9  C   UNL A   1      47.083  28.716  26.642  1.00  0.00     0.042 A 
ATOM     10  C   UNL A   1      44.497  27.732  26.685  1.00  0.00     0.029 A 
ATOM     11  C   UNL A   1      45.563  26.817  26.623  1.00  0.00     0.050 A 
BRANCH   7  12
ATOM     12  N   UNL A   1      46.146  30.861  25.823  1.00  0.00    -0.280 N 
ATOM     13  H   UNL A   1      46.462  30.904  24.891  1.00  0.00     0.180 HD
BRANCH  12  14
ATOM     14  S   UNL A   1      45.824  32.322  26.572  1.00  0.00     0.262 S 
ATOM     15  O   UNL A   1      44.396  32.537  26.439  1.00  0.00    -0.201 OA
ATOM     16  O   UNL A   1      46.775  33.247  25.991  1.00  0.00    -0.201 OA
BRANCH  14  17
ATOM     17  C   UNL A   1      46.167  32.308  28.349  1.00  0.00     0.093 A 
ATOM     18  C   UNL A   1      47.385  33.502  32.337  1.00  0.00     0.044 C 
ATOM     19  C   UNL A   1      46.967  33.031  30.976  1.00  0.00    -0.051 A 
ATOM     20  C   UNL A   1      47.917  32.664  30.029  1.00  0.00     0.008 A 
ATOM     21  C   UNL A   1      45.620  32.874  30.650  1.00  0.00     0.008 A 
ATOM     22  C   UNL A   1      47.542  32.303  28.719  1.00  0.00    -0.030 A 
ATOM     23  C   UNL A   1      45.201  32.465  29.361  1.00  0.00    -0.030 A 
ATOM     24  C   UNL A   1      48.665  31.822  27.831  1.00  0.00     0.046 C 
ATOM     25  C   UNL A   1      43.734  32.190  29.236  1.00  0.00     0.046 C 
ENDBRANCH  14  17
ENDBRANCH  12  14
ENDBRANCH   7  12
BRANCH  11  26
ATOM     26  N   UNL A   1      45.273  25.491  26.349  1.00  0.00    -0.367 N 
ATOM     27  C   UNL A   1      44.541  25.139  25.112  1.00  0.00     0.138 C 
ATOM     28  C   UNL A   1      45.097  24.534  27.453  1.00  0.00     0.138 C 
ATOM     29  C   UNL A   1      44.870  23.696  24.655  1.00  0.00     0.139 C 
ATOM     30  C   UNL A   1      45.520  23.129  26.973  1.00  0.00     0.139 C 
ATOM     31  N   UNL A   1      44.723  22.768  25.783  1.00  0.00    -0.353 N 
BRANCH  31  32
ATOM     32  C   UNL A   1      44.514  21.429  25.511  1.00  0.00     0.128 A 
ATOM     33  C   UNL A   1      45.593  20.633  25.122  1.00  0.00     0.047 A 
ATOM     34  N   UNL A   1      43.286  20.895  25.685  1.00  0.00    -0.239 NA
ATOM     35  C   UNL A   1      45.411  19.274  24.885  1.00  0.00     0.005 A 
ATOM     36  C   UNL A   1      43.125  19.576  25.429  1.00  0.00     0.113 A 
ATOM     37  C   UNL A   1      44.147  18.732  25.033  1.00  0.00     0.020 A 
ENDBRANCH  31  32
ENDBRANCH  11  26
ENDBRANCH   3   6
ENDBRANCH   1   2
BRANCH   1  38
ATOM     38  C   UNL A   1      49.780  26.046  30.057  1.00  0.00     0.042 C 
BRANCH  38  39
ATOM     39  C   UNL A   1      50.232  27.293  30.800  1.00  0.00     0.118 C 
BRANCH  39  40
ATOM     40  N   UNL A   1      50.343  27.056  32.232  1.00  0.00    -0.352 N 
ATOM     41  C   UNL A   1      49.502  27.446  33.240  1.00  0.00     0.251 C 
ATOM     42  H   UNL A   1      51.135  26.544  32.514  1.00  0.00     0.163 HD
ATOM     43  O   UNL A   1      49.866  27.350  34.409  1.00  0.00    -0.269 OA
BRANCH  41  44
ATOM     44  C   UNL A   1      48.165  27.986  32.922  1.00  0.00     0.039 A 
ATOM     45  C   UNL A   1      47.073  27.574  33.691  1.00  0.00     0.014 A 
ATOM     46  C   UNL A   1      47.977  28.869  31.853  1.00  0.00     0.014 A 
ATOM     47  C   UNL A   1      45.801  28.067  33.406  1.00  0.00     0.010 A 
ATOM     48  C   UNL A   1      46.722  29.425  31.624  1.00  0.00     0.010 A 
ATOM     49  C   UNL A   1      45.618  29.008  32.380  1.00  0.00    -0.014 A 
BRANCH  49  50
ATOM     50  C   UNL A   1      44.269  29.530  32.052  1.00  0.00     0.031 A 
ATOM     51  C   UNL A   1      43.767  30.781  32.719  1.00  0.00     0.074 A 
ATOM     52  C   UNL A   1      43.480  28.854  31.196  1.00  0.00     0.049 A 
ATOM     53  N   UNL A   1      42.605  31.373  32.601  1.00  0.00    -0.248 NA
ATOM     54  C   UNL A   1      44.678  31.436  33.671  1.00  0.00     0.031 C 
ATOM     55  C   UNL A   1      43.831  27.597  30.532  1.00  0.00     0.029 A 
ATOM     56  N   UNL A   1      42.216  29.130  30.741  1.00  0.00    -0.354 N 
ATOM     57  C   UNL A   1      42.640  32.448  33.480  1.00  0.00     0.074 A 
ATOM     58  C   UNL A   1      43.914  32.399  34.162  1.00  0.00     0.031 C 
ATOM     59  C   UNL A   1      42.817  27.225  29.734  1.00  0.00     0.029 A 
ATOM     60  C   UNL A   1      41.737  28.201  29.850  1.00  0.00     0.049 A 
ATOM     61  H   UNL A   1      41.701  29.920  31.026  1.00  0.00     0.167 HD
ATOM     62  C   UNL A   1      41.705  33.407  33.682  1.00  0.00     0.037 A 
ATOM     63  C   UNL A   1      40.561  28.147  29.199  1.00  0.00     0.037 A 
ATOM     64  C   UNL A   1      40.459  33.479  32.968  1.00  0.00     0.049 A 
ATOM     65  C   UNL A   1      39.559  29.248  29.404  1.00  0.00     0.074 A 
ATOM     66  C   UNL A   1      39.474  34.449  33.044  1.00  0.00     0.029 A 
ATOM     67  N   UNL A   1      40.028  32.542  32.041  1.00  0.00    -0.354 N 
ATOM     68  N   UNL A   1      39.633  30.299  30.183  1.00  0.00    -0.248 NA
ATOM     69  C   UNL A   1      38.315  29.162  28.627  1.00  0.00     0.031 C 
ATOM     70  C   UNL A   1      38.435  34.084  32.183  1.00  0.00     0.029 A 
ATOM     71  C   UNL A   1      38.787  32.905  31.544  1.00  0.00     0.049 A 
ATOM     72  H   UNL A   1      40.530  31.738  31.775  1.00  0.00     0.167 HD
ATOM     73  C   UNL A   1      38.460  31.011  29.975  1.00  0.00     0.074 A 
ATOM     74  C   UNL A   1      37.697  30.279  28.984  1.00  0.00     0.031 C 
ATOM     75  C   UNL A   1      38.049  32.166  30.553  1.00  0.00     0.037 A 
BRANCH  62  76
ATOM     76  C   UNL A   1      42.006  34.456  34.711  1.00  0.00     0.057 A 
ATOM     77  C   UNL A   1      42.606  35.675  34.370  1.00  0.00     0.134 A 
ATOM     78  C   UNL A   1      41.679  34.252  36.057  1.00  0.00     0.134 A 
ATOM     79  F   UNL A   1      42.958  35.927  33.099  1.00  0.00    -0.206 F 
ATOM     80  C   UNL A   1      42.899  36.641  35.333  1.00  0.00     0.040 A 
ATOM     81  C   UNL A   1      41.942  35.222  37.026  1.00  0.00     0.040 A 
ATOM     82  F   UNL A   1      41.097  33.110  36.452  1.00  0.00    -0.206 F 
ATOM     83  C   UNL A   1      42.561  36.418  36.667  1.00  0.00     0.006 A 
ENDBRANCH  62  76
BRANCH  63  84
ATOM     84  C   UNL A   1      40.289  27.034  28.258  1.00  0.00     0.057 A 
ATOM     85  C   UNL A   1      39.509  25.939  28.645  1.00  0.00     0.134 A 
ATOM     86  C   UNL A   1      40.792  27.041  26.952  1.00  0.00     0.134 A 
ATOM     87  F   UNL A   1      39.014  25.870  29.890  1.00  0.00    -0.206 F 
ATOM     88  C   UNL A   1      39.251  24.880  27.773  1.00  0.00     0.040 A 
ATOM     89  C   UNL A   1      40.524  25.999  26.062  1.00  0.00     0.040 A 
ATOM     90  F   UNL A   1      41.540  28.067  26.519  1.00  0.00    -0.206 F 
ATOM     91  C   UNL A   1      39.756  24.912  26.474  1.00  0.00     0.006 A 
ENDBRANCH  63  84
BRANCH  75  92
ATOM     92  C   UNL A   1      36.731  32.722  30.104  1.00  0.00     0.057 A 
ATOM     93  C   UNL A   1      35.543  32.447  30.791  1.00  0.00     0.134 A 
ATOM     94  C   UNL A   1      36.658  33.571  28.992  1.00  0.00     0.134 A 
ATOM     95  F   UNL A   1      35.546  31.632  31.856  1.00  0.00    -0.206 F 
ATOM     96  C   UNL A   1      34.321  32.979  30.373  1.00  0.00     0.040 A 
ATOM     97  C   UNL A   1      35.448  34.127  28.579  1.00  0.00     0.040 A 
ATOM     98  F   UNL A   1      37.763  33.879  28.296  1.00  0.00    -0.206 F 
ATOM     99  C   UNL A   1      34.273  33.827  29.267  1.00  0.00     0.006 A 
ENDBRANCH  75  92
ENDBRANCH  49  50
ENDBRANCH  41  44
ENDBRANCH  39  40
ENDBRANCH  38  39
ENDBRANCH   1  38
TORSDOF 15
ENDMDL
MODEL 3
REMARK VINA RESULT:      -9.7      4.127      9.977
REMARK SMILES Cc1cc(C)c(S(=O)(=O)Nc2ccc(N3CCN(c4ccccn4)CC3)c(C(=O)NCCCNC(=O)c3ccc(-c4c5nc(c(-c6c(F)cccc6F)c6ccc([nH]6)c(-c6c(F)cccc6F)c6nc(c(-c7c(F)cccc7F)c7ccc4[nH]7)C=C6)C=C5)cc3)c2)c(C)c1
REMARK SMILES IDX 31 1 30 2 28 3 29 4 27 6 11 7 12 8 91 9 13 10 14 11 10 12
REMARK SMILES IDX 7 14 8 15 9 16 6 17 1 18 2 19 3 20 94 21 4 22 92 23 5 24
REMARK SMILES IDX 93 25 15 26 16 27 26 28 17 29 25 30 18 31 19 32 20 33 24 34
REMARK SMILES IDX 21 35 23 36 22 37 32 38 33 39 34 40 35 41 36 43 37 44 38 45
REMARK SMILES IDX 90 46 39 47 89 48 40 49 41 50 42 51 83 52 43 53 88 54 82 55
REMARK SMILES IDX 84 56 44 57 87 58 81 59 80 60 45 62 71 63 54 64 70 65 55 66
REMARK SMILES IDX 58 67 69 68 85 69 56 70 57 71 68 73 86 74 59 75 46 76 47 77
REMARK SMILES IDX 52 78 48 79 49 80 51 81 53 82 50 83 72 84 73 85 78 86 74 87
REMARK SMILES IDX 75 88 77 89 79 90 76 91 60 92 61 93 66 94 62 95 63 96 65 97
REMARK SMILES IDX 67 98 64 99
REMARK H PARENT 30 5 10 13 34 42 84 61 58 72
REMARK Flexibility Score: inf
ROOT
ATOM      1  C   UNL A   1      39.026  26.702  29.268  1.00  0.00     0.118 C 
ENDROOT
BRANCH   1   2
ATOM      2  N   UNL A   1      39.006  27.824  28.356  1.00  0.00    -0.352 N 
ATOM      3  C   UNL A   1      39.461  29.113  28.459  1.00  0.00     0.253 C 
ATOM      4  O   UNL A   1      39.020  29.892  27.615  1.00  0.00    -0.269 OA
ATOM      5  H   UNL A   1      38.581  27.622  27.491  1.00  0.00     0.163 HD
BRANCH   3   6
ATOM      6  C   UNL A   1      40.435  29.561  29.512  1.00  0.00     0.065 A 
ATOM      7  C   UNL A   1      42.711  29.650  30.338  1.00  0.00     0.050 A 
ATOM      8  C   UNL A   1      42.311  30.456  31.397  1.00  0.00     0.029 A 
ATOM      9  C   UNL A   1      41.749  29.062  29.527  1.00  0.00     0.042 A 
ATOM     10  C   UNL A   1      40.997  30.906  31.450  1.00  0.00     0.029 A 
ATOM     11  C   UNL A   1      40.074  30.571  30.444  1.00  0.00     0.050 A 
BRANCH   7  12
ATOM     12  N   UNL A   1      44.106  29.600  30.079  1.00  0.00    -0.280 N 
ATOM     13  H   UNL A   1      44.439  30.169  29.348  1.00  0.00     0.180 HD
BRANCH  12  14
ATOM     14  S   UNL A   1      45.243  28.672  30.882  1.00  0.00     0.262 S 
ATOM     15  O   UNL A   1      44.796  27.297  30.769  1.00  0.00    -0.201 OA
ATOM     16  O   UNL A   1      45.382  29.307  32.178  1.00  0.00    -0.201 OA
BRANCH  14  17
ATOM     17  C   UNL A   1      46.885  28.732  30.123  1.00  0.00     0.093 A 
ATOM     18  C   UNL A   1      51.153  29.227  29.525  1.00  0.00     0.044 C 
ATOM     19  C   UNL A   1      49.669  29.059  29.671  1.00  0.00    -0.051 A 
ATOM     20  C   UNL A   1      48.832  30.168  29.728  1.00  0.00     0.008 A 
ATOM     21  C   UNL A   1      49.084  27.794  29.676  1.00  0.00     0.008 A 
ATOM     22  C   UNL A   1      47.447  30.028  29.952  1.00  0.00    -0.030 A 
ATOM     23  C   UNL A   1      47.691  27.610  29.848  1.00  0.00    -0.030 A 
ATOM     24  C   UNL A   1      46.645  31.306  29.878  1.00  0.00     0.046 C 
ATOM     25  C   UNL A   1      47.215  26.202  29.663  1.00  0.00     0.046 C 
ENDBRANCH  14  17
ENDBRANCH  12  14
ENDBRANCH   7  12
BRANCH  11  26
ATOM     26  N   UNL A   1      38.931  31.343  30.318  1.00  0.00    -0.367 N 
ATOM     27  C   UNL A   1      39.050  32.800  30.088  1.00  0.00     0.138 C 
ATOM     28  C   UNL A   1      37.691  30.933  30.995  1.00  0.00     0.138 C 
ATOM     29  C   UNL A   1      37.806  33.357  29.352  1.00  0.00     0.139 C 
ATOM     30  C   UNL A   1      36.482  31.437  30.177  1.00  0.00     0.139 C 
ATOM     31  N   UNL A   1      36.582  32.903  30.025  1.00  0.00    -0.353 N 
BRANCH  31  32
ATOM     32  C   UNL A   1      35.421  33.628  29.837  1.00  0.00     0.128 A 
ATOM     33  C   UNL A   1      34.810  33.629  28.581  1.00  0.00     0.047 A 
ATOM     34  N   UNL A   1      34.857  34.272  30.881  1.00  0.00    -0.239 NA
ATOM     35  C   UNL A   1      33.617  34.317  28.382  1.00  0.00     0.005 A 
ATOM     36  C   UNL A   1      33.709  34.953  30.662  1.00  0.00     0.113 A 
ATOM     37  C   UNL A   1      33.056  35.003  29.444  1.00  0.00     0.020 A 
ENDBRANCH  31  32
ENDBRANCH  11  26
ENDBRANCH   3   6
ENDBRANCH   1   2
BRANCH   1  38
ATOM     38  C   UNL A   1      39.985  25.625  28.767  1.00  0.00     0.042 C 
BRANCH  38  39
ATOM     39  C   UNL A   1      39.752  25.281  27.304  1.00  0.00     0.118 C 
BRANCH  39  40
ATOM     40  N   UNL A   1      40.335  23.995  26.954  1.00  0.00    -0.352 N 
ATOM     41  C   UNL A   1      41.582  23.716  26.461  1.00  0.00     0.251 C 
ATOM     42  H   UNL A   1      39.749  23.216  27.090  1.00  0.00     0.163 HD
ATOM     43  O   UNL A   1      41.825  22.598  26.015  1.00  0.00    -0.269 OA
BRANCH  41  44
ATOM     44  C   UNL A   1      42.628  24.758  26.459  1.00  0.00     0.039 A 
ATOM     45  C   UNL A   1      42.898  25.437  25.268  1.00  0.00     0.014 A 
ATOM     46  C   UNL A   1      43.365  25.045  27.612  1.00  0.00     0.014 A 
ATOM     47  C   UNL A   1      43.885  26.422  25.241  1.00  0.00     0.010 A 
ATOM     48  C   UNL A   1      44.290  26.085  27.606  1.00  0.00     0.010 A 
ATOM     49  C   UNL A   1      44.578  26.764  26.414  1.00  0.00    -0.014 A 
BRANCH  49  50
ATOM     50  C   UNL A   1      45.642  27.796  26.399  1.00  0.00     0.031 A 
ATOM     51  C   UNL A   1      45.279  29.249  26.540  1.00  0.00     0.074 A 
ATOM     52  C   UNL A   1      46.925  27.432  26.210  1.00  0.00     0.049 A 
ATOM     53  N   UNL A   1      46.055  30.303  26.510  1.00  0.00    -0.248 NA
ATOM     54  C   UNL A   1      43.851  29.562  26.704  1.00  0.00     0.031 C 
ATOM     55  C   UNL A   1      47.395  26.062  26.001  1.00  0.00     0.029 A 
ATOM     56  N   UNL A   1      48.068  28.188  26.160  1.00  0.00    -0.354 N 
ATOM     57  C   UNL A   1      45.208  31.397  26.623  1.00  0.00     0.074 A 
ATOM     58  C   UNL A   1      43.857  30.886  26.671  1.00  0.00     0.031 C 
ATOM     59  C   UNL A   1      48.732  26.072  25.871  1.00  0.00     0.029 A 
ATOM     60  C   UNL A   1      49.208  27.448  25.962  1.00  0.00     0.049 A 
ATOM     61  H   UNL A   1      48.071  29.168  26.256  1.00  0.00     0.167 HD
ATOM     62  C   UNL A   1      45.528  32.711  26.707  1.00  0.00     0.037 A 
ATOM     63  C   UNL A   1      50.492  27.839  25.870  1.00  0.00     0.037 A 
ATOM     64  C   UNL A   1      46.876  33.212  26.705  1.00  0.00     0.049 A 
ATOM     65  C   UNL A   1      50.827  29.297  26.013  1.00  0.00     0.074 A 
ATOM     66  C   UNL A   1      47.312  34.517  26.859  1.00  0.00     0.029 A 
ATOM     67  N   UNL A   1      48.007  32.427  26.547  1.00  0.00    -0.354 N 
ATOM     68  N   UNL A   1      50.022  30.316  26.193  1.00  0.00    -0.248 NA
ATOM     69  C   UNL A   1      52.250  29.657  25.955  1.00  0.00     0.031 C 
ATOM     70  C   UNL A   1      48.708  34.524  26.765  1.00  0.00     0.029 A 
ATOM     71  C   UNL A   1      49.142  33.219  26.589  1.00  0.00     0.049 A 
ATOM     72  H   UNL A   1      48.005  31.450  26.423  1.00  0.00     0.167 HD
ATOM     73  C   UNL A   1      50.840  31.433  26.292  1.00  0.00     0.074 A 
ATOM     74  C   UNL A   1      52.205  30.965  26.168  1.00  0.00     0.031 C 
ATOM     75  C   UNL A   1      50.492  32.731  26.470  1.00  0.00     0.037 A 
BRANCH  62  76
ATOM     76  C   UNL A   1      44.397  33.690  26.815  1.00  0.00     0.057 A 
ATOM     77  C   UNL A   1      43.855  34.059  28.053  1.00  0.00     0.134 A 
ATOM     78  C   UNL A   1      43.851  34.282  25.669  1.00  0.00     0.134 A 
ATOM     79  F   UNL A   1      44.323  33.516  29.188  1.00  0.00    -0.206 F 
ATOM     80  C   UNL A   1      42.791  34.957  28.148  1.00  0.00     0.040 A 
ATOM     81  C   UNL A   1      42.805  35.203  25.753  1.00  0.00     0.040 A 
ATOM     82  F   UNL A   1      44.326  33.978  24.452  1.00  0.00    -0.206 F 
ATOM     83  C   UNL A   1      42.267  35.537  26.994  1.00  0.00     0.006 A 
ENDBRANCH  62  76
BRANCH  63  84
ATOM     84  C   UNL A   1      51.559  26.828  25.676  1.00  0.00     0.057 A 
ATOM     85  C   UNL A   1      52.042  26.528  24.397  1.00  0.00     0.134 A 
ATOM     86  C   UNL A   1      52.126  26.145  26.758  1.00  0.00     0.134 A 
ATOM     87  F   UNL A   1      51.524  27.139  23.320  1.00  0.00    -0.206 F 
ATOM     88  C   UNL A   1      53.040  25.573  24.197  1.00  0.00     0.040 A 
ATOM     89  C   UNL A   1      53.139  25.203  26.575  1.00  0.00     0.040 A 
ATOM     90  F   UNL A   1      51.711  26.395  28.008  1.00  0.00    -0.206 F 
ATOM     91  C   UNL A   1      53.595  24.911  25.291  1.00  0.00     0.006 A 
ENDBRANCH  63  84
BRANCH  75  92
ATOM     92  C   UNL A   1      51.607  33.729  26.570  1.00  0.00     0.057 A 
ATOM     93  C   UNL A   1      52.079  34.421  25.448  1.00  0.00     0.134 A 
ATOM     94  C   UNL A   1      52.190  34.023  27.809  1.00  0.00     0.134 A 
ATOM     95  F   UNL A   1      51.569  34.174  24.233  1.00  0.00    -0.206 F 
ATOM     96  C   UNL A   1      53.110  35.357  25.552  1.00  0.00     0.040 A 
ATOM     97  C   UNL A   1      53.204  34.972  27.928  1.00  0.00     0.040 A 
ATOM     98  F   UNL A   1      51.777  33.398  28.921  1.00  0.00    -0.206 F 
ATOM     99  C   UNL A   1      53.671  35.639  26.796  1.00  0.00     0.006 A 
ENDBRANCH  75  92
ENDBRANCH  49  50
ENDBRANCH  41  44
ENDBRANCH  39  40
ENDBRANCH  38  39
ENDBRANCH   1  38
TORSDOF 15
ENDMDL
