MODEL 1
REMARK VINA RESULT:     -12.6      0.000      0.000
REMARK SMILES COC(=O)c1ccc(NC(=O)[C@@H]2CC=CC[C@@H]2C(=O)NCCCNC(=O)c2ccc(-c3c4nc(c(-c5c(F)cccc5F)c5ccc([nH]5)c(-c5c(F)cccc5F)c5nc(c(-c6c(F)cccc6F)c6ccc3[nH]6)C=C5)C=C4)cc2)c(C)c1
REMARK SMILES IDX 21 1 20 2 18 3 19 4 17 6 12 7 13 8 14 9 16 10 15 11 10 12
REMARK SMILES IDX 9 13 11 15 8 16 5 17 6 18 83 19 7 20 81 21 82 22 3 23 4 24
REMARK SMILES IDX 2 25 1 26 22 27 23 28 24 29 25 30 26 32 27 33 28 34 80 35
REMARK SMILES IDX 29 36 79 37 30 38 31 39 32 40 73 41 33 42 78 43 72 44 74 45
REMARK SMILES IDX 34 46 77 47 71 48 70 49 35 51 61 52 44 53 60 54 45 55 48 56
REMARK SMILES IDX 59 57 75 58 46 59 47 60 58 62 76 63 49 64 36 65 37 66 42 67
REMARK SMILES IDX 38 68 39 69 41 70 43 71 40 72 62 73 63 74 68 75 64 76 65 77
REMARK SMILES IDX 67 78 69 79 66 80 50 81 51 82 56 83 52 84 53 85 55 86 57 87
REMARK SMILES IDX 54 88
REMARK H PARENT 20 5 9 14 24 31 74 50 48 61
REMARK Flexibility Score: inf
ROOT
ATOM      1  C   UNL A   1      31.880  29.791  25.806  1.00  0.00     0.117 C 
ENDROOT
BRANCH   1   2
ATOM      2  N   UNL A   1      32.900  28.862  25.353  1.00  0.00    -0.356 N 
ATOM      3  C   UNL A   1      32.833  28.027  24.277  1.00  0.00     0.224 C 
ATOM      4  O   UNL A   1      33.864  27.885  23.625  1.00  0.00    -0.275 OA
ATOM      5  H   UNL A   1      33.730  28.830  25.882  1.00  0.00     0.163 HD
BRANCH   3   6
ATOM      6  C   UNL A   1      31.513  27.362  23.886  1.00  0.00     0.095 C 
ATOM      7  C   UNL A   1      31.177  26.006  24.559  1.00  0.00     0.095 C 
ATOM      8  C   UNL A   1      31.343  24.699  23.763  1.00  0.00     0.041 C 
ATOM      9  C   UNL A   1      31.794  24.863  22.347  1.00  0.00    -0.030 C 
ATOM     10  C   UNL A   1      31.413  27.330  22.352  1.00  0.00     0.041 C 
ATOM     11  C   UNL A   1      31.835  26.042  21.716  1.00  0.00    -0.030 C 
BRANCH   7  12
ATOM     12  C   UNL A   1      31.564  25.890  26.030  1.00  0.00     0.228 C 
ATOM     13  N   UNL A   1      32.574  25.179  26.586  1.00  0.00    -0.326 N 
ATOM     14  H   UNL A   1      32.527  25.212  27.568  1.00  0.00     0.169 HD
ATOM     15  O   UNL A   1      30.889  26.541  26.847  1.00  0.00    -0.274 OA
BRANCH  13  16
ATOM     16  C   UNL A   1      33.672  24.405  26.161  1.00  0.00     0.044 A 
ATOM     17  C   UNL A   1      36.012  22.896  25.629  1.00  0.00     0.060 A 
ATOM     18  C   UNL A   1      35.811  24.124  25.018  1.00  0.00     0.018 A 
ATOM     19  C   UNL A   1      35.019  22.384  26.467  1.00  0.00     0.021 A 
ATOM     20  C   UNL A   1      34.648  24.855  25.280  1.00  0.00     0.027 A 
ATOM     21  C   UNL A   1      33.836  23.112  26.718  1.00  0.00    -0.027 A 
ATOM     22  C   UNL A   1      32.808  22.480  27.622  1.00  0.00     0.046 C 
BRANCH  17  23
ATOM     23  C   UNL A   1      37.303  22.194  25.375  1.00  0.00     0.337 C 
ATOM     24  O   UNL A   1      38.349  22.491  25.905  1.00  0.00    -0.246 OA
BRANCH  23  25
ATOM     25  O   UNL A   1      37.160  21.175  24.488  1.00  0.00    -0.465 OA
ATOM     26  C   UNL A   1      37.812  19.976  24.908  1.00  0.00     0.282 C 
ENDBRANCH  23  25
ENDBRANCH  17  23
ENDBRANCH  13  16
ENDBRANCH   7  12
ENDBRANCH   3   6
ENDBRANCH   1   2
BRANCH   1  27
ATOM     27  C   UNL A   1      32.375  30.746  26.877  1.00  0.00     0.042 C 
BRANCH  27  28
ATOM     28  C   UNL A   1      33.684  30.311  27.520  1.00  0.00     0.118 C 
BRANCH  28  29
ATOM     29  N   UNL A   1      34.357  31.348  28.302  1.00  0.00    -0.352 N 
ATOM     30  C   UNL A   1      35.548  31.305  29.007  1.00  0.00     0.251 C 
ATOM     31  H   UNL A   1      33.888  32.213  28.333  1.00  0.00     0.163 HD
ATOM     32  O   UNL A   1      35.919  32.304  29.621  1.00  0.00    -0.269 OA
BRANCH  30  33
ATOM     33  C   UNL A   1      36.452  30.131  28.903  1.00  0.00     0.039 A 
ATOM     34  C   UNL A   1      36.621  29.323  30.037  1.00  0.00     0.014 A 
ATOM     35  C   UNL A   1      37.286  29.956  27.807  1.00  0.00     0.014 A 
ATOM     36  C   UNL A   1      37.786  28.573  30.177  1.00  0.00     0.010 A 
ATOM     37  C   UNL A   1      38.495  29.327  27.991  1.00  0.00     0.010 A 
ATOM     38  C   UNL A   1      38.774  28.700  29.208  1.00  0.00    -0.014 A 
BRANCH  38  39
ATOM     39  C   UNL A   1      40.159  28.290  29.380  1.00  0.00     0.031 A 
ATOM     40  C   UNL A   1      40.600  26.977  28.882  1.00  0.00     0.074 A 
ATOM     41  C   UNL A   1      41.052  29.203  29.819  1.00  0.00     0.049 A 
ATOM     42  N   UNL A   1      41.740  26.440  29.147  1.00  0.00    -0.248 NA
ATOM     43  C   UNL A   1      39.749  26.138  28.050  1.00  0.00     0.031 C 
ATOM     44  C   UNL A   1      42.509  29.142  29.743  1.00  0.00     0.029 A 
ATOM     45  N   UNL A   1      40.796  30.304  30.647  1.00  0.00    -0.354 N 
ATOM     46  C   UNL A   1      41.887  25.332  28.343  1.00  0.00     0.074 A 
ATOM     47  C   UNL A   1      40.596  25.161  27.719  1.00  0.00     0.031 C 
ATOM     48  C   UNL A   1      43.022  29.926  30.706  1.00  0.00     0.029 A 
ATOM     49  C   UNL A   1      41.908  30.378  31.521  1.00  0.00     0.049 A 
ATOM     50  H   UNL A   1      40.012  30.899  30.625  1.00  0.00     0.167 HD
ATOM     51  C   UNL A   1      43.125  24.768  28.231  1.00  0.00     0.037 A 
ATOM     52  C   UNL A   1      41.748  30.111  32.852  1.00  0.00     0.037 A 
ATOM     53  C   UNL A   1      44.053  25.360  29.200  1.00  0.00     0.049 A 
ATOM     54  C   UNL A   1      42.517  28.900  33.347  1.00  0.00     0.074 A 
ATOM     55  C   UNL A   1      45.034  26.338  29.147  1.00  0.00     0.029 A 
ATOM     56  N   UNL A   1      43.809  25.144  30.544  1.00  0.00    -0.354 N 
ATOM     57  N   UNL A   1      43.195  28.089  32.581  1.00  0.00    -0.248 NA
ATOM     58  C   UNL A   1      42.499  28.456  34.743  1.00  0.00     0.031 C 
ATOM     59  C   UNL A   1      45.331  26.740  30.486  1.00  0.00     0.029 A 
ATOM     60  C   UNL A   1      44.543  25.996  31.345  1.00  0.00     0.049 A 
ATOM     61  H   UNL A   1      43.187  24.464  30.888  1.00  0.00     0.167 HD
ATOM     62  C   UNL A   1      43.641  27.029  33.322  1.00  0.00     0.074 A 
ATOM     63  C   UNL A   1      43.186  27.304  34.672  1.00  0.00     0.031 C 
ATOM     64  C   UNL A   1      44.312  25.973  32.780  1.00  0.00     0.037 A 
BRANCH  51  65
ATOM     65  C   UNL A   1      43.559  23.828  27.127  1.00  0.00     0.057 A 
ATOM     66  C   UNL A   1      44.286  24.317  26.022  1.00  0.00     0.134 A 
ATOM     67  C   UNL A   1      43.256  22.457  27.043  1.00  0.00     0.134 A 
ATOM     68  F   UNL A   1      44.737  25.578  25.978  1.00  0.00    -0.206 F 
ATOM     69  C   UNL A   1      44.590  23.538  24.896  1.00  0.00     0.040 A 
ATOM     70  C   UNL A   1      43.508  21.678  25.904  1.00  0.00     0.040 A 
ATOM     71  F   UNL A   1      42.762  21.773  28.078  1.00  0.00    -0.206 F 
ATOM     72  C   UNL A   1      44.169  22.221  24.817  1.00  0.00     0.006 A 
ENDBRANCH  51  65
BRANCH  52  73
ATOM     73  C   UNL A   1      40.416  30.548  33.361  1.00  0.00     0.057 A 
ATOM     74  C   UNL A   1      40.188  31.924  33.551  1.00  0.00     0.134 A 
ATOM     75  C   UNL A   1      39.291  29.723  33.279  1.00  0.00     0.134 A 
ATOM     76  F   UNL A   1      41.225  32.773  33.644  1.00  0.00    -0.206 F 
ATOM     77  C   UNL A   1      38.904  32.471  33.518  1.00  0.00     0.040 A 
ATOM     78  C   UNL A   1      37.997  30.259  33.274  1.00  0.00     0.040 A 
ATOM     79  F   UNL A   1      39.421  28.404  33.081  1.00  0.00    -0.206 F 
ATOM     80  C   UNL A   1      37.805  31.638  33.343  1.00  0.00     0.006 A 
ENDBRANCH  52  73
BRANCH  64  81
ATOM     81  C   UNL A   1      44.795  24.812  33.594  1.00  0.00     0.057 A 
ATOM     82  C   UNL A   1      46.157  24.511  33.728  1.00  0.00     0.134 A 
ATOM     83  C   UNL A   1      43.899  23.886  34.161  1.00  0.00     0.134 A 
ATOM     84  F   UNL A   1      47.093  25.311  33.194  1.00  0.00    -0.206 F 
ATOM     85  C   UNL A   1      46.601  23.370  34.403  1.00  0.00     0.040 A 
ATOM     86  C   UNL A   1      44.328  22.717  34.793  1.00  0.00     0.040 A 
ATOM     87  F   UNL A   1      42.574  24.091  34.143  1.00  0.00    -0.206 F 
ATOM     88  C   UNL A   1      45.687  22.458  34.922  1.00  0.00     0.006 A 
ENDBRANCH  64  81
ENDBRANCH  38  39
ENDBRANCH  30  33
ENDBRANCH  28  29
ENDBRANCH  27  28
ENDBRANCH   1  27
TORSDOF 14
ENDMDL
MODEL 2
REMARK VINA RESULT:     -12.4      1.468      2.351
REMARK SMILES COC(=O)c1ccc(NC(=O)[C@@H]2CC=CC[C@@H]2C(=O)NCCCNC(=O)c2ccc(-c3c4nc(c(-c5c(F)cccc5F)c5ccc([nH]5)c(-c5c(F)cccc5F)c5nc(c(-c6c(F)cccc6F)c6ccc3[nH]6)C=C5)C=C4)cc2)c(C)c1
REMARK SMILES IDX 21 1 20 2 18 3 19 4 17 6 12 7 13 8 14 9 16 10 15 11 10 12
REMARK SMILES IDX 9 13 11 15 8 16 5 17 6 18 83 19 7 20 81 21 82 22 3 23 4 24
REMARK SMILES IDX 2 25 1 26 22 27 23 28 24 29 25 30 26 32 27 33 28 34 80 35
REMARK SMILES IDX 29 36 79 37 30 38 31 39 32 40 73 41 33 42 78 43 72 44 74 45
REMARK SMILES IDX 34 46 77 47 71 48 70 49 35 51 61 52 44 53 60 54 45 55 48 56
REMARK SMILES IDX 59 57 75 58 46 59 47 60 58 62 76 63 49 64 36 65 37 66 42 67
REMARK SMILES IDX 38 68 39 69 41 70 43 71 40 72 62 73 63 74 68 75 64 76 65 77
REMARK SMILES IDX 67 78 69 79 66 80 50 81 51 82 56 83 52 84 53 85 55 86 57 87
REMARK SMILES IDX 54 88
REMARK H PARENT 20 5 9 14 24 31 74 50 48 61
REMARK Flexibility Score: inf
ROOT
ATOM      1  C   UNL A   1      33.781  28.265  26.963  1.00  0.00     0.117 C 
ENDROOT
BRANCH   1   2
ATOM      2  N   UNL A   1      34.184  28.464  25.582  1.00  0.00    -0.356 N 
ATOM      3  C   UNL A   1      33.382  28.438  24.479  1.00  0.00     0.224 C 
ATOM      4  O   UNL A   1      33.630  29.258  23.598  1.00  0.00    -0.275 OA
ATOM      5  H   UNL A   1      35.141  28.635  25.425  1.00  0.00     0.163 HD
BRANCH   3   6
ATOM      6  C   UNL A   1      32.202  27.469  24.395  1.00  0.00     0.095 C 
ATOM      7  C   UNL A   1      32.078  26.616  23.107  1.00  0.00     0.095 C 
ATOM      8  C   UNL A   1      31.031  26.991  22.043  1.00  0.00     0.041 C 
ATOM      9  C   UNL A   1      30.170  28.167  22.377  1.00  0.00    -0.030 C 
ATOM     10  C   UNL A   1      30.915  28.228  24.758  1.00  0.00     0.041 C 
ATOM     11  C   UNL A   1      30.124  28.728  23.590  1.00  0.00    -0.030 C 
BRANCH   7  12
ATOM     12  C   UNL A   1      33.394  26.105  22.529  1.00  0.00     0.228 C 
ATOM     13  N   UNL A   1      33.976  24.892  22.691  1.00  0.00    -0.326 N 
ATOM     14  H   UNL A   1      34.870  24.874  22.281  1.00  0.00     0.169 HD
ATOM     15  O   UNL A   1      34.028  26.879  21.791  1.00  0.00    -0.274 OA
BRANCH  13  16
ATOM     16  C   UNL A   1      33.667  23.649  23.279  1.00  0.00     0.044 A 
ATOM     17  C   UNL A   1      33.350  21.033  24.324  1.00  0.00     0.060 A 
ATOM     18  C   UNL A   1      32.524  21.491  23.309  1.00  0.00     0.018 A 
ATOM     19  C   UNL A   1      34.304  21.898  24.865  1.00  0.00     0.021 A 
ATOM     20  C   UNL A   1      32.684  22.787  22.808  1.00  0.00     0.027 A 
ATOM     21  C   UNL A   1      34.453  23.212  24.373  1.00  0.00    -0.027 A 
ATOM     22  C   UNL A   1      35.496  24.085  25.026  1.00  0.00     0.046 C 
BRANCH  17  23
ATOM     23  C   UNL A   1      33.189  19.619  24.768  1.00  0.00     0.337 C 
ATOM     24  O   UNL A   1      32.155  19.157  25.193  1.00  0.00    -0.246 OA
BRANCH  23  25
ATOM     25  O   UNL A   1      34.338  18.909  24.625  1.00  0.00    -0.465 OA
ATOM     26  C   UNL A   1      34.135  17.642  23.997  1.00  0.00     0.282 C 
ENDBRANCH  23  25
ENDBRANCH  17  23
ENDBRANCH  13  16
ENDBRANCH   7  12
ENDBRANCH   3   6
ENDBRANCH   1   2
BRANCH   1  27
ATOM     27  C   UNL A   1      33.274  29.534  27.625  1.00  0.00     0.042 C 
BRANCH  27  28
ATOM     28  C   UNL A   1      34.055  30.779  27.229  1.00  0.00     0.118 C 
BRANCH  28  29
ATOM     29  N   UNL A   1      34.569  31.562  28.353  1.00  0.00    -0.352 N 
ATOM     30  C   UNL A   1      35.585  31.279  29.250  1.00  0.00     0.251 C 
ATOM     31  H   UNL A   1      34.121  32.427  28.494  1.00  0.00     0.163 HD
ATOM     32  O   UNL A   1      35.838  32.084  30.145  1.00  0.00    -0.269 OA
BRANCH  30  33
ATOM     33  C   UNL A   1      36.468  30.101  29.052  1.00  0.00     0.039 A 
ATOM     34  C   UNL A   1      36.682  29.243  30.141  1.00  0.00     0.014 A 
ATOM     35  C   UNL A   1      37.246  29.964  27.910  1.00  0.00     0.014 A 
ATOM     36  C   UNL A   1      37.843  28.476  30.192  1.00  0.00     0.010 A 
ATOM     37  C   UNL A   1      38.454  29.316  28.007  1.00  0.00     0.010 A 
ATOM     38  C   UNL A   1      38.784  28.634  29.181  1.00  0.00    -0.014 A 
BRANCH  38  39
ATOM     39  C   UNL A   1      40.171  28.202  29.268  1.00  0.00     0.031 A 
ATOM     40  C   UNL A   1      40.570  26.906  28.697  1.00  0.00     0.074 A 
ATOM     41  C   UNL A   1      41.096  29.088  29.698  1.00  0.00     0.049 A 
ATOM     42  N   UNL A   1      41.714  26.346  28.883  1.00  0.00    -0.248 NA
ATOM     43  C   UNL A   1      39.668  26.111  27.875  1.00  0.00     0.031 C 
ATOM     44  C   UNL A   1      42.547  29.015  29.547  1.00  0.00     0.029 A 
ATOM     45  N   UNL A   1      40.895  30.157  30.581  1.00  0.00    -0.354 N 
ATOM     46  C   UNL A   1      41.808  25.271  28.029  1.00  0.00     0.074 A 
ATOM     47  C   UNL A   1      40.485  25.139  27.464  1.00  0.00     0.031 C 
ATOM     48  C   UNL A   1      43.116  29.753  30.514  1.00  0.00     0.029 A 
ATOM     49  C   UNL A   1      42.049  30.184  31.400  1.00  0.00     0.049 A 
ATOM     50  H   UNL A   1      40.118  30.761  30.621  1.00  0.00     0.167 HD
ATOM     51  C   UNL A   1      43.032  24.699  27.834  1.00  0.00     0.037 A 
ATOM     52  C   UNL A   1      41.952  29.865  32.727  1.00  0.00     0.037 A 
ATOM     53  C   UNL A   1      44.014  25.241  28.778  1.00  0.00     0.049 A 
ATOM     54  C   UNL A   1      42.729  28.627  33.134  1.00  0.00     0.074 A 
ATOM     55  C   UNL A   1      45.003  26.210  28.715  1.00  0.00     0.029 A 
ATOM     56  N   UNL A   1      43.834  24.973  30.123  1.00  0.00    -0.354 N 
ATOM     57  N   UNL A   1      43.359  27.840  32.303  1.00  0.00    -0.248 NA
ATOM     58  C   UNL A   1      42.774  28.127  34.510  1.00  0.00     0.031 C 
ATOM     59  C   UNL A   1      45.370  26.555  30.052  1.00  0.00     0.029 A 
ATOM     60  C   UNL A   1      44.616  25.784  30.919  1.00  0.00     0.049 A 
ATOM     61  H   UNL A   1      43.220  24.287  30.470  1.00  0.00     0.167 HD
ATOM     62  C   UNL A   1      43.826  26.746  32.979  1.00  0.00     0.074 A 
ATOM     63  C   UNL A   1      43.443  26.972  34.359  1.00  0.00     0.031 C 
ATOM     64  C   UNL A   1      44.457  25.706  32.362  1.00  0.00     0.037 A 
BRANCH  51  65
ATOM     65  C   UNL A   1      43.399  23.799  26.673  1.00  0.00     0.057 A 
ATOM     66  C   UNL A   1      43.092  22.424  26.714  1.00  0.00     0.134 A 
ATOM     67  C   UNL A   1      44.098  24.189  25.516  1.00  0.00     0.134 A 
ATOM     68  F   UNL A   1      42.351  21.897  27.698  1.00  0.00    -0.206 F 
ATOM     69  C   UNL A   1      43.532  21.508  25.747  1.00  0.00     0.040 A 
ATOM     70  C   UNL A   1      44.588  23.279  24.567  1.00  0.00     0.040 A 
ATOM     71  F   UNL A   1      44.292  25.471  25.198  1.00  0.00    -0.206 F 
ATOM     72  C   UNL A   1      44.315  21.928  24.685  1.00  0.00     0.006 A 
ENDBRANCH  51  65
BRANCH  52  73
ATOM     73  C   UNL A   1      40.652  30.295  33.317  1.00  0.00     0.057 A 
ATOM     74  C   UNL A   1      40.457  31.664  33.585  1.00  0.00     0.134 A 
ATOM     75  C   UNL A   1      39.511  29.492  33.249  1.00  0.00     0.134 A 
ATOM     76  F   UNL A   1      41.510  32.492  33.671  1.00  0.00    -0.206 F 
ATOM     77  C   UNL A   1      39.182  32.229  33.640  1.00  0.00     0.040 A 
ATOM     78  C   UNL A   1      38.228  30.046  33.331  1.00  0.00     0.040 A 
ATOM     79  F   UNL A   1      39.610  28.182  32.980  1.00  0.00    -0.206 F 
ATOM     80  C   UNL A   1      38.062  31.422  33.476  1.00  0.00     0.006 A 
ENDBRANCH  52  73
BRANCH  64  81
ATOM     81  C   UNL A   1      44.964  24.508  33.104  1.00  0.00     0.057 A 
ATOM     82  C   UNL A   1      44.210  23.333  33.225  1.00  0.00     0.134 A 
ATOM     83  C   UNL A   1      46.170  24.545  33.828  1.00  0.00     0.134 A 
ATOM     84  F   UNL A   1      43.028  23.207  32.603  1.00  0.00    -0.206 F 
ATOM     85  C   UNL A   1      44.640  22.253  34.003  1.00  0.00     0.040 A 
ATOM     86  C   UNL A   1      46.586  23.494  34.649  1.00  0.00     0.040 A 
ATOM     87  F   UNL A   1      47.002  25.594  33.751  1.00  0.00    -0.206 F 
ATOM     88  C   UNL A   1      45.822  22.338  34.733  1.00  0.00     0.006 A 
ENDBRANCH  64  81
ENDBRANCH  38  39
ENDBRANCH  30  33
ENDBRANCH  28  29
ENDBRANCH  27  28
ENDBRANCH   1  27
TORSDOF 14
ENDMDL
MODEL 3
REMARK VINA RESULT:     -12.3      3.587      9.109
REMARK SMILES COC(=O)c1ccc(NC(=O)[C@@H]2CC=CC[C@@H]2C(=O)NCCCNC(=O)c2ccc(-c3c4nc(c(-c5c(F)cccc5F)c5ccc([nH]5)c(-c5c(F)cccc5F)c5nc(c(-c6c(F)cccc6F)c6ccc3[nH]6)C=C5)C=C4)cc2)c(C)c1
REMARK SMILES IDX 21 1 20 2 18 3 19 4 17 6 12 7 13 8 14 9 16 10 15 11 10 12
REMARK SMILES IDX 9 13 11 15 8 16 5 17 6 18 83 19 7 20 81 21 82 22 3 23 4 24
REMARK SMILES IDX 2 25 1 26 22 27 23 28 24 29 25 30 26 32 27 33 28 34 80 35
REMARK SMILES IDX 29 36 79 37 30 38 31 39 32 40 73 41 33 42 78 43 72 44 74 45
REMARK SMILES IDX 34 46 77 47 71 48 70 49 35 51 61 52 44 53 60 54 45 55 48 56
REMARK SMILES IDX 59 57 75 58 46 59 47 60 58 62 76 63 49 64 36 65 37 66 42 67
REMARK SMILES IDX 38 68 39 69 41 70 43 71 40 72 62 73 63 74 68 75 64 76 65 77
REMARK SMILES IDX 67 78 69 79 66 80 50 81 51 82 56 83 52 84 53 85 55 86 57 87
REMARK SMILES IDX 54 88
REMARK H PARENT 20 5 9 14 24 31 74 50 48 61
REMARK Flexibility Score: inf
ROOT
ATOM      1  C   UNL A   1      36.768  23.963  25.504  1.00  0.00     0.117 C 
ENDROOT
BRANCH   1   2
ATOM      2  N   UNL A   1      35.856  23.646  26.588  1.00  0.00    -0.356 N 
ATOM      3  C   UNL A   1      34.738  22.866  26.521  1.00  0.00     0.224 C 
ATOM      4  O   UNL A   1      34.516  22.138  27.485  1.00  0.00    -0.275 OA
ATOM      5  H   UNL A   1      36.066  24.037  27.467  1.00  0.00     0.163 HD
BRANCH   3   6
ATOM      6  C   UNL A   1      33.857  22.872  25.272  1.00  0.00     0.095 C 
ATOM      7  C   UNL A   1      32.324  22.955  25.488  1.00  0.00     0.095 C 
ATOM      8  C   UNL A   1      31.461  21.691  25.321  1.00  0.00     0.041 C 
ATOM      9  C   UNL A   1      32.203  20.457  24.914  1.00  0.00    -0.030 C 
ATOM     10  C   UNL A   1      34.288  21.711  24.360  1.00  0.00     0.041 C 
ATOM     11  C   UNL A   1      33.472  20.464  24.493  1.00  0.00    -0.030 C 
BRANCH   7  12
ATOM     12  C   UNL A   1      31.869  23.871  26.619  1.00  0.00     0.228 C 
ATOM     13  N   UNL A   1      31.460  25.161  26.552  1.00  0.00    -0.326 N 
ATOM     14  H   UNL A   1      31.319  25.531  27.452  1.00  0.00     0.169 HD
ATOM     15  O   UNL A   1      31.844  23.388  27.764  1.00  0.00    -0.274 OA
BRANCH  13  16
ATOM     16  C   UNL A   1      31.178  26.124  25.562  1.00  0.00     0.044 A 
ATOM     17  C   UNL A   1      30.463  28.249  23.828  1.00  0.00     0.060 A 
ATOM     18  C   UNL A   1      29.834  27.018  23.730  1.00  0.00     0.018 A 
ATOM     19  C   UNL A   1      31.496  28.412  24.754  1.00  0.00     0.021 A 
ATOM     20  C   UNL A   1      30.202  25.973  24.585  1.00  0.00     0.027 A 
ATOM     21  C   UNL A   1      31.881  27.353  25.604  1.00  0.00    -0.027 A 
ATOM     22  C   UNL A   1      33.017  27.608  26.563  1.00  0.00     0.046 C 
BRANCH  17  23
ATOM     23  C   UNL A   1      29.980  29.350  22.946  1.00  0.00     0.337 C 
ATOM     24  O   UNL A   1      30.066  29.338  21.740  1.00  0.00    -0.246 OA
BRANCH  23  25
ATOM     25  O   UNL A   1      29.420  30.362  23.660  1.00  0.00    -0.465 OA
ATOM     26  C   UNL A   1      28.024  30.519  23.401  1.00  0.00     0.282 C 
ENDBRANCH  23  25
ENDBRANCH  17  23
ENDBRANCH  13  16
ENDBRANCH   7  12
ENDBRANCH   3   6
ENDBRANCH   1   2
BRANCH   1  27
ATOM     27  C   UNL A   1      37.839  22.907  25.296  1.00  0.00     0.042 C 
BRANCH  27  28
ATOM     28  C   UNL A   1      38.623  22.581  26.560  1.00  0.00     0.118 C 
BRANCH  28  29
ATOM     29  N   UNL A   1      40.069  22.768  26.449  1.00  0.00    -0.352 N 
ATOM     30  C   UNL A   1      40.832  23.921  26.544  1.00  0.00     0.251 C 
ATOM     31  H   UNL A   1      40.582  21.945  26.279  1.00  0.00     0.163 HD
ATOM     32  O   UNL A   1      42.050  23.849  26.393  1.00  0.00    -0.269 OA
BRANCH  30  33
ATOM     33  C   UNL A   1      40.220  25.203  26.977  1.00  0.00     0.039 A 
ATOM     34  C   UNL A   1      40.477  26.351  26.211  1.00  0.00     0.014 A 
ATOM     35  C   UNL A   1      39.607  25.330  28.216  1.00  0.00     0.014 A 
ATOM     36  C   UNL A   1      40.395  27.606  26.808  1.00  0.00     0.010 A 
ATOM     37  C   UNL A   1      39.650  26.549  28.852  1.00  0.00     0.010 A 
ATOM     38  C   UNL A   1      40.117  27.674  28.168  1.00  0.00    -0.014 A 
BRANCH  38  39
ATOM     39  C   UNL A   1      40.353  28.842  29.003  1.00  0.00     0.031 A 
ATOM     40  C   UNL A   1      39.286  29.839  29.183  1.00  0.00     0.074 A 
ATOM     41  C   UNL A   1      41.478  28.885  29.749  1.00  0.00     0.049 A 
ATOM     42  N   UNL A   1      39.446  30.990  29.736  1.00  0.00    -0.248 NA
ATOM     43  C   UNL A   1      37.927  29.614  28.710  1.00  0.00     0.031 C 
ATOM     44  C   UNL A   1      41.766  29.749  30.890  1.00  0.00     0.029 A 
ATOM     45  N   UNL A   1      42.707  28.275  29.460  1.00  0.00    -0.354 N 
ATOM     46  C   UNL A   1      38.203  31.550  29.926  1.00  0.00     0.074 A 
ATOM     47  C   UNL A   1      37.298  30.674  29.220  1.00  0.00     0.031 C 
ATOM     48  C   UNL A   1      43.098  29.867  31.013  1.00  0.00     0.029 A 
ATOM     49  C   UNL A   1      43.690  29.213  29.859  1.00  0.00     0.049 A 
ATOM     50  H   UNL A   1      42.854  27.385  29.065  1.00  0.00     0.167 HD
ATOM     51  C   UNL A   1      38.095  32.631  30.753  1.00  0.00     0.037 A 
ATOM     52  C   UNL A   1      44.466  29.830  28.918  1.00  0.00     0.037 A 
ATOM     53  C   UNL A   1      39.422  33.130  31.129  1.00  0.00     0.049 A 
ATOM     54  C   UNL A   1      44.281  31.334  28.838  1.00  0.00     0.074 A 
ATOM     55  C   UNL A   1      40.247  32.986  32.234  1.00  0.00     0.029 A 
ATOM     56  N   UNL A   1      40.217  33.667  30.133  1.00  0.00    -0.354 N 
ATOM     57  N   UNL A   1      43.389  32.008  29.513  1.00  0.00    -0.248 NA
ATOM     58  C   UNL A   1      45.032  32.185  27.912  1.00  0.00     0.031 C 
ATOM     59  C   UNL A   1      41.563  33.396  31.860  1.00  0.00     0.029 A 
ATOM     60  C   UNL A   1      41.529  33.802  30.537  1.00  0.00     0.049 A 
ATOM     61  H   UNL A   1      39.886  33.921  29.242  1.00  0.00     0.167 HD
ATOM     62  C   UNL A   1      43.396  33.312  29.099  1.00  0.00     0.074 A 
ATOM     63  C   UNL A   1      44.445  33.378  28.100  1.00  0.00     0.031 C 
ATOM     64  C   UNL A   1      42.515  34.244  29.565  1.00  0.00     0.037 A 
BRANCH  51  65
ATOM     65  C   UNL A   1      36.809  33.122  31.383  1.00  0.00     0.057 A 
ATOM     66  C   UNL A   1      36.520  32.826  32.731  1.00  0.00     0.134 A 
ATOM     67  C   UNL A   1      35.787  33.832  30.727  1.00  0.00     0.134 A 
ATOM     68  F   UNL A   1      37.418  32.235  33.531  1.00  0.00    -0.206 F 
ATOM     69  C   UNL A   1      35.287  33.117  33.335  1.00  0.00     0.040 A 
ATOM     70  C   UNL A   1      34.533  34.086  31.301  1.00  0.00     0.040 A 
ATOM     71  F   UNL A   1      35.961  34.381  29.523  1.00  0.00    -0.206 F 
ATOM     72  C   UNL A   1      34.273  33.718  32.609  1.00  0.00     0.006 A 
ENDBRANCH  51  65
BRANCH  52  73
ATOM     73  C   UNL A   1      44.763  28.940  27.759  1.00  0.00     0.057 A 
ATOM     74  C   UNL A   1      45.719  27.919  27.925  1.00  0.00     0.134 A 
ATOM     75  C   UNL A   1      43.884  28.818  26.680  1.00  0.00     0.134 A 
ATOM     76  F   UNL A   1      46.599  27.976  28.938  1.00  0.00    -0.206 F 
ATOM     77  C   UNL A   1      45.707  26.764  27.141  1.00  0.00     0.040 A 
ATOM     78  C   UNL A   1      43.883  27.676  25.870  1.00  0.00     0.040 A 
ATOM     79  F   UNL A   1      42.934  29.737  26.463  1.00  0.00    -0.206 F 
ATOM     80  C   UNL A   1      44.762  26.625  26.131  1.00  0.00     0.006 A 
ENDBRANCH  52  73
BRANCH  64  81
ATOM     81  C   UNL A   1      42.523  35.670  29.107  1.00  0.00     0.057 A 
ATOM     82  C   UNL A   1      41.826  36.089  27.965  1.00  0.00     0.134 A 
ATOM     83  C   UNL A   1      43.334  36.639  29.725  1.00  0.00     0.134 A 
ATOM     84  F   UNL A   1      41.051  35.233  27.281  1.00  0.00    -0.206 F 
ATOM     85  C   UNL A   1      41.917  37.397  27.480  1.00  0.00     0.040 A 
ATOM     86  C   UNL A   1      43.472  37.934  29.222  1.00  0.00     0.040 A 
ATOM     87  F   UNL A   1      44.008  36.373  30.853  1.00  0.00    -0.206 F 
ATOM     88  C   UNL A   1      42.755  38.320  28.097  1.00  0.00     0.006 A 
ENDBRANCH  64  81
ENDBRANCH  38  39
ENDBRANCH  30  33
ENDBRANCH  28  29
ENDBRANCH  27  28
ENDBRANCH   1  27
TORSDOF 14
ENDMDL
