MODEL 1
REMARK VINA RESULT:     -10.1      0.000      0.000
REMARK SMILES COc1ccc(C2=NN(C(=O)CCC(=O)NCCCNC(=O)c3ccc(-c4c5nc(c(-c6c(F)cccc6F)c6ccc([nH]6)c(-c6c(F)cccc6F)c6nc(c(-c7c(F)cccc7F)c7ccc4[nH]7)C=C6)C=C5)cc3)[C@H](c3ccc(Cl)cc3Cl)C2)cc1
REMARK SMILES IDX 14 1 15 2 16 3 13 5 12 6 10 7 11 8 9 9 7 10 8 11 86 12 77 13
REMARK SMILES IDX 6 14 3 15 4 16 88 17 5 18 87 19 2 20 1 21 78 22 79 23 84 24
REMARK SMILES IDX 80 25 83 26 85 27 81 28 82 29 17 30 18 31 19 32 20 33 21 34
REMARK SMILES IDX 22 36 23 37 24 38 76 39 25 40 75 41 26 42 27 43 28 44 69 45
REMARK SMILES IDX 29 46 74 47 68 48 70 49 30 50 73 51 67 52 66 53 31 55 57 56
REMARK SMILES IDX 40 57 56 58 41 59 44 60 55 61 71 62 42 63 43 64 54 66 72 67
REMARK SMILES IDX 45 68 32 69 33 70 38 71 34 72 35 73 37 74 39 75 36 76 58 77
REMARK SMILES IDX 59 78 64 79 60 80 61 81 63 82 65 83 62 84 46 85 47 86 52 87
REMARK SMILES IDX 48 88 49 89 51 90 53 91 50 92
REMARK H PARENT 16 4 20 35 70 54 44 65
REMARK Flexibility Score: inf
ROOT
ATOM      1  C   UNL A   1      40.774  28.958  28.745  1.00  0.00     0.220 C 
ATOM      2  O   UNL A   1      41.558  28.477  29.573  1.00  0.00    -0.275 OA
ATOM      3  N   UNL A   1      39.651  29.530  29.278  1.00  0.00    -0.356 N 
ATOM      4  H   UNL A   1      39.608  29.402  30.253  1.00  0.00     0.163 HD
ENDROOT
BRANCH   1   5
ATOM      5  C   UNL A   1      41.148  28.914  27.266  1.00  0.00     0.110 C 
BRANCH   5   6
ATOM      6  C   UNL A   1      41.428  27.576  26.606  1.00  0.00     0.112 C 
BRANCH   6   7
ATOM      7  C   UNL A   1      42.491  27.826  25.609  1.00  0.00     0.243 C 
ATOM      8  O   UNL A   1      42.346  28.573  24.650  1.00  0.00    -0.273 OA
BRANCH   7   9
ATOM      9  N   UNL A   1      43.568  27.008  25.826  1.00  0.00    -0.225 N 
ATOM     10  C   UNL A   1      46.373  26.482  25.163  1.00  0.00     0.071 C 
ATOM     11  N   UNL A   1      45.193  27.543  24.934  1.00  0.00    -0.174 NA
ATOM     12  C   UNL A   1      45.746  24.832  26.042  1.00  0.00     0.091 C 
ATOM     13  C   UNL A   1      43.902  25.230  26.631  1.00  0.00     0.149 C 
BRANCH  10  14
ATOM     14  C   UNL A   1      47.802  26.850  25.470  1.00  0.00    -0.002 A 
ATOM     15  C   UNL A   1      51.123  28.236  25.229  1.00  0.00     0.118 A 
ATOM     16  C   UNL A   1      49.622  29.247  26.132  1.00  0.00     0.047 A 
ATOM     17  C   UNL A   1      50.726  26.629  24.519  1.00  0.00     0.047 A 
ATOM     18  C   UNL A   1      48.033  28.428  26.278  1.00  0.00     0.014 A 
ATOM     19  C   UNL A   1      49.093  26.010  24.642  1.00  0.00     0.014 A 
BRANCH  15  20
ATOM     20  O   UNL A   1      52.510  28.481  25.223  1.00  0.00    -0.497 OA
ATOM     21  C   UNL A   1      52.935  29.701  24.631  1.00  0.00     0.278 C 
ENDBRANCH  15  20
ENDBRANCH  10  14
BRANCH  13  22
ATOM     22  C   UNL A   1      43.682  24.826  28.141  1.00  0.00    -0.004 A 
ATOM     23  C   UNL A   1      44.110  25.691  29.181  1.00  0.00     0.009 A 
ATOM     24  C   UNL A   1      43.431  23.486  28.531  1.00  0.00     0.047 A 
ATOM     25  C   UNL A   1      44.296  25.255  30.499  1.00  0.00     0.021 A 
ATOM     26  C   UNL A   1      43.568  23.064  29.865  1.00  0.00     0.041 A 
ATOM     27  Cl  UNL A   1      43.147  22.198  27.416  1.00  0.00    -0.084 Cl
ATOM     28  C   UNL A   1      44.020  23.942  30.837  1.00  0.00     0.042 A 
ATOM     29  Cl  UNL A   1      44.304  23.388  32.438  1.00  0.00    -0.084 Cl
ENDBRANCH  13  22
ENDBRANCH   7   9
ENDBRANCH   6   7
ENDBRANCH   5   6
ENDBRANCH   1   5
BRANCH   3  30
ATOM     30  C   UNL A   1      38.410  30.337  28.744  1.00  0.00     0.117 C 
BRANCH  30  31
ATOM     31  C   UNL A   1      37.694  32.433  29.012  1.00  0.00     0.042 C 
BRANCH  31  32
ATOM     32  C   UNL A   1      35.881  32.925  29.134  1.00  0.00     0.118 C 
BRANCH  32  33
ATOM     33  N   UNL A   1      34.988  32.561  30.331  1.00  0.00    -0.352 N 
ATOM     34  C   UNL A   1      34.985  32.630  31.727  1.00  0.00     0.251 C 
ATOM     35  H   UNL A   1      34.152  32.148  30.014  1.00  0.00     0.163 HD
ATOM     36  O   UNL A   1      33.901  32.643  32.317  1.00  0.00    -0.269 OA
BRANCH  34  37
ATOM     37  C   UNL A   1      36.248  32.454  32.619  1.00  0.00     0.039 A 
ATOM     38  C   UNL A   1      36.652  30.763  32.173  1.00  0.00     0.014 A 
ATOM     39  C   UNL A   1      37.640  33.521  33.639  1.00  0.00     0.014 A 
ATOM     40  C   UNL A   1      38.238  30.146  32.523  1.00  0.00     0.010 A 
ATOM     41  C   UNL A   1      39.276  32.756  33.876  1.00  0.00     0.010 A 
ATOM     42  C   UNL A   1      39.558  31.106  33.235  1.00  0.00    -0.014 A 
BRANCH  42  43
ATOM     43  C   UNL A   1      40.943  30.670  32.739  1.00  0.00     0.031 A 
ATOM     44  C   UNL A   1      41.734  29.649  33.507  1.00  0.00     0.074 A 
ATOM     45  C   UNL A   1      41.564  31.279  31.684  1.00  0.00     0.049 A 
ATOM     46  N   UNL A   1      42.969  29.248  33.323  1.00  0.00    -0.248 NA
ATOM     47  C   UNL A   1      41.082  29.057  34.679  1.00  0.00     0.031 C 
ATOM     48  C   UNL A   1      41.072  32.412  30.883  1.00  0.00     0.029 A 
ATOM     49  N   UNL A   1      42.791  31.032  31.087  1.00  0.00    -0.354 N 
ATOM     50  C   UNL A   1      43.244  28.388  34.376  1.00  0.00     0.074 A 
ATOM     51  C   UNL A   1      42.095  28.430  35.257  1.00  0.00     0.031 C 
ATOM     52  C   UNL A   1      41.912  32.692  29.881  1.00  0.00     0.029 A 
ATOM     53  C   UNL A   1      43.062  31.822  29.985  1.00  0.00     0.049 A 
ATOM     54  H   UNL A   1      43.418  30.349  31.420  1.00  0.00     0.167 HD
ATOM     55  C   UNL A   1      44.310  27.574  34.565  1.00  0.00     0.037 A 
ATOM     56  C   UNL A   1      44.104  31.874  29.132  1.00  0.00     0.037 A 
ATOM     57  C   UNL A   1      45.421  27.454  33.660  1.00  0.00     0.049 A 
ATOM     58  C   UNL A   1      45.250  30.932  29.328  1.00  0.00     0.074 A 
ATOM     59  C   UNL A   1      46.495  26.582  33.722  1.00  0.00     0.029 A 
ATOM     60  N   UNL A   1      45.590  28.212  32.511  1.00  0.00    -0.354 N 
ATOM     61  N   UNL A   1      45.425  30.039  30.267  1.00  0.00    -0.248 NA
ATOM     62  C   UNL A   1      46.336  30.990  28.338  1.00  0.00     0.031 C 
ATOM     63  C   UNL A   1      47.318  26.817  32.617  1.00  0.00     0.029 A 
ATOM     64  C   UNL A   1      46.743  27.819  31.853  1.00  0.00     0.049 A 
ATOM     65  H   UNL A   1      44.981  28.924  32.210  1.00  0.00     0.167 HD
ATOM     66  C   UNL A   1      46.608  29.390  29.950  1.00  0.00     0.074 A 
ATOM     67  C   UNL A   1      47.111  29.991  28.733  1.00  0.00     0.031 C 
ATOM     68  C   UNL A   1      47.215  28.381  30.614  1.00  0.00     0.037 A 
BRANCH  55  69
ATOM     69  C   UNL A   1      44.267  26.683  35.774  1.00  0.00     0.057 A 
ATOM     70  C   UNL A   1      44.917  27.046  36.963  1.00  0.00     0.134 A 
ATOM     71  C   UNL A   1      43.596  25.455  35.752  1.00  0.00     0.134 A 
ATOM     72  F   UNL A   1      45.583  28.208  37.046  1.00  0.00    -0.206 F 
ATOM     73  C   UNL A   1      44.958  26.192  38.064  1.00  0.00     0.040 A 
ATOM     74  C   UNL A   1      43.598  24.608  36.863  1.00  0.00     0.040 A 
ATOM     75  F   UNL A   1      42.938  25.054  34.655  1.00  0.00    -0.206 F 
ATOM     76  C   UNL A   1      44.295  24.969  38.016  1.00  0.00     0.006 A 
ENDBRANCH  55  69
BRANCH  56  77
ATOM     77  C   UNL A   1      44.104  32.805  27.966  1.00  0.00     0.057 A 
ATOM     78  C   UNL A   1      43.852  32.326  26.673  1.00  0.00     0.134 A 
ATOM     79  C   UNL A   1      44.407  34.165  28.097  1.00  0.00     0.134 A 
ATOM     80  F   UNL A   1      43.569  31.030  26.478  1.00  0.00    -0.206 F 
ATOM     81  C   UNL A   1      43.949  33.152  25.551  1.00  0.00     0.040 A 
ATOM     82  C   UNL A   1      44.479  35.009  26.986  1.00  0.00     0.040 A 
ATOM     83  F   UNL A   1      44.639  34.695  29.308  1.00  0.00    -0.206 F 
ATOM     84  C   UNL A   1      44.266  34.498  25.706  1.00  0.00     0.006 A 
ENDBRANCH  56  77
BRANCH  68  85
ATOM     85  C   UNL A   1      48.449  27.797  29.999  1.00  0.00     0.057 A 
ATOM     86  C   UNL A   1      48.416  26.625  29.236  1.00  0.00     0.134 A 
ATOM     87  C   UNL A   1      49.680  28.451  30.136  1.00  0.00     0.134 A 
ATOM     88  F   UNL A   1      47.272  25.941  29.089  1.00  0.00    -0.206 F 
ATOM     89  C   UNL A   1      49.568  26.117  28.635  1.00  0.00     0.040 A 
ATOM     90  C   UNL A   1      50.833  27.967  29.519  1.00  0.00     0.040 A 
ATOM     91  F   UNL A   1      49.777  29.578  30.857  1.00  0.00    -0.206 F 
ATOM     92  C   UNL A   1      50.779  26.796  28.767  1.00  0.00     0.006 A 
ENDBRANCH  68  85
ENDBRANCH  42  43
ENDBRANCH  34  37
ENDBRANCH  32  33
ENDBRANCH  31  32
ENDBRANCH  30  31
ENDBRANCH   3  30
TORSDOF 16
ENDMDL
MODEL 2
REMARK VINA RESULT:     -10.0      6.038     11.201
REMARK SMILES COc1ccc(C2=NN(C(=O)CCC(=O)NCCCNC(=O)c3ccc(-c4c5nc(c(-c6c(F)cccc6F)c6ccc([nH]6)c(-c6c(F)cccc6F)c6nc(c(-c7c(F)cccc7F)c7ccc4[nH]7)C=C6)C=C5)cc3)[C@H](c3ccc(Cl)cc3Cl)C2)cc1
REMARK SMILES IDX 14 1 15 2 16 3 13 5 12 6 10 7 11 8 9 9 7 10 8 11 86 12 77 13
REMARK SMILES IDX 6 14 3 15 4 16 88 17 5 18 87 19 2 20 1 21 78 22 79 23 84 24
REMARK SMILES IDX 80 25 83 26 85 27 81 28 82 29 17 30 18 31 19 32 20 33 21 34
REMARK SMILES IDX 22 36 23 37 24 38 76 39 25 40 75 41 26 42 27 43 28 44 69 45
REMARK SMILES IDX 29 46 74 47 68 48 70 49 30 50 73 51 67 52 66 53 31 55 57 56
REMARK SMILES IDX 40 57 56 58 41 59 44 60 55 61 71 62 42 63 43 64 54 66 72 67
REMARK SMILES IDX 45 68 32 69 33 70 38 71 34 72 35 73 37 74 39 75 36 76 58 77
REMARK SMILES IDX 59 78 64 79 60 80 61 81 63 82 65 83 62 84 46 85 47 86 52 87
REMARK SMILES IDX 48 88 49 89 51 90 53 91 50 92
REMARK H PARENT 16 4 20 35 70 54 44 65
REMARK Flexibility Score: inf
ROOT
ATOM      1  C   UNL A   1      34.140  23.014  24.825  1.00  0.00     0.220 C 
ATOM      2  O   UNL A   1      33.321  23.362  25.685  1.00  0.00    -0.275 OA
ATOM      3  N   UNL A   1      35.313  22.510  25.317  1.00  0.00    -0.356 N 
ATOM      4  H   UNL A   1      35.350  22.572  26.299  1.00  0.00     0.163 HD
ENDROOT
BRANCH   1   5
ATOM      5  C   UNL A   1      33.755  23.129  23.353  1.00  0.00     0.110 C 
BRANCH   5   6
ATOM      6  C   UNL A   1      32.571  23.992  22.956  1.00  0.00     0.112 C 
BRANCH   6   7
ATOM      7  C   UNL A   1      33.123  25.330  22.654  1.00  0.00     0.243 C 
ATOM      8  O   UNL A   1      33.989  25.521  21.810  1.00  0.00    -0.273 OA
BRANCH   7   9
ATOM      9  N   UNL A   1      32.651  26.266  23.536  1.00  0.00    -0.225 N 
ATOM     10  C   UNL A   1      33.224  27.806  25.961  1.00  0.00     0.071 C 
ATOM     11  N   UNL A   1      33.889  26.783  24.920  1.00  0.00    -0.174 NA
ATOM     12  C   UNL A   1      31.283  28.013  25.681  1.00  0.00     0.091 C 
ATOM     13  C   UNL A   1      30.910  27.106  23.965  1.00  0.00     0.149 C 
BRANCH  10  14
ATOM     14  C   UNL A   1      33.911  29.031  26.509  1.00  0.00    -0.002 A 
ATOM     15  C   UNL A   1      35.022  31.643  28.734  1.00  0.00     0.118 A 
ATOM     16  C   UNL A   1      36.076  29.931  28.509  1.00  0.00     0.047 A 
ATOM     17  C   UNL A   1      33.486  31.796  27.804  1.00  0.00     0.047 A 
ATOM     18  C   UNL A   1      35.483  28.737  27.309  1.00  0.00     0.014 A 
ATOM     19  C   UNL A   1      32.978  30.490  26.755  1.00  0.00     0.014 A 
BRANCH  15  20
ATOM     20  O   UNL A   1      35.378  32.856  29.356  1.00  0.00    -0.497 OA
ATOM     21  C   UNL A   1      36.527  33.515  28.842  1.00  0.00     0.278 C 
ENDBRANCH  15  20
ENDBRANCH  10  14
BRANCH  13  22
ATOM     22  C   UNL A   1      30.046  28.019  23.009  1.00  0.00    -0.004 A 
ATOM     23  C   UNL A   1      30.642  29.122  22.347  1.00  0.00     0.009 A 
ATOM     24  C   UNL A   1      28.630  28.039  23.069  1.00  0.00     0.047 A 
ATOM     25  C   UNL A   1      29.891  30.174  21.804  1.00  0.00     0.021 A 
ATOM     26  C   UNL A   1      27.878  29.069  22.478  1.00  0.00     0.041 A 
ATOM     27  Cl  UNL A   1      27.692  26.952  24.030  1.00  0.00    -0.084 Cl
ATOM     28  C   UNL A   1      28.510  30.141  21.869  1.00  0.00     0.042 A 
ATOM     29  Cl  UNL A   1      27.589  31.457  21.259  1.00  0.00    -0.084 Cl
ENDBRANCH  13  22
ENDBRANCH   7   9
ENDBRANCH   6   7
ENDBRANCH   5   6
ENDBRANCH   1   5
BRANCH   3  30
ATOM     30  C   UNL A   1      36.619  21.858  24.728  1.00  0.00     0.117 C 
BRANCH  30  31
ATOM     31  C   UNL A   1      38.519  21.111  25.628  1.00  0.00     0.042 C 
BRANCH  31  32
ATOM     32  C   UNL A   1      39.960  22.216  26.125  1.00  0.00     0.118 C 
BRANCH  32  33
ATOM     33  N   UNL A   1      39.792  23.689  26.529  1.00  0.00    -0.352 N 
ATOM     34  C   UNL A   1      40.539  24.866  26.628  1.00  0.00     0.251 C 
ATOM     35  H   UNL A   1      38.862  23.858  26.806  1.00  0.00     0.163 HD
ATOM     36  O   UNL A   1      39.949  25.949  26.567  1.00  0.00    -0.269 OA
BRANCH  34  37
ATOM     37  C   UNL A   1      42.036  24.925  27.049  1.00  0.00     0.039 A 
ATOM     38  C   UNL A   1      42.723  25.505  25.495  1.00  0.00     0.014 A 
ATOM     39  C   UNL A   1      43.230  24.974  28.688  1.00  0.00     0.014 A 
ATOM     40  C   UNL A   1      44.322  26.186  25.474  1.00  0.00     0.010 A 
ATOM     41  C   UNL A   1      44.859  25.772  28.517  1.00  0.00     0.010 A 
ATOM     42  C   UNL A   1      45.331  26.435  26.919  1.00  0.00    -0.014 A 
BRANCH  42  43
ATOM     43  C   UNL A   1      46.239  27.666  26.804  1.00  0.00     0.031 A 
ATOM     44  C   UNL A   1      47.733  27.504  26.778  1.00  0.00     0.074 A 
ATOM     45  C   UNL A   1      45.748  28.941  26.864  1.00  0.00     0.049 A 
ATOM     46  N   UNL A   1      48.667  28.423  26.817  1.00  0.00    -0.248 NA
ATOM     47  C   UNL A   1      48.246  26.130  26.789  1.00  0.00     0.031 C 
ATOM     48  C   UNL A   1      44.351  29.359  27.059  1.00  0.00     0.029 A 
ATOM     49  N   UNL A   1      46.392  30.166  26.774  1.00  0.00    -0.354 N 
ATOM     50  C   UNL A   1      49.868  27.733  26.890  1.00  0.00     0.074 A 
ATOM     51  C   UNL A   1      49.534  26.330  27.021  1.00  0.00     0.031 C 
ATOM     52  C   UNL A   1      44.232  30.688  26.985  1.00  0.00     0.029 A 
ATOM     53  C   UNL A   1      45.548  31.261  26.814  1.00  0.00     0.049 A 
ATOM     54  H   UNL A   1      47.370  30.249  26.687  1.00  0.00     0.167 HD
ATOM     55  C   UNL A   1      51.135  28.200  26.779  1.00  0.00     0.037 A 
ATOM     56  C   UNL A   1      45.770  32.588  26.730  1.00  0.00     0.037 A 
ATOM     57  C   UNL A   1      51.486  29.578  26.563  1.00  0.00     0.049 A 
ATOM     58  C   UNL A   1      47.171  33.081  26.558  1.00  0.00     0.074 A 
ATOM     59  C   UNL A   1      52.739  30.124  26.340  1.00  0.00     0.029 A 
ATOM     60  N   UNL A   1      50.580  30.626  26.517  1.00  0.00    -0.354 N 
ATOM     61  N   UNL A   1      48.282  32.392  26.507  1.00  0.00    -0.248 NA
ATOM     62  C   UNL A   1      47.353  34.533  26.415  1.00  0.00     0.031 C 
ATOM     63  C   UNL A   1      52.592  31.504  26.167  1.00  0.00     0.029 A 
ATOM     64  C   UNL A   1      51.245  31.813  26.258  1.00  0.00     0.049 A 
ATOM     65  H   UNL A   1      49.609  30.540  26.651  1.00  0.00     0.167 HD
ATOM     66  C   UNL A   1      49.285  33.317  26.266  1.00  0.00     0.074 A 
ATOM     67  C   UNL A   1      48.655  34.618  26.184  1.00  0.00     0.031 C 
ATOM     68  C   UNL A   1      50.612  33.098  26.124  1.00  0.00     0.037 A 
BRANCH  55  69
ATOM     69  C   UNL A   1      52.232  27.173  26.807  1.00  0.00     0.057 A 
ATOM     70  C   UNL A   1      52.947  26.911  27.985  1.00  0.00     0.134 A 
ATOM     71  C   UNL A   1      52.592  26.458  25.659  1.00  0.00     0.134 A 
ATOM     72  F   UNL A   1      52.654  27.568  29.118  1.00  0.00    -0.206 F 
ATOM     73  C   UNL A   1      54.022  26.024  28.006  1.00  0.00     0.040 A 
ATOM     74  C   UNL A   1      53.643  25.539  25.678  1.00  0.00     0.040 A 
ATOM     75  F   UNL A   1      51.939  26.645  24.503  1.00  0.00    -0.206 F 
ATOM     76  C   UNL A   1      54.371  25.333  26.849  1.00  0.00     0.006 A 
ENDBRANCH  55  69
BRANCH  56  77
ATOM     77  C   UNL A   1      44.640  33.562  26.742  1.00  0.00     0.057 A 
ATOM     78  C   UNL A   1      44.002  33.925  25.548  1.00  0.00     0.134 A 
ATOM     79  C   UNL A   1      44.210  34.193  27.915  1.00  0.00     0.134 A 
ATOM     80  F   UNL A   1      44.376  33.367  24.387  1.00  0.00    -0.206 F 
ATOM     81  C   UNL A   1      43.013  34.911  25.512  1.00  0.00     0.040 A 
ATOM     82  C   UNL A   1      43.202  35.161  27.897  1.00  0.00     0.040 A 
ATOM     83  F   UNL A   1      44.763  33.879  29.095  1.00  0.00    -0.206 F 
ATOM     84  C   UNL A   1      42.612  35.534  26.690  1.00  0.00     0.006 A 
ENDBRANCH  56  77
BRANCH  68  85
ATOM     85  C   UNL A   1      51.470  34.275  25.778  1.00  0.00     0.057 A 
ATOM     86  C   UNL A   1      51.919  34.511  24.474  1.00  0.00     0.134 A 
ATOM     87  C   UNL A   1      51.809  35.212  26.762  1.00  0.00     0.134 A 
ATOM     88  F   UNL A   1      51.647  33.637  23.493  1.00  0.00    -0.206 F 
ATOM     89  C   UNL A   1      52.683  35.635  24.160  1.00  0.00     0.040 A 
ATOM     90  C   UNL A   1      52.550  36.353  26.456  1.00  0.00     0.040 A 
ATOM     91  F   UNL A   1      51.411  35.041  28.032  1.00  0.00    -0.206 F 
ATOM     92  C   UNL A   1      52.991  36.566  25.152  1.00  0.00     0.006 A 
ENDBRANCH  68  85
ENDBRANCH  42  43
ENDBRANCH  34  37
ENDBRANCH  32  33
ENDBRANCH  31  32
ENDBRANCH  30  31
ENDBRANCH   3  30
TORSDOF 16
ENDMDL
MODEL 3
REMARK VINA RESULT:      -9.9      3.234      8.726
REMARK SMILES COc1ccc(C2=NN(C(=O)CCC(=O)NCCCNC(=O)c3ccc(-c4c5nc(c(-c6c(F)cccc6F)c6ccc([nH]6)c(-c6c(F)cccc6F)c6nc(c(-c7c(F)cccc7F)c7ccc4[nH]7)C=C6)C=C5)cc3)[C@H](c3ccc(Cl)cc3Cl)C2)cc1
REMARK SMILES IDX 14 1 15 2 16 3 13 5 12 6 10 7 11 8 9 9 7 10 8 11 86 12 77 13
REMARK SMILES IDX 6 14 3 15 4 16 88 17 5 18 87 19 2 20 1 21 78 22 79 23 84 24
REMARK SMILES IDX 80 25 83 26 85 27 81 28 82 29 17 30 18 31 19 32 20 33 21 34
REMARK SMILES IDX 22 36 23 37 24 38 76 39 25 40 75 41 26 42 27 43 28 44 69 45
REMARK SMILES IDX 29 46 74 47 68 48 70 49 30 50 73 51 67 52 66 53 31 55 57 56
REMARK SMILES IDX 40 57 56 58 41 59 44 60 55 61 71 62 42 63 43 64 54 66 72 67
REMARK SMILES IDX 45 68 32 69 33 70 38 71 34 72 35 73 37 74 39 75 36 76 58 77
REMARK SMILES IDX 59 78 64 79 60 80 61 81 63 82 65 83 62 84 46 85 47 86 52 87
REMARK SMILES IDX 48 88 49 89 51 90 53 91 50 92
REMARK H PARENT 16 4 20 35 70 54 44 65
REMARK Flexibility Score: inf
ROOT
ATOM      1  C   UNL A   1      47.188  27.991  24.804  1.00  0.00     0.220 C 
ATOM      2  O   UNL A   1      46.406  28.496  23.989  1.00  0.00    -0.275 OA
ATOM      3  N   UNL A   1      47.866  26.893  24.349  1.00  0.00    -0.356 N 
ATOM      4  H   UNL A   1      47.565  26.630  23.450  1.00  0.00     0.163 HD
ENDROOT
BRANCH   1   5
ATOM      5  C   UNL A   1      47.352  28.649  26.171  1.00  0.00     0.110 C 
BRANCH   5   6
ATOM      6  C   UNL A   1      46.216  28.576  27.176  1.00  0.00     0.112 C 
BRANCH   6   7
ATOM      7  C   UNL A   1      46.057  27.145  27.509  1.00  0.00     0.243 C 
ATOM      8  O   UNL A   1      46.857  26.524  28.198  1.00  0.00    -0.273 OA
BRANCH   7   9
ATOM      9  N   UNL A   1      45.001  26.598  26.829  1.00  0.00    -0.225 N 
ATOM     10  C   UNL A   1      44.145  24.476  24.999  1.00  0.00     0.071 C 
ATOM     11  N   UNL A   1      45.409  24.993  25.840  1.00  0.00    -0.174 NA
ATOM     12  C   UNL A   1      42.655  25.767  25.003  1.00  0.00     0.091 C 
ATOM     13  C   UNL A   1      43.154  27.126  26.349  1.00  0.00     0.149 C 
BRANCH  10  14
ATOM     14  C   UNL A   1      43.721  23.033  24.898  1.00  0.00    -0.002 A 
ATOM     15  C   UNL A   1      43.329  19.510  25.565  1.00  0.00     0.118 A 
ATOM     16  C   UNL A   1      42.032  20.875  26.306  1.00  0.00     0.047 A 
ATOM     17  C   UNL A   1      44.709  20.129  24.587  1.00  0.00     0.047 A 
ATOM     18  C   UNL A   1      42.266  22.590  25.837  1.00  0.00     0.014 A 
ATOM     19  C   UNL A   1      44.869  21.850  24.311  1.00  0.00     0.014 A 
BRANCH  15  20
ATOM     20  O   UNL A   1      43.239  18.106  25.511  1.00  0.00    -0.497 OA
ATOM     21  C   UNL A   1      43.143  17.430  26.758  1.00  0.00     0.278 C 
ENDBRANCH  15  20
ENDBRANCH  10  14
BRANCH  13  22
ATOM     22  C   UNL A   1      41.966  27.404  27.352  1.00  0.00    -0.004 A 
ATOM     23  C   UNL A   1      40.891  26.485  27.456  1.00  0.00     0.009 A 
ATOM     24  C   UNL A   1      41.712  28.697  27.874  1.00  0.00     0.047 A 
ATOM     25  C   UNL A   1      39.653  26.828  28.015  1.00  0.00     0.021 A 
ATOM     26  C   UNL A   1      40.487  29.023  28.483  1.00  0.00     0.041 A 
ATOM     27  Cl  UNL A   1      42.759  30.051  27.642  1.00  0.00    -0.084 Cl
ATOM     28  C   UNL A   1      39.457  28.097  28.531  1.00  0.00     0.042 A 
ATOM     29  Cl  UNL A   1      37.923  28.541  29.162  1.00  0.00    -0.084 Cl
ENDBRANCH  13  22
ENDBRANCH   7   9
ENDBRANCH   6   7
ENDBRANCH   5   6
ENDBRANCH   1   5
BRANCH   3  30
ATOM     30  C   UNL A   1      48.999  25.941  24.883  1.00  0.00     0.117 C 
BRANCH  30  31
ATOM     31  C   UNL A   1      49.821  25.495  26.909  1.00  0.00     0.042 C 
BRANCH  31  32
ATOM     32  C   UNL A   1      50.698  26.757  27.996  1.00  0.00     0.118 C 
BRANCH  32  33
ATOM     33  N   UNL A   1      51.677  27.807  27.446  1.00  0.00    -0.352 N 
ATOM     34  C   UNL A   1      52.230  29.043  27.792  1.00  0.00     0.251 C 
ATOM     35  H   UNL A   1      52.027  27.515  26.573  1.00  0.00     0.163 HD
ATOM     36  O   UNL A   1      53.316  29.364  27.303  1.00  0.00    -0.269 OA
BRANCH  34  37
ATOM     37  C   UNL A   1      51.470  30.160  28.565  1.00  0.00     0.039 A 
ATOM     38  C   UNL A   1      50.231  30.544  27.324  1.00  0.00     0.014 A 
ATOM     39  C   UNL A   1      51.198  30.903  30.433  1.00  0.00     0.014 A 
ATOM     40  C   UNL A   1      48.807  31.425  27.787  1.00  0.00     0.010 A 
ATOM     41  C   UNL A   1      49.625  31.756  30.777  1.00  0.00     0.010 A 
ATOM     42  C   UNL A   1      48.428  31.924  29.453  1.00  0.00    -0.014 A 
BRANCH  42  43
ATOM     43  C   UNL A   1      46.921  31.940  29.739  1.00  0.00     0.031 A 
ATOM     44  C   UNL A   1      46.248  30.726  30.316  1.00  0.00     0.074 A 
ATOM     45  C   UNL A   1      46.118  32.980  29.360  1.00  0.00     0.049 A 
ATOM     46  N   UNL A   1      44.971  30.498  30.506  1.00  0.00    -0.248 NA
ATOM     47  C   UNL A   1      47.114  29.590  30.649  1.00  0.00     0.031 C 
ATOM     48  C   UNL A   1      46.508  34.198  28.632  1.00  0.00     0.029 A 
ATOM     49  N   UNL A   1      44.757  33.185  29.531  1.00  0.00    -0.354 N 
ATOM     50  C   UNL A   1      44.887  29.186  30.947  1.00  0.00     0.074 A 
ATOM     51  C   UNL A   1      46.224  28.636  30.870  1.00  0.00     0.031 C 
ATOM     52  C   UNL A   1      45.472  35.033  28.503  1.00  0.00     0.029 A 
ATOM     53  C   UNL A   1      44.298  34.403  29.064  1.00  0.00     0.049 A 
ATOM     54  H   UNL A   1      44.167  32.518  29.951  1.00  0.00     0.167 HD
ATOM     55  C   UNL A   1      43.822  28.515  31.448  1.00  0.00     0.037 A 
ATOM     56  C   UNL A   1      43.081  34.982  29.066  1.00  0.00     0.037 A 
ATOM     57  C   UNL A   1      42.505  29.070  31.612  1.00  0.00     0.049 A 
ATOM     58  C   UNL A   1      41.927  34.245  29.669  1.00  0.00     0.074 A 
ATOM     59  C   UNL A   1      41.393  28.493  32.203  1.00  0.00     0.029 A 
ATOM     60  N   UNL A   1      42.128  30.341  31.210  1.00  0.00    -0.354 N 
ATOM     61  N   UNL A   1      41.904  33.047  30.193  1.00  0.00    -0.248 NA
ATOM     62  C   UNL A   1      40.633  34.942  29.697  1.00  0.00     0.031 C 
ATOM     63  C   UNL A   1      40.341  29.412  32.150  1.00  0.00     0.029 A 
ATOM     64  C   UNL A   1      40.805  30.570  31.548  1.00  0.00     0.049 A 
ATOM     65  H   UNL A   1      42.713  30.985  30.749  1.00  0.00     0.167 HD
ATOM     66  C   UNL A   1      40.614  32.871  30.666  1.00  0.00     0.074 A 
ATOM     67  C   UNL A   1      39.880  34.082  30.365  1.00  0.00     0.031 C 
ATOM     68  C   UNL A   1      40.091  31.795  31.297  1.00  0.00     0.037 A 
BRANCH  55  69
ATOM     69  C   UNL A   1      44.079  27.116  31.933  1.00  0.00     0.057 A 
ATOM     70  C   UNL A   1      44.345  26.858  33.286  1.00  0.00     0.134 A 
ATOM     71  C   UNL A   1      44.083  26.027  31.054  1.00  0.00     0.134 A 
ATOM     72  F   UNL A   1      44.363  27.861  34.178  1.00  0.00    -0.206 F 
ATOM     73  C   UNL A   1      44.670  25.580  33.737  1.00  0.00     0.040 A 
ATOM     74  C   UNL A   1      44.369  24.736  31.502  1.00  0.00     0.040 A 
ATOM     75  F   UNL A   1      43.818  26.199  29.751  1.00  0.00    -0.206 F 
ATOM     76  C   UNL A   1      44.681  24.514  32.843  1.00  0.00     0.006 A 
ENDBRANCH  55  69
BRANCH  56  77
ATOM     77  C   UNL A   1      42.882  36.363  28.539  1.00  0.00     0.057 A 
ATOM     78  C   UNL A   1      42.472  36.566  27.214  1.00  0.00     0.134 A 
ATOM     79  C   UNL A   1      43.147  37.502  29.308  1.00  0.00     0.134 A 
ATOM     80  F   UNL A   1      42.214  35.516  26.420  1.00  0.00    -0.206 F 
ATOM     81  C   UNL A   1      42.378  37.845  26.660  1.00  0.00     0.040 A 
ATOM     82  C   UNL A   1      43.031  38.789  28.775  1.00  0.00     0.040 A 
ATOM     83  F   UNL A   1      43.525  37.382  30.590  1.00  0.00    -0.206 F 
ATOM     84  C   UNL A   1      42.662  38.962  27.442  1.00  0.00     0.006 A 
ENDBRANCH  56  77
BRANCH  68  85
ATOM     85  C   UNL A   1      38.681  31.903  31.787  1.00  0.00     0.057 A 
ATOM     86  C   UNL A   1      37.583  31.729  30.938  1.00  0.00     0.134 A 
ATOM     87  C   UNL A   1      38.424  32.139  33.143  1.00  0.00     0.134 A 
ATOM     88  F   UNL A   1      37.764  31.524  29.624  1.00  0.00    -0.206 F 
ATOM     89  C   UNL A   1      36.274  31.791  31.419  1.00  0.00     0.040 A 
ATOM     90  C   UNL A   1      37.122  32.179  33.641  1.00  0.00     0.040 A 
ATOM     91  F   UNL A   1      39.434  32.318  34.008  1.00  0.00    -0.206 F 
ATOM     92  C   UNL A   1      36.042  32.006  32.777  1.00  0.00     0.006 A 
ENDBRANCH  68  85
ENDBRANCH  42  43
ENDBRANCH  34  37
ENDBRANCH  32  33
ENDBRANCH  31  32
ENDBRANCH  30  31
ENDBRANCH   3  30
TORSDOF 16
ENDMDL
