MODEL 1
REMARK VINA RESULT:     -13.0      0.000      0.000
REMARK SMILES O=C1CC[C@@H](CC(=O)N2CCC(Oc3ccccc3)(C(=O)NCCCNC(=O)c3ccc(-c4c5nc(c(-c6c(F)cccc6F)c6ccc([nH]6)c(-c6c(F)cccc6F)c6nc(c(-c7c(F)cccc7F)c7ccc4[nH]7)C=C6)C=C5)cc3)CC2)N1
REMARK SMILES IDX 24 1 23 2 22 3 20 4 21 5 12 7 7 8 8 9 9 10 10 11 84 12 11 13
REMARK SMILES IDX 83 14 6 15 5 16 1 17 2 18 3 19 85 20 4 21 13 23 14 24 15 25
REMARK SMILES IDX 19 26 16 27 18 28 17 29 25 30 26 31 27 32 28 34 29 35 30 36
REMARK SMILES IDX 82 37 31 38 81 39 32 40 33 41 34 42 75 43 35 44 80 45 74 46
REMARK SMILES IDX 76 47 36 48 79 49 73 50 72 51 37 53 63 54 46 55 62 56 47 57
REMARK SMILES IDX 50 58 61 59 77 60 48 61 49 62 60 64 78 65 51 66 38 67 39 68
REMARK SMILES IDX 44 69 40 70 41 71 43 72 45 73 42 74 64 75 65 76 70 77 66 78
REMARK SMILES IDX 67 79 69 80 71 81 68 82 52 83 53 84 58 85 54 86 55 87 57 88
REMARK SMILES IDX 59 89 56 90
REMARK H PARENT 22 6 85 22 26 33 76 52 50 63
REMARK Flexibility Score: inf
ROOT
ATOM      1  C   UNL A   1      37.416  20.005  25.013  1.00  0.00     0.042 C 
ENDROOT
BRANCH   1   2
ATOM      2  C   UNL A   1      36.406  21.091  24.682  1.00  0.00     0.118 C 
BRANCH   2   3
ATOM      3  N   UNL A   1      35.951  21.748  25.888  1.00  0.00    -0.353 N 
ATOM      4  C   UNL A   1      34.770  22.353  26.173  1.00  0.00     0.264 C 
ATOM      5  O   UNL A   1      34.680  22.796  27.324  1.00  0.00    -0.270 OA
ATOM      6  H   UNL A   1      36.605  21.757  26.622  1.00  0.00     0.163 HD
BRANCH   4   7
ATOM      7  C   UNL A   1      33.620  22.463  25.130  1.00  0.00     0.190 C 
ATOM      8  C   UNL A   1      33.701  25.947  22.834  1.00  0.00     0.224 C 
ATOM      9  O   UNL A   1      33.682  25.645  21.631  1.00  0.00    -0.275 OA
ATOM     10  N   UNL A   1      34.101  25.010  23.765  1.00  0.00    -0.342 N 
ATOM     11  C   UNL A   1      34.865  23.832  23.353  1.00  0.00     0.124 C 
ATOM     12  C   UNL A   1      33.673  24.978  25.141  1.00  0.00     0.124 C 
ATOM     13  C   UNL A   1      34.123  22.536  23.672  1.00  0.00     0.080 C 
ATOM     14  C   UNL A   1      32.835  23.741  25.446  1.00  0.00     0.080 C 
BRANCH   8  15
ATOM     15  C   UNL A   1      33.498  27.437  23.180  1.00  0.00     0.125 C 
BRANCH  15  16
ATOM     16  C   UNL A   1      32.196  28.193  23.457  1.00  0.00     0.091 C 
ATOM     17  O   UNL A   1      29.828  29.829  21.441  1.00  0.00    -0.275 OA
ATOM     18  C   UNL A   1      30.415  29.099  22.225  1.00  0.00     0.220 C 
ATOM     19  C   UNL A   1      29.797  27.989  23.037  1.00  0.00     0.102 C 
ATOM     20  N   UNL A   1      31.771  29.131  22.462  1.00  0.00    -0.353 N 
ATOM     21  C   UNL A   1      30.972  27.328  23.765  1.00  0.00     0.035 C 
ATOM     22  H   UNL A   1      32.388  29.739  21.993  1.00  0.00     0.163 HD
ENDBRANCH  15  16
ENDBRANCH   8  15
BRANCH   7  23
ATOM     23  O   UNL A   1      32.853  21.273  25.450  1.00  0.00    -0.477 OA
BRANCH  23  24
ATOM     24  C   UNL A   1      32.943  20.199  24.620  1.00  0.00     0.120 A 
ATOM     25  C   UNL A   1      32.208  20.222  23.436  1.00  0.00     0.046 A 
ATOM     26  C   UNL A   1      33.609  19.039  25.007  1.00  0.00     0.046 A 
ATOM     27  C   UNL A   1      32.208  19.107  22.599  1.00  0.00     0.004 A 
ATOM     28  C   UNL A   1      33.629  17.932  24.160  1.00  0.00     0.004 A 
ATOM     29  C   UNL A   1      32.932  17.968  22.953  1.00  0.00     0.000 A 
ENDBRANCH  23  24
ENDBRANCH   7  23
ENDBRANCH   4   7
ENDBRANCH   2   3
ENDBRANCH   1   2
BRANCH   1  30
ATOM     30  C   UNL A   1      38.711  20.548  25.602  1.00  0.00     0.118 C 
BRANCH  30  31
ATOM     31  N   UNL A   1      39.736  19.523  25.725  1.00  0.00    -0.352 N 
ATOM     32  C   UNL A   1      41.064  19.647  26.049  1.00  0.00     0.251 C 
ATOM     33  H   UNL A   1      39.433  18.603  25.548  1.00  0.00     0.163 HD
ATOM     34  O   UNL A   1      41.830  18.708  25.872  1.00  0.00    -0.269 OA
BRANCH  32  35
ATOM     35  C   UNL A   1      41.567  20.921  26.597  1.00  0.00     0.039 A 
ATOM     36  C   UNL A   1      42.065  21.886  25.720  1.00  0.00     0.014 A 
ATOM     37  C   UNL A   1      41.555  21.161  27.974  1.00  0.00     0.014 A 
ATOM     38  C   UNL A   1      42.492  23.117  26.219  1.00  0.00     0.010 A 
ATOM     39  C   UNL A   1      41.887  22.420  28.460  1.00  0.00     0.010 A 
ATOM     40  C   UNL A   1      42.370  23.407  27.589  1.00  0.00    -0.014 A 
BRANCH  40  41
ATOM     41  C   UNL A   1      42.752  24.734  28.132  1.00  0.00     0.031 A 
ATOM     42  C   UNL A   1      41.703  25.789  28.350  1.00  0.00     0.074 A 
ATOM     43  C   UNL A   1      44.049  25.006  28.369  1.00  0.00     0.049 A 
ATOM     44  N   UNL A   1      41.847  27.026  28.753  1.00  0.00    -0.248 NA
ATOM     45  C   UNL A   1      40.312  25.416  28.046  1.00  0.00     0.031 C 
ATOM     46  C   UNL A   1      45.163  24.082  28.150  1.00  0.00     0.029 A 
ATOM     47  N   UNL A   1      44.652  26.146  28.838  1.00  0.00    -0.354 N 
ATOM     48  C   UNL A   1      40.572  27.577  28.741  1.00  0.00     0.074 A 
ATOM     49  C   UNL A   1      39.676  26.563  28.231  1.00  0.00     0.031 C 
ATOM     50  C   UNL A   1      46.309  24.680  28.512  1.00  0.00     0.029 A 
ATOM     51  C   UNL A   1      46.017  26.043  28.944  1.00  0.00     0.049 A 
ATOM     52  H   UNL A   1      44.153  26.960  29.077  1.00  0.00     0.167 HD
ATOM     53  C   UNL A   1      40.179  28.809  29.142  1.00  0.00     0.037 A 
ATOM     54  C   UNL A   1      46.932  26.949  29.337  1.00  0.00     0.037 A 
ATOM     55  C   UNL A   1      41.073  29.808  29.667  1.00  0.00     0.049 A 
ATOM     56  C   UNL A   1      46.472  28.317  29.762  1.00  0.00     0.074 A 
ATOM     57  C   UNL A   1      40.767  31.067  30.155  1.00  0.00     0.029 A 
ATOM     58  N   UNL A   1      42.448  29.662  29.768  1.00  0.00    -0.354 N 
ATOM     59  N   UNL A   1      45.255  28.801  29.812  1.00  0.00    -0.248 NA
ATOM     60  C   UNL A   1      47.513  29.261  30.191  1.00  0.00     0.031 C 
ATOM     61  C   UNL A   1      41.963  31.703  30.500  1.00  0.00     0.029 A 
ATOM     62  C   UNL A   1      43.009  30.820  30.286  1.00  0.00     0.049 A 
ATOM     63  H   UNL A   1      42.952  28.857  29.511  1.00  0.00     0.167 HD
ATOM     64  C   UNL A   1      45.380  30.093  30.306  1.00  0.00     0.074 A 
ATOM     65  C   UNL A   1      46.790  30.311  30.554  1.00  0.00     0.031 C 
ATOM     66  C   UNL A   1      44.414  31.017  30.533  1.00  0.00     0.037 A 
BRANCH  53  67
ATOM     67  C   UNL A   1      38.719  29.144  29.029  1.00  0.00     0.057 A 
ATOM     68  C   UNL A   1      37.854  29.066  30.129  1.00  0.00     0.134 A 
ATOM     69  C   UNL A   1      38.177  29.580  27.814  1.00  0.00     0.134 A 
ATOM     70  F   UNL A   1      38.304  28.641  31.320  1.00  0.00    -0.206 F 
ATOM     71  C   UNL A   1      36.499  29.382  30.018  1.00  0.00     0.040 A 
ATOM     72  C   UNL A   1      36.830  29.930  27.698  1.00  0.00     0.040 A 
ATOM     73  F   UNL A   1      38.949  29.684  26.721  1.00  0.00    -0.206 F 
ATOM     74  C   UNL A   1      35.985  29.823  28.800  1.00  0.00     0.006 A 
ENDBRANCH  53  67
BRANCH  54  75
ATOM     75  C   UNL A   1      48.372  26.588  29.367  1.00  0.00     0.057 A 
ATOM     76  C   UNL A   1      49.211  26.870  28.282  1.00  0.00     0.134 A 
ATOM     77  C   UNL A   1      48.943  25.944  30.472  1.00  0.00     0.134 A 
ATOM     78  F   UNL A   1      48.720  27.470  27.188  1.00  0.00    -0.206 F 
ATOM     79  C   UNL A   1      50.558  26.504  28.284  1.00  0.00     0.040 A 
ATOM     80  C   UNL A   1      50.295  25.599  30.499  1.00  0.00     0.040 A 
ATOM     81  F   UNL A   1      48.196  25.655  31.548  1.00  0.00    -0.206 F 
ATOM     82  C   UNL A   1      51.104  25.871  29.398  1.00  0.00     0.006 A 
ENDBRANCH  54  75
BRANCH  66  83
ATOM     83  C   UNL A   1      44.844  32.332  31.117  1.00  0.00     0.057 A 
ATOM     84  C   UNL A   1      45.173  33.430  30.312  1.00  0.00     0.134 A 
ATOM     85  C   UNL A   1      44.891  32.513  32.505  1.00  0.00     0.134 A 
ATOM     86  F   UNL A   1      45.161  33.321  28.974  1.00  0.00    -0.206 F 
ATOM     87  C   UNL A   1      45.559  34.652  30.866  1.00  0.00     0.040 A 
ATOM     88  C   UNL A   1      45.245  33.737  33.072  1.00  0.00     0.040 A 
ATOM     89  F   UNL A   1      44.577  31.505  33.334  1.00  0.00    -0.206 F 
ATOM     90  C   UNL A   1      45.587  34.809  32.251  1.00  0.00     0.006 A 
ENDBRANCH  66  83
ENDBRANCH  40  41
ENDBRANCH  32  35
ENDBRANCH  30  31
ENDBRANCH   1  30
TORSDOF 14
ENDMDL
MODEL 2
REMARK VINA RESULT:     -13.0      0.506      6.107
REMARK SMILES O=C1CC[C@@H](CC(=O)N2CCC(Oc3ccccc3)(C(=O)NCCCNC(=O)c3ccc(-c4c5nc(c(-c6c(F)cccc6F)c6ccc([nH]6)c(-c6c(F)cccc6F)c6nc(c(-c7c(F)cccc7F)c7ccc4[nH]7)C=C6)C=C5)cc3)CC2)N1
REMARK SMILES IDX 24 1 23 2 22 3 20 4 21 5 12 7 7 8 8 9 9 10 10 11 84 12 11 13
REMARK SMILES IDX 83 14 6 15 5 16 1 17 2 18 3 19 85 20 4 21 13 23 14 24 15 25
REMARK SMILES IDX 19 26 16 27 18 28 17 29 25 30 26 31 27 32 28 34 29 35 30 36
REMARK SMILES IDX 82 37 31 38 81 39 32 40 33 41 34 42 75 43 35 44 80 45 74 46
REMARK SMILES IDX 76 47 36 48 79 49 73 50 72 51 37 53 63 54 46 55 62 56 47 57
REMARK SMILES IDX 50 58 61 59 77 60 48 61 49 62 60 64 78 65 51 66 38 67 39 68
REMARK SMILES IDX 44 69 40 70 41 71 43 72 45 73 42 74 64 75 65 76 70 77 66 78
REMARK SMILES IDX 67 79 69 80 71 81 68 82 52 83 53 84 58 85 54 86 55 87 57 88
REMARK SMILES IDX 59 89 56 90
REMARK H PARENT 22 6 85 22 26 33 76 52 50 63
REMARK Flexibility Score: inf
ROOT
ATOM      1  C   UNL A   1      37.726  19.700  24.997  1.00  0.00     0.042 C 
ENDROOT
BRANCH   1   2
ATOM      2  C   UNL A   1      36.624  20.719  24.758  1.00  0.00     0.118 C 
BRANCH   2   3
ATOM      3  N   UNL A   1      36.055  21.157  26.013  1.00  0.00    -0.353 N 
ATOM      4  C   UNL A   1      34.807  21.600  26.312  1.00  0.00     0.264 C 
ATOM      5  O   UNL A   1      34.626  21.871  27.504  1.00  0.00    -0.270 OA
ATOM      6  H   UNL A   1      36.674  21.130  26.776  1.00  0.00     0.163 HD
BRANCH   4   7
ATOM      7  C   UNL A   1      33.695  21.738  25.232  1.00  0.00     0.190 C 
ATOM      8  C   UNL A   1      33.690  25.393  23.217  1.00  0.00     0.224 C 
ATOM      9  O   UNL A   1      33.734  25.186  21.995  1.00  0.00    -0.275 OA
ATOM     10  N   UNL A   1      34.100  24.405  24.089  1.00  0.00    -0.342 N 
ATOM     11  C   UNL A   1      34.938  23.301  23.621  1.00  0.00     0.124 C 
ATOM     12  C   UNL A   1      33.621  24.244  25.439  1.00  0.00     0.124 C 
ATOM     13  C   UNL A   1      34.250  21.950  23.807  1.00  0.00     0.080 C 
ATOM     14  C   UNL A   1      32.835  22.949  25.612  1.00  0.00     0.080 C 
BRANCH   8  15
ATOM     15  C   UNL A   1      33.400  26.840  23.669  1.00  0.00     0.125 C 
BRANCH  15  16
ATOM     16  C   UNL A   1      32.050  27.523  23.900  1.00  0.00     0.091 C 
ATOM     17  O   UNL A   1      29.678  29.052  21.806  1.00  0.00    -0.275 OA
ATOM     18  C   UNL A   1      30.272  28.347  22.607  1.00  0.00     0.220 C 
ATOM     19  C   UNL A   1      29.683  27.198  23.387  1.00  0.00     0.102 C 
ATOM     20  N   UNL A   1      31.615  28.447  22.897  1.00  0.00    -0.353 N 
ATOM     21  C   UNL A   1      30.863  26.593  24.154  1.00  0.00     0.035 C 
ATOM     22  H   UNL A   1      32.216  29.091  22.456  1.00  0.00     0.163 HD
ENDBRANCH  15  16
ENDBRANCH   8  15
BRANCH   7  23
ATOM     23  O   UNL A   1      32.976  20.492  25.426  1.00  0.00    -0.477 OA
BRANCH  23  24
ATOM     24  C   UNL A   1      33.140  19.498  24.511  1.00  0.00     0.120 A 
ATOM     25  C   UNL A   1      32.253  19.442  23.438  1.00  0.00     0.046 A 
ATOM     26  C   UNL A   1      34.053  18.468  24.718  1.00  0.00     0.046 A 
ATOM     27  C   UNL A   1      32.335  18.391  22.525  1.00  0.00     0.004 A 
ATOM     28  C   UNL A   1      34.152  17.429  23.793  1.00  0.00     0.004 A 
ATOM     29  C   UNL A   1      33.296  17.394  22.694  1.00  0.00     0.000 A 
ENDBRANCH  23  24
ENDBRANCH   7  23
ENDBRANCH   4   7
ENDBRANCH   2   3
ENDBRANCH   1   2
BRANCH   1  30
ATOM     30  C   UNL A   1      38.921  20.274  25.746  1.00  0.00     0.118 C 
BRANCH  30  31
ATOM     31  N   UNL A   1      40.038  19.342  25.804  1.00  0.00    -0.352 N 
ATOM     32  C   UNL A   1      41.366  19.582  26.053  1.00  0.00     0.251 C 
ATOM     33  H   UNL A   1      39.807  18.400  25.638  1.00  0.00     0.163 HD
ATOM     34  O   UNL A   1      42.200  18.714  25.826  1.00  0.00    -0.269 OA
BRANCH  32  35
ATOM     35  C   UNL A   1      41.786  20.895  26.580  1.00  0.00     0.039 A 
ATOM     36  C   UNL A   1      42.240  21.869  25.689  1.00  0.00     0.014 A 
ATOM     37  C   UNL A   1      41.739  21.162  27.951  1.00  0.00     0.014 A 
ATOM     38  C   UNL A   1      42.586  23.133  26.167  1.00  0.00     0.010 A 
ATOM     39  C   UNL A   1      41.990  22.448  28.414  1.00  0.00     0.010 A 
ATOM     40  C   UNL A   1      42.428  23.444  27.529  1.00  0.00    -0.014 A 
BRANCH  40  41
ATOM     41  C   UNL A   1      42.724  24.802  28.048  1.00  0.00     0.031 A 
ATOM     42  C   UNL A   1      44.126  25.166  28.448  1.00  0.00     0.074 A 
ATOM     43  C   UNL A   1      41.719  25.682  28.214  1.00  0.00     0.049 A 
ATOM     44  N   UNL A   1      44.571  26.276  28.981  1.00  0.00    -0.248 NA
ATOM     45  C   UNL A   1      45.161  24.139  28.252  1.00  0.00     0.031 C 
ATOM     46  C   UNL A   1      40.309  25.430  27.908  1.00  0.00     0.029 A 
ATOM     47  N   UNL A   1      41.728  26.969  28.693  1.00  0.00    -0.354 N 
ATOM     48  C   UNL A   1      45.929  26.074  29.193  1.00  0.00     0.074 A 
ATOM     49  C   UNL A   1      46.224  24.717  28.790  1.00  0.00     0.031 C 
ATOM     50  C   UNL A   1      39.595  26.534  28.178  1.00  0.00     0.029 A 
ATOM     51  C   UNL A   1      40.486  27.555  28.719  1.00  0.00     0.049 A 
ATOM     52  H   UNL A   1      42.547  27.428  28.988  1.00  0.00     0.167 HD
ATOM     53  C   UNL A   1      46.852  26.950  29.657  1.00  0.00     0.037 A 
ATOM     54  C   UNL A   1      40.107  28.777  29.138  1.00  0.00     0.037 A 
ATOM     55  C   UNL A   1      46.556  28.306  30.038  1.00  0.00     0.049 A 
ATOM     56  C   UNL A   1      41.149  29.725  29.666  1.00  0.00     0.074 A 
ATOM     57  C   UNL A   1      47.429  29.290  30.466  1.00  0.00     0.029 A 
ATOM     58  N   UNL A   1      45.287  28.866  30.040  1.00  0.00    -0.354 N 
ATOM     59  N   UNL A   1      42.441  29.545  29.794  1.00  0.00    -0.248 NA
ATOM     60  C   UNL A   1      40.680  31.047  30.101  1.00  0.00     0.031 C 
ATOM     61  C   UNL A   1      46.682  30.429  30.779  1.00  0.00     0.029 A 
ATOM     62  C   UNL A   1      45.351  30.176  30.489  1.00  0.00     0.049 A 
ATOM     63  H   UNL A   1      44.464  28.403  29.764  1.00  0.00     0.167 HD
ATOM     64  C   UNL A   1      42.943  30.740  30.295  1.00  0.00     0.074 A 
ATOM     65  C   UNL A   1      41.818  31.641  30.432  1.00  0.00     0.031 C 
ATOM     66  C   UNL A   1      44.222  31.061  30.613  1.00  0.00     0.037 A 
BRANCH  53  67
ATOM     67  C   UNL A   1      48.269  26.466  29.777  1.00  0.00     0.057 A 
ATOM     68  C   UNL A   1      49.205  26.654  28.751  1.00  0.00     0.134 A 
ATOM     69  C   UNL A   1      48.713  25.833  30.945  1.00  0.00     0.134 A 
ATOM     70  F   UNL A   1      48.844  27.240  27.599  1.00  0.00    -0.206 F 
ATOM     71  C   UNL A   1      50.522  26.205  28.871  1.00  0.00     0.040 A 
ATOM     72  C   UNL A   1      50.035  25.408  31.089  1.00  0.00     0.040 A 
ATOM     73  F   UNL A   1      47.872  25.625  31.969  1.00  0.00    -0.206 F 
ATOM     74  C   UNL A   1      50.942  25.587  30.047  1.00  0.00     0.006 A 
ENDBRANCH  53  67
BRANCH  54  75
ATOM     75  C   UNL A   1      38.681  29.182  29.060  1.00  0.00     0.057 A 
ATOM     76  C   UNL A   1      37.848  29.116  30.184  1.00  0.00     0.134 A 
ATOM     77  C   UNL A   1      38.112  29.632  27.862  1.00  0.00     0.134 A 
ATOM     78  F   UNL A   1      38.329  28.677  31.356  1.00  0.00    -0.206 F 
ATOM     79  C   UNL A   1      36.497  29.461  30.114  1.00  0.00     0.040 A 
ATOM     80  C   UNL A   1      36.770  30.007  27.786  1.00  0.00     0.040 A 
ATOM     81  F   UNL A   1      38.858  29.728  26.752  1.00  0.00    -0.206 F 
ATOM     82  C   UNL A   1      35.956  29.913  28.913  1.00  0.00     0.006 A 
ENDBRANCH  54  75
BRANCH  66  83
ATOM     83  C   UNL A   1      44.478  32.459  31.100  1.00  0.00     0.057 A 
ATOM     84  C   UNL A   1      44.743  33.515  30.219  1.00  0.00     0.134 A 
ATOM     85  C   UNL A   1      44.419  32.757  32.467  1.00  0.00     0.134 A 
ATOM     86  F   UNL A   1      44.826  33.295  28.897  1.00  0.00    -0.206 F 
ATOM     87  C   UNL A   1      44.966  34.813  30.683  1.00  0.00     0.040 A 
ATOM     88  C   UNL A   1      44.609  34.055  32.941  1.00  0.00     0.040 A 
ATOM     89  F   UNL A   1      44.159  31.794  33.364  1.00  0.00    -0.206 F 
ATOM     90  C   UNL A   1      44.891  35.086  32.047  1.00  0.00     0.006 A 
ENDBRANCH  66  83
ENDBRANCH  40  41
ENDBRANCH  32  35
ENDBRANCH  30  31
ENDBRANCH   1  30
TORSDOF 14
ENDMDL
MODEL 3
REMARK VINA RESULT:     -12.9      1.049      1.481
REMARK SMILES O=C1CC[C@@H](CC(=O)N2CCC(Oc3ccccc3)(C(=O)NCCCNC(=O)c3ccc(-c4c5nc(c(-c6c(F)cccc6F)c6ccc([nH]6)c(-c6c(F)cccc6F)c6nc(c(-c7c(F)cccc7F)c7ccc4[nH]7)C=C6)C=C5)cc3)CC2)N1
REMARK SMILES IDX 24 1 23 2 22 3 20 4 21 5 12 7 7 8 8 9 9 10 10 11 84 12 11 13
REMARK SMILES IDX 83 14 6 15 5 16 1 17 2 18 3 19 85 20 4 21 13 23 14 24 15 25
REMARK SMILES IDX 19 26 16 27 18 28 17 29 25 30 26 31 27 32 28 34 29 35 30 36
REMARK SMILES IDX 82 37 31 38 81 39 32 40 33 41 34 42 75 43 35 44 80 45 74 46
REMARK SMILES IDX 76 47 36 48 79 49 73 50 72 51 37 53 63 54 46 55 62 56 47 57
REMARK SMILES IDX 50 58 61 59 77 60 48 61 49 62 60 64 78 65 51 66 38 67 39 68
REMARK SMILES IDX 44 69 40 70 41 71 43 72 45 73 42 74 64 75 65 76 70 77 66 78
REMARK SMILES IDX 67 79 69 80 71 81 68 82 52 83 53 84 58 85 54 86 55 87 57 88
REMARK SMILES IDX 59 89 56 90
REMARK H PARENT 22 6 85 22 26 33 76 52 50 63
REMARK Flexibility Score: inf
ROOT
ATOM      1  C   UNL A   1      37.633  19.809  25.014  1.00  0.00     0.042 C 
ENDROOT
BRANCH   1   2
ATOM      2  C   UNL A   1      36.657  20.929  24.698  1.00  0.00     0.118 C 
BRANCH   2   3
ATOM      3  N   UNL A   1      36.155  21.525  25.917  1.00  0.00    -0.353 N 
ATOM      4  C   UNL A   1      34.941  22.059  26.205  1.00  0.00     0.264 C 
ATOM      5  O   UNL A   1      34.815  22.462  27.367  1.00  0.00    -0.270 OA
ATOM      6  H   UNL A   1      36.800  21.548  26.659  1.00  0.00     0.163 HD
BRANCH   4   7
ATOM      7  C   UNL A   1      33.798  22.138  25.152  1.00  0.00     0.190 C 
ATOM      8  C   UNL A   1      33.767  25.652  22.899  1.00  0.00     0.224 C 
ATOM      9  O   UNL A   1      33.772  25.364  21.693  1.00  0.00    -0.275 OA
ATOM     10  N   UNL A   1      34.194  24.719  23.823  1.00  0.00    -0.342 N 
ATOM     11  C   UNL A   1      35.006  23.576  23.405  1.00  0.00     0.124 C 
ATOM     12  C   UNL A   1      33.754  24.653  25.194  1.00  0.00     0.124 C 
ATOM     13  C   UNL A   1      34.312  22.249  23.700  1.00  0.00     0.080 C 
ATOM     14  C   UNL A   1      32.961  23.381  25.476  1.00  0.00     0.080 C 
BRANCH   8  15
ATOM     15  C   UNL A   1      33.505  27.128  23.263  1.00  0.00     0.125 C 
BRANCH  15  16
ATOM     16  C   UNL A   1      32.173  27.826  23.552  1.00  0.00     0.091 C 
ATOM     17  O   UNL A   1      29.755  29.427  21.568  1.00  0.00    -0.275 OA
ATOM     18  C   UNL A   1      30.365  28.698  22.335  1.00  0.00     0.220 C 
ATOM     19  C   UNL A   1      29.786  27.544  23.113  1.00  0.00     0.102 C 
ATOM     20  N   UNL A   1      31.718  28.775  22.581  1.00  0.00    -0.353 N 
ATOM     21  C   UNL A   1      30.982  26.908  23.829  1.00  0.00     0.035 C 
ATOM     22  H   UNL A   1      32.314  29.418  22.132  1.00  0.00     0.163 HD
ENDBRANCH  15  16
ENDBRANCH   8  15
BRANCH   7  23
ATOM     23  O   UNL A   1      33.073  20.916  25.449  1.00  0.00    -0.477 OA
BRANCH  23  24
ATOM     24  C   UNL A   1      33.166  19.876  24.576  1.00  0.00     0.120 A 
ATOM     25  C   UNL A   1      32.284  19.845  23.498  1.00  0.00     0.046 A 
ATOM     26  C   UNL A   1      33.995  18.788  24.833  1.00  0.00     0.046 A 
ATOM     27  C   UNL A   1      32.291  18.756  22.628  1.00  0.00     0.004 A 
ATOM     28  C   UNL A   1      34.020  17.708  23.951  1.00  0.00     0.004 A 
ATOM     29  C   UNL A   1      33.172  17.695  22.845  1.00  0.00     0.000 A 
ENDBRANCH  23  24
ENDBRANCH   7  23
ENDBRANCH   4   7
ENDBRANCH   2   3
ENDBRANCH   1   2
BRANCH   1  30
ATOM     30  C   UNL A   1      38.893  20.290  25.721  1.00  0.00     0.118 C 
BRANCH  30  31
ATOM     31  N   UNL A   1      39.889  19.238  25.856  1.00  0.00    -0.352 N 
ATOM     32  C   UNL A   1      41.241  19.335  26.068  1.00  0.00     0.251 C 
ATOM     33  H   UNL A   1      39.542  18.320  25.784  1.00  0.00     0.163 HD
ATOM     34  O   UNL A   1      41.959  18.354  25.916  1.00  0.00    -0.269 OA
BRANCH  32  35
ATOM     35  C   UNL A   1      41.829  20.630  26.462  1.00  0.00     0.039 A 
ATOM     36  C   UNL A   1      42.226  21.525  25.467  1.00  0.00     0.014 A 
ATOM     37  C   UNL A   1      41.995  20.958  27.811  1.00  0.00     0.014 A 
ATOM     38  C   UNL A   1      42.731  22.775  25.826  1.00  0.00     0.010 A 
ATOM     39  C   UNL A   1      42.405  22.237  28.166  1.00  0.00     0.010 A 
ATOM     40  C   UNL A   1      42.789  23.155  27.177  1.00  0.00    -0.014 A 
BRANCH  40  41
ATOM     41  C   UNL A   1      43.256  24.505  27.579  1.00  0.00     0.031 A 
ATOM     42  C   UNL A   1      42.263  25.552  27.998  1.00  0.00     0.074 A 
ATOM     43  C   UNL A   1      44.567  24.802  27.506  1.00  0.00     0.049 A 
ATOM     44  N   UNL A   1      42.469  26.804  28.320  1.00  0.00    -0.248 NA
ATOM     45  C   UNL A   1      40.848  25.151  28.030  1.00  0.00     0.031 C 
ATOM     46  C   UNL A   1      45.622  23.885  27.068  1.00  0.00     0.029 A 
ATOM     47  N   UNL A   1      45.237  25.965  27.791  1.00  0.00    -0.354 N 
ATOM     48  C   UNL A   1      41.214  27.337  28.581  1.00  0.00     0.074 A 
ATOM     49  C   UNL A   1      40.247  26.295  28.319  1.00  0.00     0.031 C 
ATOM     50  C   UNL A   1      46.808  24.511  27.141  1.00  0.00     0.029 A 
ATOM     51  C   UNL A   1      46.593  25.884  27.587  1.00  0.00     0.049 A 
ATOM     52  H   UNL A   1      44.789  26.780  28.113  1.00  0.00     0.167 HD
ATOM     53  C   UNL A   1      40.897  28.578  29.024  1.00  0.00     0.037 A 
ATOM     54  C   UNL A   1      47.555  26.814  27.734  1.00  0.00     0.037 A 
ATOM     55  C   UNL A   1      41.865  29.606  29.301  1.00  0.00     0.049 A 
ATOM     56  C   UNL A   1      47.175  28.190  28.210  1.00  0.00     0.074 A 
ATOM     57  C   UNL A   1      41.652  30.876  29.807  1.00  0.00     0.029 A 
ATOM     58  N   UNL A   1      43.230  29.482  29.091  1.00  0.00    -0.354 N 
ATOM     59  N   UNL A   1      45.991  28.659  28.521  1.00  0.00    -0.248 NA
ATOM     60  C   UNL A   1      48.266  29.162  28.362  1.00  0.00     0.031 C 
ATOM     61  C   UNL A   1      42.881  31.539  29.852  1.00  0.00     0.029 A 
ATOM     62  C   UNL A   1      43.870  30.663  29.432  1.00  0.00     0.049 A 
ATOM     63  H   UNL A   1      43.679  28.675  28.750  1.00  0.00     0.167 HD
ATOM     64  C   UNL A   1      46.198  29.970  28.934  1.00  0.00     0.074 A 
ATOM     65  C   UNL A   1      47.623  30.214  28.848  1.00  0.00     0.031 C 
ATOM     66  C   UNL A   1      45.290  30.888  29.347  1.00  0.00     0.037 A 
BRANCH  53  67
ATOM     67  C   UNL A   1      39.442  28.889  29.235  1.00  0.00     0.057 A 
ATOM     68  C   UNL A   1      38.631  29.375  28.201  1.00  0.00     0.134 A 
ATOM     69  C   UNL A   1      38.837  28.669  30.478  1.00  0.00     0.134 A 
ATOM     70  F   UNL A   1      39.150  29.622  26.988  1.00  0.00    -0.206 F 
ATOM     71  C   UNL A   1      37.279  29.659  28.404  1.00  0.00     0.040 A 
ATOM     72  C   UNL A   1      37.479  28.918  30.685  1.00  0.00     0.040 A 
ATOM     73  F   UNL A   1      39.552  28.199  31.512  1.00  0.00    -0.206 F 
ATOM     74  C   UNL A   1      36.698  29.422  29.647  1.00  0.00     0.006 A 
ENDBRANCH  53  67
BRANCH  54  75
ATOM     75  C   UNL A   1      48.971  26.474  27.446  1.00  0.00     0.057 A 
ATOM     76  C   UNL A   1      49.503  26.620  26.159  1.00  0.00     0.134 A 
ATOM     77  C   UNL A   1      49.824  25.984  28.444  1.00  0.00     0.134 A 
ATOM     78  F   UNL A   1      48.732  27.068  25.157  1.00  0.00    -0.206 F 
ATOM     79  C   UNL A   1      50.823  26.270  25.869  1.00  0.00     0.040 A 
ATOM     80  C   UNL A   1      51.153  25.658  28.173  1.00  0.00     0.040 A 
ATOM     81  F   UNL A   1      49.379  25.831  29.699  1.00  0.00    -0.206 F 
ATOM     82  C   UNL A   1      51.653  25.793  26.880  1.00  0.00     0.006 A 
ENDBRANCH  54  75
BRANCH  66  83
ATOM     83  C   UNL A   1      45.814  32.228  29.777  1.00  0.00     0.057 A 
ATOM     84  C   UNL A   1      45.921  33.304  28.888  1.00  0.00     0.134 A 
ATOM     85  C   UNL A   1      46.179  32.453  31.111  1.00  0.00     0.134 A 
ATOM     86  F   UNL A   1      45.599  33.152  27.593  1.00  0.00    -0.206 F 
ATOM     87  C   UNL A   1      46.397  34.549  29.303  1.00  0.00     0.040 A 
ATOM     88  C   UNL A   1      46.628  33.701  31.545  1.00  0.00     0.040 A 
ATOM     89  F   UNL A   1      46.092  31.468  32.018  1.00  0.00    -0.206 F 
ATOM     90  C   UNL A   1      46.744  34.751  30.637  1.00  0.00     0.006 A 
ENDBRANCH  66  83
ENDBRANCH  40  41
ENDBRANCH  32  35
ENDBRANCH  30  31
ENDBRANCH   1  30
TORSDOF 14
ENDMDL
