MODEL 1
REMARK VINA RESULT:     -12.0      0.000      0.000
REMARK SMILES O=C(C[C@@H]([NH2+]Cc1cccnc1)C(=O)NCCCNC(=O)c1ccc(-c2c3nc(c(-c4c(F)cccc4F)c4ccc([nH]4)c(-c4c(F)cccc4F)c4nc(c(-c5c(F)cccc5F)c5ccc2[nH]5)C=C4)C=C3)cc1)Nc1ccc2ccccc2c1
REMARK SMILES IDX 16 1 15 2 13 3 14 4 4 6 3 7 2 8 1 9 76 10 77 12 78 13 86 14
REMARK SMILES IDX 79 15 85 16 80 17 84 18 81 19 83 20 82 21 5 22 6 25 7 26
REMARK SMILES IDX 8 27 12 28 9 29 11 30 10 31 17 32 18 33 19 34 20 35 21 37
REMARK SMILES IDX 22 38 23 39 75 40 24 41 74 42 25 43 26 44 27 45 68 46 28 47
REMARK SMILES IDX 73 48 67 49 69 50 29 51 72 52 66 53 65 54 30 56 56 57 39 58
REMARK SMILES IDX 55 59 40 60 43 61 54 62 70 63 41 64 42 65 53 67 71 68 44 69
REMARK SMILES IDX 31 70 32 71 37 72 33 73 34 74 36 75 38 76 35 77 57 78 58 79
REMARK SMILES IDX 63 80 59 81 60 82 62 83 64 84 61 85 45 86 46 87 51 88 47 89
REMARK SMILES IDX 48 90 50 91 52 92 49 93
REMARK H PARENT 15 5 76 11 5 23 5 24 19 36 69 55 43 66
REMARK Flexibility Score: inf
ROOT
ATOM      1  C   UNL A   1      32.538  26.775  26.446  1.00  0.00     0.118 C 
ENDROOT
BRANCH   1   2
ATOM      2  N   UNL A   1      31.223  26.251  26.768  1.00  0.00    -0.351 N 
ATOM      3  C   UNL A   1      30.272  25.698  25.962  1.00  0.00     0.278 C 
ATOM      4  O   UNL A   1      29.223  25.327  26.494  1.00  0.00    -0.268 OA
ATOM      5  H   UNL A   1      30.979  26.300  27.721  1.00  0.00     0.163 HD
BRANCH   3   6
ATOM      6  C   UNL A   1      30.510  25.498  24.452  1.00  0.00     0.282 C 
BRANCH   6   7
ATOM      7  C   UNL A   1      30.590  23.990  24.127  1.00  0.00     0.175 C 
BRANCH   7   8
ATOM      8  C   UNL A   1      31.818  23.293  24.685  1.00  0.00     0.230 C 
ATOM      9  O   UNL A   1      31.767  22.606  25.698  1.00  0.00    -0.274 OA
ATOM     10  N   UNL A   1      32.957  23.558  23.939  1.00  0.00    -0.326 N 
ATOM     11  H   UNL A   1      32.852  23.915  23.028  1.00  0.00     0.169 HD
BRANCH  10  12
ATOM     12  C   UNL A   1      34.251  23.338  24.432  1.00  0.00     0.041 A 
ATOM     13  C   UNL A   1      34.934  24.438  24.947  1.00  0.00     0.027 A 
ATOM     14  C   UNL A   1      34.863  22.087  24.401  1.00  0.00     0.034 A 
ATOM     15  C   UNL A   1      36.171  24.270  25.560  1.00  0.00     0.011 A 
ATOM     16  C   UNL A   1      36.183  21.939  24.874  1.00  0.00    -0.016 A 
ATOM     17  C   UNL A   1      36.810  23.030  25.523  1.00  0.00    -0.018 A 
ATOM     18  C   UNL A   1      36.914  20.752  24.701  1.00  0.00     0.009 A 
ATOM     19  C   UNL A   1      38.084  22.872  26.084  1.00  0.00     0.009 A 
ATOM     20  C   UNL A   1      38.221  20.640  25.185  1.00  0.00     0.001 A 
ATOM     21  C   UNL A   1      38.791  21.686  25.907  1.00  0.00     0.001 A 
ENDBRANCH  10  12
ENDBRANCH   7   8
ENDBRANCH   6   7
BRANCH   6  22
ATOM     22  N   UNL A   1      29.494  26.234  23.634  1.00  0.00    -0.332 N 
ATOM     23  H   UNL A   1      28.740  26.530  24.253  1.00  0.00     0.347 HD
ATOM     24  H   UNL A   1      29.184  25.589  22.908  1.00  0.00     0.347 HD
BRANCH  22  25
ATOM     25  C   UNL A   1      30.017  27.428  22.939  1.00  0.00     0.299 C 
BRANCH  25  26
ATOM     26  C   UNL A   1      29.183  28.658  23.161  1.00  0.00     0.024 A 
ATOM     27  C   UNL A   1      29.766  29.901  23.415  1.00  0.00     0.013 A 
ATOM     28  C   UNL A   1      27.792  28.609  23.098  1.00  0.00     0.120 A 
ATOM     29  C   UNL A   1      28.955  31.024  23.555  1.00  0.00     0.021 A 
ATOM     30  N   UNL A   1      26.981  29.681  23.221  1.00  0.00    -0.264 NA
ATOM     31  C   UNL A   1      27.585  30.868  23.436  1.00  0.00     0.111 A 
ENDBRANCH  25  26
ENDBRANCH  22  25
ENDBRANCH   6  22
ENDBRANCH   3   6
ENDBRANCH   1   2
BRANCH   1  32
ATOM     32  C   UNL A   1      32.615  28.274  26.720  1.00  0.00     0.042 C 
BRANCH  32  33
ATOM     33  C   UNL A   1      33.977  28.726  27.229  1.00  0.00     0.118 C 
BRANCH  33  34
ATOM     34  N   UNL A   1      33.940  30.070  27.787  1.00  0.00    -0.352 N 
ATOM     35  C   UNL A   1      34.879  30.742  28.530  1.00  0.00     0.251 C 
ATOM     36  H   UNL A   1      33.115  30.575  27.603  1.00  0.00     0.163 HD
ATOM     37  O   UNL A   1      34.575  31.790  29.088  1.00  0.00    -0.269 OA
BRANCH  35  38
ATOM     38  C   UNL A   1      36.245  30.196  28.674  1.00  0.00     0.039 A 
ATOM     39  C   UNL A   1      37.115  30.263  27.582  1.00  0.00     0.014 A 
ATOM     40  C   UNL A   1      36.664  29.602  29.867  1.00  0.00     0.014 A 
ATOM     41  C   UNL A   1      38.423  29.793  27.710  1.00  0.00     0.010 A 
ATOM     42  C   UNL A   1      37.992  29.215  30.020  1.00  0.00     0.010 A 
ATOM     43  C   UNL A   1      38.884  29.301  28.942  1.00  0.00    -0.014 A 
BRANCH  43  44
ATOM     44  C   UNL A   1      40.294  28.869  29.120  1.00  0.00     0.031 A 
ATOM     45  C   UNL A   1      41.303  29.806  29.727  1.00  0.00     0.074 A 
ATOM     46  C   UNL A   1      40.678  27.655  28.684  1.00  0.00     0.049 A 
ATOM     47  N   UNL A   1      42.586  29.633  29.910  1.00  0.00    -0.248 NA
ATOM     48  C   UNL A   1      40.807  31.122  30.161  1.00  0.00     0.031 C 
ATOM     49  C   UNL A   1      39.804  26.670  28.042  1.00  0.00     0.029 A 
ATOM     50  N   UNL A   1      41.906  27.043  28.707  1.00  0.00    -0.354 N 
ATOM     51  C   UNL A   1      43.051  30.816  30.472  1.00  0.00     0.074 A 
ATOM     52  C   UNL A   1      41.925  31.722  30.539  1.00  0.00     0.031 C 
ATOM     53  C   UNL A   1      40.517  25.567  27.763  1.00  0.00     0.029 A 
ATOM     54  C   UNL A   1      41.903  25.782  28.161  1.00  0.00     0.049 A 
ATOM     55  H   UNL A   1      42.713  27.468  29.078  1.00  0.00     0.167 HD
ATOM     56  C   UNL A   1      44.297  31.113  30.915  1.00  0.00     0.037 A 
ATOM     57  C   UNL A   1      42.909  24.902  27.994  1.00  0.00     0.037 A 
ATOM     58  C   UNL A   1      45.413  30.205  30.853  1.00  0.00     0.049 A 
ATOM     59  C   UNL A   1      44.291  25.270  28.459  1.00  0.00     0.074 A 
ATOM     60  C   UNL A   1      46.704  30.394  31.315  1.00  0.00     0.029 A 
ATOM     61  N   UNL A   1      45.371  28.939  30.288  1.00  0.00    -0.354 N 
ATOM     62  N   UNL A   1      44.702  26.366  29.047  1.00  0.00    -0.248 NA
ATOM     63  C   UNL A   1      45.348  24.273  28.239  1.00  0.00     0.031 C 
ATOM     64  C   UNL A   1      47.456  29.263  30.981  1.00  0.00     0.029 A 
ATOM     65  C   UNL A   1      46.620  28.345  30.366  1.00  0.00     0.049 A 
ATOM     66  H   UNL A   1      44.572  28.523  29.891  1.00  0.00     0.167 HD
ATOM     67  C   UNL A   1      46.055  26.180  29.299  1.00  0.00     0.074 A 
ATOM     68  C   UNL A   1      46.391  24.858  28.810  1.00  0.00     0.031 C 
ATOM     69  C   UNL A   1      46.940  27.025  29.883  1.00  0.00     0.037 A 
BRANCH  56  70
ATOM     70  C   UNL A   1      44.512  32.478  31.503  1.00  0.00     0.057 A 
ATOM     71  C   UNL A   1      44.922  33.566  30.720  1.00  0.00     0.134 A 
ATOM     72  C   UNL A   1      44.288  32.715  32.866  1.00  0.00     0.134 A 
ATOM     73  F   UNL A   1      45.166  33.407  29.410  1.00  0.00    -0.206 F 
ATOM     74  C   UNL A   1      45.135  34.830  31.275  1.00  0.00     0.040 A 
ATOM     75  C   UNL A   1      44.466  33.983  33.426  1.00  0.00     0.040 A 
ATOM     76  F   UNL A   1      43.887  31.724  33.675  1.00  0.00    -0.206 F 
ATOM     77  C   UNL A   1      44.900  35.041  32.632  1.00  0.00     0.006 A 
ENDBRANCH  56  70
BRANCH  57  78
ATOM     78  C   UNL A   1      42.643  23.575  27.381  1.00  0.00     0.057 A 
ATOM     79  C   UNL A   1      42.312  22.470  28.175  1.00  0.00     0.134 A 
ATOM     80  C   UNL A   1      42.724  23.374  25.998  1.00  0.00     0.134 A 
ATOM     81  F   UNL A   1      42.236  22.594  29.508  1.00  0.00    -0.206 F 
ATOM     82  C   UNL A   1      42.094  21.208  27.618  1.00  0.00     0.040 A 
ATOM     83  C   UNL A   1      42.482  22.124  25.426  1.00  0.00     0.040 A 
ATOM     84  F   UNL A   1      43.028  24.393  25.183  1.00  0.00    -0.206 F 
ATOM     85  C   UNL A   1      42.174  21.034  26.238  1.00  0.00     0.006 A 
ENDBRANCH  57  78
BRANCH  69  86
ATOM     86  C   UNL A   1      48.345  26.529  30.067  1.00  0.00     0.057 A 
ATOM     87  C   UNL A   1      49.350  26.770  29.120  1.00  0.00     0.134 A 
ATOM     88  C   UNL A   1      48.706  25.833  31.229  1.00  0.00     0.134 A 
ATOM     89  F   UNL A   1      49.068  27.419  27.981  1.00  0.00    -0.206 F 
ATOM     90  C   UNL A   1      50.655  26.311  29.309  1.00  0.00     0.040 A 
ATOM     91  C   UNL A   1      50.014  25.397  31.443  1.00  0.00     0.040 A 
ATOM     92  F   UNL A   1      47.797  25.578  32.181  1.00  0.00    -0.206 F 
ATOM     93  C   UNL A   1      50.991  25.630  30.477  1.00  0.00     0.006 A 
ENDBRANCH  69  86
ENDBRANCH  43  44
ENDBRANCH  35  38
ENDBRANCH  33  34
ENDBRANCH  32  33
ENDBRANCH   1  32
TORSDOF 16
ENDMDL
MODEL 2
REMARK VINA RESULT:     -12.0      2.164      6.543
REMARK SMILES O=C(C[C@@H]([NH2+]Cc1cccnc1)C(=O)NCCCNC(=O)c1ccc(-c2c3nc(c(-c4c(F)cccc4F)c4ccc([nH]4)c(-c4c(F)cccc4F)c4nc(c(-c5c(F)cccc5F)c5ccc2[nH]5)C=C4)C=C3)cc1)Nc1ccc2ccccc2c1
REMARK SMILES IDX 16 1 15 2 13 3 14 4 4 6 3 7 2 8 1 9 76 10 77 12 78 13 86 14
REMARK SMILES IDX 79 15 85 16 80 17 84 18 81 19 83 20 82 21 5 22 6 25 7 26
REMARK SMILES IDX 8 27 12 28 9 29 11 30 10 31 17 32 18 33 19 34 20 35 21 37
REMARK SMILES IDX 22 38 23 39 75 40 24 41 74 42 25 43 26 44 27 45 68 46 28 47
REMARK SMILES IDX 73 48 67 49 69 50 29 51 72 52 66 53 65 54 30 56 56 57 39 58
REMARK SMILES IDX 55 59 40 60 43 61 54 62 70 63 41 64 42 65 53 67 71 68 44 69
REMARK SMILES IDX 31 70 32 71 37 72 33 73 34 74 36 75 38 76 35 77 57 78 58 79
REMARK SMILES IDX 63 80 59 81 60 82 62 83 64 84 61 85 45 86 46 87 51 88 47 89
REMARK SMILES IDX 48 90 50 91 52 92 49 93
REMARK H PARENT 15 5 76 11 5 23 5 24 19 36 69 55 43 66
REMARK Flexibility Score: inf
ROOT
ATOM      1  C   UNL A   1      34.107  29.507  27.052  1.00  0.00     0.118 C 
ENDROOT
BRANCH   1   2
ATOM      2  N   UNL A   1      32.946  28.972  27.739  1.00  0.00    -0.351 N 
ATOM      3  C   UNL A   1      31.946  28.165  27.284  1.00  0.00     0.278 C 
ATOM      4  O   UNL A   1      31.062  27.850  28.085  1.00  0.00    -0.268 OA
ATOM      5  H   UNL A   1      32.869  29.232  28.685  1.00  0.00     0.163 HD
BRANCH   3   6
ATOM      6  C   UNL A   1      31.939  27.624  25.840  1.00  0.00     0.282 C 
BRANCH   6   7
ATOM      7  C   UNL A   1      31.166  26.287  25.784  1.00  0.00     0.175 C 
BRANCH   7   8
ATOM      8  C   UNL A   1      32.028  25.055  25.988  1.00  0.00     0.230 C 
ATOM      9  O   UNL A   1      31.989  24.403  27.025  1.00  0.00    -0.274 OA
ATOM     10  N   UNL A   1      32.851  24.803  24.900  1.00  0.00    -0.326 N 
ATOM     11  H   UNL A   1      32.641  25.231  24.040  1.00  0.00     0.169 HD
BRANCH  10  12
ATOM     12  C   UNL A   1      33.972  23.963  24.979  1.00  0.00     0.041 A 
ATOM     13  C   UNL A   1      33.797  22.629  24.618  1.00  0.00     0.027 A 
ATOM     14  C   UNL A   1      35.216  24.412  25.418  1.00  0.00     0.034 A 
ATOM     15  C   UNL A   1      34.889  21.771  24.558  1.00  0.00     0.011 A 
ATOM     16  C   UNL A   1      36.294  23.508  25.515  1.00  0.00    -0.016 A 
ATOM     17  C   UNL A   1      36.140  22.194  25.012  1.00  0.00    -0.018 A 
ATOM     18  C   UNL A   1      37.512  23.855  26.120  1.00  0.00     0.009 A 
ATOM     19  C   UNL A   1      37.229  21.312  25.012  1.00  0.00     0.009 A 
ATOM     20  C   UNL A   1      38.561  22.934  26.196  1.00  0.00     0.001 A 
ATOM     21  C   UNL A   1      38.431  21.677  25.612  1.00  0.00     0.001 A 
ENDBRANCH  10  12
ENDBRANCH   7   8
ENDBRANCH   6   7
BRANCH   6  22
ATOM     22  N   UNL A   1      31.434  28.649  24.872  1.00  0.00    -0.332 N 
ATOM     23  H   UNL A   1      32.141  29.378  24.782  1.00  0.00     0.347 HD
ATOM     24  H   UNL A   1      30.551  28.992  25.248  1.00  0.00     0.347 HD
BRANCH  22  25
ATOM     25  C   UNL A   1      31.140  28.123  23.523  1.00  0.00     0.299 C 
BRANCH  25  26
ATOM     26  C   UNL A   1      29.966  28.793  22.867  1.00  0.00     0.024 A 
ATOM     27  C   UNL A   1      28.654  28.494  23.235  1.00  0.00     0.013 A 
ATOM     28  C   UNL A   1      30.145  29.759  21.879  1.00  0.00     0.120 A 
ATOM     29  C   UNL A   1      27.599  29.183  22.642  1.00  0.00     0.021 A 
ATOM     30  N   UNL A   1      29.145  30.450  21.293  1.00  0.00    -0.264 NA
ATOM     31  C   UNL A   1      27.893  30.152  21.698  1.00  0.00     0.111 A 
ENDBRANCH  25  26
ENDBRANCH  22  25
ENDBRANCH   6  22
ENDBRANCH   3   6
ENDBRANCH   1   2
BRANCH   1  32
ATOM     32  C   UNL A   1      34.357  30.961  27.442  1.00  0.00     0.042 C 
BRANCH  32  33
ATOM     33  C   UNL A   1      35.669  31.171  28.186  1.00  0.00     0.118 C 
BRANCH  33  34
ATOM     34  N   UNL A   1      35.554  30.870  29.605  1.00  0.00    -0.352 N 
ATOM     35  C   UNL A   1      36.430  30.226  30.444  1.00  0.00     0.251 C 
ATOM     36  H   UNL A   1      34.720  31.178  30.029  1.00  0.00     0.163 HD
ATOM     37  O   UNL A   1      36.059  29.883  31.560  1.00  0.00    -0.269 OA
BRANCH  35  38
ATOM     38  C   UNL A   1      37.807  29.930  29.996  1.00  0.00     0.039 A 
ATOM     39  C   UNL A   1      38.781  29.648  30.958  1.00  0.00     0.014 A 
ATOM     40  C   UNL A   1      38.146  29.949  28.641  1.00  0.00     0.014 A 
ATOM     41  C   UNL A   1      40.077  29.321  30.555  1.00  0.00     0.010 A 
ATOM     42  C   UNL A   1      39.413  29.538  28.238  1.00  0.00     0.010 A 
ATOM     43  C   UNL A   1      40.394  29.226  29.190  1.00  0.00    -0.014 A 
BRANCH  43  44
ATOM     44  C   UNL A   1      41.745  28.804  28.740  1.00  0.00     0.031 A 
ATOM     45  C   UNL A   1      41.998  27.378  28.333  1.00  0.00     0.074 A 
ATOM     46  C   UNL A   1      42.757  29.692  28.752  1.00  0.00     0.049 A 
ATOM     47  N   UNL A   1      43.118  26.808  27.969  1.00  0.00    -0.248 NA
ATOM     48  C   UNL A   1      40.844  26.466  28.365  1.00  0.00     0.031 C 
ATOM     49  C   UNL A   1      42.650  31.094  29.163  1.00  0.00     0.029 A 
ATOM     50  N   UNL A   1      44.080  29.546  28.416  1.00  0.00    -0.354 N 
ATOM     51  C   UNL A   1      42.805  25.474  27.737  1.00  0.00     0.074 A 
ATOM     52  C   UNL A   1      41.406  25.305  28.064  1.00  0.00     0.031 C 
ATOM     53  C   UNL A   1      43.847  31.685  29.024  1.00  0.00     0.029 A 
ATOM     54  C   UNL A   1      44.815  30.698  28.560  1.00  0.00     0.049 A 
ATOM     55  H   UNL A   1      44.465  28.696  28.102  1.00  0.00     0.167 HD
ATOM     56  C   UNL A   1      43.604  24.485  27.270  1.00  0.00     0.037 A 
ATOM     57  C   UNL A   1      46.124  30.928  28.348  1.00  0.00     0.037 A 
ATOM     58  C   UNL A   1      44.995  24.659  26.938  1.00  0.00     0.049 A 
ATOM     59  C   UNL A   1      46.999  29.804  27.866  1.00  0.00     0.074 A 
ATOM     60  C   UNL A   1      45.879  23.731  26.416  1.00  0.00     0.029 A 
ATOM     61  N   UNL A   1      45.705  25.839  27.103  1.00  0.00    -0.354 N 
ATOM     62  N   UNL A   1      46.677  28.564  27.589  1.00  0.00    -0.248 NA
ATOM     63  C   UNL A   1      48.422  30.114  27.665  1.00  0.00     0.031 C 
ATOM     64  C   UNL A   1      47.137  24.335  26.316  1.00  0.00     0.029 A 
ATOM     65  C   UNL A   1      47.023  25.656  26.717  1.00  0.00     0.049 A 
ATOM     66  H   UNL A   1      45.328  26.683  27.443  1.00  0.00     0.167 HD
ATOM     67  C   UNL A   1      47.845  27.955  27.148  1.00  0.00     0.074 A 
ATOM     68  C   UNL A   1      48.880  28.968  27.183  1.00  0.00     0.031 C 
ATOM     69  C   UNL A   1      48.042  26.675  26.750  1.00  0.00     0.037 A 
BRANCH  56  70
ATOM     70  C   UNL A   1      42.988  23.126  27.094  1.00  0.00     0.057 A 
ATOM     71  C   UNL A   1      42.736  22.280  28.183  1.00  0.00     0.134 A 
ATOM     72  C   UNL A   1      42.622  22.664  25.822  1.00  0.00     0.134 A 
ATOM     73  F   UNL A   1      43.072  22.655  29.427  1.00  0.00    -0.206 F 
ATOM     74  C   UNL A   1      42.176  21.012  28.011  1.00  0.00     0.040 A 
ATOM     75  C   UNL A   1      42.032  21.411  25.642  1.00  0.00     0.040 A 
ATOM     76  F   UNL A   1      42.827  23.422  24.736  1.00  0.00    -0.206 F 
ATOM     77  C   UNL A   1      41.817  20.578  26.738  1.00  0.00     0.006 A 
ENDBRANCH  56  70
BRANCH  57  78
ATOM     78  C   UNL A   1      46.686  32.287  28.564  1.00  0.00     0.057 A 
ATOM     79  C   UNL A   1      46.727  33.222  27.523  1.00  0.00     0.134 A 
ATOM     80  C   UNL A   1      47.204  32.680  29.804  1.00  0.00     0.134 A 
ATOM     81  F   UNL A   1      46.263  32.899  26.307  1.00  0.00    -0.206 F 
ATOM     82  C   UNL A   1      47.284  34.490  27.699  1.00  0.00     0.040 A 
ATOM     83  C   UNL A   1      47.738  33.954  30.002  1.00  0.00     0.040 A 
ATOM     84  F   UNL A   1      47.186  31.834  30.844  1.00  0.00    -0.206 F 
ATOM     85  C   UNL A   1      47.787  34.860  28.945  1.00  0.00     0.006 A 
ENDBRANCH  57  78
BRANCH  69  86
ATOM     86  C   UNL A   1      49.419  26.307  26.276  1.00  0.00     0.057 A 
ATOM     87  C   UNL A   1      49.882  26.647  24.998  1.00  0.00     0.134 A 
ATOM     88  C   UNL A   1      50.307  25.635  27.127  1.00  0.00     0.134 A 
ATOM     89  F   UNL A   1      49.078  27.279  24.130  1.00  0.00    -0.206 F 
ATOM     90  C   UNL A   1      51.168  26.307  24.574  1.00  0.00     0.040 A 
ATOM     91  C   UNL A   1      51.605  25.318  26.725  1.00  0.00     0.040 A 
ATOM     92  F   UNL A   1      49.933  25.288  28.367  1.00  0.00    -0.206 F 
ATOM     93  C   UNL A   1      52.036  25.647  25.441  1.00  0.00     0.006 A 
ENDBRANCH  69  86
ENDBRANCH  43  44
ENDBRANCH  35  38
ENDBRANCH  33  34
ENDBRANCH  32  33
ENDBRANCH   1  32
TORSDOF 16
ENDMDL
MODEL 3
REMARK VINA RESULT:     -12.0      1.885      2.674
REMARK SMILES O=C(C[C@@H]([NH2+]Cc1cccnc1)C(=O)NCCCNC(=O)c1ccc(-c2c3nc(c(-c4c(F)cccc4F)c4ccc([nH]4)c(-c4c(F)cccc4F)c4nc(c(-c5c(F)cccc5F)c5ccc2[nH]5)C=C4)C=C3)cc1)Nc1ccc2ccccc2c1
REMARK SMILES IDX 16 1 15 2 13 3 14 4 4 6 3 7 2 8 1 9 76 10 77 12 78 13 86 14
REMARK SMILES IDX 79 15 85 16 80 17 84 18 81 19 83 20 82 21 5 22 6 25 7 26
REMARK SMILES IDX 8 27 12 28 9 29 11 30 10 31 17 32 18 33 19 34 20 35 21 37
REMARK SMILES IDX 22 38 23 39 75 40 24 41 74 42 25 43 26 44 27 45 68 46 28 47
REMARK SMILES IDX 73 48 67 49 69 50 29 51 72 52 66 53 65 54 30 56 56 57 39 58
REMARK SMILES IDX 55 59 40 60 43 61 54 62 70 63 41 64 42 65 53 67 71 68 44 69
REMARK SMILES IDX 31 70 32 71 37 72 33 73 34 74 36 75 38 76 35 77 57 78 58 79
REMARK SMILES IDX 63 80 59 81 60 82 62 83 64 84 61 85 45 86 46 87 51 88 47 89
REMARK SMILES IDX 48 90 50 91 52 92 49 93
REMARK H PARENT 15 5 76 11 5 23 5 24 19 36 69 55 43 66
REMARK Flexibility Score: inf
ROOT
ATOM      1  C   UNL A   1      31.721  28.250  26.365  1.00  0.00     0.118 C 
ENDROOT
BRANCH   1   2
ATOM      2  N   UNL A   1      31.009  27.042  26.741  1.00  0.00    -0.351 N 
ATOM      3  C   UNL A   1      30.493  26.046  25.966  1.00  0.00     0.278 C 
ATOM      4  O   UNL A   1      29.924  25.115  26.543  1.00  0.00    -0.268 OA
ATOM      5  H   UNL A   1      30.880  26.922  27.709  1.00  0.00     0.163 HD
BRANCH   3   6
ATOM      6  C   UNL A   1      30.650  26.051  24.432  1.00  0.00     0.282 C 
BRANCH   6   7
ATOM      7  C   UNL A   1      30.943  24.619  23.929  1.00  0.00     0.175 C 
BRANCH   7   8
ATOM      8  C   UNL A   1      32.419  24.293  23.792  1.00  0.00     0.230 C 
ATOM      9  O   UNL A   1      32.968  24.227  22.698  1.00  0.00    -0.274 OA
ATOM     10  N   UNL A   1      33.022  24.058  25.019  1.00  0.00    -0.326 N 
ATOM     11  H   UNL A   1      32.566  24.365  25.835  1.00  0.00     0.169 HD
BRANCH  10  12
ATOM     12  C   UNL A   1      34.255  23.401  25.142  1.00  0.00     0.041 A 
ATOM     13  C   UNL A   1      34.281  22.034  24.870  1.00  0.00     0.027 A 
ATOM     14  C   UNL A   1      35.418  24.057  25.538  1.00  0.00     0.034 A 
ATOM     15  C   UNL A   1      35.488  21.346  24.856  1.00  0.00     0.011 A 
ATOM     16  C   UNL A   1      36.618  23.331  25.684  1.00  0.00    -0.016 A 
ATOM     17  C   UNL A   1      36.662  21.979  25.269  1.00  0.00    -0.018 A 
ATOM     18  C   UNL A   1      37.771  23.895  26.254  1.00  0.00     0.009 A 
ATOM     19  C   UNL A   1      37.870  21.270  25.316  1.00  0.00     0.009 A 
ATOM     20  C   UNL A   1      38.946  23.146  26.380  1.00  0.00     0.001 A 
ATOM     21  C   UNL A   1      39.004  21.848  25.879  1.00  0.00     0.001 A 
ENDBRANCH  10  12
ENDBRANCH   7   8
ENDBRANCH   6   7
BRANCH   6  22
ATOM     22  N   UNL A   1      29.475  26.692  23.762  1.00  0.00    -0.332 N 
ATOM     23  H   UNL A   1      28.860  27.067  24.485  1.00  0.00     0.347 HD
ATOM     24  H   UNL A   1      29.032  25.968  23.198  1.00  0.00     0.347 HD
BRANCH  22  25
ATOM     25  C   UNL A   1      29.823  27.791  22.837  1.00  0.00     0.299 C 
BRANCH  25  26
ATOM     26  C   UNL A   1      29.093  29.070  23.133  1.00  0.00     0.024 A 
ATOM     27  C   UNL A   1      29.759  30.197  23.615  1.00  0.00     0.013 A 
ATOM     28  C   UNL A   1      27.722  29.187  22.912  1.00  0.00     0.120 A 
ATOM     29  C   UNL A   1      29.053  31.379  23.819  1.00  0.00     0.021 A 
ATOM     30  N   UNL A   1      27.012  30.321  23.090  1.00  0.00    -0.264 NA
ATOM     31  C   UNL A   1      27.698  31.396  23.530  1.00  0.00     0.111 A 
ENDBRANCH  25  26
ENDBRANCH  22  25
ENDBRANCH   6  22
ENDBRANCH   3   6
ENDBRANCH   1   2
BRANCH   1  32
ATOM     32  C   UNL A   1      33.031  27.919  25.657  1.00  0.00     0.042 C 
BRANCH  32  33
ATOM     33  C   UNL A   1      34.236  28.639  26.247  1.00  0.00     0.118 C 
BRANCH  33  34
ATOM     34  N   UNL A   1      33.909  29.980  26.707  1.00  0.00    -0.352 N 
ATOM     35  C   UNL A   1      34.504  30.751  27.676  1.00  0.00     0.251 C 
ATOM     36  H   UNL A   1      33.143  30.400  26.252  1.00  0.00     0.163 HD
ATOM     37  O   UNL A   1      33.950  31.771  28.064  1.00  0.00    -0.269 OA
BRANCH  35  38
ATOM     38  C   UNL A   1      35.798  30.340  28.262  1.00  0.00     0.039 A 
ATOM     39  C   UNL A   1      35.793  29.579  29.435  1.00  0.00     0.014 A 
ATOM     40  C   UNL A   1      37.008  30.717  27.676  1.00  0.00     0.014 A 
ATOM     41  C   UNL A   1      37.003  29.143  29.980  1.00  0.00     0.010 A 
ATOM     42  C   UNL A   1      38.206  30.209  28.171  1.00  0.00     0.010 A 
ATOM     43  C   UNL A   1      38.217  29.422  29.331  1.00  0.00    -0.014 A 
BRANCH  43  44
ATOM     44  C   UNL A   1      39.506  28.902  29.852  1.00  0.00     0.031 A 
ATOM     45  C   UNL A   1      40.167  29.559  31.033  1.00  0.00     0.074 A 
ATOM     46  C   UNL A   1      40.110  27.874  29.226  1.00  0.00     0.049 A 
ATOM     47  N   UNL A   1      41.318  29.287  31.594  1.00  0.00    -0.248 NA
ATOM     48  C   UNL A   1      39.451  30.687  31.649  1.00  0.00     0.031 C 
ATOM     49  C   UNL A   1      39.592  27.178  28.047  1.00  0.00     0.029 A 
ATOM     50  N   UNL A   1      41.298  27.240  29.490  1.00  0.00    -0.354 N 
ATOM     51  C   UNL A   1      41.466  30.213  32.620  1.00  0.00     0.074 A 
ATOM     52  C   UNL A   1      40.320  31.093  32.563  1.00  0.00     0.031 C 
ATOM     53  C   UNL A   1      40.440  26.194  27.710  1.00  0.00     0.029 A 
ATOM     54  C   UNL A   1      41.582  26.217  28.616  1.00  0.00     0.049 A 
ATOM     55  H   UNL A   1      41.891  27.494  30.234  1.00  0.00     0.167 HD
ATOM     56  C   UNL A   1      42.455  30.305  33.542  1.00  0.00     0.037 A 
ATOM     57  C   UNL A   1      42.648  25.397  28.551  1.00  0.00     0.037 A 
ATOM     58  C   UNL A   1      43.590  29.421  33.600  1.00  0.00     0.049 A 
ATOM     59  C   UNL A   1      43.751  25.545  29.563  1.00  0.00     0.074 A 
ATOM     60  C   UNL A   1      44.623  29.404  34.521  1.00  0.00     0.029 A 
ATOM     61  N   UNL A   1      43.845  28.402  32.694  1.00  0.00    -0.354 N 
ATOM     62  N   UNL A   1      43.847  26.382  30.566  1.00  0.00    -0.248 NA
ATOM     63  C   UNL A   1      44.893  24.629  29.432  1.00  0.00     0.031 C 
ATOM     64  C   UNL A   1      45.529  28.409  34.141  1.00  0.00     0.029 A 
ATOM     65  C   UNL A   1      45.032  27.766  33.020  1.00  0.00     0.049 A 
ATOM     66  H   UNL A   1      43.267  28.164  31.934  1.00  0.00     0.167 HD
ATOM     67  C   UNL A   1      45.040  26.073  31.208  1.00  0.00     0.074 A 
ATOM     68  C   UNL A   1      45.625  24.962  30.485  1.00  0.00     0.031 C 
ATOM     69  C   UNL A   1      45.599  26.655  32.297  1.00  0.00     0.037 A 
BRANCH  56  70
ATOM     70  C   UNL A   1      42.347  31.404  34.560  1.00  0.00     0.057 A 
ATOM     71  C   UNL A   1      41.698  31.215  35.788  1.00  0.00     0.134 A 
ATOM     72  C   UNL A   1      42.917  32.662  34.321  1.00  0.00     0.134 A 
ATOM     73  F   UNL A   1      41.119  30.039  36.078  1.00  0.00    -0.206 F 
ATOM     74  C   UNL A   1      41.588  32.245  36.725  1.00  0.00     0.040 A 
ATOM     75  C   UNL A   1      42.841  33.690  35.264  1.00  0.00     0.040 A 
ATOM     76  F   UNL A   1      43.560  32.912  33.172  1.00  0.00    -0.206 F 
ATOM     77  C   UNL A   1      42.167  33.485  36.465  1.00  0.00     0.006 A 
ENDBRANCH  56  70
BRANCH  57  78
ATOM     78  C   UNL A   1      42.714  24.343  27.505  1.00  0.00     0.057 A 
ATOM     79  C   UNL A   1      43.094  24.655  26.195  1.00  0.00     0.134 A 
ATOM     80  C   UNL A   1      42.390  23.010  27.783  1.00  0.00     0.134 A 
ATOM     81  F   UNL A   1      43.399  25.918  25.862  1.00  0.00    -0.206 F 
ATOM     82  C   UNL A   1      43.127  23.684  25.192  1.00  0.00     0.040 A 
ATOM     83  C   UNL A   1      42.446  22.024  26.797  1.00  0.00     0.040 A 
ATOM     84  F   UNL A   1      42.027  22.645  29.021  1.00  0.00    -0.206 F 
ATOM     85  C   UNL A   1      42.807  22.362  25.494  1.00  0.00     0.006 A 
ENDBRANCH  57  78
BRANCH  69  86
ATOM     86  C   UNL A   1      46.888  26.073  32.801  1.00  0.00     0.057 A 
ATOM     87  C   UNL A   1      48.136  26.543  32.373  1.00  0.00     0.134 A 
ATOM     88  C   UNL A   1      46.878  25.049  33.759  1.00  0.00     0.134 A 
ATOM     89  F   UNL A   1      48.216  27.512  31.448  1.00  0.00    -0.206 F 
ATOM     90  C   UNL A   1      49.327  25.999  32.858  1.00  0.00     0.040 A 
ATOM     91  C   UNL A   1      48.062  24.519  34.274  1.00  0.00     0.040 A 
ATOM     92  F   UNL A   1      45.719  24.559  34.221  1.00  0.00    -0.206 F 
ATOM     93  C   UNL A   1      49.291  24.989  33.817  1.00  0.00     0.006 A 
ENDBRANCH  69  86
ENDBRANCH  43  44
ENDBRANCH  35  38
ENDBRANCH  33  34
ENDBRANCH  32  33
ENDBRANCH   1  32
TORSDOF 16
ENDMDL
