MODEL 1
REMARK VINA RESULT:     -11.6      0.000      0.000
REMARK SMILES COc1nc(-c2ccccc2)nc(C)c1CC(=O)NCCCNC(=O)c1ccc(-c2c3nc(c(-c4c(F)cccc4F)c4ccc([nH]4)c(-c4c(F)cccc4F)c4nc(c(-c5c(F)cccc5F)c5ccc2[nH]5)C=C4)C=C3)cc1
REMARK SMILES IDX 21 1 20 2 19 3 17 4 18 5 16 7 15 8 3 9 4 10 5 11 13 12 12 13
REMARK SMILES IDX 14 14 2 15 1 16 6 17 7 18 11 19 8 20 10 21 9 22 22 23 23 24
REMARK SMILES IDX 24 25 25 27 26 28 27 29 79 30 28 31 78 32 29 33 30 34 31 35
REMARK SMILES IDX 72 36 32 37 77 38 71 39 73 40 33 41 76 42 70 43 69 44 34 46
REMARK SMILES IDX 60 47 43 48 59 49 44 50 47 51 58 52 74 53 45 54 46 55 57 57
REMARK SMILES IDX 75 58 48 59 35 60 36 61 41 62 37 63 38 64 40 65 42 66 39 67
REMARK SMILES IDX 61 68 62 69 67 70 63 71 64 72 66 73 68 74 65 75 49 76 50 77
REMARK SMILES IDX 55 78 51 79 52 80 54 81 56 82 53 83
REMARK H PARENT 19 6 23 26 73 45 47 56
REMARK Flexibility Score: inf
ROOT
ATOM      1  C   UNL A   1      37.413  19.674  24.985  1.00  0.00     0.042 C 
ENDROOT
BRANCH   1   2
ATOM      2  C   UNL A   1      36.230  20.629  24.844  1.00  0.00     0.117 C 
BRANCH   2   3
ATOM      3  N   UNL A   1      35.023  20.129  25.474  1.00  0.00    -0.356 N 
ATOM      4  C   UNL A   1      33.711  20.396  25.212  1.00  0.00     0.224 C 
ATOM      5  O   UNL A   1      32.868  19.764  25.854  1.00  0.00    -0.275 OA
ATOM      6  H   UNL A   1      35.175  19.493  26.209  1.00  0.00     0.163 HD
BRANCH   4   7
ATOM      7  C   UNL A   1      33.298  21.385  24.131  1.00  0.00     0.143 C 
BRANCH   7   8
ATOM      8  C   UNL A   1      33.177  22.810  24.597  1.00  0.00     0.045 A 
ATOM      9  C   UNL A   1      32.086  23.211  25.359  1.00  0.00     0.220 A 
ATOM     10  N   UNL A   1      31.926  24.423  25.921  1.00  0.00    -0.193 NA
ATOM     11  C   UNL A   1      32.895  25.306  25.641  1.00  0.00     0.163 A 
ATOM     12  C   UNL A   1      34.106  23.807  24.352  1.00  0.00     0.049 A 
ATOM     13  N   UNL A   1      33.968  25.047  24.868  1.00  0.00    -0.233 NA
ATOM     14  C   UNL A   1      35.343  23.649  23.520  1.00  0.00     0.067 C 
BRANCH   9  15
ATOM     15  O   UNL A   1      31.010  22.352  25.414  1.00  0.00    -0.481 OA
ATOM     16  C   UNL A   1      30.201  22.586  26.560  1.00  0.00     0.280 C 
ENDBRANCH   9  15
BRANCH  11  17
ATOM     17  C   UNL A   1      32.833  26.659  26.207  1.00  0.00     0.019 A 
ATOM     18  C   UNL A   1      31.673  27.100  26.876  1.00  0.00     0.012 A 
ATOM     19  C   UNL A   1      33.884  27.578  26.049  1.00  0.00     0.012 A 
ATOM     20  C   UNL A   1      31.562  28.406  27.360  1.00  0.00     0.001 A 
ATOM     21  C   UNL A   1      33.768  28.892  26.518  1.00  0.00     0.001 A 
ATOM     22  C   UNL A   1      32.608  29.304  27.173  1.00  0.00     0.000 A 
ENDBRANCH  11  17
ENDBRANCH   7   8
ENDBRANCH   4   7
ENDBRANCH   2   3
ENDBRANCH   1   2
BRANCH   1  23
ATOM     23  C   UNL A   1      38.683  20.317  25.541  1.00  0.00     0.118 C 
BRANCH  23  24
ATOM     24  N   UNL A   1      39.783  19.372  25.668  1.00  0.00    -0.352 N 
ATOM     25  C   UNL A   1      41.094  19.561  26.025  1.00  0.00     0.251 C 
ATOM     26  H   UNL A   1      39.546  18.439  25.464  1.00  0.00     0.163 HD
ATOM     27  O   UNL A   1      41.892  18.639  25.879  1.00  0.00    -0.269 OA
BRANCH  25  28
ATOM     28  C   UNL A   1      41.567  20.853  26.573  1.00  0.00     0.039 A 
ATOM     29  C   UNL A   1      41.999  21.840  25.679  1.00  0.00     0.014 A 
ATOM     30  C   UNL A   1      41.650  21.080  27.949  1.00  0.00     0.014 A 
ATOM     31  C   UNL A   1      42.454  23.070  26.163  1.00  0.00     0.010 A 
ATOM     32  C   UNL A   1      42.040  22.331  28.428  1.00  0.00     0.010 A 
ATOM     33  C   UNL A   1      42.447  23.338  27.540  1.00  0.00    -0.014 A 
BRANCH  33  34
ATOM     34  C   UNL A   1      42.857  24.664  28.069  1.00  0.00     0.031 A 
ATOM     35  C   UNL A   1      41.829  25.727  28.337  1.00  0.00     0.074 A 
ATOM     36  C   UNL A   1      44.165  24.934  28.245  1.00  0.00     0.049 A 
ATOM     37  N   UNL A   1      42.002  26.970  28.713  1.00  0.00    -0.248 NA
ATOM     38  C   UNL A   1      40.421  25.353  28.132  1.00  0.00     0.031 C 
ATOM     39  C   UNL A   1      45.264  24.002  27.983  1.00  0.00     0.029 A 
ATOM     40  N   UNL A   1      44.793  26.077  28.672  1.00  0.00    -0.354 N 
ATOM     41  C   UNL A   1      40.731  27.527  28.774  1.00  0.00     0.074 A 
ATOM     42  C   UNL A   1      39.800  26.503  28.352  1.00  0.00     0.031 C 
ATOM     43  C   UNL A   1      46.429  24.605  28.269  1.00  0.00     0.029 A 
ATOM     44  C   UNL A   1      46.164  25.975  28.697  1.00  0.00     0.049 A 
ATOM     45  H   UNL A   1      44.309  26.892  28.935  1.00  0.00     0.167 HD
ATOM     46  C   UNL A   1      40.369  28.773  29.167  1.00  0.00     0.037 A 
ATOM     47  C   UNL A   1      47.101  26.886  29.019  1.00  0.00     0.037 A 
ATOM     48  C   UNL A   1      41.294  29.785  29.609  1.00  0.00     0.049 A 
ATOM     49  C   UNL A   1      46.675  28.263  29.446  1.00  0.00     0.074 A 
ATOM     50  C   UNL A   1      41.020  31.060  30.071  1.00  0.00     0.029 A 
ATOM     51  N   UNL A   1      42.671  29.634  29.642  1.00  0.00    -0.354 N 
ATOM     52  N   UNL A   1      45.466  28.758  29.550  1.00  0.00    -0.248 NA
ATOM     53  C   UNL A   1      47.744  29.206  29.802  1.00  0.00     0.031 C 
ATOM     54  C   UNL A   1      42.235  31.695  30.352  1.00  0.00     0.029 A 
ATOM     55  C   UNL A   1      43.264  30.800  30.104  1.00  0.00     0.049 A 
ATOM     56  H   UNL A   1      43.158  28.821  29.378  1.00  0.00     0.167 HD
ATOM     57  C   UNL A   1      45.626  30.059  30.011  1.00  0.00     0.074 A 
ATOM     58  C   UNL A   1      47.050  30.272  30.177  1.00  0.00     0.031 C 
ATOM     59  C   UNL A   1      44.681  30.993  30.273  1.00  0.00     0.037 A 
BRANCH  46  60
ATOM     60  C   UNL A   1      38.906  29.109  29.141  1.00  0.00     0.057 A 
ATOM     61  C   UNL A   1      38.115  29.040  30.295  1.00  0.00     0.134 A 
ATOM     62  C   UNL A   1      38.290  29.539  27.959  1.00  0.00     0.134 A 
ATOM     63  F   UNL A   1      38.641  28.625  31.456  1.00  0.00    -0.206 F 
ATOM     64  C   UNL A   1      36.756  29.361  30.268  1.00  0.00     0.040 A 
ATOM     65  C   UNL A   1      36.938  29.887  27.926  1.00  0.00     0.040 A 
ATOM     66  F   UNL A   1      38.992  29.636  26.820  1.00  0.00    -0.206 F 
ATOM     67  C   UNL A   1      36.166  29.793  29.082  1.00  0.00     0.006 A 
ENDBRANCH  46  60
BRANCH  47  68
ATOM     68  C   UNL A   1      48.539  26.521  28.967  1.00  0.00     0.057 A 
ATOM     69  C   UNL A   1      49.300  26.754  27.817  1.00  0.00     0.134 A 
ATOM     70  C   UNL A   1      49.183  25.924  30.058  1.00  0.00     0.134 A 
ATOM     71  F   UNL A   1      48.733  27.305  26.733  1.00  0.00    -0.206 F 
ATOM     72  C   UNL A   1      50.646  26.392  27.744  1.00  0.00     0.040 A 
ATOM     73  C   UNL A   1      50.534  25.579  30.008  1.00  0.00     0.040 A 
ATOM     74  F   UNL A   1      48.510  25.681  31.192  1.00  0.00    -0.206 F 
ATOM     75  C   UNL A   1      51.268  25.806  28.845  1.00  0.00     0.006 A 
ENDBRANCH  47  68
BRANCH  59  76
ATOM     76  C   UNL A   1      45.151  32.317  30.798  1.00  0.00     0.057 A 
ATOM     77  C   UNL A   1      45.438  33.391  29.946  1.00  0.00     0.134 A 
ATOM     78  C   UNL A   1      45.284  32.529  32.176  1.00  0.00     0.134 A 
ATOM     79  F   UNL A   1      45.343  33.247  28.616  1.00  0.00    -0.206 F 
ATOM     80  C   UNL A   1      45.861  34.623  30.445  1.00  0.00     0.040 A 
ATOM     81  C   UNL A   1      45.682  33.765  32.689  1.00  0.00     0.040 A 
ATOM     82  F   UNL A   1      45.018  31.543  33.046  1.00  0.00    -0.206 F 
ATOM     83  C   UNL A   1      45.977  34.815  31.822  1.00  0.00     0.006 A 
ENDBRANCH  59  76
ENDBRANCH  33  34
ENDBRANCH  25  28
ENDBRANCH  23  24
ENDBRANCH   1  23
TORSDOF 13
ENDMDL
MODEL 2
REMARK VINA RESULT:     -11.6      3.646      8.761
REMARK SMILES COc1nc(-c2ccccc2)nc(C)c1CC(=O)NCCCNC(=O)c1ccc(-c2c3nc(c(-c4c(F)cccc4F)c4ccc([nH]4)c(-c4c(F)cccc4F)c4nc(c(-c5c(F)cccc5F)c5ccc2[nH]5)C=C4)C=C3)cc1
REMARK SMILES IDX 21 1 20 2 19 3 17 4 18 5 16 7 15 8 3 9 4 10 5 11 13 12 12 13
REMARK SMILES IDX 14 14 2 15 1 16 6 17 7 18 11 19 8 20 10 21 9 22 22 23 23 24
REMARK SMILES IDX 24 25 25 27 26 28 27 29 79 30 28 31 78 32 29 33 30 34 31 35
REMARK SMILES IDX 72 36 32 37 77 38 71 39 73 40 33 41 76 42 70 43 69 44 34 46
REMARK SMILES IDX 60 47 43 48 59 49 44 50 47 51 58 52 74 53 45 54 46 55 57 57
REMARK SMILES IDX 75 58 48 59 35 60 36 61 41 62 37 63 38 64 40 65 42 66 39 67
REMARK SMILES IDX 61 68 62 69 67 70 63 71 64 72 66 73 68 74 65 75 49 76 50 77
REMARK SMILES IDX 55 78 51 79 52 80 54 81 56 82 53 83
REMARK H PARENT 19 6 23 26 73 45 47 56
REMARK Flexibility Score: inf
ROOT
ATOM      1  C   UNL A   1      31.198  31.158  26.060  1.00  0.00     0.042 C 
ENDROOT
BRANCH   1   2
ATOM      2  C   UNL A   1      31.434  29.805  25.391  1.00  0.00     0.117 C 
BRANCH   2   3
ATOM      3  N   UNL A   1      32.612  29.792  24.543  1.00  0.00    -0.356 N 
ATOM      4  C   UNL A   1      33.007  28.902  23.589  1.00  0.00     0.224 C 
ATOM      5  O   UNL A   1      34.026  29.176  22.950  1.00  0.00    -0.275 OA
ATOM      6  H   UNL A   1      33.225  30.550  24.679  1.00  0.00     0.163 HD
BRANCH   4   7
ATOM      7  C   UNL A   1      32.194  27.653  23.277  1.00  0.00     0.143 C 
BRANCH   7   8
ATOM      8  C   UNL A   1      32.909  26.356  23.545  1.00  0.00     0.045 A 
ATOM      9  C   UNL A   1      33.664  25.752  22.547  1.00  0.00     0.220 A 
ATOM     10  N   UNL A   1      34.431  24.656  22.701  1.00  0.00    -0.193 NA
ATOM     11  C   UNL A   1      34.379  24.099  23.919  1.00  0.00     0.163 A 
ATOM     12  C   UNL A   1      32.909  25.685  24.755  1.00  0.00     0.049 A 
ATOM     13  N   UNL A   1      33.637  24.564  24.943  1.00  0.00    -0.233 NA
ATOM     14  C   UNL A   1      32.138  26.099  25.972  1.00  0.00     0.067 C 
BRANCH   9  15
ATOM     15  O   UNL A   1      33.494  26.216  21.262  1.00  0.00    -0.481 OA
ATOM     16  C   UNL A   1      32.534  25.454  20.543  1.00  0.00     0.280 C 
ENDBRANCH   9  15
BRANCH  11  17
ATOM     17  C   UNL A   1      35.181  22.904  24.208  1.00  0.00     0.019 A 
ATOM     18  C   UNL A   1      34.573  21.748  24.741  1.00  0.00     0.012 A 
ATOM     19  C   UNL A   1      36.574  22.886  24.034  1.00  0.00     0.012 A 
ATOM     20  C   UNL A   1      35.325  20.624  25.092  1.00  0.00     0.001 A 
ATOM     21  C   UNL A   1      37.333  21.767  24.401  1.00  0.00     0.001 A 
ATOM     22  C   UNL A   1      36.706  20.638  24.928  1.00  0.00     0.000 A 
ENDBRANCH  11  17
ENDBRANCH   7   8
ENDBRANCH   4   7
ENDBRANCH   2   3
ENDBRANCH   1   2
BRANCH   1  23
ATOM     23  C   UNL A   1      32.372  31.662  26.898  1.00  0.00     0.118 C 
BRANCH  23  24
ATOM     24  N   UNL A   1      32.211  33.047  27.315  1.00  0.00    -0.352 N 
ATOM     25  C   UNL A   1      32.982  33.837  28.131  1.00  0.00     0.251 C 
ATOM     26  H   UNL A   1      31.414  33.495  26.950  1.00  0.00     0.163 HD
ATOM     27  O   UNL A   1      32.546  34.926  28.495  1.00  0.00    -0.269 OA
BRANCH  25  28
ATOM     28  C   UNL A   1      34.322  33.399  28.586  1.00  0.00     0.039 A 
ATOM     29  C   UNL A   1      34.417  32.665  29.774  1.00  0.00     0.014 A 
ATOM     30  C   UNL A   1      35.484  33.757  27.898  1.00  0.00     0.014 A 
ATOM     31  C   UNL A   1      35.666  32.238  30.234  1.00  0.00     0.010 A 
ATOM     32  C   UNL A   1      36.722  33.275  28.321  1.00  0.00     0.010 A 
ATOM     33  C   UNL A   1      36.826  32.511  29.494  1.00  0.00    -0.014 A 
BRANCH  33  34
ATOM     34  C   UNL A   1      38.154  32.005  29.928  1.00  0.00     0.031 A 
ATOM     35  C   UNL A   1      38.660  30.679  29.434  1.00  0.00     0.074 A 
ATOM     36  C   UNL A   1      38.875  32.710  30.820  1.00  0.00     0.049 A 
ATOM     37  N   UNL A   1      39.749  30.031  29.768  1.00  0.00    -0.248 NA
ATOM     38  C   UNL A   1      37.822  29.974  28.451  1.00  0.00     0.031 C 
ATOM     39  C   UNL A   1      38.477  33.991  31.407  1.00  0.00     0.029 A 
ATOM     40  N   UNL A   1      40.088  32.441  31.402  1.00  0.00    -0.354 N 
ATOM     41  C   UNL A   1      39.717  28.842  29.052  1.00  0.00     0.074 A 
ATOM     42  C   UNL A   1      38.481  28.834  28.301  1.00  0.00     0.031 C 
ATOM     43  C   UNL A   1      39.434  34.403  32.252  1.00  0.00     0.029 A 
ATOM     44  C   UNL A   1      40.494  33.401  32.298  1.00  0.00     0.049 A 
ATOM     45  H   UNL A   1      40.618  31.638  31.198  1.00  0.00     0.167 HD
ATOM     46  C   UNL A   1      40.644  27.854  29.007  1.00  0.00     0.037 A 
ATOM     47  C   UNL A   1      41.591  33.463  33.075  1.00  0.00     0.037 A 
ATOM     48  C   UNL A   1      41.885  27.872  29.737  1.00  0.00     0.049 A 
ATOM     49  C   UNL A   1      42.602  32.352  33.012  1.00  0.00     0.074 A 
ATOM     50  C   UNL A   1      42.909  26.941  29.721  1.00  0.00     0.029 A 
ATOM     51  N   UNL A   1      42.269  28.874  30.616  1.00  0.00    -0.354 N 
ATOM     52  N   UNL A   1      42.584  31.258  32.290  1.00  0.00    -0.248 NA
ATOM     53  C   UNL A   1      43.787  32.485  33.871  1.00  0.00     0.031 C 
ATOM     54  C   UNL A   1      43.898  27.363  30.616  1.00  0.00     0.029 A 
ATOM     55  C   UNL A   1      43.510  28.577  31.159  1.00  0.00     0.049 A 
ATOM     56  H   UNL A   1      41.741  29.678  30.823  1.00  0.00     0.167 HD
ATOM     57  C   UNL A   1      43.765  30.588  32.584  1.00  0.00     0.074 A 
ATOM     58  C   UNL A   1      44.481  31.405  33.542  1.00  0.00     0.031 C 
ATOM     59  C   UNL A   1      44.214  29.404  32.104  1.00  0.00     0.037 A 
BRANCH  46  60
ATOM     60  C   UNL A   1      40.351  26.670  28.133  1.00  0.00     0.057 A 
ATOM     61  C   UNL A   1      39.471  25.657  28.536  1.00  0.00     0.134 A 
ATOM     62  C   UNL A   1      40.925  26.558  26.860  1.00  0.00     0.134 A 
ATOM     63  F   UNL A   1      38.896  25.699  29.747  1.00  0.00    -0.206 F 
ATOM     64  C   UNL A   1      39.195  24.561  27.716  1.00  0.00     0.040 A 
ATOM     65  C   UNL A   1      40.636  25.480  26.021  1.00  0.00     0.040 A 
ATOM     66  F   UNL A   1      41.771  27.497  26.408  1.00  0.00    -0.206 F 
ATOM     67  C   UNL A   1      39.773  24.474  26.451  1.00  0.00     0.006 A 
ENDBRANCH  46  60
BRANCH  47  68
ATOM     68  C   UNL A   1      41.802  34.628  33.970  1.00  0.00     0.057 A 
ATOM     69  C   UNL A   1      42.450  35.780  33.511  1.00  0.00     0.134 A 
ATOM     70  C   UNL A   1      41.372  34.616  35.302  1.00  0.00     0.134 A 
ATOM     71  F   UNL A   1      42.902  35.843  32.250  1.00  0.00    -0.206 F 
ATOM     72  C   UNL A   1      42.680  36.873  34.348  1.00  0.00     0.040 A 
ATOM     73  C   UNL A   1      41.573  35.711  36.144  1.00  0.00     0.040 A 
ATOM     74  F   UNL A   1      40.738  33.545  35.800  1.00  0.00    -0.206 F 
ATOM     75  C   UNL A   1      42.236  36.841  35.668  1.00  0.00     0.006 A 
ENDBRANCH  47  68
BRANCH  59  76
ATOM     76  C   UNL A   1      45.558  28.937  32.580  1.00  0.00     0.057 A 
ATOM     77  C   UNL A   1      46.741  29.295  31.921  1.00  0.00     0.134 A 
ATOM     78  C   UNL A   1      45.671  28.147  33.731  1.00  0.00     0.134 A 
ATOM     79  F   UNL A   1      46.700  30.038  30.805  1.00  0.00    -0.206 F 
ATOM     80  C   UNL A   1      47.988  28.867  32.379  1.00  0.00     0.040 A 
ATOM     81  C   UNL A   1      46.913  27.734  34.213  1.00  0.00     0.040 A 
ATOM     82  F   UNL A   1      44.576  27.775  34.412  1.00  0.00    -0.206 F 
ATOM     83  C   UNL A   1      48.076  28.090  33.534  1.00  0.00     0.006 A 
ENDBRANCH  59  76
ENDBRANCH  33  34
ENDBRANCH  25  28
ENDBRANCH  23  24
ENDBRANCH   1  23
TORSDOF 13
ENDMDL
MODEL 3
REMARK VINA RESULT:     -11.6      1.038      1.835
REMARK SMILES COc1nc(-c2ccccc2)nc(C)c1CC(=O)NCCCNC(=O)c1ccc(-c2c3nc(c(-c4c(F)cccc4F)c4ccc([nH]4)c(-c4c(F)cccc4F)c4nc(c(-c5c(F)cccc5F)c5ccc2[nH]5)C=C4)C=C3)cc1
REMARK SMILES IDX 21 1 20 2 19 3 17 4 18 5 16 7 15 8 3 9 4 10 5 11 13 12 12 13
REMARK SMILES IDX 14 14 2 15 1 16 6 17 7 18 11 19 8 20 10 21 9 22 22 23 23 24
REMARK SMILES IDX 24 25 25 27 26 28 27 29 79 30 28 31 78 32 29 33 30 34 31 35
REMARK SMILES IDX 72 36 32 37 77 38 71 39 73 40 33 41 76 42 70 43 69 44 34 46
REMARK SMILES IDX 60 47 43 48 59 49 44 50 47 51 58 52 74 53 45 54 46 55 57 57
REMARK SMILES IDX 75 58 48 59 35 60 36 61 41 62 37 63 38 64 40 65 42 66 39 67
REMARK SMILES IDX 61 68 62 69 67 70 63 71 64 72 66 73 68 74 65 75 49 76 50 77
REMARK SMILES IDX 55 78 51 79 52 80 54 81 56 82 53 83
REMARK H PARENT 19 6 23 26 73 45 47 56
REMARK Flexibility Score: inf
ROOT
ATOM      1  C   UNL A   1      37.690  19.407  25.021  1.00  0.00     0.042 C 
ENDROOT
BRANCH   1   2
ATOM      2  C   UNL A   1      36.585  20.406  24.686  1.00  0.00     0.117 C 
BRANCH   2   3
ATOM      3  N   UNL A   1      35.330  20.103  25.349  1.00  0.00    -0.356 N 
ATOM      4  C   UNL A   1      34.087  20.637  25.179  1.00  0.00     0.224 C 
ATOM      5  O   UNL A   1      33.164  20.133  25.824  1.00  0.00    -0.275 OA
ATOM      6  H   UNL A   1      35.386  19.397  26.032  1.00  0.00     0.163 HD
BRANCH   4   7
ATOM      7  C   UNL A   1      33.831  21.765  24.189  1.00  0.00     0.143 C 
BRANCH   7   8
ATOM      8  C   UNL A   1      33.590  23.110  24.819  1.00  0.00     0.045 A 
ATOM      9  C   UNL A   1      34.628  24.026  24.937  1.00  0.00     0.220 A 
ATOM     10  N   UNL A   1      34.509  25.292  25.380  1.00  0.00    -0.193 NA
ATOM     11  C   UNL A   1      33.279  25.631  25.791  1.00  0.00     0.163 A 
ATOM     12  C   UNL A   1      32.369  23.558  25.293  1.00  0.00     0.049 A 
ATOM     13  N   UNL A   1      32.212  24.808  25.778  1.00  0.00    -0.233 NA
ATOM     14  C   UNL A   1      31.107  22.749  25.326  1.00  0.00     0.067 C 
BRANCH   9  15
ATOM     15  O   UNL A   1      35.907  23.557  24.733  1.00  0.00    -0.481 OA
ATOM     16  C   UNL A   1      36.773  23.884  25.811  1.00  0.00     0.280 C 
ENDBRANCH   9  15
BRANCH  11  17
ATOM     17  C   UNL A   1      33.025  26.989  26.287  1.00  0.00     0.019 A 
ATOM     18  C   UNL A   1      34.051  27.956  26.273  1.00  0.00     0.012 A 
ATOM     19  C   UNL A   1      31.791  27.356  26.848  1.00  0.00     0.012 A 
ATOM     20  C   UNL A   1      33.856  29.234  26.804  1.00  0.00     0.001 A 
ATOM     21  C   UNL A   1      31.599  28.629  27.398  1.00  0.00     0.001 A 
ATOM     22  C   UNL A   1      32.631  29.566  27.374  1.00  0.00     0.000 A 
ENDBRANCH  11  17
ENDBRANCH   7   8
ENDBRANCH   4   7
ENDBRANCH   2   3
ENDBRANCH   1   2
BRANCH   1  23
ATOM     23  C   UNL A   1      38.925  20.025  25.674  1.00  0.00     0.118 C 
BRANCH  23  24
ATOM     24  N   UNL A   1      40.021  19.077  25.817  1.00  0.00    -0.352 N 
ATOM     25  C   UNL A   1      41.350  19.273  26.092  1.00  0.00     0.251 C 
ATOM     26  H   UNL A   1      39.764  18.134  25.696  1.00  0.00     0.163 HD
ATOM     27  O   UNL A   1      42.130  18.331  25.976  1.00  0.00    -0.269 OA
BRANCH  25  28
ATOM     28  C   UNL A   1      41.864  20.596  26.517  1.00  0.00     0.039 A 
ATOM     29  C   UNL A   1      42.168  21.542  25.531  1.00  0.00     0.014 A 
ATOM     30  C   UNL A   1      42.109  20.891  27.860  1.00  0.00     0.014 A 
ATOM     31  C   UNL A   1      42.657  22.799  25.897  1.00  0.00     0.010 A 
ATOM     32  C   UNL A   1      42.533  22.168  28.228  1.00  0.00     0.010 A 
ATOM     33  C   UNL A   1      42.812  23.134  27.250  1.00  0.00    -0.014 A 
BRANCH  33  34
ATOM     34  C   UNL A   1      43.261  24.490  27.662  1.00  0.00     0.031 A 
ATOM     35  C   UNL A   1      42.255  25.546  28.025  1.00  0.00     0.074 A 
ATOM     36  C   UNL A   1      44.574  24.789  27.644  1.00  0.00     0.049 A 
ATOM     37  N   UNL A   1      42.450  26.807  28.322  1.00  0.00    -0.248 NA
ATOM     38  C   UNL A   1      40.841  25.140  28.034  1.00  0.00     0.031 C 
ATOM     39  C   UNL A   1      45.648  23.866  27.271  1.00  0.00     0.029 A 
ATOM     40  N   UNL A   1      45.229  25.960  27.932  1.00  0.00    -0.354 N 
ATOM     41  C   UNL A   1      41.187  27.345  28.536  1.00  0.00     0.074 A 
ATOM     42  C   UNL A   1      40.231  26.288  28.290  1.00  0.00     0.031 C 
ATOM     43  C   UNL A   1      46.826  24.500  27.368  1.00  0.00     0.029 A 
ATOM     44  C   UNL A   1      46.591  25.883  27.772  1.00  0.00     0.049 A 
ATOM     45  H   UNL A   1      44.767  26.778  28.226  1.00  0.00     0.167 HD
ATOM     46  C   UNL A   1      40.855  28.600  28.924  1.00  0.00     0.037 A 
ATOM     47  C   UNL A   1      47.543  26.823  27.922  1.00  0.00     0.037 A 
ATOM     48  C   UNL A   1      41.807  29.647  29.191  1.00  0.00     0.049 A 
ATOM     49  C   UNL A   1      47.149  28.210  28.347  1.00  0.00     0.074 A 
ATOM     50  C   UNL A   1      41.571  30.936  29.633  1.00  0.00     0.029 A 
ATOM     51  N   UNL A   1      43.180  29.521  29.039  1.00  0.00    -0.354 N 
ATOM     52  N   UNL A   1      45.955  28.689  28.597  1.00  0.00    -0.248 NA
ATOM     53  C   UNL A   1      48.234  29.186  28.512  1.00  0.00     0.031 C 
ATOM     54  C   UNL A   1      42.798  31.603  29.716  1.00  0.00     0.029 A 
ATOM     55  C   UNL A   1      43.803  30.716  29.365  1.00  0.00     0.049 A 
ATOM     56  H   UNL A   1      43.644  28.705  28.744  1.00  0.00     0.167 HD
ATOM     57  C   UNL A   1      46.147  30.011  28.977  1.00  0.00     0.074 A 
ATOM     58  C   UNL A   1      47.574  30.255  28.935  1.00  0.00     0.031 C 
ATOM     59  C   UNL A   1      45.225  30.939  29.328  1.00  0.00     0.037 A 
BRANCH  46  60
ATOM     60  C   UNL A   1      39.395  28.910  29.086  1.00  0.00     0.057 A 
ATOM     61  C   UNL A   1      38.610  29.346  28.011  1.00  0.00     0.134 A 
ATOM     62  C   UNL A   1      38.758  28.736  30.322  1.00  0.00     0.134 A 
ATOM     63  F   UNL A   1      39.161  29.543  26.804  1.00  0.00    -0.206 F 
ATOM     64  C   UNL A   1      37.251  29.624  28.165  1.00  0.00     0.040 A 
ATOM     65  C   UNL A   1      37.394  28.987  30.482  1.00  0.00     0.040 A 
ATOM     66  F   UNL A   1      39.449  28.313  31.392  1.00  0.00    -0.206 F 
ATOM     67  C   UNL A   1      36.637  29.438  29.402  1.00  0.00     0.006 A 
ENDBRANCH  46  60
BRANCH  47  68
ATOM     68  C   UNL A   1      48.968  26.480  27.687  1.00  0.00     0.057 A 
ATOM     69  C   UNL A   1      49.556  26.666  26.431  1.00  0.00     0.134 A 
ATOM     70  C   UNL A   1      49.772  25.953  28.705  1.00  0.00     0.134 A 
ATOM     71  F   UNL A   1      48.830  27.150  25.412  1.00  0.00    -0.206 F 
ATOM     72  C   UNL A   1      50.886  26.324  26.187  1.00  0.00     0.040 A 
ATOM     73  C   UNL A   1      51.111  25.629  28.482  1.00  0.00     0.040 A 
ATOM     74  F   UNL A   1      49.271  25.758  29.932  1.00  0.00    -0.206 F 
ATOM     75  C   UNL A   1      51.669  25.807  27.217  1.00  0.00     0.006 A 
ENDBRANCH  47  68
BRANCH  59  76
ATOM     76  C   UNL A   1      45.733  32.293  29.729  1.00  0.00     0.057 A 
ATOM     77  C   UNL A   1      45.925  33.317  28.792  1.00  0.00     0.134 A 
ATOM     78  C   UNL A   1      45.999  32.585  31.072  1.00  0.00     0.134 A 
ATOM     79  F   UNL A   1      45.700  33.097  27.488  1.00  0.00    -0.206 F 
ATOM     80  C   UNL A   1      46.383  34.578  29.176  1.00  0.00     0.040 A 
ATOM     81  C   UNL A   1      46.434  33.849  31.471  1.00  0.00     0.040 A 
ATOM     82  F   UNL A   1      45.830  31.649  32.019  1.00  0.00    -0.206 F 
ATOM     83  C   UNL A   1      46.633  34.849  30.521  1.00  0.00     0.006 A 
ENDBRANCH  59  76
ENDBRANCH  33  34
ENDBRANCH  25  28
ENDBRANCH  23  24
ENDBRANCH   1  23
TORSDOF 13
ENDMDL
