MODEL 1
REMARK VINA RESULT:     -11.9      0.000      0.000
REMARK SMILES C/C(=N/OCc1ccccc1Nc1c(Cl)cccc1Cl)C(=O)NCCCNC(=O)c1ccc(-c2c3nc(c(-c4c(F)cccc4F)c4ccc([nH]4)c(-c4c(F)cccc4F)c4nc(c(-c5c(F)cccc5F)c5ccc2[nH]5)C=C4)C=C3)cc1
REMARK SMILES IDX 21 1 22 2 23 3 2 5 1 6 3 7 4 8 5 9 6 10 7 11 11 12 8 13
REMARK SMILES IDX 10 14 9 15 12 16 13 18 14 19 19 20 15 21 16 22 18 23 20 24
REMARK SMILES IDX 17 25 24 26 25 27 26 28 27 29 28 30 29 32 30 33 31 34 83 35
REMARK SMILES IDX 32 36 82 37 33 38 34 39 35 40 76 41 36 42 81 43 75 44 77 45
REMARK SMILES IDX 37 46 80 47 74 48 73 49 38 51 64 52 47 53 63 54 48 55 51 56
REMARK SMILES IDX 62 57 78 58 49 59 50 60 61 62 79 63 52 64 39 65 40 66 45 67
REMARK SMILES IDX 41 68 42 69 44 70 46 71 43 72 65 73 66 74 71 75 67 76 68 77
REMARK SMILES IDX 70 78 72 79 69 80 53 81 54 82 59 83 55 84 56 85 58 86 60 87
REMARK SMILES IDX 57 88
REMARK H PARENT 23 4 12 17 27 31 77 50 51 61
REMARK Flexibility Score: inf
ROOT
ATOM      1  C   UNL A   1      30.762  25.139  25.941  1.00  0.00     0.268 C 
ATOM      2  O   UNL A   1      29.881  24.699  26.689  1.00  0.00    -0.268 OA
ATOM      3  N   UNL A   1      31.724  25.893  26.556  1.00  0.00    -0.351 N 
ATOM      4  H   UNL A   1      31.612  25.924  27.533  1.00  0.00     0.163 HD
ENDROOT
BRANCH   1   5
ATOM      5  C   UNL A   1      30.649  24.727  24.474  1.00  0.00     0.141 C 
ATOM      6  C   UNL A   1      30.084  25.831  23.592  1.00  0.00     0.077 C 
ATOM      7  N   UNL A   1      30.934  23.628  23.837  1.00  0.00    -0.086 NA
BRANCH   7   8
ATOM      8  O   UNL A   1      31.449  22.596  24.599  1.00  0.00    -0.390 OA
BRANCH   8   9
ATOM      9  C   UNL A   1      32.729  22.177  24.106  1.00  0.00     0.302 C 
BRANCH   9  10
ATOM     10  C   UNL A   1      32.965  20.675  24.008  1.00  0.00     0.016 A 
ATOM     11  C   UNL A   1      32.240  20.002  22.999  1.00  0.00     0.009 A 
ATOM     12  C   UNL A   1      33.785  19.917  24.875  1.00  0.00     0.045 A 
ATOM     13  C   UNL A   1      32.322  18.619  22.847  1.00  0.00     0.001 A 
ATOM     14  C   UNL A   1      33.870  18.527  24.689  1.00  0.00     0.026 A 
ATOM     15  C   UNL A   1      33.135  17.881  23.696  1.00  0.00     0.002 A 
BRANCH  12  16
ATOM     16  N   UNL A   1      34.528  20.551  25.887  1.00  0.00    -0.353 N 
ATOM     17  H   UNL A   1      34.237  20.323  26.800  1.00  0.00     0.167 HD
BRANCH  16  18
ATOM     18  C   UNL A   1      35.612  21.451  25.838  1.00  0.00     0.076 A 
ATOM     19  C   UNL A   1      35.433  22.784  26.261  1.00  0.00     0.066 A 
ATOM     20  C   UNL A   1      36.891  21.087  25.373  1.00  0.00     0.066 A 
ATOM     21  Cl  UNL A   1      33.937  23.307  26.956  1.00  0.00    -0.082 Cl
ATOM     22  C   UNL A   1      36.462  23.727  26.172  1.00  0.00     0.023 A 
ATOM     23  C   UNL A   1      37.927  22.029  25.301  1.00  0.00     0.023 A 
ATOM     24  Cl  UNL A   1      37.237  19.495  24.786  1.00  0.00    -0.082 Cl
ATOM     25  C   UNL A   1      37.709  23.350  25.688  1.00  0.00     0.003 A 
ENDBRANCH  16  18
ENDBRANCH  12  16
ENDBRANCH   9  10
ENDBRANCH   8   9
ENDBRANCH   7   8
ENDBRANCH   1   5
BRANCH   3  26
ATOM     26  C   UNL A   1      32.867  26.658  26.103  1.00  0.00     0.118 C 
BRANCH  26  27
ATOM     27  C   UNL A   1      32.985  27.981  26.860  1.00  0.00     0.042 C 
BRANCH  27  28
ATOM     28  C   UNL A   1      33.991  28.938  26.234  1.00  0.00     0.118 C 
BRANCH  28  29
ATOM     29  N   UNL A   1      33.839  30.290  26.751  1.00  0.00    -0.352 N 
ATOM     30  C   UNL A   1      34.547  30.942  27.727  1.00  0.00     0.251 C 
ATOM     31  H   UNL A   1      33.117  30.815  26.338  1.00  0.00     0.163 HD
ATOM     32  O   UNL A   1      34.116  32.002  28.185  1.00  0.00    -0.269 OA
BRANCH  30  33
ATOM     33  C   UNL A   1      35.817  30.389  28.240  1.00  0.00     0.039 A 
ATOM     34  C   UNL A   1      35.808  29.701  29.459  1.00  0.00     0.014 A 
ATOM     35  C   UNL A   1      37.021  30.587  27.560  1.00  0.00     0.014 A 
ATOM     36  C   UNL A   1      36.998  29.182  29.973  1.00  0.00     0.010 A 
ATOM     37  C   UNL A   1      38.191  29.999  28.031  1.00  0.00     0.010 A 
ATOM     38  C   UNL A   1      38.195  29.307  29.250  1.00  0.00    -0.014 A 
BRANCH  38  39
ATOM     39  C   UNL A   1      39.469  28.753  29.768  1.00  0.00     0.031 A 
ATOM     40  C   UNL A   1      40.126  29.372  30.969  1.00  0.00     0.074 A 
ATOM     41  C   UNL A   1      40.062  27.730  29.124  1.00  0.00     0.049 A 
ATOM     42  N   UNL A   1      41.269  29.076  31.536  1.00  0.00    -0.248 NA
ATOM     43  C   UNL A   1      39.417  30.497  31.601  1.00  0.00     0.031 C 
ATOM     44  C   UNL A   1      39.539  27.068  27.927  1.00  0.00     0.029 A 
ATOM     45  N   UNL A   1      41.236  27.072  29.383  1.00  0.00    -0.354 N 
ATOM     46  C   UNL A   1      41.421  29.986  32.574  1.00  0.00     0.074 A 
ATOM     47  C   UNL A   1      40.287  30.882  32.520  1.00  0.00     0.031 C 
ATOM     48  C   UNL A   1      40.370  26.073  27.579  1.00  0.00     0.029 A 
ATOM     49  C   UNL A   1      41.502  26.054  28.500  1.00  0.00     0.049 A 
ATOM     50  H   UNL A   1      41.832  27.307  30.130  1.00  0.00     0.167 HD
ATOM     51  C   UNL A   1      42.404  30.053  33.504  1.00  0.00     0.037 A 
ATOM     52  C   UNL A   1      42.541  25.201  28.444  1.00  0.00     0.037 A 
ATOM     53  C   UNL A   1      43.521  29.148  33.562  1.00  0.00     0.049 A 
ATOM     54  C   UNL A   1      43.632  25.308  29.472  1.00  0.00     0.074 A 
ATOM     55  C   UNL A   1      44.544  29.094  34.491  1.00  0.00     0.029 A 
ATOM     56  N   UNL A   1      43.758  28.132  32.646  1.00  0.00    -0.354 N 
ATOM     57  N   UNL A   1      43.738  26.137  30.483  1.00  0.00    -0.248 NA
ATOM     58  C   UNL A   1      44.747  24.360  29.350  1.00  0.00     0.031 C 
ATOM     59  C   UNL A   1      45.425  28.074  34.112  1.00  0.00     0.029 A 
ATOM     60  C   UNL A   1      44.925  27.461  32.974  1.00  0.00     0.049 A 
ATOM     61  H   UNL A   1      43.183  27.921  31.876  1.00  0.00     0.167 HD
ATOM     62  C   UNL A   1      44.914  25.792  31.136  1.00  0.00     0.074 A 
ATOM     63  C   UNL A   1      45.480  24.673  30.409  1.00  0.00     0.031 C 
ATOM     64  C   UNL A   1      45.471  26.347  32.240  1.00  0.00     0.037 A 
BRANCH  51  65
ATOM     65  C   UNL A   1      42.306  31.153  34.523  1.00  0.00     0.057 A 
ATOM     66  C   UNL A   1      41.589  30.994  35.718  1.00  0.00     0.134 A 
ATOM     67  C   UNL A   1      42.922  32.392  34.305  1.00  0.00     0.134 A 
ATOM     68  F   UNL A   1      40.962  29.838  35.985  1.00  0.00    -0.206 F 
ATOM     69  C   UNL A   1      41.450  32.039  36.634  1.00  0.00     0.040 A 
ATOM     70  C   UNL A   1      42.817  33.434  35.229  1.00  0.00     0.040 A 
ATOM     71  F   UNL A   1      43.631  32.613  33.188  1.00  0.00    -0.206 F 
ATOM     72  C   UNL A   1      42.069  33.262  36.392  1.00  0.00     0.006 A 
ENDBRANCH  51  65
BRANCH  52  73
ATOM     73  C   UNL A   1      42.568  24.139  27.409  1.00  0.00     0.057 A 
ATOM     74  C   UNL A   1      42.038  22.872  27.672  1.00  0.00     0.134 A 
ATOM     75  C   UNL A   1      43.102  24.365  26.134  1.00  0.00     0.134 A 
ATOM     76  F   UNL A   1      41.528  22.592  28.880  1.00  0.00    -0.206 F 
ATOM     77  C   UNL A   1      42.044  21.861  26.709  1.00  0.00     0.040 A 
ATOM     78  C   UNL A   1      43.095  23.371  25.154  1.00  0.00     0.040 A 
ATOM     79  F   UNL A   1      43.618  25.562  25.817  1.00  0.00    -0.206 F 
ATOM     80  C   UNL A   1      42.569  22.113  25.442  1.00  0.00     0.006 A 
ENDBRANCH  52  73
BRANCH  64  81
ATOM     81  C   UNL A   1      46.740  25.729  32.748  1.00  0.00     0.057 A 
ATOM     82  C   UNL A   1      47.997  26.112  32.261  1.00  0.00     0.134 A 
ATOM     83  C   UNL A   1      46.705  24.763  33.761  1.00  0.00     0.134 A 
ATOM     84  F   UNL A   1      48.098  27.022  31.280  1.00  0.00    -0.206 F 
ATOM     85  C   UNL A   1      49.172  25.539  32.750  1.00  0.00     0.040 A 
ATOM     86  C   UNL A   1      47.874  24.202  34.276  1.00  0.00     0.040 A 
ATOM     87  F   UNL A   1      45.534  24.358  34.275  1.00  0.00    -0.206 F 
ATOM     88  C   UNL A   1      49.112  24.586  33.766  1.00  0.00     0.006 A 
ENDBRANCH  64  81
ENDBRANCH  38  39
ENDBRANCH  30  33
ENDBRANCH  28  29
ENDBRANCH  27  28
ENDBRANCH  26  27
ENDBRANCH   3  26
TORSDOF 15
ENDMDL
MODEL 2
REMARK VINA RESULT:     -11.6      3.177      8.027
REMARK SMILES C/C(=N/OCc1ccccc1Nc1c(Cl)cccc1Cl)C(=O)NCCCNC(=O)c1ccc(-c2c3nc(c(-c4c(F)cccc4F)c4ccc([nH]4)c(-c4c(F)cccc4F)c4nc(c(-c5c(F)cccc5F)c5ccc2[nH]5)C=C4)C=C3)cc1
REMARK SMILES IDX 21 1 22 2 23 3 2 5 1 6 3 7 4 8 5 9 6 10 7 11 11 12 8 13
REMARK SMILES IDX 10 14 9 15 12 16 13 18 14 19 19 20 15 21 16 22 18 23 20 24
REMARK SMILES IDX 17 25 24 26 25 27 26 28 27 29 28 30 29 32 30 33 31 34 83 35
REMARK SMILES IDX 32 36 82 37 33 38 34 39 35 40 76 41 36 42 81 43 75 44 77 45
REMARK SMILES IDX 37 46 80 47 74 48 73 49 38 51 64 52 47 53 63 54 48 55 51 56
REMARK SMILES IDX 62 57 78 58 49 59 50 60 61 62 79 63 52 64 39 65 40 66 45 67
REMARK SMILES IDX 41 68 42 69 44 70 46 71 43 72 65 73 66 74 71 75 67 76 68 77
REMARK SMILES IDX 70 78 72 79 69 80 53 81 54 82 59 83 55 84 56 85 58 86 60 87
REMARK SMILES IDX 57 88
REMARK H PARENT 23 4 12 17 27 31 77 50 51 61
REMARK Flexibility Score: inf
ROOT
ATOM      1  C   UNL A   1      36.816  22.612  24.174  1.00  0.00     0.268 C 
ATOM      2  O   UNL A   1      36.892  23.282  23.137  1.00  0.00    -0.268 OA
ATOM      3  N   UNL A   1      37.055  21.274  24.020  1.00  0.00    -0.351 N 
ATOM      4  H   UNL A   1      37.323  21.041  23.102  1.00  0.00     0.163 HD
ENDROOT
BRANCH   1   5
ATOM      5  C   UNL A   1      36.515  23.399  25.448  1.00  0.00     0.141 C 
ATOM      6  C   UNL A   1      37.762  24.001  26.079  1.00  0.00     0.077 C 
ATOM      7  N   UNL A   1      35.414  23.650  26.097  1.00  0.00    -0.086 NA
BRANCH   7   8
ATOM      8  O   UNL A   1      34.256  23.120  25.560  1.00  0.00    -0.390 OA
BRANCH   8   9
ATOM      9  C   UNL A   1      33.264  22.909  26.575  1.00  0.00     0.302 C 
BRANCH   9  10
ATOM     10  C   UNL A   1      32.014  23.776  26.500  1.00  0.00     0.016 A 
ATOM     11  C   UNL A   1      30.814  23.166  26.928  1.00  0.00     0.009 A 
ATOM     12  C   UNL A   1      31.960  25.092  25.983  1.00  0.00     0.045 A 
ATOM     13  C   UNL A   1      29.593  23.833  26.851  1.00  0.00     0.001 A 
ATOM     14  C   UNL A   1      30.722  25.753  25.937  1.00  0.00     0.026 A 
ATOM     15  C   UNL A   1      29.547  25.127  26.351  1.00  0.00     0.002 A 
BRANCH  12  16
ATOM     16  N   UNL A   1      33.134  25.736  25.554  1.00  0.00    -0.353 N 
ATOM     17  H   UNL A   1      33.914  25.576  26.132  1.00  0.00     0.167 HD
BRANCH  16  18
ATOM     18  C   UNL A   1      33.401  26.568  24.447  1.00  0.00     0.076 A 
ATOM     19  C   UNL A   1      33.694  27.932  24.653  1.00  0.00     0.066 A 
ATOM     20  C   UNL A   1      33.385  26.104  23.117  1.00  0.00     0.066 A 
ATOM     21  Cl  UNL A   1      33.853  28.580  26.250  1.00  0.00    -0.082 Cl
ATOM     22  C   UNL A   1      33.904  28.807  23.583  1.00  0.00     0.023 A 
ATOM     23  C   UNL A   1      33.614  26.979  22.045  1.00  0.00     0.023 A 
ATOM     24  Cl  UNL A   1      33.000  24.463  22.720  1.00  0.00    -0.082 Cl
ATOM     25  C   UNL A   1      33.860  28.332  22.278  1.00  0.00     0.003 A 
ENDBRANCH  16  18
ENDBRANCH  12  16
ENDBRANCH   9  10
ENDBRANCH   8   9
ENDBRANCH   7   8
ENDBRANCH   1   5
BRANCH   3  26
ATOM     26  C   UNL A   1      37.004  20.120  24.894  1.00  0.00     0.118 C 
BRANCH  26  27
ATOM     27  C   UNL A   1      38.326  19.351  24.874  1.00  0.00     0.042 C 
BRANCH  27  28
ATOM     28  C   UNL A   1      39.283  19.782  25.978  1.00  0.00     0.118 C 
BRANCH  28  29
ATOM     29  N   UNL A   1      40.543  19.058  25.909  1.00  0.00    -0.352 N 
ATOM     30  C   UNL A   1      41.829  19.520  26.023  1.00  0.00     0.251 C 
ATOM     31  H   UNL A   1      40.460  18.090  25.756  1.00  0.00     0.163 HD
ATOM     32  O   UNL A   1      42.767  18.789  25.702  1.00  0.00    -0.269 OA
BRANCH  30  33
ATOM     33  C   UNL A   1      42.103  20.885  26.519  1.00  0.00     0.039 A 
ATOM     34  C   UNL A   1      42.026  21.128  27.895  1.00  0.00     0.014 A 
ATOM     35  C   UNL A   1      42.380  21.933  25.639  1.00  0.00     0.014 A 
ATOM     36  C   UNL A   1      42.266  22.413  28.388  1.00  0.00     0.010 A 
ATOM     37  C   UNL A   1      42.699  23.193  26.137  1.00  0.00     0.010 A 
ATOM     38  C   UNL A   1      42.627  23.449  27.514  1.00  0.00    -0.014 A 
BRANCH  38  39
ATOM     39  C   UNL A   1      42.899  24.819  28.014  1.00  0.00     0.031 A 
ATOM     40  C   UNL A   1      44.305  25.233  28.345  1.00  0.00     0.074 A 
ATOM     41  C   UNL A   1      41.875  25.668  28.223  1.00  0.00     0.049 A 
ATOM     42  N   UNL A   1      44.742  26.358  28.853  1.00  0.00    -0.248 NA
ATOM     43  C   UNL A   1      45.360  24.236  28.102  1.00  0.00     0.031 C 
ATOM     44  C   UNL A   1      40.464  25.370  27.972  1.00  0.00     0.029 A 
ATOM     45  N   UNL A   1      41.865  26.954  28.699  1.00  0.00    -0.354 N 
ATOM     46  C   UNL A   1      46.113  26.196  29.004  1.00  0.00     0.074 A 
ATOM     47  C   UNL A   1      46.426  24.845  28.595  1.00  0.00     0.031 C 
ATOM     48  C   UNL A   1      39.729  26.455  28.260  1.00  0.00     0.029 A 
ATOM     49  C   UNL A   1      40.610  27.509  28.754  1.00  0.00     0.049 A 
ATOM     50  H   UNL A   1      42.680  27.433  28.975  1.00  0.00     0.167 HD
ATOM     51  C   UNL A   1      47.032  27.099  29.423  1.00  0.00     0.037 A 
ATOM     52  C   UNL A   1      40.218  28.732  29.155  1.00  0.00     0.037 A 
ATOM     53  C   UNL A   1      46.715  28.448  29.812  1.00  0.00     0.049 A 
ATOM     54  C   UNL A   1      41.251  29.711  29.638  1.00  0.00     0.074 A 
ATOM     55  C   UNL A   1      47.573  29.460  30.202  1.00  0.00     0.029 A 
ATOM     56  N   UNL A   1      45.431  28.972  29.860  1.00  0.00    -0.354 N 
ATOM     57  N   UNL A   1      42.551  29.566  29.724  1.00  0.00    -0.248 NA
ATOM     58  C   UNL A   1      40.760  31.023  30.077  1.00  0.00     0.031 C 
ATOM     59  C   UNL A   1      46.804  30.583  30.529  1.00  0.00     0.029 A 
ATOM     60  C   UNL A   1      45.471  30.286  30.296  1.00  0.00     0.049 A 
ATOM     61  H   UNL A   1      44.612  28.481  29.621  1.00  0.00     0.167 HD
ATOM     62  C   UNL A   1      43.038  30.776  30.198  1.00  0.00     0.074 A 
ATOM     63  C   UNL A   1      41.892  31.647  30.373  1.00  0.00     0.031 C 
ATOM     64  C   UNL A   1      44.319  31.138  30.460  1.00  0.00     0.037 A 
BRANCH  51  65
ATOM     65  C   UNL A   1      48.462  26.642  29.483  1.00  0.00     0.057 A 
ATOM     66  C   UNL A   1      48.991  26.015  30.621  1.00  0.00     0.134 A 
ATOM     67  C   UNL A   1      49.326  26.841  28.400  1.00  0.00     0.134 A 
ATOM     68  F   UNL A   1      48.223  25.805  31.700  1.00  0.00    -0.206 F 
ATOM     69  C   UNL A   1      50.336  25.646  30.695  1.00  0.00     0.040 A 
ATOM     70  C   UNL A   1      50.665  26.448  28.450  1.00  0.00     0.040 A 
ATOM     71  F   UNL A   1      48.886  27.427  27.276  1.00  0.00    -0.206 F 
ATOM     72  C   UNL A   1      51.176  25.859  29.605  1.00  0.00     0.006 A 
ENDBRANCH  51  65
BRANCH  52  73
ATOM     73  C   UNL A   1      38.787  29.113  29.067  1.00  0.00     0.057 A 
ATOM     74  C   UNL A   1      38.246  29.578  27.863  1.00  0.00     0.134 A 
ATOM     75  C   UNL A   1      37.925  29.006  30.165  1.00  0.00     0.134 A 
ATOM     76  F   UNL A   1      39.027  29.718  26.782  1.00  0.00    -0.206 F 
ATOM     77  C   UNL A   1      36.900  29.933  27.754  1.00  0.00     0.040 A 
ATOM     78  C   UNL A   1      36.572  29.335  30.065  1.00  0.00     0.040 A 
ATOM     79  F   UNL A   1      38.381  28.558  31.344  1.00  0.00    -0.206 F 
ATOM     80  C   UNL A   1      36.058  29.805  28.857  1.00  0.00     0.006 A 
ENDBRANCH  52  73
BRANCH  64  81
ATOM     81  C   UNL A   1      44.549  32.544  30.929  1.00  0.00     0.057 A 
ATOM     82  C   UNL A   1      44.740  33.602  30.032  1.00  0.00     0.134 A 
ATOM     83  C   UNL A   1      44.547  32.846  32.297  1.00  0.00     0.134 A 
ATOM     84  F   UNL A   1      44.767  33.377  28.710  1.00  0.00    -0.206 F 
ATOM     85  C   UNL A   1      44.941  34.909  30.480  1.00  0.00     0.040 A 
ATOM     86  C   UNL A   1      44.721  34.151  32.756  1.00  0.00     0.040 A 
ATOM     87  F   UNL A   1      44.362  31.878  33.208  1.00  0.00    -0.206 F 
ATOM     88  C   UNL A   1      44.925  35.187  31.847  1.00  0.00     0.006 A 
ENDBRANCH  64  81
ENDBRANCH  38  39
ENDBRANCH  30  33
ENDBRANCH  28  29
ENDBRANCH  27  28
ENDBRANCH  26  27
ENDBRANCH   3  26
TORSDOF 15
ENDMDL
MODEL 3
REMARK VINA RESULT:     -11.6      2.024      3.455
REMARK SMILES C/C(=N/OCc1ccccc1Nc1c(Cl)cccc1Cl)C(=O)NCCCNC(=O)c1ccc(-c2c3nc(c(-c4c(F)cccc4F)c4ccc([nH]4)c(-c4c(F)cccc4F)c4nc(c(-c5c(F)cccc5F)c5ccc2[nH]5)C=C4)C=C3)cc1
REMARK SMILES IDX 21 1 22 2 23 3 2 5 1 6 3 7 4 8 5 9 6 10 7 11 11 12 8 13
REMARK SMILES IDX 10 14 9 15 12 16 13 18 14 19 19 20 15 21 16 22 18 23 20 24
REMARK SMILES IDX 17 25 24 26 25 27 26 28 27 29 28 30 29 32 30 33 31 34 83 35
REMARK SMILES IDX 32 36 82 37 33 38 34 39 35 40 76 41 36 42 81 43 75 44 77 45
REMARK SMILES IDX 37 46 80 47 74 48 73 49 38 51 64 52 47 53 63 54 48 55 51 56
REMARK SMILES IDX 62 57 78 58 49 59 50 60 61 62 79 63 52 64 39 65 40 66 45 67
REMARK SMILES IDX 41 68 42 69 44 70 46 71 43 72 65 73 66 74 71 75 67 76 68 77
REMARK SMILES IDX 70 78 72 79 69 80 53 81 54 82 59 83 55 84 56 85 58 86 60 87
REMARK SMILES IDX 57 88
REMARK H PARENT 23 4 12 17 27 31 77 50 51 61
REMARK Flexibility Score: inf
ROOT
ATOM      1  C   UNL A   1      33.243  25.883  23.840  1.00  0.00     0.268 C 
ATOM      2  O   UNL A   1      33.886  25.168  23.062  1.00  0.00    -0.268 OA
ATOM      3  N   UNL A   1      33.540  27.218  23.784  1.00  0.00    -0.351 N 
ATOM      4  H   UNL A   1      34.186  27.431  23.074  1.00  0.00     0.163 HD
ENDROOT
BRANCH   1   5
ATOM      5  C   UNL A   1      32.200  25.160  24.692  1.00  0.00     0.141 C 
ATOM      6  C   UNL A   1      30.790  25.291  24.137  1.00  0.00     0.077 C 
ATOM      7  N   UNL A   1      32.280  24.466  25.791  1.00  0.00    -0.086 NA
BRANCH   7   8
ATOM      8  O   UNL A   1      33.544  24.322  26.332  1.00  0.00    -0.390 OA
BRANCH   8   9
ATOM      9  C   UNL A   1      33.853  22.941  26.567  1.00  0.00     0.302 C 
BRANCH   9  10
ATOM     10  C   UNL A   1      35.193  22.443  26.042  1.00  0.00     0.016 A 
ATOM     11  C   UNL A   1      36.231  23.400  25.992  1.00  0.00     0.009 A 
ATOM     12  C   UNL A   1      35.447  21.140  25.552  1.00  0.00     0.045 A 
ATOM     13  C   UNL A   1      37.486  23.085  25.475  1.00  0.00     0.001 A 
ATOM     14  C   UNL A   1      36.726  20.838  25.056  1.00  0.00     0.026 A 
ATOM     15  C   UNL A   1      37.731  21.803  25.003  1.00  0.00     0.002 A 
BRANCH  12  16
ATOM     16  N   UNL A   1      34.442  20.157  25.591  1.00  0.00    -0.353 N 
ATOM     17  H   UNL A   1      34.062  20.007  26.486  1.00  0.00     0.167 HD
BRANCH  16  18
ATOM     18  C   UNL A   1      33.878  19.347  24.585  1.00  0.00     0.076 A 
ATOM     19  C   UNL A   1      32.776  19.820  23.843  1.00  0.00     0.066 A 
ATOM     20  C   UNL A   1      34.361  18.061  24.275  1.00  0.00     0.066 A 
ATOM     21  Cl  UNL A   1      32.176  21.429  24.063  1.00  0.00    -0.082 Cl
ATOM     22  C   UNL A   1      32.145  19.028  22.879  1.00  0.00     0.023 A 
ATOM     23  C   UNL A   1      33.739  17.273  23.294  1.00  0.00     0.023 A 
ATOM     24  Cl  UNL A   1      35.682  17.343  25.133  1.00  0.00    -0.082 Cl
ATOM     25  C   UNL A   1      32.624  17.752  22.606  1.00  0.00     0.003 A 
ENDBRANCH  16  18
ENDBRANCH  12  16
ENDBRANCH   9  10
ENDBRANCH   8   9
ENDBRANCH   7   8
ENDBRANCH   1   5
BRANCH   3  26
ATOM     26  C   UNL A   1      33.123  28.388  24.527  1.00  0.00     0.118 C 
BRANCH  26  27
ATOM     27  C   UNL A   1      32.850  28.046  25.993  1.00  0.00     0.042 C 
BRANCH  27  28
ATOM     28  C   UNL A   1      34.003  28.419  26.916  1.00  0.00     0.118 C 
BRANCH  28  29
ATOM     29  N   UNL A   1      33.851  29.765  27.447  1.00  0.00    -0.352 N 
ATOM     30  C   UNL A   1      34.699  30.500  28.235  1.00  0.00     0.251 C 
ATOM     31  H   UNL A   1      33.011  30.217  27.204  1.00  0.00     0.163 HD
ATOM     32  O   UNL A   1      34.288  31.530  28.773  1.00  0.00    -0.269 OA
BRANCH  30  33
ATOM     33  C   UNL A   1      36.096  30.069  28.452  1.00  0.00     0.039 A 
ATOM     34  C   UNL A   1      37.006  30.179  27.395  1.00  0.00     0.014 A 
ATOM     35  C   UNL A   1      36.500  29.511  29.667  1.00  0.00     0.014 A 
ATOM     36  C   UNL A   1      38.328  29.764  27.570  1.00  0.00     0.010 A 
ATOM     37  C   UNL A   1      37.836  29.175  29.866  1.00  0.00     0.010 A 
ATOM     38  C   UNL A   1      38.757  29.280  28.816  1.00  0.00    -0.014 A 
BRANCH  38  39
ATOM     39  C   UNL A   1      40.159  28.847  29.031  1.00  0.00     0.031 A 
ATOM     40  C   UNL A   1      41.143  29.777  29.683  1.00  0.00     0.074 A 
ATOM     41  C   UNL A   1      40.559  27.639  28.589  1.00  0.00     0.049 A 
ATOM     42  N   UNL A   1      42.424  29.611  29.902  1.00  0.00    -0.248 NA
ATOM     43  C   UNL A   1      40.624  31.083  30.119  1.00  0.00     0.031 C 
ATOM     44  C   UNL A   1      39.706  26.662  27.910  1.00  0.00     0.029 A 
ATOM     45  N   UNL A   1      41.787  27.031  28.640  1.00  0.00    -0.354 N 
ATOM     46  C   UNL A   1      42.862  30.794  30.483  1.00  0.00     0.074 A 
ATOM     47  C   UNL A   1      41.728  31.690  30.525  1.00  0.00     0.031 C 
ATOM     48  C   UNL A   1      40.427  25.562  27.643  1.00  0.00     0.029 A 
ATOM     49  C   UNL A   1      41.799  25.772  28.093  1.00  0.00     0.049 A 
ATOM     50  H   UNL A   1      42.583  27.457  29.032  1.00  0.00     0.167 HD
ATOM     51  C   UNL A   1      44.093  31.097  30.962  1.00  0.00     0.037 A 
ATOM     52  C   UNL A   1      42.805  24.887  27.972  1.00  0.00     0.037 A 
ATOM     53  C   UNL A   1      45.212  30.194  30.933  1.00  0.00     0.049 A 
ATOM     54  C   UNL A   1      44.168  25.252  28.489  1.00  0.00     0.074 A 
ATOM     55  C   UNL A   1      46.488  30.379  31.437  1.00  0.00     0.029 A 
ATOM     56  N   UNL A   1      45.187  28.928  30.365  1.00  0.00    -0.354 N 
ATOM     57  N   UNL A   1      44.558  26.352  29.087  1.00  0.00    -0.248 NA
ATOM     58  C   UNL A   1      45.229  24.252  28.314  1.00  0.00     0.031 C 
ATOM     59  C   UNL A   1      47.246  29.243  31.134  1.00  0.00     0.029 A 
ATOM     60  C   UNL A   1      46.431  28.330  30.484  1.00  0.00     0.049 A 
ATOM     61  H   UNL A   1      44.402  28.516  29.939  1.00  0.00     0.167 HD
ATOM     62  C   UNL A   1      45.901  26.165  29.388  1.00  0.00     0.074 A 
ATOM     63  C   UNL A   1      46.254  24.843  28.912  1.00  0.00     0.031 C 
ATOM     64  C   UNL A   1      46.762  27.010  30.007  1.00  0.00     0.037 A 
BRANCH  51  65
ATOM     65  C   UNL A   1      44.279  32.468  31.549  1.00  0.00     0.057 A 
ATOM     66  C   UNL A   1      44.707  33.554  30.771  1.00  0.00     0.134 A 
ATOM     67  C   UNL A   1      44.043  32.706  32.908  1.00  0.00     0.134 A 
ATOM     68  F   UNL A   1      44.965  33.394  29.465  1.00  0.00    -0.206 F 
ATOM     69  C   UNL A   1      44.937  34.812  31.333  1.00  0.00     0.040 A 
ATOM     70  C   UNL A   1      44.239  33.967  33.475  1.00  0.00     0.040 A 
ATOM     71  F   UNL A   1      43.625  31.715  33.711  1.00  0.00    -0.206 F 
ATOM     72  C   UNL A   1      44.699  35.021  32.689  1.00  0.00     0.006 A 
ENDBRANCH  51  65
BRANCH  52  73
ATOM     73  C   UNL A   1      42.546  23.551  27.382  1.00  0.00     0.057 A 
ATOM     74  C   UNL A   1      42.178  22.472  28.193  1.00  0.00     0.134 A 
ATOM     75  C   UNL A   1      42.636  23.323  26.003  1.00  0.00     0.134 A 
ATOM     76  F   UNL A   1      42.091  22.627  29.521  1.00  0.00    -0.206 F 
ATOM     77  C   UNL A   1      41.919  21.209  27.658  1.00  0.00     0.040 A 
ATOM     78  C   UNL A   1      42.358  22.071  25.451  1.00  0.00     0.040 A 
ATOM     79  F   UNL A   1      42.975  24.319  25.172  1.00  0.00    -0.206 F 
ATOM     80  C   UNL A   1      42.003  21.008  26.281  1.00  0.00     0.006 A 
ENDBRANCH  52  73
BRANCH  64  81
ATOM     81  C   UNL A   1      48.160  26.514  30.235  1.00  0.00     0.057 A 
ATOM     82  C   UNL A   1      48.519  25.820  31.397  1.00  0.00     0.134 A 
ATOM     83  C   UNL A   1      49.150  26.706  29.263  1.00  0.00     0.134 A 
ATOM     84  F   UNL A   1      47.621  25.616  32.373  1.00  0.00    -0.206 F 
ATOM     85  C   UNL A   1      49.819  25.352  31.593  1.00  0.00     0.040 A 
ATOM     86  C   UNL A   1      50.445  26.221  29.436  1.00  0.00     0.040 A 
ATOM     87  F   UNL A   1      48.868  27.357  28.124  1.00  0.00    -0.206 F 
ATOM     88  C   UNL A   1      50.786  25.546  30.607  1.00  0.00     0.006 A 
ENDBRANCH  64  81
ENDBRANCH  38  39
ENDBRANCH  30  33
ENDBRANCH  28  29
ENDBRANCH  27  28
ENDBRANCH  26  27
ENDBRANCH   3  26
TORSDOF 15
ENDMDL
