MODEL 1
REMARK VINA RESULT:     -12.7      0.000      0.000
REMARK SMILES Cc1cccc(C(=O)NCCCNC(=O)c2ccc(-c3c4nc(c(-c5c(F)cccc5F)c5ccc([nH]5)c(-c5c(F)cccc5F)c5nc(c(-c6c(F)cccc6F)c6ccc3[nH]6)C=C5)C=C4)cc2)c1OC[C@@H]1C[C@H]2CC[C@@H]1C2
REMARK SMILES IDX 10 1 9 2 7 3 8 4 6 6 1 7 2 8 3 9 70 10 4 11 5 12 71 13 72 14
REMARK SMILES IDX 73 15 74 16 78 17 75 18 77 19 79 20 76 21 11 22 12 23 13 24
REMARK SMILES IDX 14 25 15 27 16 28 17 29 69 30 18 31 68 32 19 33 20 34 21 35
REMARK SMILES IDX 62 36 22 37 67 38 61 39 63 40 23 41 66 42 60 43 59 44 24 46
REMARK SMILES IDX 50 47 33 48 49 49 34 50 37 51 48 52 64 53 35 54 36 55 47 57
REMARK SMILES IDX 65 58 38 59 25 60 26 61 31 62 27 63 28 64 30 65 32 66 29 67
REMARK SMILES IDX 51 68 52 69 57 70 53 71 54 72 56 73 58 74 55 75 39 76 40 77
REMARK SMILES IDX 45 78 41 79 42 80 44 81 46 82 43 83
REMARK H PARENT 9 5 13 26 63 45 37 56
REMARK Flexibility Score: inf
ROOT
ATOM      1  C   UNL A   1      32.280  30.060  25.869  1.00  0.00     0.118 C 
ENDROOT
BRANCH   1   2
ATOM      2  N   UNL A   1      31.728  28.875  26.478  1.00  0.00    -0.352 N 
ATOM      3  C   UNL A   1      31.756  27.553  26.134  1.00  0.00     0.255 C 
ATOM      4  O   UNL A   1      31.003  26.835  26.805  1.00  0.00    -0.269 OA
ATOM      5  H   UNL A   1      31.231  29.054  27.309  1.00  0.00     0.163 HD
BRANCH   3   6
ATOM      6  C   UNL A   1      32.617  26.882  25.099  1.00  0.00     0.082 A 
ATOM      7  C   UNL A   1      32.893  25.612  21.489  1.00  0.00     0.048 C 
ATOM      8  C   UNL A   1      33.196  25.937  22.927  1.00  0.00    -0.008 A 
ATOM      9  C   UNL A   1      34.060  25.023  23.563  1.00  0.00     0.007 A 
ATOM     10  C   UNL A   1      32.564  26.955  23.683  1.00  0.00     0.134 A 
ATOM     11  C   UNL A   1      34.218  25.030  24.936  1.00  0.00     0.001 A 
ATOM     12  C   UNL A   1      33.474  25.923  25.692  1.00  0.00     0.018 A 
BRANCH  10  13
ATOM     13  O   UNL A   1      31.814  27.927  23.090  1.00  0.00    -0.492 OA
BRANCH  13  14
ATOM     14  C   UNL A   1      30.395  27.742  22.884  1.00  0.00     0.233 C 
BRANCH  14  15
ATOM     15  C   UNL A   1      29.446  28.796  23.485  1.00  0.00     0.030 C 
ATOM     16  C   UNL A   1      27.987  28.676  22.949  1.00  0.00     0.011 C 
ATOM     17  C   UNL A   1      29.822  30.219  22.990  1.00  0.00    -0.004 C 
ATOM     18  C   UNL A   1      27.728  30.036  22.275  1.00  0.00    -0.010 C 
ATOM     19  C   UNL A   1      29.080  31.257  23.843  1.00  0.00     0.004 C 
ATOM     20  C   UNL A   1      29.087  30.328  21.652  1.00  0.00     0.007 C 
ATOM     21  C   UNL A   1      27.632  31.127  23.354  1.00  0.00     0.004 C 
ENDBRANCH  14  15
ENDBRANCH  13  14
ENDBRANCH  10  13
ENDBRANCH   3   6
ENDBRANCH   1   2
BRANCH   1  22
ATOM     22  C   UNL A   1      32.929  30.922  26.945  1.00  0.00     0.042 C 
BRANCH  22  23
ATOM     23  C   UNL A   1      34.108  30.281  27.638  1.00  0.00     0.118 C 
BRANCH  23  24
ATOM     24  N   UNL A   1      34.805  31.216  28.529  1.00  0.00    -0.352 N 
ATOM     25  C   UNL A   1      36.065  31.101  29.096  1.00  0.00     0.251 C 
ATOM     26  H   UNL A   1      34.310  32.035  28.755  1.00  0.00     0.163 HD
ATOM     27  O   UNL A   1      36.542  31.994  29.772  1.00  0.00    -0.269 OA
BRANCH  25  28
ATOM     28  C   UNL A   1      36.868  29.917  28.722  1.00  0.00     0.039 A 
ATOM     29  C   UNL A   1      37.026  28.943  29.711  1.00  0.00     0.014 A 
ATOM     30  C   UNL A   1      37.745  30.011  27.648  1.00  0.00     0.014 A 
ATOM     31  C   UNL A   1      38.235  28.265  29.783  1.00  0.00     0.010 A 
ATOM     32  C   UNL A   1      38.990  29.433  27.795  1.00  0.00     0.010 A 
ATOM     33  C   UNL A   1      39.256  28.625  28.907  1.00  0.00    -0.014 A 
BRANCH  33  34
ATOM     34  C   UNL A   1      40.654  28.292  29.158  1.00  0.00     0.031 A 
ATOM     35  C   UNL A   1      41.220  27.059  28.577  1.00  0.00     0.074 A 
ATOM     36  C   UNL A   1      41.432  29.123  29.887  1.00  0.00     0.049 A 
ATOM     37  N   UNL A   1      42.258  26.445  29.033  1.00  0.00    -0.248 NA
ATOM     38  C   UNL A   1      40.601  26.378  27.447  1.00  0.00     0.031 C 
ATOM     39  C   UNL A   1      42.886  29.077  30.033  1.00  0.00     0.029 A 
ATOM     40  N   UNL A   1      41.018  30.065  30.843  1.00  0.00    -0.354 N 
ATOM     41  C   UNL A   1      42.593  25.457  28.134  1.00  0.00     0.074 A 
ATOM     42  C   UNL A   1      41.500  25.425  27.193  1.00  0.00     0.031 C 
ATOM     43  C   UNL A   1      43.227  29.698  31.174  1.00  0.00     0.029 A 
ATOM     44  C   UNL A   1      41.994  30.031  31.866  1.00  0.00     0.049 A 
ATOM     45  H   UNL A   1      40.213  30.632  30.808  1.00  0.00     0.167 HD
ATOM     46  C   UNL A   1      43.817  24.862  28.224  1.00  0.00     0.037 A 
ATOM     47  C   UNL A   1      41.688  29.658  33.141  1.00  0.00     0.037 A 
ATOM     48  C   UNL A   1      44.539  25.325  29.406  1.00  0.00     0.049 A 
ATOM     49  C   UNL A   1      42.483  28.474  33.640  1.00  0.00     0.074 A 
ATOM     50  C   UNL A   1      45.493  26.313  29.596  1.00  0.00     0.029 A 
ATOM     51  N   UNL A   1      44.080  24.973  30.670  1.00  0.00    -0.354 N 
ATOM     52  N   UNL A   1      43.105  27.636  32.858  1.00  0.00    -0.248 NA
ATOM     53  C   UNL A   1      42.610  28.118  35.052  1.00  0.00     0.031 C 
ATOM     54  C   UNL A   1      45.561  26.597  30.982  1.00  0.00     0.029 A 
ATOM     55  C   UNL A   1      44.668  25.765  31.635  1.00  0.00     0.049 A 
ATOM     56  H   UNL A   1      43.427  24.260  30.850  1.00  0.00     0.167 HD
ATOM     57  C   UNL A   1      43.670  26.640  33.612  1.00  0.00     0.074 A 
ATOM     58  C   UNL A   1      43.352  26.998  34.981  1.00  0.00     0.031 C 
ATOM     59  C   UNL A   1      44.336  25.594  33.041  1.00  0.00     0.037 A 
BRANCH  46  60
ATOM     60  C   UNL A   1      44.464  24.109  27.081  1.00  0.00     0.057 A 
ATOM     61  C   UNL A   1      44.087  22.783  26.787  1.00  0.00     0.134 A 
ATOM     62  C   UNL A   1      45.511  24.596  26.282  1.00  0.00     0.134 A 
ATOM     63  F   UNL A   1      43.026  22.206  27.367  1.00  0.00    -0.206 F 
ATOM     64  C   UNL A   1      44.784  21.973  25.880  1.00  0.00     0.040 A 
ATOM     65  C   UNL A   1      46.255  23.783  25.414  1.00  0.00     0.040 A 
ATOM     66  F   UNL A   1      45.824  25.897  26.253  1.00  0.00    -0.206 F 
ATOM     67  C   UNL A   1      45.902  22.458  25.223  1.00  0.00     0.006 A 
ENDBRANCH  46  60
BRANCH  47  68
ATOM     68  C   UNL A   1      40.289  29.967  33.533  1.00  0.00     0.057 A 
ATOM     69  C   UNL A   1      39.970  31.279  33.925  1.00  0.00     0.134 A 
ATOM     70  C   UNL A   1      39.225  29.130  33.187  1.00  0.00     0.134 A 
ATOM     71  F   UNL A   1      40.945  32.135  34.274  1.00  0.00    -0.206 F 
ATOM     72  C   UNL A   1      38.664  31.773  33.861  1.00  0.00     0.040 A 
ATOM     73  C   UNL A   1      37.911  29.610  33.132  1.00  0.00     0.040 A 
ATOM     74  F   UNL A   1      39.450  27.872  32.783  1.00  0.00    -0.206 F 
ATOM     75  C   UNL A   1      37.634  30.944  33.430  1.00  0.00     0.006 A 
ENDBRANCH  47  68
BRANCH  59  76
ATOM     76  C   UNL A   1      44.801  24.345  33.747  1.00  0.00     0.057 A 
ATOM     77  C   UNL A   1      43.956  23.288  34.114  1.00  0.00     0.134 A 
ATOM     78  C   UNL A   1      46.181  24.105  33.936  1.00  0.00     0.134 A 
ATOM     79  F   UNL A   1      42.634  23.338  33.896  1.00  0.00    -0.206 F 
ATOM     80  C   UNL A   1      44.443  22.097  34.671  1.00  0.00     0.040 A 
ATOM     81  C   UNL A   1      46.681  22.902  34.441  1.00  0.00     0.040 A 
ATOM     82  F   UNL A   1      47.105  25.021  33.612  1.00  0.00    -0.206 F 
ATOM     83  C   UNL A   1      45.809  21.895  34.823  1.00  0.00     0.006 A 
ENDBRANCH  59  76
ENDBRANCH  33  34
ENDBRANCH  25  28
ENDBRANCH  23  24
ENDBRANCH  22  23
ENDBRANCH   1  22
TORSDOF 13
ENDMDL
MODEL 2
REMARK VINA RESULT:     -12.4      2.260      3.685
REMARK SMILES Cc1cccc(C(=O)NCCCNC(=O)c2ccc(-c3c4nc(c(-c5c(F)cccc5F)c5ccc([nH]5)c(-c5c(F)cccc5F)c5nc(c(-c6c(F)cccc6F)c6ccc3[nH]6)C=C5)C=C4)cc2)c1OC[C@@H]1C[C@H]2CC[C@@H]1C2
REMARK SMILES IDX 10 1 9 2 7 3 8 4 6 6 1 7 2 8 3 9 70 10 4 11 5 12 71 13 72 14
REMARK SMILES IDX 73 15 74 16 78 17 75 18 77 19 79 20 76 21 11 22 12 23 13 24
REMARK SMILES IDX 14 25 15 27 16 28 17 29 69 30 18 31 68 32 19 33 20 34 21 35
REMARK SMILES IDX 62 36 22 37 67 38 61 39 63 40 23 41 66 42 60 43 59 44 24 46
REMARK SMILES IDX 50 47 33 48 49 49 34 50 37 51 48 52 64 53 35 54 36 55 47 57
REMARK SMILES IDX 65 58 38 59 25 60 26 61 31 62 27 63 28 64 30 65 32 66 29 67
REMARK SMILES IDX 51 68 52 69 57 70 53 71 54 72 56 73 58 74 55 75 39 76 40 77
REMARK SMILES IDX 45 78 41 79 42 80 44 81 46 82 43 83
REMARK H PARENT 9 5 13 26 63 45 37 56
REMARK Flexibility Score: inf
ROOT
ATOM      1  C   UNL A   1      33.544  29.678  26.983  1.00  0.00     0.118 C 
ENDROOT
BRANCH   1   2
ATOM      2  N   UNL A   1      33.563  29.752  25.543  1.00  0.00    -0.352 N 
ATOM      3  C   UNL A   1      33.324  28.833  24.561  1.00  0.00     0.255 C 
ATOM      4  O   UNL A   1      33.622  29.214  23.422  1.00  0.00    -0.269 OA
ATOM      5  H   UNL A   1      33.796  30.644  25.197  1.00  0.00     0.163 HD
BRANCH   3   6
ATOM      6  C   UNL A   1      32.704  27.469  24.699  1.00  0.00     0.082 A 
ATOM      7  C   UNL A   1      29.647  25.431  25.804  1.00  0.00     0.048 C 
ATOM      8  C   UNL A   1      31.006  25.821  25.285  1.00  0.00    -0.008 A 
ATOM      9  C   UNL A   1      32.019  24.873  25.528  1.00  0.00     0.007 A 
ATOM     10  C   UNL A   1      31.339  27.090  24.748  1.00  0.00     0.134 A 
ATOM     11  C   UNL A   1      33.352  25.196  25.357  1.00  0.00     0.001 A 
ATOM     12  C   UNL A   1      33.686  26.490  24.986  1.00  0.00     0.018 A 
BRANCH  10  13
ATOM     13  O   UNL A   1      30.380  27.991  24.391  1.00  0.00    -0.492 OA
BRANCH  13  14
ATOM     14  C   UNL A   1      29.973  28.129  23.010  1.00  0.00     0.233 C 
BRANCH  14  15
ATOM     15  C   UNL A   1      29.674  29.550  22.496  1.00  0.00     0.030 C 
ATOM     16  C   UNL A   1      29.574  30.601  23.643  1.00  0.00     0.011 C 
ATOM     17  C   UNL A   1      28.241  29.629  21.903  1.00  0.00    -0.004 C 
ATOM     18  C   UNL A   1      28.140  31.150  23.517  1.00  0.00    -0.010 C 
ATOM     19  C   UNL A   1      28.095  30.943  21.123  1.00  0.00     0.004 C 
ATOM     20  C   UNL A   1      27.369  29.894  23.132  1.00  0.00     0.007 C 
ATOM     21  C   UNL A   1      28.032  31.995  22.237  1.00  0.00     0.004 C 
ENDBRANCH  14  15
ENDBRANCH  13  14
ENDBRANCH  10  13
ENDBRANCH   3   6
ENDBRANCH   1   2
BRANCH   1  22
ATOM     22  C   UNL A   1      34.966  29.820  27.513  1.00  0.00     0.042 C 
BRANCH  22  23
ATOM     23  C   UNL A   1      35.420  31.246  27.722  1.00  0.00     0.118 C 
BRANCH  23  24
ATOM     24  N   UNL A   1      34.306  32.141  28.054  1.00  0.00    -0.352 N 
ATOM     25  C   UNL A   1      34.225  33.090  29.061  1.00  0.00     0.251 C 
ATOM     26  H   UNL A   1      33.508  32.055  27.486  1.00  0.00     0.163 HD
ATOM     27  O   UNL A   1      33.250  33.810  29.180  1.00  0.00    -0.269 OA
BRANCH  25  28
ATOM     28  C   UNL A   1      35.430  33.298  29.892  1.00  0.00     0.039 A 
ATOM     29  C   UNL A   1      36.444  34.074  29.324  1.00  0.00     0.014 A 
ATOM     30  C   UNL A   1      35.688  32.417  30.936  1.00  0.00     0.014 A 
ATOM     31  C   UNL A   1      37.763  33.738  29.595  1.00  0.00     0.010 A 
ATOM     32  C   UNL A   1      36.993  32.002  31.106  1.00  0.00     0.010 A 
ATOM     33  C   UNL A   1      38.019  32.611  30.373  1.00  0.00    -0.014 A 
BRANCH  33  34
ATOM     34  C   UNL A   1      39.315  31.941  30.375  1.00  0.00     0.031 A 
ATOM     35  C   UNL A   1      39.476  30.673  29.638  1.00  0.00     0.074 A 
ATOM     36  C   UNL A   1      40.368  32.496  31.016  1.00  0.00     0.049 A 
ATOM     37  N   UNL A   1      40.388  29.795  29.883  1.00  0.00    -0.248 NA
ATOM     38  C   UNL A   1      38.555  30.265  28.585  1.00  0.00     0.031 C 
ATOM     39  C   UNL A   1      41.773  32.103  30.922  1.00  0.00     0.029 A 
ATOM     40  N   UNL A   1      40.336  33.412  32.081  1.00  0.00    -0.354 N 
ATOM     41  C   UNL A   1      40.340  28.847  28.885  1.00  0.00     0.074 A 
ATOM     42  C   UNL A   1      39.150  29.159  28.133  1.00  0.00     0.031 C 
ATOM     43  C   UNL A   1      42.413  32.515  32.027  1.00  0.00     0.029 A 
ATOM     44  C   UNL A   1      41.410  33.056  32.928  1.00  0.00     0.049 A 
ATOM     45  H   UNL A   1      39.697  34.150  32.210  1.00  0.00     0.167 HD
ATOM     46  C   UNL A   1      41.383  27.980  28.740  1.00  0.00     0.037 A 
ATOM     47  C   UNL A   1      41.209  32.643  34.212  1.00  0.00     0.037 A 
ATOM     48  C   UNL A   1      42.358  28.148  29.815  1.00  0.00     0.049 A 
ATOM     49  C   UNL A   1      41.755  31.265  34.504  1.00  0.00     0.074 A 
ATOM     50  C   UNL A   1      43.539  28.866  29.906  1.00  0.00     0.029 A 
ATOM     51  N   UNL A   1      42.012  27.792  31.114  1.00  0.00    -0.354 N 
ATOM     52  N   UNL A   1      42.037  30.385  33.584  1.00  0.00    -0.248 NA
ATOM     53  C   UNL A   1      41.992  30.756  35.854  1.00  0.00     0.031 C 
ATOM     54  C   UNL A   1      43.872  28.992  31.278  1.00  0.00     0.029 A 
ATOM     55  C   UNL A   1      42.907  28.330  32.016  1.00  0.00     0.049 A 
ATOM     56  H   UNL A   1      41.238  27.235  31.355  1.00  0.00     0.167 HD
ATOM     57  C   UNL A   1      42.444  29.218  34.176  1.00  0.00     0.074 A 
ATOM     58  C   UNL A   1      42.422  29.507  35.598  1.00  0.00     0.031 C 
ATOM     59  C   UNL A   1      42.748  28.106  33.445  1.00  0.00     0.037 A 
BRANCH  46  60
ATOM     60  C   UNL A   1      41.658  27.211  27.465  1.00  0.00     0.057 A 
ATOM     61  C   UNL A   1      41.605  25.803  27.448  1.00  0.00     0.134 A 
ATOM     62  C   UNL A   1      42.051  27.784  26.244  1.00  0.00     0.134 A 
ATOM     63  F   UNL A   1      41.131  25.101  28.486  1.00  0.00    -0.206 F 
ATOM     64  C   UNL A   1      42.042  25.034  26.360  1.00  0.00     0.040 A 
ATOM     65  C   UNL A   1      42.546  27.031  25.169  1.00  0.00     0.040 A 
ATOM     66  F   UNL A   1      41.915  29.094  26.009  1.00  0.00    -0.206 F 
ATOM     67  C   UNL A   1      42.559  25.648  25.232  1.00  0.00     0.006 A 
ENDBRANCH  46  60
BRANCH  47  68
ATOM     68  C   UNL A   1      39.997  33.227  34.842  1.00  0.00     0.057 A 
ATOM     69  C   UNL A   1      38.804  32.482  34.835  1.00  0.00     0.134 A 
ATOM     70  C   UNL A   1      40.075  34.294  35.740  1.00  0.00     0.134 A 
ATOM     71  F   UNL A   1      38.662  31.445  33.993  1.00  0.00    -0.206 F 
ATOM     72  C   UNL A   1      37.784  32.710  35.762  1.00  0.00     0.040 A 
ATOM     73  C   UNL A   1      39.053  34.542  36.665  1.00  0.00     0.040 A 
ATOM     74  F   UNL A   1      41.186  35.039  35.820  1.00  0.00    -0.206 F 
ATOM     75  C   UNL A   1      37.923  33.725  36.704  1.00  0.00     0.006 A 
ENDBRANCH  47  68
BRANCH  59  76
ATOM     76  C   UNL A   1      42.991  26.722  33.991  1.00  0.00     0.057 A 
ATOM     77  C   UNL A   1      44.241  26.087  33.999  1.00  0.00     0.134 A 
ATOM     78  C   UNL A   1      41.967  26.041  34.687  1.00  0.00     0.134 A 
ATOM     79  F   UNL A   1      45.326  26.668  33.466  1.00  0.00    -0.206 F 
ATOM     80  C   UNL A   1      44.448  24.845  34.613  1.00  0.00     0.040 A 
ATOM     81  C   UNL A   1      42.174  24.827  35.348  1.00  0.00     0.040 A 
ATOM     82  F   UNL A   1      40.725  26.539  34.776  1.00  0.00    -0.206 F 
ATOM     83  C   UNL A   1      43.418  24.217  35.302  1.00  0.00     0.006 A 
ENDBRANCH  59  76
ENDBRANCH  33  34
ENDBRANCH  25  28
ENDBRANCH  23  24
ENDBRANCH  22  23
ENDBRANCH   1  22
TORSDOF 13
ENDMDL
MODEL 3
REMARK VINA RESULT:     -12.3      1.181      3.497
REMARK SMILES Cc1cccc(C(=O)NCCCNC(=O)c2ccc(-c3c4nc(c(-c5c(F)cccc5F)c5ccc([nH]5)c(-c5c(F)cccc5F)c5nc(c(-c6c(F)cccc6F)c6ccc3[nH]6)C=C5)C=C4)cc2)c1OC[C@@H]1C[C@H]2CC[C@@H]1C2
REMARK SMILES IDX 10 1 9 2 7 3 8 4 6 6 1 7 2 8 3 9 70 10 4 11 5 12 71 13 72 14
REMARK SMILES IDX 73 15 74 16 78 17 75 18 77 19 79 20 76 21 11 22 12 23 13 24
REMARK SMILES IDX 14 25 15 27 16 28 17 29 69 30 18 31 68 32 19 33 20 34 21 35
REMARK SMILES IDX 62 36 22 37 67 38 61 39 63 40 23 41 66 42 60 43 59 44 24 46
REMARK SMILES IDX 50 47 33 48 49 49 34 50 37 51 48 52 64 53 35 54 36 55 47 57
REMARK SMILES IDX 65 58 38 59 25 60 26 61 31 62 27 63 28 64 30 65 32 66 29 67
REMARK SMILES IDX 51 68 52 69 57 70 53 71 54 72 56 73 58 74 55 75 39 76 40 77
REMARK SMILES IDX 45 78 41 79 42 80 44 81 46 82 43 83
REMARK H PARENT 9 5 13 26 63 45 37 56
REMARK Flexibility Score: inf
ROOT
ATOM      1  C   UNL A   1      31.769  30.434  26.128  1.00  0.00     0.118 C 
ENDROOT
BRANCH   1   2
ATOM      2  N   UNL A   1      31.653  29.166  26.805  1.00  0.00    -0.352 N 
ATOM      3  C   UNL A   1      31.398  27.898  26.367  1.00  0.00     0.255 C 
ATOM      4  O   UNL A   1      31.186  27.079  27.272  1.00  0.00    -0.269 OA
ATOM      5  H   UNL A   1      31.783  29.227  27.780  1.00  0.00     0.163 HD
BRANCH   3   6
ATOM      6  C   UNL A   1      31.404  27.386  24.953  1.00  0.00     0.082 A 
ATOM      7  C   UNL A   1      33.499  26.563  21.846  1.00  0.00     0.048 C 
ATOM      8  C   UNL A   1      32.346  26.759  22.794  1.00  0.00    -0.008 A 
ATOM      9  C   UNL A   1      31.130  27.104  22.170  1.00  0.00     0.007 A 
ATOM     10  C   UNL A   1      32.447  26.781  24.207  1.00  0.00     0.134 A 
ATOM     11  C   UNL A   1      30.060  27.575  22.908  1.00  0.00     0.001 A 
ATOM     12  C   UNL A   1      30.214  27.749  24.276  1.00  0.00     0.018 A 
BRANCH  10  13
ATOM     13  O   UNL A   1      33.566  26.344  24.852  1.00  0.00    -0.492 OA
BRANCH  13  14
ATOM     14  C   UNL A   1      33.780  24.933  25.085  1.00  0.00     0.233 C 
BRANCH  14  15
ATOM     15  C   UNL A   1      35.127  24.335  24.632  1.00  0.00     0.030 C 
ATOM     16  C   UNL A   1      34.958  23.098  23.699  1.00  0.00     0.011 C 
ATOM     17  C   UNL A   1      35.874  23.696  25.833  1.00  0.00    -0.004 C 
ATOM     18  C   UNL A   1      35.657  21.960  24.466  1.00  0.00    -0.010 C 
ATOM     19  C   UNL A   1      37.324  23.404  25.421  1.00  0.00     0.004 C 
ATOM     20  C   UNL A   1      35.279  22.288  25.904  1.00  0.00     0.007 C 
ATOM     21  C   UNL A   1      37.174  22.209  24.471  1.00  0.00     0.004 C 
ENDBRANCH  14  15
ENDBRANCH  13  14
ENDBRANCH  10  13
ENDBRANCH   3   6
ENDBRANCH   1   2
BRANCH   1  22
ATOM     22  C   UNL A   1      32.657  31.363  26.946  1.00  0.00     0.042 C 
BRANCH  22  23
ATOM     23  C   UNL A   1      33.771  30.668  27.695  1.00  0.00     0.118 C 
BRANCH  23  24
ATOM     24  N   UNL A   1      34.519  31.590  28.558  1.00  0.00    -0.352 N 
ATOM     25  C   UNL A   1      35.756  31.409  29.156  1.00  0.00     0.251 C 
ATOM     26  H   UNL A   1      34.082  32.453  28.737  1.00  0.00     0.163 HD
ATOM     27  O   UNL A   1      36.286  32.294  29.802  1.00  0.00    -0.269 OA
BRANCH  25  28
ATOM     28  C   UNL A   1      36.476  30.153  28.854  1.00  0.00     0.039 A 
ATOM     29  C   UNL A   1      36.687  29.288  29.931  1.00  0.00     0.014 A 
ATOM     30  C   UNL A   1      37.253  30.084  27.703  1.00  0.00     0.014 A 
ATOM     31  C   UNL A   1      37.870  28.565  29.976  1.00  0.00     0.010 A 
ATOM     32  C   UNL A   1      38.483  29.466  27.807  1.00  0.00     0.010 A 
ATOM     33  C   UNL A   1      38.820  28.776  28.978  1.00  0.00    -0.014 A 
BRANCH  33  34
ATOM     34  C   UNL A   1      40.221  28.405  29.143  1.00  0.00     0.031 A 
ATOM     35  C   UNL A   1      40.692  27.105  28.626  1.00  0.00     0.074 A 
ATOM     36  C   UNL A   1      41.087  29.259  29.733  1.00  0.00     0.049 A 
ATOM     37  N   UNL A   1      41.742  26.487  29.048  1.00  0.00    -0.248 NA
ATOM     38  C   UNL A   1      39.956  26.360  27.613  1.00  0.00     0.031 C 
ATOM     39  C   UNL A   1      42.545  29.164  29.764  1.00  0.00     0.029 A 
ATOM     40  N   UNL A   1      40.788  30.294  30.635  1.00  0.00    -0.354 N 
ATOM     41  C   UNL A   1      41.964  25.415  28.214  1.00  0.00     0.074 A 
ATOM     42  C   UNL A   1      40.796  25.352  27.370  1.00  0.00     0.031 C 
ATOM     43  C   UNL A   1      43.002  29.862  30.816  1.00  0.00     0.029 A 
ATOM     44  C   UNL A   1      41.845  30.303  31.574  1.00  0.00     0.049 A 
ATOM     45  H   UNL A   1      40.004  30.890  30.616  1.00  0.00     0.167 HD
ATOM     46  C   UNL A   1      43.170  24.778  28.255  1.00  0.00     0.037 A 
ATOM     47  C   UNL A   1      41.634  30.050  32.897  1.00  0.00     0.037 A 
ATOM     48  C   UNL A   1      44.005  25.306  29.331  1.00  0.00     0.049 A 
ATOM     49  C   UNL A   1      42.425  28.879  33.430  1.00  0.00     0.074 A 
ATOM     50  C   UNL A   1      45.005  26.264  29.357  1.00  0.00     0.029 A 
ATOM     51  N   UNL A   1      43.641  25.079  30.653  1.00  0.00    -0.354 N 
ATOM     52  N   UNL A   1      42.949  27.953  32.676  1.00  0.00    -0.248 NA
ATOM     53  C   UNL A   1      42.657  28.636  34.853  1.00  0.00     0.031 C 
ATOM     54  C   UNL A   1      45.200  26.659  30.704  1.00  0.00     0.029 A 
ATOM     55  C   UNL A   1      44.336  25.923  31.496  1.00  0.00     0.049 A 
ATOM     56  H   UNL A   1      42.980  24.412  30.946  1.00  0.00     0.167 HD
ATOM     57  C   UNL A   1      43.540  27.000  33.464  1.00  0.00     0.074 A 
ATOM     58  C   UNL A   1      43.350  27.483  34.819  1.00  0.00     0.031 C 
ATOM     59  C   UNL A   1      44.118  25.883  32.934  1.00  0.00     0.037 A 
BRANCH  46  60
ATOM     60  C   UNL A   1      43.691  23.906  27.133  1.00  0.00     0.057 A 
ATOM     61  C   UNL A   1      44.451  24.461  26.083  1.00  0.00     0.134 A 
ATOM     62  C   UNL A   1      43.422  22.536  26.982  1.00  0.00     0.134 A 
ATOM     63  F   UNL A   1      44.902  25.721  26.127  1.00  0.00    -0.206 F 
ATOM     64  C   UNL A   1      44.787  23.749  24.923  1.00  0.00     0.040 A 
ATOM     65  C   UNL A   1      43.700  21.825  25.804  1.00  0.00     0.040 A 
ATOM     66  F   UNL A   1      42.937  21.802  27.990  1.00  0.00    -0.206 F 
ATOM     67  C   UNL A   1      44.372  22.439  24.760  1.00  0.00     0.006 A 
ENDBRANCH  46  60
BRANCH  47  68
ATOM     68  C   UNL A   1      40.284  30.450  33.373  1.00  0.00     0.057 A 
ATOM     69  C   UNL A   1      40.033  31.809  33.633  1.00  0.00     0.134 A 
ATOM     70  C   UNL A   1      39.174  29.615  33.225  1.00  0.00     0.134 A 
ATOM     71  F   UNL A   1      41.056  32.666  33.789  1.00  0.00    -0.206 F 
ATOM     72  C   UNL A   1      38.739  32.336  33.627  1.00  0.00     0.040 A 
ATOM     73  C   UNL A   1      37.872  30.130  33.231  1.00  0.00     0.040 A 
ATOM     74  F   UNL A   1      39.331  28.312  32.955  1.00  0.00    -0.206 F 
ATOM     75  C   UNL A   1      37.654  31.498  33.392  1.00  0.00     0.006 A 
ENDBRANCH  47  68
BRANCH  59  76
ATOM     76  C   UNL A   1      44.595  24.678  33.704  1.00  0.00     0.057 A 
ATOM     77  C   UNL A   1      43.744  23.762  34.339  1.00  0.00     0.134 A 
ATOM     78  C   UNL A   1      45.962  24.318  33.688  1.00  0.00     0.134 A 
ATOM     79  F   UNL A   1      42.414  23.925  34.341  1.00  0.00    -0.206 F 
ATOM     80  C   UNL A   1      44.222  22.596  34.953  1.00  0.00     0.040 A 
ATOM     81  C   UNL A   1      46.442  23.132  34.251  1.00  0.00     0.040 A 
ATOM     82  F   UNL A   1      46.886  25.091  33.100  1.00  0.00    -0.206 F 
ATOM     83  C   UNL A   1      45.571  22.270  34.899  1.00  0.00     0.006 A 
ENDBRANCH  59  76
ENDBRANCH  33  34
ENDBRANCH  25  28
ENDBRANCH  23  24
ENDBRANCH  22  23
ENDBRANCH   1  22
TORSDOF 13
ENDMDL
