MODEL 1
REMARK VINA RESULT:     -13.3      0.000      0.000
REMARK SMILES Cc1cccc(-n2c(C)cc(/C=N\c3ccc(O)c(C(=O)NCCCNC(=O)c4ccc(-c5c6nc(c(-c7c(F)cccc7F)c7ccc([nH]7)c(-c7c(F)cccc7F)c7nc(c(-c8c(F)cccc8F)c8ccc5[nH]8)C=C7)C=C6)cc4)c3)c2C)c1
REMARK SMILES IDX 23 1 22 2 20 3 21 4 19 6 14 7 15 8 83 9 16 10 17 11 13 12
REMARK SMILES IDX 12 13 11 14 7 15 8 16 84 17 9 18 10 19 85 20 6 21 1 22 2 23
REMARK SMILES IDX 3 24 86 25 4 26 5 27 18 28 24 30 25 31 26 32 27 33 28 35
REMARK SMILES IDX 29 36 30 37 82 38 31 39 81 40 32 41 33 42 34 43 75 44 35 45
REMARK SMILES IDX 80 46 74 47 76 48 36 49 79 50 73 51 72 52 37 54 63 55 46 56
REMARK SMILES IDX 62 57 47 58 50 59 61 60 77 61 48 62 49 63 60 65 78 66 51 67
REMARK SMILES IDX 38 68 39 69 44 70 40 71 41 72 43 73 45 74 42 75 64 76 65 77
REMARK SMILES IDX 70 78 66 79 67 80 69 81 71 82 68 83 52 84 53 85 58 86 54 87
REMARK SMILES IDX 55 88 57 89 59 90 56 91
REMARK H PARENT 22 5 18 29 26 34 76 53 50 64
REMARK Flexibility Score: inf
ROOT
ATOM      1  C   UNL A   1      37.673  21.119  25.190  1.00  0.00     0.118 C 
ENDROOT
BRANCH   1   2
ATOM      2  N   UNL A   1      37.400  22.002  24.072  1.00  0.00    -0.352 N 
ATOM      3  C   UNL A   1      36.268  22.715  23.725  1.00  0.00     0.255 C 
ATOM      4  O   UNL A   1      36.366  23.462  22.751  1.00  0.00    -0.269 OA
ATOM      5  H   UNL A   1      38.156  22.114  23.451  1.00  0.00     0.163 HD
BRANCH   3   6
ATOM      6  C   UNL A   1      34.948  22.604  24.431  1.00  0.00     0.083 A 
ATOM      7  C   UNL A   1      32.520  22.553  24.238  1.00  0.00     0.064 A 
ATOM      8  C   UNL A   1      32.404  22.225  25.586  1.00  0.00     0.032 A 
ATOM      9  C   UNL A   1      33.791  22.559  23.637  1.00  0.00     0.046 A 
ATOM     10  C   UNL A   1      33.525  22.296  26.390  1.00  0.00     0.049 A 
ATOM     11  C   UNL A   1      34.731  22.675  25.811  1.00  0.00     0.128 A 
BRANCH   7  12
ATOM     12  N   UNL A   1      31.404  22.954  23.504  1.00  0.00    -0.256 NA
ATOM     13  C   UNL A   1      31.173  24.206  23.210  1.00  0.00     0.121 C 
BRANCH  13  14
ATOM     14  C   UNL A   1      31.927  25.439  23.501  1.00  0.00     0.014 A 
ATOM     15  N   UNL A   1      32.866  27.299  24.409  1.00  0.00    -0.318 N 
ATOM     16  C   UNL A   1      33.273  27.247  23.086  1.00  0.00     0.021 A 
ATOM     17  C   UNL A   1      32.213  26.095  24.700  1.00  0.00     0.029 A 
ATOM     18  C   UNL A   1      34.259  28.194  22.493  1.00  0.00     0.065 C 
ATOM     19  C   UNL A   1      32.674  26.145  22.508  1.00  0.00     0.033 A 
ATOM     20  C   UNL A   1      31.868  25.731  26.095  1.00  0.00     0.065 C 
BRANCH  15  21
ATOM     21  C   UNL A   1      33.025  28.413  25.295  1.00  0.00     0.046 A 
ATOM     22  C   UNL A   1      31.104  31.572  26.261  1.00  0.00     0.044 C 
ATOM     23  C   UNL A   1      32.118  30.466  26.242  1.00  0.00    -0.049 A 
ATOM     24  C   UNL A   1      33.091  30.417  27.249  1.00  0.00     0.003 A 
ATOM     25  C   UNL A   1      32.091  29.460  25.260  1.00  0.00     0.030 A 
ATOM     26  C   UNL A   1      34.051  29.408  27.253  1.00  0.00     0.002 A 
ATOM     27  C   UNL A   1      34.028  28.420  26.270  1.00  0.00     0.026 A 
ENDBRANCH  15  21
ENDBRANCH  13  14
ENDBRANCH   7  12
BRANCH  11  28
ATOM     28  O   UNL A   1      35.513  23.428  26.659  1.00  0.00    -0.507 OA
ATOM     29  H   UNL A   1      36.015  24.144  26.321  1.00  0.00     0.293 HD
ENDBRANCH  11  28
ENDBRANCH   3   6
ENDBRANCH   1   2
BRANCH   1  30
ATOM     30  C   UNL A   1      38.927  21.382  25.970  1.00  0.00     0.042 C 
BRANCH  30  31
ATOM     31  C   UNL A   1      39.202  22.833  26.255  1.00  0.00     0.118 C 
BRANCH  31  32
ATOM     32  N   UNL A   1      40.539  23.137  26.768  1.00  0.00    -0.352 N 
ATOM     33  C   UNL A   1      41.072  24.359  27.160  1.00  0.00     0.251 C 
ATOM     34  H   UNL A   1      41.147  22.366  26.847  1.00  0.00     0.163 HD
ATOM     35  O   UNL A   1      42.198  24.407  27.655  1.00  0.00    -0.269 OA
BRANCH  33  36
ATOM     36  C   UNL A   1      40.220  25.579  27.143  1.00  0.00     0.039 A 
ATOM     37  C   UNL A   1      40.654  26.670  26.388  1.00  0.00     0.014 A 
ATOM     38  C   UNL A   1      39.278  25.771  28.136  1.00  0.00     0.014 A 
ATOM     39  C   UNL A   1      40.430  27.955  26.876  1.00  0.00     0.010 A 
ATOM     40  C   UNL A   1      39.277  26.993  28.761  1.00  0.00     0.010 A 
ATOM     41  C   UNL A   1      39.894  28.087  28.152  1.00  0.00    -0.014 A 
BRANCH  41  42
ATOM     42  C   UNL A   1      39.979  29.292  28.969  1.00  0.00     0.031 A 
ATOM     43  C   UNL A   1      38.910  30.306  28.876  1.00  0.00     0.074 A 
ATOM     44  C   UNL A   1      40.928  29.381  29.927  1.00  0.00     0.049 A 
ATOM     45  N   UNL A   1      38.998  31.508  29.328  1.00  0.00    -0.248 NA
ATOM     46  C   UNL A   1      37.633  30.033  28.232  1.00  0.00     0.031 C 
ATOM     47  C   UNL A   1      40.985  30.326  31.040  1.00  0.00     0.029 A 
ATOM     48  N   UNL A   1      42.168  28.729  29.970  1.00  0.00    -0.354 N 
ATOM     49  C   UNL A   1      37.737  32.067  29.296  1.00  0.00     0.074 A 
ATOM     50  C   UNL A   1      36.937  31.122  28.558  1.00  0.00     0.031 C 
ATOM     51  C   UNL A   1      42.258  30.428  31.454  1.00  0.00     0.029 A 
ATOM     52  C   UNL A   1      43.075  29.664  30.528  1.00  0.00     0.049 A 
ATOM     53  H   UNL A   1      42.368  27.811  29.673  1.00  0.00     0.167 HD
ATOM     54  C   UNL A   1      37.507  33.211  30.002  1.00  0.00     0.037 A 
ATOM     55  C   UNL A   1      44.079  30.180  29.758  1.00  0.00     0.037 A 
ATOM     56  C   UNL A   1      38.760  33.738  30.554  1.00  0.00     0.049 A 
ATOM     57  C   UNL A   1      43.947  31.663  29.468  1.00  0.00     0.074 A 
ATOM     58  C   UNL A   1      39.375  33.684  31.794  1.00  0.00     0.029 A 
ATOM     59  N   UNL A   1      39.729  34.182  29.670  1.00  0.00    -0.354 N 
ATOM     60  N   UNL A   1      42.969  32.417  29.891  1.00  0.00    -0.248 NA
ATOM     61  C   UNL A   1      44.870  32.393  28.596  1.00  0.00     0.031 C 
ATOM     62  C   UNL A   1      40.749  34.032  31.620  1.00  0.00     0.029 A 
ATOM     63  C   UNL A   1      40.959  34.312  30.282  1.00  0.00     0.049 A 
ATOM     64  H   UNL A   1      39.560  34.381  28.721  1.00  0.00     0.167 HD
ATOM     65  C   UNL A   1      43.065  33.652  29.310  1.00  0.00     0.074 A 
ATOM     66  C   UNL A   1      44.282  33.599  28.524  1.00  0.00     0.031 C 
ATOM     67  C   UNL A   1      42.121  34.624  29.465  1.00  0.00     0.037 A 
BRANCH  54  68
ATOM     68  C   UNL A   1      36.139  33.740  30.383  1.00  0.00     0.057 A 
ATOM     69  C   UNL A   1      35.258  34.209  29.387  1.00  0.00     0.134 A 
ATOM     70  C   UNL A   1      35.636  33.878  31.691  1.00  0.00     0.134 A 
ATOM     71  F   UNL A   1      35.526  34.059  28.084  1.00  0.00    -0.206 F 
ATOM     72  C   UNL A   1      34.047  34.856  29.674  1.00  0.00     0.040 A 
ATOM     73  C   UNL A   1      34.453  34.566  31.996  1.00  0.00     0.040 A 
ATOM     74  F   UNL A   1      36.213  33.294  32.743  1.00  0.00    -0.206 F 
ATOM     75  C   UNL A   1      33.656  35.071  30.985  1.00  0.00     0.006 A 
ENDBRANCH  54  68
BRANCH  55  76
ATOM     76  C   UNL A   1      44.638  29.166  28.823  1.00  0.00     0.057 A 
ATOM     77  C   UNL A   1      45.496  28.180  29.344  1.00  0.00     0.134 A 
ATOM     78  C   UNL A   1      44.043  28.901  27.587  1.00  0.00     0.134 A 
ATOM     79  F   UNL A   1      46.108  28.374  30.524  1.00  0.00    -0.206 F 
ATOM     80  C   UNL A   1      45.639  26.930  28.737  1.00  0.00     0.040 A 
ATOM     81  C   UNL A   1      44.197  27.659  26.959  1.00  0.00     0.040 A 
ATOM     82  F   UNL A   1      43.194  29.780  27.036  1.00  0.00    -0.206 F 
ATOM     83  C   UNL A   1      44.955  26.654  27.559  1.00  0.00     0.006 A 
ENDBRANCH  55  76
BRANCH  67  84
ATOM     84  C   UNL A   1      42.249  35.973  28.831  1.00  0.00     0.057 A 
ATOM     85  C   UNL A   1      41.710  36.244  27.567  1.00  0.00     0.134 A 
ATOM     86  C   UNL A   1      43.027  36.992  29.406  1.00  0.00     0.134 A 
ATOM     87  F   UNL A   1      40.969  35.328  26.925  1.00  0.00    -0.206 F 
ATOM     88  C   UNL A   1      41.929  37.462  26.915  1.00  0.00     0.040 A 
ATOM     89  C   UNL A   1      43.294  38.193  28.745  1.00  0.00     0.040 A 
ATOM     90  F   UNL A   1      43.547  36.864  30.637  1.00  0.00    -0.206 F 
ATOM     91  C   UNL A   1      42.740  38.433  27.495  1.00  0.00     0.006 A 
ENDBRANCH  67  84
ENDBRANCH  41  42
ENDBRANCH  33  36
ENDBRANCH  31  32
ENDBRANCH  30  31
ENDBRANCH   1  30
TORSDOF 14
ENDMDL
MODEL 2
REMARK VINA RESULT:     -13.2      3.654      9.368
REMARK SMILES Cc1cccc(-n2c(C)cc(/C=N\c3ccc(O)c(C(=O)NCCCNC(=O)c4ccc(-c5c6nc(c(-c7c(F)cccc7F)c7ccc([nH]7)c(-c7c(F)cccc7F)c7nc(c(-c8c(F)cccc8F)c8ccc5[nH]8)C=C7)C=C6)cc4)c3)c2C)c1
REMARK SMILES IDX 23 1 22 2 20 3 21 4 19 6 14 7 15 8 83 9 16 10 17 11 13 12
REMARK SMILES IDX 12 13 11 14 7 15 8 16 84 17 9 18 10 19 85 20 6 21 1 22 2 23
REMARK SMILES IDX 3 24 86 25 4 26 5 27 18 28 24 30 25 31 26 32 27 33 28 35
REMARK SMILES IDX 29 36 30 37 82 38 31 39 81 40 32 41 33 42 34 43 75 44 35 45
REMARK SMILES IDX 80 46 74 47 76 48 36 49 79 50 73 51 72 52 37 54 63 55 46 56
REMARK SMILES IDX 62 57 47 58 50 59 61 60 77 61 48 62 49 63 60 65 78 66 51 67
REMARK SMILES IDX 38 68 39 69 44 70 40 71 41 72 43 73 45 74 42 75 64 76 65 77
REMARK SMILES IDX 70 78 66 79 67 80 69 81 71 82 68 83 52 84 53 85 58 86 54 87
REMARK SMILES IDX 55 88 57 89 59 90 56 91
REMARK H PARENT 22 5 18 29 26 34 76 53 50 64
REMARK Flexibility Score: inf
ROOT
ATOM      1  C   UNL A   1      32.290  30.604  26.631  1.00  0.00     0.118 C 
ENDROOT
BRANCH   1   2
ATOM      2  N   UNL A   1      31.861  29.383  27.287  1.00  0.00    -0.352 N 
ATOM      3  C   UNL A   1      31.669  28.104  26.802  1.00  0.00     0.255 C 
ATOM      4  O   UNL A   1      31.381  27.238  27.630  1.00  0.00    -0.269 OA
ATOM      5  H   UNL A   1      31.674  29.484  28.248  1.00  0.00     0.163 HD
BRANCH   3   6
ATOM      6  C   UNL A   1      31.753  27.726  25.351  1.00  0.00     0.083 A 
ATOM      7  C   UNL A   1      30.910  26.324  23.547  1.00  0.00     0.064 A 
ATOM      8  C   UNL A   1      31.663  27.036  22.618  1.00  0.00     0.032 A 
ATOM      9  C   UNL A   1      30.823  26.791  24.869  1.00  0.00     0.046 A 
ATOM     10  C   UNL A   1      32.608  27.936  23.074  1.00  0.00     0.049 A 
ATOM     11  C   UNL A   1      32.751  28.106  24.446  1.00  0.00     0.128 A 
BRANCH   7  12
ATOM     12  N   UNL A   1      30.310  25.113  23.199  1.00  0.00    -0.256 NA
ATOM     13  C   UNL A   1      30.750  23.963  23.638  1.00  0.00     0.121 C 
BRANCH  13  14
ATOM     14  C   UNL A   1      31.863  23.617  24.541  1.00  0.00     0.014 A 
ATOM     15  N   UNL A   1      33.864  23.151  25.512  1.00  0.00    -0.318 N 
ATOM     16  C   UNL A   1      32.890  22.938  26.473  1.00  0.00     0.021 A 
ATOM     17  C   UNL A   1      33.247  23.750  24.407  1.00  0.00     0.029 A 
ATOM     18  C   UNL A   1      33.197  22.610  27.895  1.00  0.00     0.065 C 
ATOM     19  C   UNL A   1      31.664  23.175  25.884  1.00  0.00     0.033 A 
ATOM     20  C   UNL A   1      34.050  24.327  23.302  1.00  0.00     0.065 C 
BRANCH  15  21
ATOM     21  C   UNL A   1      35.240  22.763  25.609  1.00  0.00     0.046 A 
ATOM     22  C   UNL A   1      37.400  19.726  24.764  1.00  0.00     0.044 C 
ATOM     23  C   UNL A   1      36.970  21.105  25.173  1.00  0.00    -0.049 A 
ATOM     24  C   UNL A   1      37.948  22.076  25.429  1.00  0.00     0.003 A 
ATOM     25  C   UNL A   1      35.612  21.453  25.268  1.00  0.00     0.030 A 
ATOM     26  C   UNL A   1      37.580  23.360  25.819  1.00  0.00     0.002 A 
ATOM     27  C   UNL A   1      36.231  23.698  25.925  1.00  0.00     0.026 A 
ENDBRANCH  15  21
ENDBRANCH  13  14
ENDBRANCH   7  12
BRANCH  11  28
ATOM     28  O   UNL A   1      34.056  28.339  24.819  1.00  0.00    -0.507 OA
ATOM     29  H   UNL A   1      34.313  28.234  25.714  1.00  0.00     0.293 HD
ENDBRANCH  11  28
ENDBRANCH   3   6
ENDBRANCH   1   2
BRANCH   1  30
ATOM     30  C   UNL A   1      33.268  31.464  27.376  1.00  0.00     0.042 C 
BRANCH  30  31
ATOM     31  C   UNL A   1      34.444  30.728  27.956  1.00  0.00     0.118 C 
BRANCH  31  32
ATOM     32  N   UNL A   1      35.528  31.568  28.469  1.00  0.00    -0.352 N 
ATOM     33  C   UNL A   1      36.808  31.203  28.865  1.00  0.00     0.251 C 
ATOM     34  H   UNL A   1      35.320  32.528  28.544  1.00  0.00     0.163 HD
ATOM     35  O   UNL A   1      37.621  32.069  29.188  1.00  0.00    -0.269 OA
BRANCH  33  36
ATOM     36  C   UNL A   1      37.250  29.788  28.733  1.00  0.00     0.039 A 
ATOM     37  C   UNL A   1      37.428  29.045  29.902  1.00  0.00     0.014 A 
ATOM     38  C   UNL A   1      37.845  29.362  27.561  1.00  0.00     0.014 A 
ATOM     39  C   UNL A   1      38.476  28.130  29.962  1.00  0.00     0.010 A 
ATOM     40  C   UNL A   1      39.026  28.673  27.680  1.00  0.00     0.010 A 
ATOM     41  C   UNL A   1      39.371  28.088  28.900  1.00  0.00    -0.014 A 
BRANCH  41  42
ATOM     42  C   UNL A   1      40.713  27.523  28.965  1.00  0.00     0.031 A 
ATOM     43  C   UNL A   1      40.920  26.105  28.609  1.00  0.00     0.074 A 
ATOM     44  C   UNL A   1      41.771  28.340  29.169  1.00  0.00     0.049 A 
ATOM     45  N   UNL A   1      41.981  25.428  28.878  1.00  0.00    -0.248 NA
ATOM     46  C   UNL A   1      39.906  25.320  27.918  1.00  0.00     0.031 C 
ATOM     47  C   UNL A   1      43.184  28.041  28.951  1.00  0.00     0.029 A 
ATOM     48  N   UNL A   1      41.781  29.584  29.816  1.00  0.00    -0.354 N 
ATOM     49  C   UNL A   1      41.920  24.244  28.174  1.00  0.00     0.074 A 
ATOM     50  C   UNL A   1      40.584  24.208  27.634  1.00  0.00     0.031 C 
ATOM     51  C   UNL A   1      43.922  28.874  29.701  1.00  0.00     0.029 A 
ATOM     52  C   UNL A   1      43.004  29.633  30.531  1.00  0.00     0.049 A 
ATOM     53  H   UNL A   1      41.084  30.278  29.781  1.00  0.00     0.167 HD
ATOM     54  C   UNL A   1      43.053  23.495  28.045  1.00  0.00     0.037 A 
ATOM     55  C   UNL A   1      42.992  29.627  31.898  1.00  0.00     0.037 A 
ATOM     56  C   UNL A   1      44.135  24.051  28.866  1.00  0.00     0.049 A 
ATOM     57  C   UNL A   1      43.582  28.377  32.523  1.00  0.00     0.074 A 
ATOM     58  C   UNL A   1      45.232  24.858  28.612  1.00  0.00     0.029 A 
ATOM     59  N   UNL A   1      43.984  24.039  30.242  1.00  0.00    -0.354 N 
ATOM     60  N   UNL A   1      44.061  27.367  31.849  1.00  0.00    -0.248 NA
ATOM     61  C   UNL A   1      43.592  28.132  33.967  1.00  0.00     0.031 C 
ATOM     62  C   UNL A   1      45.687  25.388  29.858  1.00  0.00     0.029 A 
ATOM     63  C   UNL A   1      44.879  24.889  30.863  1.00  0.00     0.049 A 
ATOM     64  H   UNL A   1      43.320  23.491  30.720  1.00  0.00     0.167 HD
ATOM     65  C   UNL A   1      44.350  26.344  32.711  1.00  0.00     0.074 A 
ATOM     66  C   UNL A   1      44.060  26.875  34.029  1.00  0.00     0.031 C 
ATOM     67  C   UNL A   1      44.759  25.111  32.294  1.00  0.00     0.037 A 
BRANCH  54  68
ATOM     68  C   UNL A   1      43.261  22.398  27.021  1.00  0.00     0.057 A 
ATOM     69  C   UNL A   1      42.500  21.213  27.088  1.00  0.00     0.134 A 
ATOM     70  C   UNL A   1      44.216  22.397  25.987  1.00  0.00     0.134 A 
ATOM     71  F   UNL A   1      41.476  21.082  27.941  1.00  0.00    -0.206 F 
ATOM     72  C   UNL A   1      42.745  20.095  26.278  1.00  0.00     0.040 A 
ATOM     73  C   UNL A   1      44.506  21.271  25.203  1.00  0.00     0.040 A 
ATOM     74  F   UNL A   1      44.871  23.500  25.619  1.00  0.00    -0.206 F 
ATOM     75  C   UNL A   1      43.777  20.106  25.354  1.00  0.00     0.006 A 
ENDBRANCH  54  68
BRANCH  55  76
ATOM     76  C   UNL A   1      41.850  30.408  32.447  1.00  0.00     0.057 A 
ATOM     77  C   UNL A   1      40.721  29.705  32.907  1.00  0.00     0.134 A 
ATOM     78  C   UNL A   1      42.009  31.720  32.899  1.00  0.00     0.134 A 
ATOM     79  F   UNL A   1      40.502  28.442  32.503  1.00  0.00    -0.206 F 
ATOM     80  C   UNL A   1      39.873  30.230  33.884  1.00  0.00     0.040 A 
ATOM     81  C   UNL A   1      41.152  32.263  33.864  1.00  0.00     0.040 A 
ATOM     82  F   UNL A   1      43.073  32.446  32.526  1.00  0.00    -0.206 F 
ATOM     83  C   UNL A   1      40.113  31.501  34.395  1.00  0.00     0.006 A 
ENDBRANCH  55  76
BRANCH  67  84
ATOM     84  C   UNL A   1      45.081  24.008  33.252  1.00  0.00     0.057 A 
ATOM     85  C   UNL A   1      44.132  23.041  33.604  1.00  0.00     0.134 A 
ATOM     86  C   UNL A   1      46.301  23.963  33.949  1.00  0.00     0.134 A 
ATOM     87  F   UNL A   1      42.927  23.012  33.011  1.00  0.00    -0.206 F 
ATOM     88  C   UNL A   1      44.383  22.080  34.589  1.00  0.00     0.040 A 
ATOM     89  C   UNL A   1      46.547  23.040  34.967  1.00  0.00     0.040 A 
ATOM     90  F   UNL A   1      47.304  24.805  33.656  1.00  0.00    -0.206 F 
ATOM     91  C   UNL A   1      45.587  22.090  35.288  1.00  0.00     0.006 A 
ENDBRANCH  67  84
ENDBRANCH  41  42
ENDBRANCH  33  36
ENDBRANCH  31  32
ENDBRANCH  30  31
ENDBRANCH   1  30
TORSDOF 14
ENDMDL
MODEL 3
REMARK VINA RESULT:     -12.9      3.846      9.379
REMARK SMILES Cc1cccc(-n2c(C)cc(/C=N\c3ccc(O)c(C(=O)NCCCNC(=O)c4ccc(-c5c6nc(c(-c7c(F)cccc7F)c7ccc([nH]7)c(-c7c(F)cccc7F)c7nc(c(-c8c(F)cccc8F)c8ccc5[nH]8)C=C7)C=C6)cc4)c3)c2C)c1
REMARK SMILES IDX 23 1 22 2 20 3 21 4 19 6 14 7 15 8 83 9 16 10 17 11 13 12
REMARK SMILES IDX 12 13 11 14 7 15 8 16 84 17 9 18 10 19 85 20 6 21 1 22 2 23
REMARK SMILES IDX 3 24 86 25 4 26 5 27 18 28 24 30 25 31 26 32 27 33 28 35
REMARK SMILES IDX 29 36 30 37 82 38 31 39 81 40 32 41 33 42 34 43 75 44 35 45
REMARK SMILES IDX 80 46 74 47 76 48 36 49 79 50 73 51 72 52 37 54 63 55 46 56
REMARK SMILES IDX 62 57 47 58 50 59 61 60 77 61 48 62 49 63 60 65 78 66 51 67
REMARK SMILES IDX 38 68 39 69 44 70 40 71 41 72 43 73 45 74 42 75 64 76 65 77
REMARK SMILES IDX 70 78 66 79 67 80 69 81 71 82 68 83 52 84 53 85 58 86 54 87
REMARK SMILES IDX 55 88 57 89 59 90 56 91
REMARK H PARENT 22 5 18 29 26 34 76 53 50 64
REMARK Flexibility Score: inf
ROOT
ATOM      1  C   UNL A   1      32.315  30.742  26.881  1.00  0.00     0.118 C 
ENDROOT
BRANCH   1   2
ATOM      2  N   UNL A   1      31.892  29.499  27.497  1.00  0.00    -0.352 N 
ATOM      3  C   UNL A   1      31.723  28.231  26.974  1.00  0.00     0.255 C 
ATOM      4  O   UNL A   1      31.436  27.340  27.775  1.00  0.00    -0.269 OA
ATOM      5  H   UNL A   1      31.691  29.571  28.458  1.00  0.00     0.163 HD
BRANCH   3   6
ATOM      6  C   UNL A   1      31.833  27.895  25.516  1.00  0.00     0.083 A 
ATOM      7  C   UNL A   1      31.015  26.550  23.657  1.00  0.00     0.064 A 
ATOM      8  C   UNL A   1      31.790  27.283  22.763  1.00  0.00     0.032 A 
ATOM      9  C   UNL A   1      30.906  26.980  24.990  1.00  0.00     0.046 A 
ATOM     10  C   UNL A   1      32.731  28.163  23.262  1.00  0.00     0.049 A 
ATOM     11  C   UNL A   1      32.849  28.293  24.641  1.00  0.00     0.128 A 
BRANCH   7  12
ATOM     12  N   UNL A   1      30.414  25.353  23.263  1.00  0.00    -0.256 NA
ATOM     13  C   UNL A   1      30.849  24.188  23.664  1.00  0.00     0.121 C 
BRANCH  13  14
ATOM     14  C   UNL A   1      31.956  23.807  24.560  1.00  0.00     0.014 A 
ATOM     15  N   UNL A   1      33.952  23.310  25.527  1.00  0.00    -0.318 N 
ATOM     16  C   UNL A   1      32.971  23.047  26.469  1.00  0.00     0.021 A 
ATOM     17  C   UNL A   1      33.340  23.955  24.445  1.00  0.00     0.029 A 
ATOM     18  C   UNL A   1      33.267  22.654  27.876  1.00  0.00     0.065 C 
ATOM     19  C   UNL A   1      31.748  23.303  25.880  1.00  0.00     0.033 A 
ATOM     20  C   UNL A   1      34.150  24.587  23.376  1.00  0.00     0.065 C 
BRANCH  15  21
ATOM     21  C   UNL A   1      35.329  22.926  25.618  1.00  0.00     0.046 A 
ATOM     22  C   UNL A   1      37.492  19.886  24.792  1.00  0.00     0.044 C 
ATOM     23  C   UNL A   1      37.061  21.268  25.188  1.00  0.00    -0.049 A 
ATOM     24  C   UNL A   1      38.038  22.244  25.427  1.00  0.00     0.003 A 
ATOM     25  C   UNL A   1      35.702  21.614  25.290  1.00  0.00     0.030 A 
ATOM     26  C   UNL A   1      37.669  23.532  25.805  1.00  0.00     0.002 A 
ATOM     27  C   UNL A   1      36.320  23.867  25.917  1.00  0.00     0.026 A 
ENDBRANCH  15  21
ENDBRANCH  13  14
ENDBRANCH   7  12
BRANCH  11  28
ATOM     28  O   UNL A   1      34.149  28.506  25.044  1.00  0.00    -0.507 OA
ATOM     29  H   UNL A   1      34.854  28.079  24.597  1.00  0.00     0.293 HD
ENDBRANCH  11  28
ENDBRANCH   3   6
ENDBRANCH   1   2
BRANCH   1  30
ATOM     30  C   UNL A   1      33.736  31.164  27.113  1.00  0.00     0.042 C 
BRANCH  30  31
ATOM     31  C   UNL A   1      34.414  30.488  28.272  1.00  0.00     0.118 C 
BRANCH  31  32
ATOM     32  N   UNL A   1      35.328  31.328  29.050  1.00  0.00    -0.352 N 
ATOM     33  C   UNL A   1      36.610  31.043  29.503  1.00  0.00     0.251 C 
ATOM     34  H   UNL A   1      34.985  32.221  29.286  1.00  0.00     0.163 HD
ATOM     35  O   UNL A   1      37.267  31.914  30.073  1.00  0.00    -0.269 OA
BRANCH  33  36
ATOM     36  C   UNL A   1      37.250  29.747  29.150  1.00  0.00     0.039 A 
ATOM     37  C   UNL A   1      37.395  28.791  30.158  1.00  0.00     0.014 A 
ATOM     38  C   UNL A   1      38.025  29.654  28.009  1.00  0.00     0.014 A 
ATOM     39  C   UNL A   1      38.544  28.004  30.175  1.00  0.00     0.010 A 
ATOM     40  C   UNL A   1      39.267  29.088  28.148  1.00  0.00     0.010 A 
ATOM     41  C   UNL A   1      39.550  28.292  29.260  1.00  0.00    -0.014 A 
BRANCH  41  42
ATOM     42  C   UNL A   1      40.940  27.875  29.394  1.00  0.00     0.031 A 
ATOM     43  C   UNL A   1      41.376  26.602  28.787  1.00  0.00     0.074 A 
ATOM     44  C   UNL A   1      41.847  28.737  29.906  1.00  0.00     0.049 A 
ATOM     45  N   UNL A   1      42.482  26.001  29.057  1.00  0.00    -0.248 NA
ATOM     46  C   UNL A   1      40.562  25.884  27.815  1.00  0.00     0.031 C 
ATOM     47  C   UNL A   1      43.303  28.648  29.831  1.00  0.00     0.029 A 
ATOM     48  N   UNL A   1      41.616  29.800  30.790  1.00  0.00    -0.354 N 
ATOM     49  C   UNL A   1      42.662  25.002  28.123  1.00  0.00     0.074 A 
ATOM     50  C   UNL A   1      41.413  24.943  27.406  1.00  0.00     0.031 C 
ATOM     51  C   UNL A   1      43.832  29.369  30.831  1.00  0.00     0.029 A 
ATOM     52  C   UNL A   1      42.732  29.822  31.664  1.00  0.00     0.049 A 
ATOM     53  H   UNL A   1      40.839  30.406  30.802  1.00  0.00     0.167 HD
ATOM     54  C   UNL A   1      43.894  24.428  28.002  1.00  0.00     0.037 A 
ATOM     55  C   UNL A   1      42.567  29.513  32.984  1.00  0.00     0.037 A 
ATOM     56  C   UNL A   1      44.790  24.903  29.062  1.00  0.00     0.049 A 
ATOM     57  C   UNL A   1      43.247  28.227  33.416  1.00  0.00     0.074 A 
ATOM     58  C   UNL A   1      45.789  25.860  29.134  1.00  0.00     0.029 A 
ATOM     59  N   UNL A   1      44.489  24.571  30.371  1.00  0.00    -0.354 N 
ATOM     60  N   UNL A   1      43.932  27.449  32.622  1.00  0.00    -0.248 NA
ATOM     61  C   UNL A   1      43.127  27.672  34.765  1.00  0.00     0.031 C 
ATOM     62  C   UNL A   1      46.025  26.147  30.513  1.00  0.00     0.029 A 
ATOM     63  C   UNL A   1      45.184  25.354  31.271  1.00  0.00     0.049 A 
ATOM     64  H   UNL A   1      43.856  23.862  30.629  1.00  0.00     0.167 HD
ATOM     65  C   UNL A   1      44.258  26.298  33.287  1.00  0.00     0.074 A 
ATOM     66  C   UNL A   1      43.752  26.490  34.632  1.00  0.00     0.031 C 
ATOM     67  C   UNL A   1      44.874  25.240  32.688  1.00  0.00     0.037 A 
BRANCH  54  68
ATOM     68  C   UNL A   1      44.363  23.613  26.813  1.00  0.00     0.057 A 
ATOM     69  C   UNL A   1      43.837  22.325  26.586  1.00  0.00     0.134 A 
ATOM     70  C   UNL A   1      45.356  23.988  25.890  1.00  0.00     0.134 A 
ATOM     71  F   UNL A   1      42.811  21.848  27.302  1.00  0.00    -0.206 F 
ATOM     72  C   UNL A   1      44.335  21.454  25.606  1.00  0.00     0.040 A 
ATOM     73  C   UNL A   1      45.898  23.111  24.938  1.00  0.00     0.040 A 
ATOM     74  F   UNL A   1      45.810  25.240  25.797  1.00  0.00    -0.206 F 
ATOM     75  C   UNL A   1      45.396  21.831  24.800  1.00  0.00     0.006 A 
ENDBRANCH  54  68
BRANCH  55  76
ATOM     76  C   UNL A   1      41.275  30.025  33.518  1.00  0.00     0.057 A 
ATOM     77  C   UNL A   1      41.161  31.404  33.776  1.00  0.00     0.134 A 
ATOM     78  C   UNL A   1      40.087  29.304  33.380  1.00  0.00     0.134 A 
ATOM     79  F   UNL A   1      42.264  32.155  33.929  1.00  0.00    -0.206 F 
ATOM     80  C   UNL A   1      39.927  32.059  33.751  1.00  0.00     0.040 A 
ATOM     81  C   UNL A   1      38.844  29.948  33.374  1.00  0.00     0.040 A 
ATOM     82  F   UNL A   1      40.113  27.991  33.108  1.00  0.00    -0.206 F 
ATOM     83  C   UNL A   1      38.767  31.334  33.509  1.00  0.00     0.006 A 
ENDBRANCH  55  76
BRANCH  67  84
ATOM     84  C   UNL A   1      45.233  23.993  33.434  1.00  0.00     0.057 A 
ATOM     85  C   UNL A   1      44.300  22.972  33.647  1.00  0.00     0.134 A 
ATOM     86  C   UNL A   1      46.476  23.843  34.072  1.00  0.00     0.134 A 
ATOM     87  F   UNL A   1      43.076  23.032  33.098  1.00  0.00    -0.206 F 
ATOM     88  C   UNL A   1      44.589  21.861  34.446  1.00  0.00     0.040 A 
ATOM     89  C   UNL A   1      46.760  22.764  34.911  1.00  0.00     0.040 A 
ATOM     90  F   UNL A   1      47.465  24.733  33.894  1.00  0.00    -0.206 F 
ATOM     91  C   UNL A   1      45.815  21.765  35.098  1.00  0.00     0.006 A 
ENDBRANCH  67  84
ENDBRANCH  41  42
ENDBRANCH  33  36
ENDBRANCH  31  32
ENDBRANCH  30  31
ENDBRANCH   1  30
TORSDOF 14
ENDMDL
