MODEL 1
REMARK VINA RESULT:     -12.6      0.000      0.000
REMARK SMILES CC1CCN(S(=O)(=O)c2ccc3c(ccn3CC(=O)NCCCNC(=O)c3ccc(-c4c5nc(c(-c6c(F)cccc6F)c6ccc([nH]6)c(-c6c(F)cccc6F)c6nc(c(-c7c(F)cccc7F)c7ccc4[nH]7)C=C6)C=C5)cc3)c2)CC1
REMARK SMILES IDX 21 1 20 2 18 3 19 4 17 6 16 7 9 8 10 9 81 10 11 11 13 12
REMARK SMILES IDX 12 13 14 14 15 15 6 16 7 17 8 18 5 19 1 20 2 21 3 22 83 23
REMARK SMILES IDX 4 24 82 25 22 26 23 27 24 28 25 29 26 31 27 32 28 33 80 34
REMARK SMILES IDX 29 35 79 36 30 37 31 38 32 39 73 40 33 41 78 42 72 43 74 44
REMARK SMILES IDX 34 45 77 46 71 47 70 48 35 50 61 51 44 52 60 53 45 54 48 55
REMARK SMILES IDX 59 56 75 57 46 58 47 59 58 61 76 62 49 63 36 64 37 65 42 66
REMARK SMILES IDX 38 67 39 68 41 69 43 70 40 71 62 72 63 73 68 74 64 75 65 76
REMARK SMILES IDX 67 77 69 78 66 79 50 80 51 81 56 82 52 83 53 84 55 85 57 86
REMARK SMILES IDX 54 87
REMARK H PARENT 20 5 24 30 74 49 48 60
REMARK Flexibility Score: inf
ROOT
ATOM      1  C   UNL A   1      32.193  29.646  25.015  1.00  0.00     0.117 C 
ENDROOT
BRANCH   1   2
ATOM      2  N   UNL A   1      30.932  30.302  24.724  1.00  0.00    -0.354 N 
ATOM      3  C   UNL A   1      30.088  30.148  23.663  1.00  0.00     0.239 C 
ATOM      4  O   UNL A   1      29.075  30.851  23.629  1.00  0.00    -0.273 OA
ATOM      5  H   UNL A   1      30.641  30.959  25.397  1.00  0.00     0.163 HD
BRANCH   3   6
ATOM      6  C   UNL A   1      30.351  29.107  22.597  1.00  0.00     0.222 C 
BRANCH   6   7
ATOM      7  N   UNL A   1      30.152  27.741  23.060  1.00  0.00    -0.338 N 
ATOM      8  C   UNL A   1      32.584  24.413  23.253  1.00  0.00     0.083 A 
ATOM      9  C   UNL A   1      33.143  25.550  22.672  1.00  0.00     0.024 A 
ATOM     10  C   UNL A   1      31.263  24.413  23.718  1.00  0.00     0.032 A 
ATOM     11  C   UNL A   1      32.441  26.750  22.630  1.00  0.00     0.028 A 
ATOM     12  C   UNL A   1      30.509  25.601  23.604  1.00  0.00     0.001 A 
ATOM     13  C   UNL A   1      31.112  26.747  23.072  1.00  0.00     0.049 A 
ATOM     14  C   UNL A   1      29.166  25.942  23.917  1.00  0.00     0.028 A 
ATOM     15  C   UNL A   1      28.978  27.264  23.584  1.00  0.00     0.087 A 
BRANCH   8  16
ATOM     16  S   UNL A   1      33.531  22.909  23.262  1.00  0.00     0.243 S 
ATOM     17  O   UNL A   1      34.831  23.246  22.701  1.00  0.00    -0.207 OA
ATOM     18  O   UNL A   1      32.729  21.870  22.668  1.00  0.00    -0.207 OA
BRANCH  16  19
ATOM     19  N   UNL A   1      33.733  22.514  24.919  1.00  0.00    -0.198 NA
ATOM     20  C   UNL A   1      37.955  21.773  25.185  1.00  0.00     0.008 C 
ATOM     21  C   UNL A   1      36.506  21.857  25.661  1.00  0.00    -0.012 C 
ATOM     22  C   UNL A   1      35.605  20.869  24.900  1.00  0.00     0.020 C 
ATOM     23  C   UNL A   1      36.010  23.301  25.524  1.00  0.00     0.020 C 
ATOM     24  C   UNL A   1      34.113  21.092  25.155  1.00  0.00     0.103 C 
ATOM     25  C   UNL A   1      34.520  23.399  25.809  1.00  0.00     0.103 C 
ENDBRANCH  16  19
ENDBRANCH   8  16
ENDBRANCH   6   7
ENDBRANCH   3   6
ENDBRANCH   1   2
BRANCH   1  26
ATOM     26  C   UNL A   1      32.538  29.668  26.503  1.00  0.00     0.042 C 
BRANCH  26  27
ATOM     27  C   UNL A   1      34.038  29.557  26.790  1.00  0.00     0.118 C 
BRANCH  27  28
ATOM     28  N   UNL A   1      34.634  30.771  27.316  1.00  0.00    -0.352 N 
ATOM     29  C   UNL A   1      35.850  31.109  27.843  1.00  0.00     0.251 C 
ATOM     30  H   UNL A   1      34.015  31.537  27.285  1.00  0.00     0.163 HD
ATOM     31  O   UNL A   1      36.004  32.303  28.114  1.00  0.00    -0.269 OA
BRANCH  29  32
ATOM     32  C   UNL A   1      36.958  30.161  28.151  1.00  0.00     0.039 A 
ATOM     33  C   UNL A   1      37.060  29.376  29.298  1.00  0.00     0.014 A 
ATOM     34  C   UNL A   1      38.000  30.091  27.203  1.00  0.00     0.014 A 
ATOM     35  C   UNL A   1      38.199  28.609  29.532  1.00  0.00     0.010 A 
ATOM     36  C   UNL A   1      39.131  29.305  27.421  1.00  0.00     0.010 A 
ATOM     37  C   UNL A   1      39.247  28.588  28.608  1.00  0.00    -0.014 A 
BRANCH  37  38
ATOM     38  C   UNL A   1      40.399  27.742  28.915  1.00  0.00     0.031 A 
ATOM     39  C   UNL A   1      41.096  28.019  30.204  1.00  0.00     0.074 A 
ATOM     40  C   UNL A   1      40.815  26.704  28.162  1.00  0.00     0.049 A 
ATOM     41  N   UNL A   1      42.313  28.422  30.380  1.00  0.00    -0.248 NA
ATOM     42  C   UNL A   1      40.328  27.874  31.448  1.00  0.00     0.031 C 
ATOM     43  C   UNL A   1      40.140  26.071  27.030  1.00  0.00     0.029 A 
ATOM     44  N   UNL A   1      41.934  25.937  28.330  1.00  0.00    -0.354 N 
ATOM     45  C   UNL A   1      42.529  28.434  31.757  1.00  0.00     0.074 A 
ATOM     46  C   UNL A   1      41.246  28.182  32.366  1.00  0.00     0.031 C 
ATOM     47  C   UNL A   1      40.758  24.902  26.745  1.00  0.00     0.029 A 
ATOM     48  C   UNL A   1      41.936  24.765  27.590  1.00  0.00     0.049 A 
ATOM     49  H   UNL A   1      42.674  26.194  28.925  1.00  0.00     0.167 HD
ATOM     50  C   UNL A   1      43.782  28.470  32.288  1.00  0.00     0.037 A 
ATOM     51  C   UNL A   1      42.809  23.733  27.691  1.00  0.00     0.037 A 
ATOM     52  C   UNL A   1      44.763  28.906  31.327  1.00  0.00     0.049 A 
ATOM     53  C   UNL A   1      44.021  24.188  28.412  1.00  0.00     0.074 A 
ATOM     54  C   UNL A   1      44.929  30.019  30.523  1.00  0.00     0.029 A 
ATOM     55  N   UNL A   1      45.663  27.986  30.849  1.00  0.00    -0.354 N 
ATOM     56  N   UNL A   1      44.967  24.902  27.879  1.00  0.00    -0.248 NA
ATOM     57  C   UNL A   1      44.008  24.174  29.868  1.00  0.00     0.031 C 
ATOM     58  C   UNL A   1      45.511  29.521  29.317  1.00  0.00     0.029 A 
ATOM     59  C   UNL A   1      45.689  28.151  29.490  1.00  0.00     0.049 A 
ATOM     60  H   UNL A   1      46.184  27.338  31.377  1.00  0.00     0.167 HD
ATOM     61  C   UNL A   1      45.339  25.787  28.878  1.00  0.00     0.074 A 
ATOM     62  C   UNL A   1      44.819  25.206  30.111  1.00  0.00     0.031 C 
ATOM     63  C   UNL A   1      45.780  27.046  28.579  1.00  0.00     0.037 A 
BRANCH  50  64
ATOM     64  C   UNL A   1      44.196  27.767  33.562  1.00  0.00     0.057 A 
ATOM     65  C   UNL A   1      44.157  26.369  33.730  1.00  0.00     0.134 A 
ATOM     66  C   UNL A   1      44.977  28.461  34.507  1.00  0.00     0.134 A 
ATOM     67  F   UNL A   1      43.497  25.565  32.887  1.00  0.00    -0.206 F 
ATOM     68  C   UNL A   1      44.891  25.707  34.720  1.00  0.00     0.040 A 
ATOM     69  C   UNL A   1      45.757  27.805  35.465  1.00  0.00     0.040 A 
ATOM     70  F   UNL A   1      45.090  29.797  34.458  1.00  0.00    -0.206 F 
ATOM     71  C   UNL A   1      45.728  26.421  35.564  1.00  0.00     0.006 A 
ENDBRANCH  50  64
BRANCH  51  72
ATOM     72  C   UNL A   1      42.610  22.314  27.342  1.00  0.00     0.057 A 
ATOM     73  C   UNL A   1      43.354  21.716  26.312  1.00  0.00     0.134 A 
ATOM     74  C   UNL A   1      41.522  21.580  27.830  1.00  0.00     0.134 A 
ATOM     75  F   UNL A   1      44.369  22.369  25.726  1.00  0.00    -0.206 F 
ATOM     76  C   UNL A   1      43.030  20.463  25.788  1.00  0.00     0.040 A 
ATOM     77  C   UNL A   1      41.180  20.327  27.308  1.00  0.00     0.040 A 
ATOM     78  F   UNL A   1      40.733  22.082  28.791  1.00  0.00    -0.206 F 
ATOM     79  C   UNL A   1      41.930  19.769  26.276  1.00  0.00     0.006 A 
ENDBRANCH  51  72
BRANCH  63  80
ATOM     80  C   UNL A   1      46.145  27.317  27.154  1.00  0.00     0.057 A 
ATOM     81  C   UNL A   1      47.491  27.283  26.775  1.00  0.00     0.134 A 
ATOM     82  C   UNL A   1      45.208  27.605  26.152  1.00  0.00     0.134 A 
ATOM     83  F   UNL A   1      48.453  27.100  27.693  1.00  0.00    -0.206 F 
ATOM     84  C   UNL A   1      47.881  27.423  25.444  1.00  0.00     0.040 A 
ATOM     85  C   UNL A   1      45.577  27.676  24.812  1.00  0.00     0.040 A 
ATOM     86  F   UNL A   1      43.918  27.826  26.442  1.00  0.00    -0.206 F 
ATOM     87  C   UNL A   1      46.917  27.568  24.453  1.00  0.00     0.006 A 
ENDBRANCH  63  80
ENDBRANCH  37  38
ENDBRANCH  29  32
ENDBRANCH  27  28
ENDBRANCH  26  27
ENDBRANCH   1  26
TORSDOF 13
ENDMDL
MODEL 2
REMARK VINA RESULT:     -12.4      1.885      2.683
REMARK SMILES CC1CCN(S(=O)(=O)c2ccc3c(ccn3CC(=O)NCCCNC(=O)c3ccc(-c4c5nc(c(-c6c(F)cccc6F)c6ccc([nH]6)c(-c6c(F)cccc6F)c6nc(c(-c7c(F)cccc7F)c7ccc4[nH]7)C=C6)C=C5)cc3)c2)CC1
REMARK SMILES IDX 21 1 20 2 18 3 19 4 17 6 16 7 9 8 10 9 81 10 11 11 13 12
REMARK SMILES IDX 12 13 14 14 15 15 6 16 7 17 8 18 5 19 1 20 2 21 3 22 83 23
REMARK SMILES IDX 4 24 82 25 22 26 23 27 24 28 25 29 26 31 27 32 28 33 80 34
REMARK SMILES IDX 29 35 79 36 30 37 31 38 32 39 73 40 33 41 78 42 72 43 74 44
REMARK SMILES IDX 34 45 77 46 71 47 70 48 35 50 61 51 44 52 60 53 45 54 48 55
REMARK SMILES IDX 59 56 75 57 46 58 47 59 58 61 76 62 49 63 36 64 37 65 42 66
REMARK SMILES IDX 38 67 39 68 41 69 43 70 40 71 62 72 63 73 68 74 64 75 65 76
REMARK SMILES IDX 67 77 69 78 66 79 50 80 51 81 56 82 52 83 53 84 55 85 57 86
REMARK SMILES IDX 54 87
REMARK H PARENT 20 5 24 30 74 49 48 60
REMARK Flexibility Score: inf
ROOT
ATOM      1  C   UNL A   1      31.932  29.919  25.020  1.00  0.00     0.117 C 
ENDROOT
BRANCH   1   2
ATOM      2  N   UNL A   1      30.655  30.505  24.658  1.00  0.00    -0.354 N 
ATOM      3  C   UNL A   1      29.874  30.295  23.559  1.00  0.00     0.239 C 
ATOM      4  O   UNL A   1      28.830  30.944  23.464  1.00  0.00    -0.273 OA
ATOM      5  H   UNL A   1      30.297  31.155  25.305  1.00  0.00     0.163 HD
BRANCH   3   6
ATOM      6  C   UNL A   1      30.243  29.255  22.523  1.00  0.00     0.222 C 
BRANCH   6   7
ATOM      7  N   UNL A   1      30.035  27.887  22.976  1.00  0.00    -0.338 N 
ATOM      8  C   UNL A   1      32.399  24.505  23.015  1.00  0.00     0.083 A 
ATOM      9  C   UNL A   1      32.957  25.639  22.426  1.00  0.00     0.024 A 
ATOM     10  C   UNL A   1      31.100  24.527  23.538  1.00  0.00     0.032 A 
ATOM     11  C   UNL A   1      32.280  26.854  22.431  1.00  0.00     0.028 A 
ATOM     12  C   UNL A   1      30.368  25.732  23.474  1.00  0.00     0.001 A 
ATOM     13  C   UNL A   1      30.972  26.873  22.931  1.00  0.00     0.049 A 
ATOM     14  C   UNL A   1      29.048  26.098  23.851  1.00  0.00     0.028 A 
ATOM     15  C   UNL A   1      28.874  27.427  23.544  1.00  0.00     0.087 A 
BRANCH   8  16
ATOM     16  S   UNL A   1      33.313  22.981  22.961  1.00  0.00     0.243 S 
ATOM     17  O   UNL A   1      34.629  23.317  22.440  1.00  0.00    -0.207 OA
ATOM     18  O   UNL A   1      32.498  21.994  22.301  1.00  0.00    -0.207 OA
BRANCH  16  19
ATOM     19  N   UNL A   1      33.476  22.498  24.599  1.00  0.00    -0.198 NA
ATOM     20  C   UNL A   1      37.499  23.692  25.515  1.00  0.00     0.008 C 
ATOM     21  C   UNL A   1      36.131  23.055  25.747  1.00  0.00    -0.012 C 
ATOM     22  C   UNL A   1      35.885  21.881  24.783  1.00  0.00     0.020 C 
ATOM     23  C   UNL A   1      35.044  24.128  25.626  1.00  0.00     0.020 C 
ATOM     24  C   UNL A   1      34.440  21.378  24.800  1.00  0.00     0.103 C 
ATOM     25  C   UNL A   1      33.655  23.512  25.664  1.00  0.00     0.103 C 
ENDBRANCH  16  19
ENDBRANCH   8  16
ENDBRANCH   6   7
ENDBRANCH   3   6
ENDBRANCH   1   2
BRANCH   1  26
ATOM     26  C   UNL A   1      31.878  29.173  26.352  1.00  0.00     0.042 C 
BRANCH  26  27
ATOM     27  C   UNL A   1      33.083  29.442  27.258  1.00  0.00     0.118 C 
BRANCH  27  28
ATOM     28  N   UNL A   1      33.437  30.844  27.377  1.00  0.00    -0.352 N 
ATOM     29  C   UNL A   1      34.575  31.539  27.678  1.00  0.00     0.251 C 
ATOM     30  H   UNL A   1      32.673  31.440  27.197  1.00  0.00     0.163 HD
ATOM     31  O   UNL A   1      34.492  32.768  27.600  1.00  0.00    -0.269 OA
BRANCH  29  32
ATOM     32  C   UNL A   1      35.864  30.942  28.128  1.00  0.00     0.039 A 
ATOM     33  C   UNL A   1      36.960  31.649  28.619  1.00  0.00     0.014 A 
ATOM     34  C   UNL A   1      35.978  29.541  28.007  1.00  0.00     0.014 A 
ATOM     35  C   UNL A   1      38.157  30.994  28.903  1.00  0.00     0.010 A 
ATOM     36  C   UNL A   1      37.165  28.877  28.314  1.00  0.00     0.010 A 
ATOM     37  C   UNL A   1      38.271  29.612  28.730  1.00  0.00    -0.014 A 
BRANCH  37  38
ATOM     38  C   UNL A   1      39.553  28.995  29.071  1.00  0.00     0.031 A 
ATOM     39  C   UNL A   1      39.909  28.971  30.519  1.00  0.00     0.074 A 
ATOM     40  C   UNL A   1      40.378  28.396  28.190  1.00  0.00     0.049 A 
ATOM     41  N   UNL A   1      40.905  29.556  31.103  1.00  0.00    -0.248 NA
ATOM     42  C   UNL A   1      39.020  28.245  31.435  1.00  0.00     0.031 C 
ATOM     43  C   UNL A   1      40.121  28.047  26.793  1.00  0.00     0.029 A 
ATOM     44  N   UNL A   1      41.628  27.891  28.414  1.00  0.00    -0.354 N 
ATOM     45  C   UNL A   1      40.871  29.150  32.436  1.00  0.00     0.074 A 
ATOM     46  C   UNL A   1      39.637  28.424  32.605  1.00  0.00     0.031 C 
ATOM     47  C   UNL A   1      41.096  27.215  26.359  1.00  0.00     0.029 A 
ATOM     48  C   UNL A   1      42.101  27.072  27.403  1.00  0.00     0.049 A 
ATOM     49  H   UNL A   1      42.148  28.093  29.226  1.00  0.00     0.167 HD
ATOM     50  C   UNL A   1      41.950  29.287  33.257  1.00  0.00     0.037 A 
ATOM     51  C   UNL A   1      43.209  26.293  27.429  1.00  0.00     0.037 A 
ATOM     52  C   UNL A   1      42.906  30.233  32.738  1.00  0.00     0.049 A 
ATOM     53  C   UNL A   1      44.093  26.738  28.531  1.00  0.00     0.074 A 
ATOM     54  C   UNL A   1      42.869  31.558  32.346  1.00  0.00     0.029 A 
ATOM     55  N   UNL A   1      44.104  29.758  32.267  1.00  0.00    -0.354 N 
ATOM     56  N   UNL A   1      44.862  27.786  28.477  1.00  0.00    -0.248 NA
ATOM     57  C   UNL A   1      43.840  26.231  29.873  1.00  0.00     0.031 C 
ATOM     58  C   UNL A   1      43.766  31.643  31.238  1.00  0.00     0.029 A 
ATOM     59  C   UNL A   1      44.310  30.373  31.061  1.00  0.00     0.049 A 
ATOM     60  H   UNL A   1      44.696  29.105  32.706  1.00  0.00     0.167 HD
ATOM     61  C   UNL A   1      44.782  28.340  29.745  1.00  0.00     0.074 A 
ATOM     62  C   UNL A   1      44.256  27.276  30.592  1.00  0.00     0.031 C 
ATOM     63  C   UNL A   1      44.875  29.692  29.931  1.00  0.00     0.037 A 
BRANCH  50  64
ATOM     64  C   UNL A   1      42.332  28.308  34.345  1.00  0.00     0.057 A 
ATOM     65  C   UNL A   1      42.015  28.490  35.705  1.00  0.00     0.134 A 
ATOM     66  C   UNL A   1      42.708  26.998  33.988  1.00  0.00     0.134 A 
ATOM     67  F   UNL A   1      41.596  29.664  36.191  1.00  0.00    -0.206 F 
ATOM     68  C   UNL A   1      42.008  27.436  36.625  1.00  0.00     0.040 A 
ATOM     69  C   UNL A   1      42.651  25.928  34.888  1.00  0.00     0.040 A 
ATOM     70  F   UNL A   1      43.039  26.697  32.723  1.00  0.00    -0.206 F 
ATOM     71  C   UNL A   1      42.284  26.143  36.209  1.00  0.00     0.006 A 
ENDBRANCH  50  64
BRANCH  51  72
ATOM     72  C   UNL A   1      43.500  25.068  26.659  1.00  0.00     0.057 A 
ATOM     73  C   UNL A   1      44.333  25.112  25.528  1.00  0.00     0.134 A 
ATOM     74  C   UNL A   1      42.780  23.884  26.856  1.00  0.00     0.134 A 
ATOM     75  F   UNL A   1      45.007  26.227  25.210  1.00  0.00    -0.206 F 
ATOM     76  C   UNL A   1      44.436  24.043  24.636  1.00  0.00     0.040 A 
ATOM     77  C   UNL A   1      42.867  22.808  25.965  1.00  0.00     0.040 A 
ATOM     78  F   UNL A   1      41.936  23.760  27.890  1.00  0.00    -0.206 F 
ATOM     79  C   UNL A   1      43.690  22.889  24.845  1.00  0.00     0.006 A 
ENDBRANCH  51  72
BRANCH  63  80
ATOM     80  C   UNL A   1      45.378  30.504  28.780  1.00  0.00     0.057 A 
ATOM     81  C   UNL A   1      44.470  30.957  27.817  1.00  0.00     0.134 A 
ATOM     82  C   UNL A   1      46.724  30.853  28.601  1.00  0.00     0.134 A 
ATOM     83  F   UNL A   1      43.180  30.591  27.871  1.00  0.00    -0.206 F 
ATOM     84  C   UNL A   1      44.863  31.804  26.781  1.00  0.00     0.040 A 
ATOM     85  C   UNL A   1      47.115  31.753  27.616  1.00  0.00     0.040 A 
ATOM     86  F   UNL A   1      47.690  30.331  29.371  1.00  0.00    -0.206 F 
ATOM     87  C   UNL A   1      46.179  32.246  26.712  1.00  0.00     0.006 A 
ENDBRANCH  63  80
ENDBRANCH  37  38
ENDBRANCH  29  32
ENDBRANCH  27  28
ENDBRANCH  26  27
ENDBRANCH   1  26
TORSDOF 13
ENDMDL
MODEL 3
REMARK VINA RESULT:     -12.4      2.116      3.120
REMARK SMILES CC1CCN(S(=O)(=O)c2ccc3c(ccn3CC(=O)NCCCNC(=O)c3ccc(-c4c5nc(c(-c6c(F)cccc6F)c6ccc([nH]6)c(-c6c(F)cccc6F)c6nc(c(-c7c(F)cccc7F)c7ccc4[nH]7)C=C6)C=C5)cc3)c2)CC1
REMARK SMILES IDX 21 1 20 2 18 3 19 4 17 6 16 7 9 8 10 9 81 10 11 11 13 12
REMARK SMILES IDX 12 13 14 14 15 15 6 16 7 17 8 18 5 19 1 20 2 21 3 22 83 23
REMARK SMILES IDX 4 24 82 25 22 26 23 27 24 28 25 29 26 31 27 32 28 33 80 34
REMARK SMILES IDX 29 35 79 36 30 37 31 38 32 39 73 40 33 41 78 42 72 43 74 44
REMARK SMILES IDX 34 45 77 46 71 47 70 48 35 50 61 51 44 52 60 53 45 54 48 55
REMARK SMILES IDX 59 56 75 57 46 58 47 59 58 61 76 62 49 63 36 64 37 65 42 66
REMARK SMILES IDX 38 67 39 68 41 69 43 70 40 71 62 72 63 73 68 74 64 75 65 76
REMARK SMILES IDX 67 77 69 78 66 79 50 80 51 81 56 82 52 83 53 84 55 85 57 86
REMARK SMILES IDX 54 87
REMARK H PARENT 20 5 24 30 74 49 48 60
REMARK Flexibility Score: inf
ROOT
ATOM      1  C   UNL A   1      33.326  30.863  26.993  1.00  0.00     0.117 C 
ENDROOT
BRANCH   1   2
ATOM      2  N   UNL A   1      32.732  29.704  27.633  1.00  0.00    -0.354 N 
ATOM      3  C   UNL A   1      31.846  28.789  27.142  1.00  0.00     0.239 C 
ATOM      4  O   UNL A   1      31.462  27.897  27.902  1.00  0.00    -0.273 OA
ATOM      5  H   UNL A   1      33.013  29.554  28.565  1.00  0.00     0.163 HD
BRANCH   3   6
ATOM      6  C   UNL A   1      31.397  28.831  25.698  1.00  0.00     0.222 C 
BRANCH   6   7
ATOM      7  N   UNL A   1      32.322  28.175  24.785  1.00  0.00    -0.338 N 
ATOM      8  C   UNL A   1      33.097  24.229  23.860  1.00  0.00     0.083 A 
ATOM      9  C   UNL A   1      32.151  24.452  24.860  1.00  0.00     0.024 A 
ATOM     10  C   UNL A   1      33.752  25.296  23.233  1.00  0.00     0.032 A 
ATOM     11  C   UNL A   1      31.754  25.743  25.193  1.00  0.00     0.028 A 
ATOM     12  C   UNL A   1      33.421  26.612  23.622  1.00  0.00     0.001 A 
ATOM     13  C   UNL A   1      32.425  26.812  24.586  1.00  0.00     0.049 A 
ATOM     14  C   UNL A   1      33.902  27.895  23.246  1.00  0.00     0.028 A 
ATOM     15  C   UNL A   1      33.203  28.836  23.967  1.00  0.00     0.087 A 
BRANCH   8  16
ATOM     16  S   UNL A   1      33.568  22.555  23.493  1.00  0.00     0.243 S 
ATOM     17  O   UNL A   1      34.997  22.586  23.221  1.00  0.00    -0.207 OA
ATOM     18  O   UNL A   1      32.651  22.036  22.511  1.00  0.00    -0.207 OA
BRANCH  16  19
ATOM     19  N   UNL A   1      33.305  21.685  24.948  1.00  0.00    -0.198 NA
ATOM     20  C   UNL A   1      34.281  17.661  23.808  1.00  0.00     0.008 C 
ATOM     21  C   UNL A   1      33.796  18.791  24.714  1.00  0.00    -0.012 C 
ATOM     22  C   UNL A   1      32.525  19.454  24.157  1.00  0.00     0.020 C 
ATOM     23  C   UNL A   1      34.928  19.805  24.910  1.00  0.00     0.020 C 
ATOM     24  C   UNL A   1      32.148  20.746  24.884  1.00  0.00     0.103 C 
ATOM     25  C   UNL A   1      34.438  21.040  25.650  1.00  0.00     0.103 C 
ENDBRANCH  16  19
ENDBRANCH   8  16
ENDBRANCH   6   7
ENDBRANCH   3   6
ENDBRANCH   1   2
BRANCH   1  26
ATOM     26  C   UNL A   1      34.657  31.266  27.627  1.00  0.00     0.042 C 
BRANCH  26  27
ATOM     27  C   UNL A   1      34.635  32.651  28.278  1.00  0.00     0.118 C 
BRANCH  27  28
ATOM     28  N   UNL A   1      34.383  32.633  29.707  1.00  0.00    -0.352 N 
ATOM     29  C   UNL A   1      35.074  32.218  30.813  1.00  0.00     0.251 C 
ATOM     30  H   UNL A   1      33.503  33.010  29.938  1.00  0.00     0.163 HD
ATOM     31  O   UNL A   1      34.538  32.449  31.899  1.00  0.00    -0.269 OA
BRANCH  29  32
ATOM     32  C   UNL A   1      36.372  31.486  30.802  1.00  0.00     0.039 A 
ATOM     33  C   UNL A   1      37.636  32.073  30.771  1.00  0.00     0.014 A 
ATOM     34  C   UNL A   1      36.293  30.078  30.787  1.00  0.00     0.014 A 
ATOM     35  C   UNL A   1      38.779  31.287  30.648  1.00  0.00     0.010 A 
ATOM     36  C   UNL A   1      37.437  29.285  30.690  1.00  0.00     0.010 A 
ATOM     37  C   UNL A   1      38.683  29.894  30.584  1.00  0.00    -0.014 A 
BRANCH  37  38
ATOM     38  C   UNL A   1      39.930  29.138  30.477  1.00  0.00     0.031 A 
ATOM     39  C   UNL A   1      40.711  28.973  31.737  1.00  0.00     0.074 A 
ATOM     40  C   UNL A   1      40.371  28.532  29.356  1.00  0.00     0.049 A 
ATOM     41  N   UNL A   1      41.897  29.417  32.002  1.00  0.00    -0.248 NA
ATOM     42  C   UNL A   1      40.074  28.265  32.855  1.00  0.00     0.031 C 
ATOM     43  C   UNL A   1      39.658  28.315  28.098  1.00  0.00     0.029 A 
ATOM     44  N   UNL A   1      41.566  27.900  29.154  1.00  0.00    -0.354 N 
ATOM     45  C   UNL A   1      42.233  28.918  33.259  1.00  0.00     0.074 A 
ATOM     46  C   UNL A   1      41.038  28.298  33.777  1.00  0.00     0.031 C 
ATOM     47  C   UNL A   1      40.353  27.431  27.345  1.00  0.00     0.029 A 
ATOM     48  C   UNL A   1      41.609  27.118  28.012  1.00  0.00     0.049 A 
ATOM     49  H   UNL A   1      42.329  27.991  29.768  1.00  0.00     0.167 HD
ATOM     50  C   UNL A   1      43.520  28.893  33.703  1.00  0.00     0.037 A 
ATOM     51  C   UNL A   1      42.577  26.240  27.655  1.00  0.00     0.037 A 
ATOM     52  C   UNL A   1      44.368  29.783  32.950  1.00  0.00     0.049 A 
ATOM     53  C   UNL A   1      43.802  26.518  28.440  1.00  0.00     0.074 A 
ATOM     54  C   UNL A   1      44.359  31.131  32.646  1.00  0.00     0.029 A 
ATOM     55  N   UNL A   1      45.301  29.236  32.106  1.00  0.00    -0.354 N 
ATOM     56  N   UNL A   1      44.628  27.492  28.191  1.00  0.00    -0.248 NA
ATOM     57  C   UNL A   1      43.921  25.937  29.770  1.00  0.00     0.031 C 
ATOM     58  C   UNL A   1      44.874  31.216  31.317  1.00  0.00     0.029 A 
ATOM     59  C   UNL A   1      45.191  29.918  30.924  1.00  0.00     0.049 A 
ATOM     60  H   UNL A   1      45.924  28.500  32.308  1.00  0.00     0.167 HD
ATOM     61  C   UNL A   1      45.005  27.955  29.441  1.00  0.00     0.074 A 
ATOM     62  C   UNL A   1      44.652  26.883  30.365  1.00  0.00     0.031 C 
ATOM     63  C   UNL A   1      45.301  29.274  29.646  1.00  0.00     0.037 A 
BRANCH  50  64
ATOM     64  C   UNL A   1      44.108  27.804  34.573  1.00  0.00     0.057 A 
ATOM     65  C   UNL A   1      44.175  26.451  34.190  1.00  0.00     0.134 A 
ATOM     66  C   UNL A   1      44.939  28.162  35.653  1.00  0.00     0.134 A 
ATOM     67  F   UNL A   1      43.483  25.965  33.153  1.00  0.00    -0.206 F 
ATOM     68  C   UNL A   1      45.049  25.539  34.793  1.00  0.00     0.040 A 
ATOM     69  C   UNL A   1      45.854  27.272  36.225  1.00  0.00     0.040 A 
ATOM     70  F   UNL A   1      44.961  29.421  36.116  1.00  0.00    -0.206 F 
ATOM     71  C   UNL A   1      45.924  25.959  35.783  1.00  0.00     0.006 A 
ENDBRANCH  50  64
BRANCH  51  72
ATOM     72  C   UNL A   1      42.478  25.055  26.781  1.00  0.00     0.057 A 
ATOM     73  C   UNL A   1      41.836  23.887  27.224  1.00  0.00     0.134 A 
ATOM     74  C   UNL A   1      43.220  24.947  25.598  1.00  0.00     0.134 A 
ATOM     75  F   UNL A   1      41.163  23.867  28.384  1.00  0.00    -0.206 F 
ATOM     76  C   UNL A   1      41.934  22.675  26.537  1.00  0.00     0.040 A 
ATOM     77  C   UNL A   1      43.334  23.737  24.904  1.00  0.00     0.040 A 
ATOM     78  F   UNL A   1      43.894  26.000  25.114  1.00  0.00    -0.206 F 
ATOM     79  C   UNL A   1      42.697  22.593  25.378  1.00  0.00     0.006 A 
ENDBRANCH  51  72
BRANCH  63  80
ATOM     80  C   UNL A   1      45.511  30.120  28.430  1.00  0.00     0.057 A 
ATOM     81  C   UNL A   1      44.408  30.740  27.832  1.00  0.00     0.134 A 
ATOM     82  C   UNL A   1      46.763  30.342  27.842  1.00  0.00     0.134 A 
ATOM     83  F   UNL A   1      43.166  30.506  28.284  1.00  0.00    -0.206 F 
ATOM     84  C   UNL A   1      44.555  31.623  26.763  1.00  0.00     0.040 A 
ATOM     85  C   UNL A   1      46.931  31.274  26.823  1.00  0.00     0.040 A 
ATOM     86  F   UNL A   1      47.851  29.664  28.235  1.00  0.00    -0.206 F 
ATOM     87  C   UNL A   1      45.826  31.931  26.292  1.00  0.00     0.006 A 
ENDBRANCH  63  80
ENDBRANCH  37  38
ENDBRANCH  29  32
ENDBRANCH  27  28
ENDBRANCH  26  27
ENDBRANCH   1  26
TORSDOF 13
ENDMDL
