MODEL 1
REMARK VINA RESULT:     -11.6      0.000      0.000
REMARK SMILES CCc1cc(OCC(=O)NCCCNC(=O)c2ccc(-c3c4nc(c(-c5c(F)cccc5F)c5ccc([nH]5)c(-c5c(F)cccc5F)c5nc(c(-c6c(F)cccc6F)c6ccc3[nH]6)C=C5)C=C4)cc2)nc(Nc2ccc(C)c(F)c2)n1
REMARK SMILES IDX 11 1 10 2 8 3 9 4 7 6 6 7 5 8 3 9 4 10 82 11 72 12 71 13
REMARK SMILES IDX 2 14 1 15 73 16 74 18 75 19 81 20 76 21 79 22 77 23 80 24
REMARK SMILES IDX 78 25 12 26 13 27 14 28 15 29 16 31 17 32 18 33 70 34 19 35
REMARK SMILES IDX 69 36 20 37 21 38 22 39 63 40 23 41 68 42 62 43 64 44 24 45
REMARK SMILES IDX 67 46 61 47 60 48 25 50 51 51 34 52 50 53 35 54 38 55 49 56
REMARK SMILES IDX 65 57 36 58 37 59 48 61 66 62 39 63 26 64 27 65 32 66 28 67
REMARK SMILES IDX 29 68 31 69 33 70 30 71 52 72 53 73 58 74 54 75 55 76 57 77
REMARK SMILES IDX 59 78 56 79 40 80 41 81 46 82 42 83 43 84 45 85 47 86 44 87
REMARK H PARENT 10 5 73 17 14 30 64 49 38 60
REMARK Flexibility Score: inf
ROOT
ATOM      1  C   UNL A   1      37.481  21.277  24.620  1.00  0.00     0.117 C 
ENDROOT
BRANCH   1   2
ATOM      2  N   UNL A   1      38.137  22.393  25.275  1.00  0.00    -0.353 N 
ATOM      3  C   UNL A   1      37.598  23.581  25.670  1.00  0.00     0.258 C 
ATOM      4  O   UNL A   1      38.324  24.401  26.238  1.00  0.00    -0.271 OA
ATOM      5  H   UNL A   1      39.097  22.278  25.457  1.00  0.00     0.163 HD
BRANCH   3   6
ATOM      6  C   UNL A   1      36.114  23.873  25.418  1.00  0.00     0.331 C 
BRANCH   6   7
ATOM      7  O   UNL A   1      35.217  23.536  26.459  1.00  0.00    -0.467 OA
BRANCH   7   8
ATOM      8  C   UNL A   1      33.971  23.086  26.121  1.00  0.00     0.218 A 
ATOM      9  C   UNL A   1      31.636  23.075  26.058  1.00  0.00     0.050 A 
ATOM     10  C   UNL A   1      32.786  23.603  26.593  1.00  0.00     0.092 A 
ATOM     11  N   UNL A   1      31.666  22.082  25.158  1.00  0.00    -0.218 NA
ATOM     12  C   UNL A   1      32.856  21.582  24.797  1.00  0.00     0.230 A 
ATOM     13  N   UNL A   1      34.021  22.063  25.248  1.00  0.00    -0.177 NA
BRANCH   9  14
ATOM     14  C   UNL A   1      30.277  23.555  26.488  1.00  0.00     0.053 C 
ATOM     15  C   UNL A   1      30.072  25.019  26.129  1.00  0.00     0.011 C 
ENDBRANCH   9  14
BRANCH  12  16
ATOM     16  N   UNL A   1      32.900  20.453  23.982  1.00  0.00    -0.324 N 
ATOM     17  H   UNL A   1      32.801  20.613  23.016  1.00  0.00     0.170 HD
BRANCH  16  18
ATOM     18  C   UNL A   1      33.069  19.118  24.369  1.00  0.00     0.044 A 
ATOM     19  C   UNL A   1      32.529  18.665  25.579  1.00  0.00     0.026 A 
ATOM     20  C   UNL A   1      33.651  18.178  23.512  1.00  0.00     0.065 A 
ATOM     21  C   UNL A   1      32.553  17.304  25.912  1.00  0.00     0.008 A 
ATOM     22  C   UNL A   1      33.690  16.830  23.853  1.00  0.00     0.128 A 
ATOM     23  C   UNL A   1      33.135  16.371  25.045  1.00  0.00    -0.015 A 
ATOM     24  F   UNL A   1      34.258  15.967  22.998  1.00  0.00    -0.207 F 
ATOM     25  C   UNL A   1      33.115  14.911  25.374  1.00  0.00     0.047 C 
ENDBRANCH  16  18
ENDBRANCH  12  16
ENDBRANCH   7   8
ENDBRANCH   6   7
ENDBRANCH   3   6
ENDBRANCH   1   2
BRANCH   1  26
ATOM     26  C   UNL A   1      38.142  19.939  24.931  1.00  0.00     0.042 C 
BRANCH  26  27
ATOM     27  C   UNL A   1      39.094  19.954  26.124  1.00  0.00     0.118 C 
BRANCH  27  28
ATOM     28  N   UNL A   1      40.193  19.005  25.996  1.00  0.00    -0.352 N 
ATOM     29  C   UNL A   1      41.551  19.198  26.034  1.00  0.00     0.251 C 
ATOM     30  H   UNL A   1      39.914  18.071  25.860  1.00  0.00     0.163 HD
ATOM     31  O   UNL A   1      42.298  18.259  25.756  1.00  0.00    -0.269 OA
BRANCH  29  32
ATOM     32  C   UNL A   1      42.132  20.514  26.379  1.00  0.00     0.039 A 
ATOM     33  C   UNL A   1      42.577  21.341  25.343  1.00  0.00     0.014 A 
ATOM     34  C   UNL A   1      42.280  20.924  27.706  1.00  0.00     0.014 A 
ATOM     35  C   UNL A   1      43.103  22.604  25.632  1.00  0.00     0.010 A 
ATOM     36  C   UNL A   1      42.739  22.211  27.990  1.00  0.00     0.010 A 
ATOM     37  C   UNL A   1      43.153  23.064  26.957  1.00  0.00    -0.014 A 
BRANCH  37  38
ATOM     38  C   UNL A   1      43.633  24.433  27.281  1.00  0.00     0.031 A 
ATOM     39  C   UNL A   1      42.665  25.490  27.738  1.00  0.00     0.074 A 
ATOM     40  C   UNL A   1      44.933  24.743  27.109  1.00  0.00     0.049 A 
ATOM     41  N   UNL A   1      42.879  26.757  27.986  1.00  0.00    -0.248 NA
ATOM     42  C   UNL A   1      41.267  25.070  27.920  1.00  0.00     0.031 C 
ATOM     43  C   UNL A   1      45.970  23.821  26.642  1.00  0.00     0.029 A 
ATOM     44  N   UNL A   1      45.603  25.926  27.298  1.00  0.00    -0.354 N 
ATOM     45  C   UNL A   1      41.645  27.288  28.342  1.00  0.00     0.074 A 
ATOM     46  C   UNL A   1      40.678  26.217  28.229  1.00  0.00     0.031 C 
ATOM     47  C   UNL A   1      47.146  24.466  26.601  1.00  0.00     0.029 A 
ATOM     48  C   UNL A   1      46.942  25.855  26.999  1.00  0.00     0.049 A 
ATOM     49  H   UNL A   1      45.166  26.748  27.618  1.00  0.00     0.167 HD
ATOM     50  C   UNL A   1      41.348  28.545  28.749  1.00  0.00     0.037 A 
ATOM     51  C   UNL A   1      47.896  26.805  27.031  1.00  0.00     0.037 A 
ATOM     52  C   UNL A   1      42.311  29.607  28.879  1.00  0.00     0.049 A 
ATOM     53  C   UNL A   1      47.533  28.199  27.460  1.00  0.00     0.074 A 
ATOM     54  C   UNL A   1      42.110  30.906  29.313  1.00  0.00     0.029 A 
ATOM     55  N   UNL A   1      43.658  29.491  28.575  1.00  0.00    -0.354 N 
ATOM     56  N   UNL A   1      46.372  28.674  27.839  1.00  0.00    -0.248 NA
ATOM     57  C   UNL A   1      48.619  29.192  27.468  1.00  0.00     0.031 C 
ATOM     58  C   UNL A   1      43.331  31.585  29.241  1.00  0.00     0.029 A 
ATOM     59  C   UNL A   1      44.300  30.698  28.802  1.00  0.00     0.049 A 
ATOM     60  H   UNL A   1      44.096  28.672  28.246  1.00  0.00     0.167 HD
ATOM     61  C   UNL A   1      46.592  30.006  28.163  1.00  0.00     0.074 A 
ATOM     62  C   UNL A   1      48.000  30.263  27.947  1.00  0.00     0.031 C 
ATOM     63  C   UNL A   1      45.706  30.934  28.600  1.00  0.00     0.037 A 
BRANCH  50  64
ATOM     64  C   UNL A   1      39.917  28.837  29.097  1.00  0.00     0.057 A 
ATOM     65  C   UNL A   1      38.988  29.220  28.120  1.00  0.00     0.134 A 
ATOM     66  C   UNL A   1      39.454  28.700  30.411  1.00  0.00     0.134 A 
ATOM     67  F   UNL A   1      39.371  29.382  26.845  1.00  0.00    -0.206 F 
ATOM     68  C   UNL A   1      37.656  29.480  28.442  1.00  0.00     0.040 A 
ATOM     69  C   UNL A   1      38.116  28.931  30.741  1.00  0.00     0.040 A 
ATOM     70  F   UNL A   1      40.288  28.328  31.394  1.00  0.00    -0.206 F 
ATOM     71  C   UNL A   1      37.214  29.329  29.756  1.00  0.00     0.006 A 
ENDBRANCH  50  64
BRANCH  51  72
ATOM     72  C   UNL A   1      49.296  26.472  26.669  1.00  0.00     0.057 A 
ATOM     73  C   UNL A   1      49.773  26.681  25.369  1.00  0.00     0.134 A 
ATOM     74  C   UNL A   1      50.183  25.915  27.599  1.00  0.00     0.134 A 
ATOM     75  F   UNL A   1      48.965  27.193  24.429  1.00  0.00    -0.206 F 
ATOM     76  C   UNL A   1      51.072  26.327  24.999  1.00  0.00     0.040 A 
ATOM     77  C   UNL A   1      51.491  25.579  27.249  1.00  0.00     0.040 A 
ATOM     78  F   UNL A   1      49.790  25.695  28.861  1.00  0.00    -0.206 F 
ATOM     79  C   UNL A   1      51.936  25.776  25.943  1.00  0.00     0.006 A 
ENDBRANCH  51  72
BRANCH  63  80
ATOM     80  C   UNL A   1      46.243  32.297  28.923  1.00  0.00     0.057 A 
ATOM     81  C   UNL A   1      46.284  33.322  27.970  1.00  0.00     0.134 A 
ATOM     82  C   UNL A   1      46.694  32.595  30.216  1.00  0.00     0.134 A 
ATOM     83  F   UNL A   1      45.882  33.096  26.710  1.00  0.00    -0.206 F 
ATOM     84  C   UNL A   1      46.776  34.590  28.284  1.00  0.00     0.040 A 
ATOM     85  C   UNL A   1      47.163  33.866  30.549  1.00  0.00     0.040 A 
ATOM     86  F   UNL A   1      46.673  31.660  31.177  1.00  0.00    -0.206 F 
ATOM     87  C   UNL A   1      47.211  34.866  29.580  1.00  0.00     0.006 A 
ENDBRANCH  63  80
ENDBRANCH  37  38
ENDBRANCH  29  32
ENDBRANCH  27  28
ENDBRANCH  26  27
ENDBRANCH   1  26
TORSDOF 15
ENDMDL
MODEL 2
REMARK VINA RESULT:     -11.5      1.850      6.399
REMARK SMILES CCc1cc(OCC(=O)NCCCNC(=O)c2ccc(-c3c4nc(c(-c5c(F)cccc5F)c5ccc([nH]5)c(-c5c(F)cccc5F)c5nc(c(-c6c(F)cccc6F)c6ccc3[nH]6)C=C5)C=C4)cc2)nc(Nc2ccc(C)c(F)c2)n1
REMARK SMILES IDX 11 1 10 2 8 3 9 4 7 6 6 7 5 8 3 9 4 10 82 11 72 12 71 13
REMARK SMILES IDX 2 14 1 15 73 16 74 18 75 19 81 20 76 21 79 22 77 23 80 24
REMARK SMILES IDX 78 25 12 26 13 27 14 28 15 29 16 31 17 32 18 33 70 34 19 35
REMARK SMILES IDX 69 36 20 37 21 38 22 39 63 40 23 41 68 42 62 43 64 44 24 45
REMARK SMILES IDX 67 46 61 47 60 48 25 50 51 51 34 52 50 53 35 54 38 55 49 56
REMARK SMILES IDX 65 57 36 58 37 59 48 61 66 62 39 63 26 64 27 65 32 66 28 67
REMARK SMILES IDX 29 68 31 69 33 70 30 71 52 72 53 73 58 74 54 75 55 76 57 77
REMARK SMILES IDX 59 78 56 79 40 80 41 81 46 82 42 83 43 84 45 85 47 86 44 87
REMARK H PARENT 10 5 73 17 14 30 64 49 38 60
REMARK Flexibility Score: inf
ROOT
ATOM      1  C   UNL A   1      36.516  20.317  24.972  1.00  0.00     0.117 C 
ENDROOT
BRANCH   1   2
ATOM      2  N   UNL A   1      36.692  21.610  25.605  1.00  0.00    -0.353 N 
ATOM      3  C   UNL A   1      36.681  22.846  25.029  1.00  0.00     0.258 C 
ATOM      4  O   UNL A   1      36.827  23.836  25.749  1.00  0.00    -0.271 OA
ATOM      5  H   UNL A   1      36.839  21.594  26.578  1.00  0.00     0.163 HD
BRANCH   3   6
ATOM      6  C   UNL A   1      36.477  22.986  23.516  1.00  0.00     0.331 C 
BRANCH   6   7
ATOM      7  O   UNL A   1      35.349  23.731  23.096  1.00  0.00    -0.467 OA
BRANCH   7   8
ATOM      8  C   UNL A   1      34.130  23.418  23.629  1.00  0.00     0.218 A 
ATOM      9  C   UNL A   1      32.148  23.776  24.813  1.00  0.00     0.050 A 
ATOM     10  C   UNL A   1      33.395  24.233  24.460  1.00  0.00     0.092 A 
ATOM     11  N   UNL A   1      31.691  22.584  24.406  1.00  0.00    -0.218 NA
ATOM     12  C   UNL A   1      32.492  21.814  23.656  1.00  0.00     0.230 A 
ATOM     13  N   UNL A   1      33.705  22.201  23.243  1.00  0.00    -0.177 NA
BRANCH   9  14
ATOM     14  C   UNL A   1      31.245  24.574  25.712  1.00  0.00     0.053 C 
ATOM     15  C   UNL A   1      31.767  25.990  25.900  1.00  0.00     0.011 C 
ENDBRANCH   9  14
BRANCH  12  16
ATOM     16  N   UNL A   1      32.095  20.513  23.353  1.00  0.00    -0.324 N 
ATOM     17  H   UNL A   1      31.370  20.425  22.694  1.00  0.00     0.170 HD
BRANCH  16  18
ATOM     18  C   UNL A   1      32.602  19.316  23.872  1.00  0.00     0.044 A 
ATOM     19  C   UNL A   1      32.412  19.000  25.223  1.00  0.00     0.026 A 
ATOM     20  C   UNL A   1      33.184  18.350  23.043  1.00  0.00     0.065 A 
ATOM     21  C   UNL A   1      32.774  17.744  25.726  1.00  0.00     0.008 A 
ATOM     22  C   UNL A   1      33.560  17.110  23.548  1.00  0.00     0.128 A 
ATOM     23  C   UNL A   1      33.352  16.783  24.886  1.00  0.00    -0.015 A 
ATOM     24  F   UNL A   1      34.113  16.217  22.715  1.00  0.00    -0.207 F 
ATOM     25  C   UNL A   1      33.692  15.422  25.409  1.00  0.00     0.047 C 
ENDBRANCH  16  18
ENDBRANCH  12  16
ENDBRANCH   7   8
ENDBRANCH   6   7
ENDBRANCH   3   6
ENDBRANCH   1   2
BRANCH   1  26
ATOM     26  C   UNL A   1      37.795  19.489  24.954  1.00  0.00     0.042 C 
BRANCH  26  27
ATOM     27  C   UNL A   1      38.939  20.056  25.792  1.00  0.00     0.118 C 
BRANCH  27  28
ATOM     28  N   UNL A   1      40.134  19.221  25.775  1.00  0.00    -0.352 N 
ATOM     29  C   UNL A   1      41.442  19.525  26.059  1.00  0.00     0.251 C 
ATOM     30  H   UNL A   1      39.976  18.284  25.517  1.00  0.00     0.163 HD
ATOM     31  O   UNL A   1      42.315  18.685  25.836  1.00  0.00    -0.269 OA
BRANCH  29  32
ATOM     32  C   UNL A   1      41.824  20.845  26.605  1.00  0.00     0.039 A 
ATOM     33  C   UNL A   1      42.269  21.832  25.719  1.00  0.00     0.014 A 
ATOM     34  C   UNL A   1      41.788  21.110  27.976  1.00  0.00     0.014 A 
ATOM     35  C   UNL A   1      42.609  23.100  26.198  1.00  0.00     0.010 A 
ATOM     36  C   UNL A   1      42.059  22.396  28.445  1.00  0.00     0.010 A 
ATOM     37  C   UNL A   1      42.471  23.404  27.561  1.00  0.00    -0.014 A 
BRANCH  37  38
ATOM     38  C   UNL A   1      42.749  24.769  28.079  1.00  0.00     0.031 A 
ATOM     39  C   UNL A   1      44.143  25.156  28.493  1.00  0.00     0.074 A 
ATOM     40  C   UNL A   1      41.737  25.645  28.233  1.00  0.00     0.049 A 
ATOM     41  N   UNL A   1      44.566  26.266  29.043  1.00  0.00    -0.248 NA
ATOM     42  C   UNL A   1      45.198  24.153  28.278  1.00  0.00     0.031 C 
ATOM     43  C   UNL A   1      40.335  25.386  27.900  1.00  0.00     0.029 A 
ATOM     44  N   UNL A   1      41.730  26.928  28.719  1.00  0.00    -0.354 N 
ATOM     45  C   UNL A   1      45.929  26.092  29.249  1.00  0.00     0.074 A 
ATOM     46  C   UNL A   1      46.253  24.751  28.812  1.00  0.00     0.031 C 
ATOM     47  C   UNL A   1      39.609  26.482  28.172  1.00  0.00     0.029 A 
ATOM     48  C   UNL A   1      40.483  27.506  28.734  1.00  0.00     0.049 A 
ATOM     49  H   UNL A   1      42.542  27.393  29.027  1.00  0.00     0.167 HD
ATOM     50  C   UNL A   1      46.832  26.976  29.736  1.00  0.00     0.037 A 
ATOM     51  C   UNL A   1      40.088  28.719  29.163  1.00  0.00     0.037 A 
ATOM     52  C   UNL A   1      46.515  28.315  30.156  1.00  0.00     0.049 A 
ATOM     53  C   UNL A   1      41.108  29.671  29.725  1.00  0.00     0.074 A 
ATOM     54  C   UNL A   1      47.368  29.295  30.635  1.00  0.00     0.029 A 
ATOM     55  N   UNL A   1      45.242  28.864  30.147  1.00  0.00    -0.354 N 
ATOM     56  N   UNL A   1      42.400  29.509  29.869  1.00  0.00    -0.248 NA
ATOM     57  C   UNL A   1      40.611  30.978  30.181  1.00  0.00     0.031 C 
ATOM     58  C   UNL A   1      46.606  30.426  30.945  1.00  0.00     0.029 A 
ATOM     59  C   UNL A   1      45.285  30.165  30.621  1.00  0.00     0.049 A 
ATOM     60  H   UNL A   1      44.427  28.398  29.848  1.00  0.00     0.167 HD
ATOM     61  C   UNL A   1      42.876  30.701  30.400  1.00  0.00     0.074 A 
ATOM     62  C   UNL A   1      41.735  31.582  30.541  1.00  0.00     0.031 C 
ATOM     63  C   UNL A   1      44.144  31.037  30.739  1.00  0.00     0.037 A 
BRANCH  50  64
ATOM     64  C   UNL A   1      48.260  26.522  29.830  1.00  0.00     0.057 A 
ATOM     65  C   UNL A   1      48.738  25.828  30.950  1.00  0.00     0.134 A 
ATOM     66  C   UNL A   1      49.156  26.745  28.778  1.00  0.00     0.134 A 
ATOM     67  F   UNL A   1      47.933  25.593  31.997  1.00  0.00    -0.206 F 
ATOM     68  C   UNL A   1      50.062  25.396  31.031  1.00  0.00     0.040 A 
ATOM     69  C   UNL A   1      50.477  26.294  28.836  1.00  0.00     0.040 A 
ATOM     70  F   UNL A   1      48.763  27.395  27.672  1.00  0.00    -0.206 F 
ATOM     71  C   UNL A   1      50.935  25.622  29.968  1.00  0.00     0.006 A 
ENDBRANCH  50  64
BRANCH  51  72
ATOM     72  C   UNL A   1      38.663  29.122  29.060  1.00  0.00     0.057 A 
ATOM     73  C   UNL A   1      38.140  29.619  27.861  1.00  0.00     0.134 A 
ATOM     74  C   UNL A   1      37.798  29.046  30.159  1.00  0.00     0.134 A 
ATOM     75  F   UNL A   1      38.925  29.734  26.779  1.00  0.00    -0.206 F 
ATOM     76  C   UNL A   1      36.815  30.048  27.761  1.00  0.00     0.040 A 
ATOM     77  C   UNL A   1      36.465  29.449  30.067  1.00  0.00     0.040 A 
ATOM     78  F   UNL A   1      38.236  28.574  31.334  1.00  0.00    -0.206 F 
ATOM     79  C   UNL A   1      35.973  29.961  28.868  1.00  0.00     0.006 A 
ENDBRANCH  51  72
BRANCH  63  80
ATOM     80  C   UNL A   1      44.373  32.429  31.247  1.00  0.00     0.057 A 
ATOM     81  C   UNL A   1      44.344  32.734  32.613  1.00  0.00     0.134 A 
ATOM     82  C   UNL A   1      44.661  33.472  30.356  1.00  0.00     0.134 A 
ATOM     83  F   UNL A   1      44.060  31.783  33.516  1.00  0.00    -0.206 F 
ATOM     84  C   UNL A   1      44.569  34.031  33.076  1.00  0.00     0.040 A 
ATOM     85  C   UNL A   1      44.914  34.768  30.808  1.00  0.00     0.040 A 
ATOM     86  F   UNL A   1      44.712  33.245  29.035  1.00  0.00    -0.206 F 
ATOM     87  C   UNL A   1      44.862  35.052  32.171  1.00  0.00     0.006 A 
ENDBRANCH  63  80
ENDBRANCH  37  38
ENDBRANCH  29  32
ENDBRANCH  27  28
ENDBRANCH  26  27
ENDBRANCH   1  26
TORSDOF 15
ENDMDL
MODEL 3
REMARK VINA RESULT:     -11.5      1.656      7.079
REMARK SMILES CCc1cc(OCC(=O)NCCCNC(=O)c2ccc(-c3c4nc(c(-c5c(F)cccc5F)c5ccc([nH]5)c(-c5c(F)cccc5F)c5nc(c(-c6c(F)cccc6F)c6ccc3[nH]6)C=C5)C=C4)cc2)nc(Nc2ccc(C)c(F)c2)n1
REMARK SMILES IDX 11 1 10 2 8 3 9 4 7 6 6 7 5 8 3 9 4 10 82 11 72 12 71 13
REMARK SMILES IDX 2 14 1 15 73 16 74 18 75 19 81 20 76 21 79 22 77 23 80 24
REMARK SMILES IDX 78 25 12 26 13 27 14 28 15 29 16 31 17 32 18 33 70 34 19 35
REMARK SMILES IDX 69 36 20 37 21 38 22 39 63 40 23 41 68 42 62 43 64 44 24 45
REMARK SMILES IDX 67 46 61 47 60 48 25 50 51 51 34 52 50 53 35 54 38 55 49 56
REMARK SMILES IDX 65 57 36 58 37 59 48 61 66 62 39 63 26 64 27 65 32 66 28 67
REMARK SMILES IDX 29 68 31 69 33 70 30 71 52 72 53 73 58 74 54 75 55 76 57 77
REMARK SMILES IDX 59 78 56 79 40 80 41 81 46 82 42 83 43 84 45 85 47 86 44 87
REMARK H PARENT 10 5 73 17 14 30 64 49 38 60
REMARK Flexibility Score: inf
ROOT
ATOM      1  C   UNL A   1      37.578  20.965  24.491  1.00  0.00     0.117 C 
ENDROOT
BRANCH   1   2
ATOM      2  N   UNL A   1      38.121  22.106  25.203  1.00  0.00    -0.353 N 
ATOM      3  C   UNL A   1      37.450  23.126  25.811  1.00  0.00     0.258 C 
ATOM      4  O   UNL A   1      38.099  23.999  26.391  1.00  0.00    -0.271 OA
ATOM      5  H   UNL A   1      39.103  22.151  25.254  1.00  0.00     0.163 HD
BRANCH   3   6
ATOM      6  C   UNL A   1      35.918  23.164  25.776  1.00  0.00     0.331 C 
BRANCH   6   7
ATOM      7  O   UNL A   1      35.243  22.138  26.479  1.00  0.00    -0.467 OA
BRANCH   7   8
ATOM      8  C   UNL A   1      34.126  21.590  25.912  1.00  0.00     0.218 A 
ATOM      9  C   UNL A   1      32.811  19.924  24.935  1.00  0.00     0.050 A 
ATOM     10  C   UNL A   1      34.050  20.326  25.370  1.00  0.00     0.092 A 
ATOM     11  N   UNL A   1      31.743  20.733  24.996  1.00  0.00    -0.218 NA
ATOM     12  C   UNL A   1      31.909  21.975  25.472  1.00  0.00     0.230 A 
ATOM     13  N   UNL A   1      33.076  22.430  25.945  1.00  0.00    -0.177 NA
BRANCH   9  14
ATOM     14  C   UNL A   1      32.595  18.566  24.327  1.00  0.00     0.053 C 
ATOM     15  C   UNL A   1      32.559  17.484  25.395  1.00  0.00     0.011 C 
ENDBRANCH   9  14
BRANCH  12  16
ATOM     16  N   UNL A   1      30.849  22.877  25.400  1.00  0.00    -0.324 N 
ATOM     17  H   UNL A   1      29.964  22.524  25.644  1.00  0.00     0.170 HD
BRANCH  16  18
ATOM     18  C   UNL A   1      30.890  24.225  25.025  1.00  0.00     0.044 A 
ATOM     19  C   UNL A   1      30.676  24.588  23.689  1.00  0.00     0.026 A 
ATOM     20  C   UNL A   1      31.006  25.244  25.976  1.00  0.00     0.065 A 
ATOM     21  C   UNL A   1      30.560  25.934  23.320  1.00  0.00     0.008 A 
ATOM     22  C   UNL A   1      30.908  26.581  25.604  1.00  0.00     0.128 A 
ATOM     23  C   UNL A   1      30.674  26.946  24.281  1.00  0.00    -0.015 A 
ATOM     24  F   UNL A   1      31.025  27.522  26.553  1.00  0.00    -0.207 F 
ATOM     25  C   UNL A   1      30.498  28.383  23.898  1.00  0.00     0.047 C 
ENDBRANCH  16  18
ENDBRANCH  12  16
ENDBRANCH   7   8
ENDBRANCH   6   7
ENDBRANCH   3   6
ENDBRANCH   1   2
BRANCH   1  26
ATOM     26  C   UNL A   1      38.203  19.646  24.927  1.00  0.00     0.042 C 
BRANCH  26  27
ATOM     27  C   UNL A   1      39.145  19.745  26.126  1.00  0.00     0.118 C 
BRANCH  27  28
ATOM     28  N   UNL A   1      40.327  18.901  26.001  1.00  0.00    -0.352 N 
ATOM     29  C   UNL A   1      41.661  19.219  26.049  1.00  0.00     0.251 C 
ATOM     30  H   UNL A   1      40.136  17.946  25.858  1.00  0.00     0.163 HD
ATOM     31  O   UNL A   1      42.494  18.355  25.772  1.00  0.00    -0.269 OA
BRANCH  29  32
ATOM     32  C   UNL A   1      42.116  20.581  26.404  1.00  0.00     0.039 A 
ATOM     33  C   UNL A   1      42.409  21.479  25.372  1.00  0.00     0.014 A 
ATOM     34  C   UNL A   1      42.294  20.971  27.733  1.00  0.00     0.014 A 
ATOM     35  C   UNL A   1      42.812  22.783  25.672  1.00  0.00     0.010 A 
ATOM     36  C   UNL A   1      42.627  22.292  28.033  1.00  0.00     0.010 A 
ATOM     37  C   UNL A   1      42.888  23.212  27.006  1.00  0.00    -0.014 A 
BRANCH  37  38
ATOM     38  C   UNL A   1      43.236  24.616  27.347  1.00  0.00     0.031 A 
ATOM     39  C   UNL A   1      44.664  25.084  27.279  1.00  0.00     0.074 A 
ATOM     40  C   UNL A   1      42.274  25.459  27.772  1.00  0.00     0.049 A 
ATOM     41  N   UNL A   1      45.174  26.242  27.615  1.00  0.00    -0.248 NA
ATOM     42  C   UNL A   1      45.654  24.113  26.787  1.00  0.00     0.031 C 
ATOM     43  C   UNL A   1      40.856  25.122  27.914  1.00  0.00     0.029 A 
ATOM     44  N   UNL A   1      42.346  26.768  28.176  1.00  0.00    -0.354 N 
ATOM     45  C   UNL A   1      46.540  26.136  27.387  1.00  0.00     0.074 A 
ATOM     46  C   UNL A   1      46.788  24.785  26.931  1.00  0.00     0.031 C 
ATOM     47  C   UNL A   1      40.190  26.203  28.351  1.00  0.00     0.029 A 
ATOM     48  C   UNL A   1      41.136  27.294  28.559  1.00  0.00     0.049 A 
ATOM     49  H   UNL A   1      43.185  27.283  28.189  1.00  0.00     0.167 HD
ATOM     50  C   UNL A   1      47.498  27.084  27.521  1.00  0.00     0.037 A 
ATOM     51  C   UNL A   1      40.826  28.515  29.035  1.00  0.00     0.037 A 
ATOM     52  C   UNL A   1      47.251  28.434  27.958  1.00  0.00     0.049 A 
ATOM     53  C   UNL A   1      41.913  29.540  29.200  1.00  0.00     0.074 A 
ATOM     54  C   UNL A   1      48.154  29.475  28.096  1.00  0.00     0.029 A 
ATOM     55  N   UNL A   1      46.011  28.929  28.327  1.00  0.00    -0.354 N 
ATOM     56  N   UNL A   1      43.193  29.440  28.935  1.00  0.00    -0.248 NA
ATOM     57  C   UNL A   1      41.511  30.852  29.730  1.00  0.00     0.031 C 
ATOM     58  C   UNL A   1      47.463  30.591  28.580  1.00  0.00     0.029 A 
ATOM     59  C   UNL A   1      46.125  30.257  28.703  1.00  0.00     0.049 A 
ATOM     60  H   UNL A   1      45.171  28.413  28.323  1.00  0.00     0.167 HD
ATOM     61  C   UNL A   1      43.741  30.681  29.232  1.00  0.00     0.074 A 
ATOM     62  C   UNL A   1      42.654  31.522  29.687  1.00  0.00     0.031 C 
ATOM     63  C   UNL A   1      45.030  31.088  29.136  1.00  0.00     0.037 A 
BRANCH  50  64
ATOM     64  C   UNL A   1      48.907  26.695  27.178  1.00  0.00     0.057 A 
ATOM     65  C   UNL A   1      49.773  26.155  28.138  1.00  0.00     0.134 A 
ATOM     66  C   UNL A   1      49.391  26.825  25.871  1.00  0.00     0.134 A 
ATOM     67  F   UNL A   1      49.375  26.016  29.411  1.00  0.00    -0.206 F 
ATOM     68  C   UNL A   1      51.079  25.782  27.815  1.00  0.00     0.040 A 
ATOM     69  C   UNL A   1      50.687  26.431  25.530  1.00  0.00     0.040 A 
ATOM     70  F   UNL A   1      48.612  27.327  24.901  1.00  0.00    -0.206 F 
ATOM     71  C   UNL A   1      51.537  25.913  26.506  1.00  0.00     0.006 A 
ENDBRANCH  50  64
BRANCH  51  72
ATOM     72  C   UNL A   1      39.420  28.852  29.371  1.00  0.00     0.057 A 
ATOM     73  C   UNL A   1      38.574  29.438  28.422  1.00  0.00     0.134 A 
ATOM     74  C   UNL A   1      38.895  28.624  30.649  1.00  0.00     0.134 A 
ATOM     75  F   UNL A   1      39.025  29.700  27.186  1.00  0.00    -0.206 F 
ATOM     76  C   UNL A   1      37.265  29.807  28.736  1.00  0.00     0.040 A 
ATOM     77  C   UNL A   1      37.581  28.966  30.970  1.00  0.00     0.040 A 
ATOM     78  F   UNL A   1      39.653  28.061  31.601  1.00  0.00    -0.206 F 
ATOM     79  C   UNL A   1      36.765  29.569  30.014  1.00  0.00     0.006 A 
ENDBRANCH  51  72
BRANCH  63  80
ATOM     80  C   UNL A   1      45.327  32.517  29.480  1.00  0.00     0.057 A 
ATOM     81  C   UNL A   1      45.717  32.903  30.769  1.00  0.00     0.134 A 
ATOM     82  C   UNL A   1      45.252  33.515  28.499  1.00  0.00     0.134 A 
ATOM     83  F   UNL A   1      45.792  31.999  31.757  1.00  0.00    -0.206 F 
ATOM     84  C   UNL A   1      46.000  34.235  31.076  1.00  0.00     0.040 A 
ATOM     85  C   UNL A   1      45.559  34.845  28.788  1.00  0.00     0.040 A 
ATOM     86  F   UNL A   1      44.893  33.209  27.244  1.00  0.00    -0.206 F 
ATOM     87  C   UNL A   1      45.928  35.209  30.080  1.00  0.00     0.006 A 
ENDBRANCH  63  80
ENDBRANCH  37  38
ENDBRANCH  29  32
ENDBRANCH  27  28
ENDBRANCH  26  27
ENDBRANCH   1  26
TORSDOF 15
ENDMDL
