MODEL 1
REMARK VINA RESULT:     -13.3      0.000      0.000
REMARK SMILES O=C(NCCCNC(=O)[C@]1(NC(=O)C2CCN(C(=O)C3CC3)CC2)CCCc2ccccc21)c1ccc(-c2c3nc(c(-c4c(F)cccc4F)c4ccc([nH]4)c(-c4c(F)cccc4F)c4nc(c(-c5c(F)cccc5F)c5ccc2[nH]5)C=C4)C=C3)cc1
REMARK SMILES IDX 5 1 4 2 3 3 1 4 2 5 34 7 35 8 87 9 36 10 86 11 37 12 38 13
REMARK SMILES IDX 39 14 80 15 40 16 85 17 79 18 81 19 41 20 84 21 78 22 77 23
REMARK SMILES IDX 42 25 68 26 51 27 67 28 52 29 55 30 66 31 82 32 53 33 54 34
REMARK SMILES IDX 65 36 83 37 56 38 43 39 44 40 49 41 45 42 46 43 48 44 50 45
REMARK SMILES IDX 47 46 69 47 70 48 75 49 71 50 72 51 74 52 76 53 73 54 57 55
REMARK SMILES IDX 58 56 63 57 59 58 60 59 62 60 64 61 61 62 6 63 7 64 8 65
REMARK SMILES IDX 9 67 10 68 25 69 33 70 26 71 28 72 32 73 27 74 29 75 31 76
REMARK SMILES IDX 30 77 11 78 12 79 13 81 14 82 15 83 24 84 16 85 23 86 17 87
REMARK SMILES IDX 18 88 19 89 20 90 21 91 22 92
REMARK H PARENT 3 6 81 24 55 35 7 66 11 80
REMARK Flexibility Score: inf
ROOT
ATOM      1  C   UNL A   1      37.392  23.633  24.899  1.00  0.00     0.042 C 
ENDROOT
BRANCH   1   2
ATOM      2  C   UNL A   1      38.093  23.987  26.207  1.00  0.00     0.118 C 
BRANCH   2   3
ATOM      3  N   UNL A   1      39.522  23.705  26.133  1.00  0.00    -0.352 N 
ATOM      4  O   UNL A   1      41.710  24.209  26.093  1.00  0.00    -0.269 OA
ATOM      5  C   UNL A   1      40.593  24.460  26.536  1.00  0.00     0.251 C 
ATOM      6  H   UNL A   1      39.753  22.836  25.732  1.00  0.00     0.163 HD
BRANCH   5   7
ATOM      7  C   UNL A   1      40.417  25.555  27.513  1.00  0.00     0.039 A 
ATOM      8  C   UNL A   1      39.529  25.420  28.583  1.00  0.00     0.014 A 
ATOM      9  C   UNL A   1      41.224  26.693  27.413  1.00  0.00     0.014 A 
ATOM     10  C   UNL A   1      39.369  26.461  29.488  1.00  0.00     0.010 A 
ATOM     11  C   UNL A   1      41.122  27.703  28.371  1.00  0.00     0.010 A 
ATOM     12  C   UNL A   1      40.184  27.601  29.409  1.00  0.00    -0.014 A 
BRANCH  12  13
ATOM     13  C   UNL A   1      40.092  28.636  30.466  1.00  0.00     0.031 A 
ATOM     14  C   UNL A   1      39.084  29.744  30.378  1.00  0.00     0.074 A 
ATOM     15  C   UNL A   1      40.931  28.561  31.518  1.00  0.00     0.049 A 
ATOM     16  N   UNL A   1      38.876  30.735  31.207  1.00  0.00    -0.248 NA
ATOM     17  C   UNL A   1      38.199  29.745  29.203  1.00  0.00     0.031 C 
ATOM     18  C   UNL A   1      41.960  27.535  31.702  1.00  0.00     0.029 A 
ATOM     19  N   UNL A   1      41.046  29.349  32.634  1.00  0.00    -0.354 N 
ATOM     20  C   UNL A   1      37.850  31.487  30.647  1.00  0.00     0.074 A 
ATOM     21  C   UNL A   1      37.497  30.853  29.395  1.00  0.00     0.031 C 
ATOM     22  C   UNL A   1      42.575  27.733  32.876  1.00  0.00     0.029 A 
ATOM     23  C   UNL A   1      42.029  28.934  33.498  1.00  0.00     0.049 A 
ATOM     24  H   UNL A   1      40.479  30.137  32.798  1.00  0.00     0.167 HD
ATOM     25  C   UNL A   1      37.257  32.600  31.141  1.00  0.00     0.037 A 
ATOM     26  C   UNL A   1      42.458  29.471  34.654  1.00  0.00     0.037 A 
ATOM     27  C   UNL A   1      37.611  33.219  32.393  1.00  0.00     0.049 A 
ATOM     28  C   UNL A   1      41.802  30.720  35.162  1.00  0.00     0.074 A 
ATOM     29  C   UNL A   1      37.049  34.331  32.996  1.00  0.00     0.029 A 
ATOM     30  N   UNL A   1      38.628  32.782  33.231  1.00  0.00    -0.354 N 
ATOM     31  N   UNL A   1      40.812  31.402  34.641  1.00  0.00    -0.248 NA
ATOM     32  C   UNL A   1      42.323  31.276  36.418  1.00  0.00     0.031 C 
ATOM     33  C   UNL A   1      37.754  34.593  34.176  1.00  0.00     0.029 A 
ATOM     34  C   UNL A   1      38.724  33.615  34.335  1.00  0.00     0.049 A 
ATOM     35  H   UNL A   1      39.197  31.996  33.067  1.00  0.00     0.167 HD
ATOM     36  C   UNL A   1      40.578  32.458  35.510  1.00  0.00     0.074 A 
ATOM     37  C   UNL A   1      41.521  32.314  36.603  1.00  0.00     0.031 C 
ATOM     38  C   UNL A   1      39.666  33.456  35.413  1.00  0.00     0.037 A 
BRANCH  25  39
ATOM     39  C   UNL A   1      36.177  33.234  30.313  1.00  0.00     0.057 A 
ATOM     40  C   UNL A   1      36.467  34.060  29.219  1.00  0.00     0.134 A 
ATOM     41  C   UNL A   1      34.826  32.994  30.598  1.00  0.00     0.134 A 
ATOM     42  F   UNL A   1      37.738  34.342  28.899  1.00  0.00    -0.206 F 
ATOM     43  C   UNL A   1      35.453  34.641  28.452  1.00  0.00     0.040 A 
ATOM     44  C   UNL A   1      33.805  33.549  29.824  1.00  0.00     0.040 A 
ATOM     45  F   UNL A   1      34.476  32.209  31.628  1.00  0.00    -0.206 F 
ATOM     46  C   UNL A   1      34.118  34.380  28.751  1.00  0.00     0.006 A 
ENDBRANCH  25  39
BRANCH  26  47
ATOM     47  C   UNL A   1      43.569  28.825  35.398  1.00  0.00     0.057 A 
ATOM     48  C   UNL A   1      43.318  27.886  36.403  1.00  0.00     0.134 A 
ATOM     49  C   UNL A   1      44.907  29.114  35.102  1.00  0.00     0.134 A 
ATOM     50  F   UNL A   1      42.057  27.579  36.741  1.00  0.00    -0.206 F 
ATOM     51  C   UNL A   1      44.358  27.264  37.097  1.00  0.00     0.040 A 
ATOM     52  C   UNL A   1      45.956  28.481  35.768  1.00  0.00     0.040 A 
ATOM     53  F   UNL A   1      45.213  29.999  34.142  1.00  0.00    -0.206 F 
ATOM     54  C   UNL A   1      45.682  27.555  36.774  1.00  0.00     0.006 A 
ENDBRANCH  26  47
BRANCH  38  55
ATOM     55  C   UNL A   1      39.624  34.451  36.535  1.00  0.00     0.057 A 
ATOM     56  C   UNL A   1      38.888  34.217  37.703  1.00  0.00     0.134 A 
ATOM     57  C   UNL A   1      40.354  35.643  36.455  1.00  0.00     0.134 A 
ATOM     58  F   UNL A   1      38.156  33.101  37.834  1.00  0.00    -0.206 F 
ATOM     59  C   UNL A   1      38.863  35.146  38.744  1.00  0.00     0.040 A 
ATOM     60  C   UNL A   1      40.357  36.567  37.499  1.00  0.00     0.040 A 
ATOM     61  F   UNL A   1      41.084  35.923  35.364  1.00  0.00    -0.206 F 
ATOM     62  C   UNL A   1      39.604  36.323  38.646  1.00  0.00     0.006 A 
ENDBRANCH  38  55
ENDBRANCH  12  13
ENDBRANCH   5   7
ENDBRANCH   2   3
ENDBRANCH   1   2
BRANCH   1  63
ATOM     63  C   UNL A   1      36.349  22.533  25.074  1.00  0.00     0.117 C 
BRANCH  63  64
ATOM     64  N   UNL A   1      35.682  22.589  26.364  1.00  0.00    -0.354 N 
ATOM     65  C   UNL A   1      34.506  23.116  26.805  1.00  0.00     0.250 C 
ATOM     66  H   UNL A   1      36.196  22.148  27.079  1.00  0.00     0.163 HD
ATOM     67  O   UNL A   1      34.305  22.923  28.014  1.00  0.00    -0.272 OA
BRANCH  65  68
ATOM     68  C   UNL A   1      33.515  24.015  25.962  1.00  0.00     0.145 C 
ATOM     69  C   UNL A   1      32.214  24.093  26.828  1.00  0.00     0.044 C 
ATOM     70  C   UNL A   1      33.100  23.418  24.608  1.00  0.00    -0.010 A 
ATOM     71  C   UNL A   1      31.570  22.724  27.019  1.00  0.00     0.008 C 
ATOM     72  C   UNL A   1      32.102  22.418  24.536  1.00  0.00    -0.042 A 
ATOM     73  C   UNL A   1      33.743  23.801  23.411  1.00  0.00     0.007 A 
ATOM     74  C   UNL A   1      31.173  22.108  25.687  1.00  0.00     0.036 C 
ATOM     75  C   UNL A   1      31.877  21.740  23.325  1.00  0.00     0.004 A 
ATOM     76  C   UNL A   1      33.497  23.128  22.211  1.00  0.00     0.000 A 
ATOM     77  C   UNL A   1      32.588  22.076  22.176  1.00  0.00     0.000 A 
BRANCH  68  78
ATOM     78  N   UNL A   1      33.917  25.444  25.808  1.00  0.00    -0.338 N 
ATOM     79  C   UNL A   1      33.291  26.637  25.963  1.00  0.00     0.224 C 
ATOM     80  H   UNL A   1      34.857  25.544  25.530  1.00  0.00     0.164 HD
ATOM     81  O   UNL A   1      33.998  27.593  26.292  1.00  0.00    -0.275 OA
BRANCH  79  82
ATOM     82  C   UNL A   1      31.812  26.818  25.645  1.00  0.00     0.082 C 
ATOM     83  C   UNL A   1      31.541  26.580  24.147  1.00  0.00     0.035 C 
ATOM     84  C   UNL A   1      31.298  28.195  26.113  1.00  0.00     0.035 C 
ATOM     85  C   UNL A   1      31.849  27.798  23.276  1.00  0.00     0.120 C 
ATOM     86  C   UNL A   1      31.668  29.322  25.147  1.00  0.00     0.120 C 
ATOM     87  N   UNL A   1      31.184  28.981  23.817  1.00  0.00    -0.342 N 
ATOM     88  C   UNL A   1      30.111  29.515  23.104  1.00  0.00     0.225 C 
ATOM     89  O   UNL A   1      29.756  29.012  22.037  1.00  0.00    -0.275 OA
BRANCH  88  90
ATOM     90  C   UNL A   1      29.311  30.704  23.533  1.00  0.00     0.079 C 
ATOM     91  C   UNL A   1      28.684  31.754  22.662  1.00  0.00     0.014 C 
ATOM     92  C   UNL A   1      27.812  30.790  23.432  1.00  0.00     0.014 C 
ENDBRANCH  88  90
ENDBRANCH  79  82
ENDBRANCH  68  78
ENDBRANCH  65  68
ENDBRANCH  63  64
ENDBRANCH   1  63
TORSDOF 13
ENDMDL
MODEL 2
REMARK VINA RESULT:     -13.2      5.218     10.137
REMARK SMILES O=C(NCCCNC(=O)[C@]1(NC(=O)C2CCN(C(=O)C3CC3)CC2)CCCc2ccccc21)c1ccc(-c2c3nc(c(-c4c(F)cccc4F)c4ccc([nH]4)c(-c4c(F)cccc4F)c4nc(c(-c5c(F)cccc5F)c5ccc2[nH]5)C=C4)C=C3)cc1
REMARK SMILES IDX 5 1 4 2 3 3 1 4 2 5 34 7 35 8 87 9 36 10 86 11 37 12 38 13
REMARK SMILES IDX 39 14 80 15 40 16 85 17 79 18 81 19 41 20 84 21 78 22 77 23
REMARK SMILES IDX 42 25 68 26 51 27 67 28 52 29 55 30 66 31 82 32 53 33 54 34
REMARK SMILES IDX 65 36 83 37 56 38 43 39 44 40 49 41 45 42 46 43 48 44 50 45
REMARK SMILES IDX 47 46 69 47 70 48 75 49 71 50 72 51 74 52 76 53 73 54 57 55
REMARK SMILES IDX 58 56 63 57 59 58 60 59 62 60 64 61 61 62 6 63 7 64 8 65
REMARK SMILES IDX 9 67 10 68 25 69 33 70 26 71 28 72 32 73 27 74 29 75 31 76
REMARK SMILES IDX 30 77 11 78 12 79 13 81 14 82 15 83 24 84 16 85 23 86 17 87
REMARK SMILES IDX 18 88 19 89 20 90 21 91 22 92
REMARK H PARENT 3 6 81 24 55 35 7 66 11 80
REMARK Flexibility Score: inf
ROOT
ATOM      1  C   UNL A   1      33.168  28.592  27.350  1.00  0.00     0.042 C 
ENDROOT
BRANCH   1   2
ATOM      2  C   UNL A   1      34.620  29.051  27.451  1.00  0.00     0.118 C 
BRANCH   2   3
ATOM      3  N   UNL A   1      34.766  30.134  28.416  1.00  0.00    -0.352 N 
ATOM      4  O   UNL A   1      35.602  31.165  30.227  1.00  0.00    -0.269 OA
ATOM      5  C   UNL A   1      35.799  30.425  29.268  1.00  0.00     0.251 C 
ATOM      6  H   UNL A   1      34.002  30.754  28.462  1.00  0.00     0.163 HD
BRANCH   5   7
ATOM      7  C   UNL A   1      37.148  29.872  29.031  1.00  0.00     0.039 A 
ATOM      8  C   UNL A   1      37.756  29.988  27.778  1.00  0.00     0.014 A 
ATOM      9  C   UNL A   1      37.855  29.315  30.102  1.00  0.00     0.014 A 
ATOM     10  C   UNL A   1      39.022  29.457  27.568  1.00  0.00     0.010 A 
ATOM     11  C   UNL A   1      39.159  28.856  29.911  1.00  0.00     0.010 A 
ATOM     12  C   UNL A   1      39.748  28.912  28.638  1.00  0.00    -0.014 A 
BRANCH  12  13
ATOM     13  C   UNL A   1      41.149  28.477  28.421  1.00  0.00     0.031 A 
ATOM     14  C   UNL A   1      41.471  27.057  28.057  1.00  0.00     0.074 A 
ATOM     15  C   UNL A   1      42.135  29.387  28.550  1.00  0.00     0.049 A 
ATOM     16  N   UNL A   1      42.639  26.507  27.842  1.00  0.00    -0.248 NA
ATOM     17  C   UNL A   1      40.335  26.132  27.924  1.00  0.00     0.031 C 
ATOM     18  C   UNL A   1      41.940  30.793  28.914  1.00  0.00     0.029 A 
ATOM     19  N   UNL A   1      43.490  29.274  28.381  1.00  0.00    -0.354 N 
ATOM     20  C   UNL A   1      42.382  25.170  27.566  1.00  0.00     0.074 A 
ATOM     21  C   UNL A   1      40.950  24.986  27.668  1.00  0.00     0.031 C 
ATOM     22  C   UNL A   1      43.125  31.418  28.903  1.00  0.00     0.029 A 
ATOM     23  C   UNL A   1      44.168  30.448  28.595  1.00  0.00     0.049 A 
ATOM     24  H   UNL A   1      43.933  28.431  28.131  1.00  0.00     0.167 HD
ATOM     25  C   UNL A   1      43.263  24.191  27.251  1.00  0.00     0.037 A 
ATOM     26  C   UNL A   1      45.487  30.712  28.566  1.00  0.00     0.037 A 
ATOM     27  C   UNL A   1      44.688  24.388  27.145  1.00  0.00     0.049 A 
ATOM     28  C   UNL A   1      46.443  29.602  28.243  1.00  0.00     0.074 A 
ATOM     29  C   UNL A   1      45.663  23.468  26.801  1.00  0.00     0.029 A 
ATOM     30  N   UNL A   1      45.341  25.588  27.391  1.00  0.00    -0.354 N 
ATOM     31  N   UNL A   1      46.185  28.351  27.952  1.00  0.00    -0.248 NA
ATOM     32  C   UNL A   1      47.872  29.940  28.245  1.00  0.00     0.031 C 
ATOM     33  C   UNL A   1      46.909  24.098  26.882  1.00  0.00     0.029 A 
ATOM     34  C   UNL A   1      46.707  25.426  27.228  1.00  0.00     0.049 A 
ATOM     35  H   UNL A   1      44.898  26.430  27.643  1.00  0.00     0.167 HD
ATOM     36  C   UNL A   1      47.415  27.753  27.720  1.00  0.00     0.074 A 
ATOM     37  C   UNL A   1      48.419  28.787  27.887  1.00  0.00     0.031 C 
ATOM     38  C   UNL A   1      47.690  26.466  27.397  1.00  0.00     0.037 A 
BRANCH  25  39
ATOM     39  C   UNL A   1      42.715  22.813  27.020  1.00  0.00     0.057 A 
ATOM     40  C   UNL A   1      42.582  22.272  25.735  1.00  0.00     0.134 A 
ATOM     41  C   UNL A   1      42.340  22.005  28.101  1.00  0.00     0.134 A 
ATOM     42  F   UNL A   1      42.910  22.997  24.655  1.00  0.00    -0.206 F 
ATOM     43  C   UNL A   1      42.075  20.986  25.531  1.00  0.00     0.040 A 
ATOM     44  C   UNL A   1      41.855  20.709  27.912  1.00  0.00     0.040 A 
ATOM     45  F   UNL A   1      42.445  22.457  29.360  1.00  0.00    -0.206 F 
ATOM     46  C   UNL A   1      41.716  20.199  26.623  1.00  0.00     0.006 A 
ENDBRANCH  25  39
BRANCH  26  47
ATOM     47  C   UNL A   1      45.969  32.085  28.858  1.00  0.00     0.057 A 
ATOM     48  C   UNL A   1      46.243  32.494  30.167  1.00  0.00     0.134 A 
ATOM     49  C   UNL A   1      46.191  33.012  27.831  1.00  0.00     0.134 A 
ATOM     50  F   UNL A   1      46.036  31.656  31.193  1.00  0.00    -0.206 F 
ATOM     51  C   UNL A   1      46.710  33.779  30.447  1.00  0.00     0.040 A 
ATOM     52  C   UNL A   1      46.683  34.290  28.094  1.00  0.00     0.040 A 
ATOM     53  F   UNL A   1      45.956  32.678  26.554  1.00  0.00    -0.206 F 
ATOM     54  C   UNL A   1      46.939  34.679  29.408  1.00  0.00     0.006 A 
ENDBRANCH  26  47
BRANCH  38  55
ATOM     55  C   UNL A   1      49.131  26.113  27.173  1.00  0.00     0.057 A 
ATOM     56  C   UNL A   1      49.718  26.172  25.903  1.00  0.00     0.134 A 
ATOM     57  C   UNL A   1      49.946  25.738  28.248  1.00  0.00     0.134 A 
ATOM     58  F   UNL A   1      48.987  26.508  24.830  1.00  0.00    -0.206 F 
ATOM     59  C   UNL A   1      51.062  25.850  25.708  1.00  0.00     0.040 A 
ATOM     60  C   UNL A   1      51.296  25.439  28.070  1.00  0.00     0.040 A 
ATOM     61  F   UNL A   1      49.445  25.669  29.492  1.00  0.00    -0.206 F 
ATOM     62  C   UNL A   1      51.856  25.488  26.795  1.00  0.00     0.006 A 
ENDBRANCH  38  55
ENDBRANCH  12  13
ENDBRANCH   5   7
ENDBRANCH   2   3
ENDBRANCH   1   2
BRANCH   1  63
ATOM     63  C   UNL A   1      32.511  29.013  26.039  1.00  0.00     0.117 C 
BRANCH  63  64
ATOM     64  N   UNL A   1      33.427  28.977  24.912  1.00  0.00    -0.354 N 
ATOM     65  C   UNL A   1      33.800  28.018  24.020  1.00  0.00     0.250 C 
ATOM     66  H   UNL A   1      33.881  29.837  24.760  1.00  0.00     0.163 HD
ATOM     67  O   UNL A   1      34.623  28.420  23.182  1.00  0.00    -0.272 OA
BRANCH  65  68
ATOM     68  C   UNL A   1      33.384  26.492  24.065  1.00  0.00     0.145 C 
ATOM     69  C   UNL A   1      33.720  25.945  22.637  1.00  0.00     0.044 C 
ATOM     70  C   UNL A   1      31.884  26.242  24.285  1.00  0.00    -0.010 A 
ATOM     71  C   UNL A   1      32.896  26.632  21.553  1.00  0.00     0.008 C 
ATOM     72  C   UNL A   1      30.969  26.361  23.212  1.00  0.00    -0.042 A 
ATOM     73  C   UNL A   1      31.369  25.951  25.567  1.00  0.00     0.007 A 
ATOM     74  C   UNL A   1      31.407  26.414  21.767  1.00  0.00     0.036 C 
ATOM     75  C   UNL A   1      29.586  26.329  23.466  1.00  0.00     0.004 A 
ATOM     76  C   UNL A   1      29.992  25.907  25.800  1.00  0.00     0.000 A 
ATOM     77  C   UNL A   1      29.101  26.129  24.756  1.00  0.00     0.000 A 
BRANCH  68  78
ATOM     78  N   UNL A   1      34.201  25.630  24.969  1.00  0.00    -0.338 N 
ATOM     79  C   UNL A   1      34.855  24.450  24.833  1.00  0.00     0.224 C 
ATOM     80  H   UNL A   1      34.286  26.007  25.876  1.00  0.00     0.164 HD
ATOM     81  O   UNL A   1      35.846  24.283  25.548  1.00  0.00    -0.275 OA
BRANCH  79  82
ATOM     82  C   UNL A   1      34.336  23.340  23.928  1.00  0.00     0.082 C 
ATOM     83  C   UNL A   1      32.972  22.822  24.423  1.00  0.00     0.035 C 
ATOM     84  C   UNL A   1      35.366  22.202  23.780  1.00  0.00     0.035 C 
ATOM     85  C   UNL A   1      33.088  21.804  25.557  1.00  0.00     0.120 C 
ATOM     86  C   UNL A   1      35.371  21.252  24.979  1.00  0.00     0.120 C 
ATOM     87  N   UNL A   1      34.023  20.745  25.185  1.00  0.00    -0.342 N 
ATOM     88  C   UNL A   1      33.508  19.475  24.926  1.00  0.00     0.225 C 
ATOM     89  O   UNL A   1      32.302  19.254  25.034  1.00  0.00    -0.275 OA
BRANCH  88  90
ATOM     90  C   UNL A   1      34.326  18.293  24.512  1.00  0.00     0.079 C 
ATOM     91  C   UNL A   1      34.067  16.845  24.808  1.00  0.00     0.014 C 
ATOM     92  C   UNL A   1      33.949  17.360  23.394  1.00  0.00     0.014 C 
ENDBRANCH  88  90
ENDBRANCH  79  82
ENDBRANCH  68  78
ENDBRANCH  65  68
ENDBRANCH  63  64
ENDBRANCH   1  63
TORSDOF 13
ENDMDL
MODEL 3
REMARK VINA RESULT:     -13.0      4.147      7.946
REMARK SMILES O=C(NCCCNC(=O)[C@]1(NC(=O)C2CCN(C(=O)C3CC3)CC2)CCCc2ccccc21)c1ccc(-c2c3nc(c(-c4c(F)cccc4F)c4ccc([nH]4)c(-c4c(F)cccc4F)c4nc(c(-c5c(F)cccc5F)c5ccc2[nH]5)C=C4)C=C3)cc1
REMARK SMILES IDX 5 1 4 2 3 3 1 4 2 5 34 7 35 8 87 9 36 10 86 11 37 12 38 13
REMARK SMILES IDX 39 14 80 15 40 16 85 17 79 18 81 19 41 20 84 21 78 22 77 23
REMARK SMILES IDX 42 25 68 26 51 27 67 28 52 29 55 30 66 31 82 32 53 33 54 34
REMARK SMILES IDX 65 36 83 37 56 38 43 39 44 40 49 41 45 42 46 43 48 44 50 45
REMARK SMILES IDX 47 46 69 47 70 48 75 49 71 50 72 51 74 52 76 53 73 54 57 55
REMARK SMILES IDX 58 56 63 57 59 58 60 59 62 60 64 61 61 62 6 63 7 64 8 65
REMARK SMILES IDX 9 67 10 68 25 69 33 70 26 71 28 72 32 73 27 74 29 75 31 76
REMARK SMILES IDX 30 77 11 78 12 79 13 81 14 82 15 83 24 84 16 85 23 86 17 87
REMARK SMILES IDX 18 88 19 89 20 90 21 91 22 92
REMARK H PARENT 3 6 81 24 55 35 7 66 11 80
REMARK Flexibility Score: inf
ROOT
ATOM      1  C   UNL A   1      37.709  19.577  24.989  1.00  0.00     0.042 C 
ENDROOT
BRANCH   1   2
ATOM      2  C   UNL A   1      38.879  20.249  25.701  1.00  0.00     0.118 C 
BRANCH   2   3
ATOM      3  N   UNL A   1      40.010  19.339  25.833  1.00  0.00    -0.352 N 
ATOM      4  O   UNL A   1      42.176  18.743  25.798  1.00  0.00    -0.269 OA
ATOM      5  C   UNL A   1      41.338  19.605  26.048  1.00  0.00     0.251 C 
ATOM      6  H   UNL A   1      39.785  18.383  25.756  1.00  0.00     0.163 HD
BRANCH   5   7
ATOM      7  C   UNL A   1      41.764  20.909  26.597  1.00  0.00     0.039 A 
ATOM      8  C   UNL A   1      42.245  21.914  25.754  1.00  0.00     0.014 A 
ATOM      9  C   UNL A   1      41.590  21.163  27.962  1.00  0.00     0.014 A 
ATOM     10  C   UNL A   1      42.649  23.132  26.287  1.00  0.00     0.010 A 
ATOM     11  C   UNL A   1      41.920  22.416  28.482  1.00  0.00     0.010 A 
ATOM     12  C   UNL A   1      42.464  23.406  27.650  1.00  0.00    -0.014 A 
BRANCH  12  13
ATOM     13  C   UNL A   1      42.774  24.760  28.170  1.00  0.00     0.031 A 
ATOM     14  C   UNL A   1      44.179  25.149  28.523  1.00  0.00     0.074 A 
ATOM     15  C   UNL A   1      41.766  25.643  28.312  1.00  0.00     0.049 A 
ATOM     16  N   UNL A   1      44.623  26.285  28.999  1.00  0.00    -0.248 NA
ATOM     17  C   UNL A   1      45.221  24.129  28.326  1.00  0.00     0.031 C 
ATOM     18  C   UNL A   1      40.358  25.369  28.012  1.00  0.00     0.029 A 
ATOM     19  N   UNL A   1      41.767  26.948  28.733  1.00  0.00    -0.354 N 
ATOM     20  C   UNL A   1      45.991  26.113  29.174  1.00  0.00     0.074 A 
ATOM     21  C   UNL A   1      46.299  24.755  28.779  1.00  0.00     0.031 C 
ATOM     22  C   UNL A   1      39.640  26.481  28.221  1.00  0.00     0.029 A 
ATOM     23  C   UNL A   1      40.521  27.525  28.729  1.00  0.00     0.049 A 
ATOM     24  H   UNL A   1      42.583  27.423  29.011  1.00  0.00     0.167 HD
ATOM     25  C   UNL A   1      46.903  27.011  29.617  1.00  0.00     0.037 A 
ATOM     26  C   UNL A   1      40.128  28.753  29.111  1.00  0.00     0.037 A 
ATOM     27  C   UNL A   1      46.586  28.364  30.000  1.00  0.00     0.049 A 
ATOM     28  C   UNL A   1      41.154  29.718  29.626  1.00  0.00     0.074 A 
ATOM     29  C   UNL A   1      47.443  29.361  30.433  1.00  0.00     0.029 A 
ATOM     30  N   UNL A   1      45.309  28.906  30.004  1.00  0.00    -0.354 N 
ATOM     31  N   UNL A   1      42.448  29.553  29.755  1.00  0.00    -0.248 NA
ATOM     32  C   UNL A   1      40.668  31.037  30.048  1.00  0.00     0.031 C 
ATOM     33  C   UNL A   1      46.679  30.492  30.741  1.00  0.00     0.029 A 
ATOM     34  C   UNL A   1      45.351  30.216  30.453  1.00  0.00     0.049 A 
ATOM     35  H   UNL A   1      44.492  28.430  29.728  1.00  0.00     0.167 HD
ATOM     36  C   UNL A   1      42.935  30.751  30.258  1.00  0.00     0.074 A 
ATOM     37  C   UNL A   1      41.797  31.639  30.393  1.00  0.00     0.031 C 
ATOM     38  C   UNL A   1      44.209  31.086  30.579  1.00  0.00     0.037 A 
BRANCH  25  39
ATOM     39  C   UNL A   1      48.327  26.552  29.734  1.00  0.00     0.057 A 
ATOM     40  C   UNL A   1      48.801  25.879  30.867  1.00  0.00     0.134 A 
ATOM     41  C   UNL A   1      49.232  26.762  28.685  1.00  0.00     0.134 A 
ATOM     42  F   UNL A   1      47.991  25.657  31.914  1.00  0.00    -0.206 F 
ATOM     43  C   UNL A   1      50.128  25.452  30.963  1.00  0.00     0.040 A 
ATOM     44  C   UNL A   1      50.554  26.317  28.758  1.00  0.00     0.040 A 
ATOM     45  F   UNL A   1      48.845  27.395  27.567  1.00  0.00    -0.206 F 
ATOM     46  C   UNL A   1      51.006  25.666  29.903  1.00  0.00     0.006 A 
ENDBRANCH  25  39
BRANCH  26  47
ATOM     47  C   UNL A   1      38.694  29.127  29.022  1.00  0.00     0.057 A 
ATOM     48  C   UNL A   1      37.852  29.038  30.136  1.00  0.00     0.134 A 
ATOM     49  C   UNL A   1      38.139  29.604  27.828  1.00  0.00     0.134 A 
ATOM     50  F   UNL A   1      38.323  28.575  31.303  1.00  0.00    -0.206 F 
ATOM     51  C   UNL A   1      36.506  29.402  30.063  1.00  0.00     0.040 A 
ATOM     52  C   UNL A   1      36.803  29.995  27.748  1.00  0.00     0.040 A 
ATOM     53  F   UNL A   1      38.896  29.720  26.728  1.00  0.00    -0.206 F 
ATOM     54  C   UNL A   1      35.980  29.889  28.868  1.00  0.00     0.006 A 
ENDBRANCH  26  47
BRANCH  38  55
ATOM     55  C   UNL A   1      44.440  32.481  31.077  1.00  0.00     0.057 A 
ATOM     56  C   UNL A   1      44.715  33.542  30.205  1.00  0.00     0.134 A 
ATOM     57  C   UNL A   1      44.359  32.771  32.445  1.00  0.00     0.134 A 
ATOM     58  F   UNL A   1      44.822  33.327  28.885  1.00  0.00    -0.206 F 
ATOM     59  C   UNL A   1      44.920  34.838  30.678  1.00  0.00     0.040 A 
ATOM     60  C   UNL A   1      44.536  34.067  32.927  1.00  0.00     0.040 A 
ATOM     61  F   UNL A   1      44.093  31.800  33.332  1.00  0.00    -0.206 F 
ATOM     62  C   UNL A   1      44.825  35.105  32.043  1.00  0.00     0.006 A 
ENDBRANCH  38  55
ENDBRANCH  12  13
ENDBRANCH   5   7
ENDBRANCH   2   3
ENDBRANCH   1   2
BRANCH   1  63
ATOM     63  C   UNL A   1      36.559  20.541  24.715  1.00  0.00     0.117 C 
BRANCH  63  64
ATOM     64  N   UNL A   1      36.954  21.671  23.893  1.00  0.00    -0.354 N 
ATOM     65  C   UNL A   1      36.350  22.832  23.518  1.00  0.00     0.250 C 
ATOM     66  H   UNL A   1      37.862  21.575  23.523  1.00  0.00     0.163 HD
ATOM     67  O   UNL A   1      37.065  23.548  22.799  1.00  0.00    -0.272 OA
BRANCH  65  68
ATOM     68  C   UNL A   1      34.847  23.235  23.806  1.00  0.00     0.145 C 
ATOM     69  C   UNL A   1      34.940  24.410  24.835  1.00  0.00     0.044 C 
ATOM     70  C   UNL A   1      34.006  22.136  24.475  1.00  0.00    -0.010 A 
ATOM     71  C   UNL A   1      35.577  23.971  26.149  1.00  0.00     0.008 C 
ATOM     72  C   UNL A   1      34.108  21.896  25.865  1.00  0.00    -0.042 A 
ATOM     73  C   UNL A   1      33.159  21.298  23.717  1.00  0.00     0.007 A 
ATOM     74  C   UNL A   1      34.769  22.868  26.815  1.00  0.00     0.036 C 
ATOM     75  C   UNL A   1      33.490  20.765  26.427  1.00  0.00     0.004 A 
ATOM     76  C   UNL A   1      32.539  20.186  24.294  1.00  0.00     0.000 A 
ATOM     77  C   UNL A   1      32.732  19.901  25.641  1.00  0.00     0.000 A 
BRANCH  68  78
ATOM     78  N   UNL A   1      34.112  23.837  22.655  1.00  0.00    -0.338 N 
ATOM     79  C   UNL A   1      33.493  25.022  22.430  1.00  0.00     0.224 C 
ATOM     80  H   UNL A   1      34.065  23.232  21.879  1.00  0.00     0.164 HD
ATOM     81  O   UNL A   1      33.469  25.419  21.262  1.00  0.00    -0.275 OA
BRANCH  79  82
ATOM     82  C   UNL A   1      32.769  25.777  23.537  1.00  0.00     0.082 C 
ATOM     83  C   UNL A   1      31.498  25.023  23.975  1.00  0.00     0.035 C 
ATOM     84  C   UNL A   1      32.463  27.231  23.123  1.00  0.00     0.035 C 
ATOM     85  C   UNL A   1      30.301  25.275  23.059  1.00  0.00     0.120 C 
ATOM     86  C   UNL A   1      31.236  27.340  22.216  1.00  0.00     0.120 C 
ATOM     87  N   UNL A   1      30.103  26.711  22.876  1.00  0.00    -0.342 N 
ATOM     88  C   UNL A   1      28.987  27.300  23.471  1.00  0.00     0.225 C 
ATOM     89  O   UNL A   1      28.184  26.619  24.108  1.00  0.00    -0.275 OA
BRANCH  88  90
ATOM     90  C   UNL A   1      28.656  28.757  23.400  1.00  0.00     0.079 C 
ATOM     91  C   UNL A   1      28.434  29.592  22.172  1.00  0.00     0.014 C 
ATOM     92  C   UNL A   1      27.282  29.293  23.101  1.00  0.00     0.014 C 
ENDBRANCH  88  90
ENDBRANCH  79  82
ENDBRANCH  68  78
ENDBRANCH  65  68
ENDBRANCH  63  64
ENDBRANCH   1  63
TORSDOF 13
ENDMDL
