MODEL 1
REMARK VINA RESULT:     -11.0      0.000      0.000
REMARK SMILES COc1cc(Cl)cc(/C=C/C(=O)NCCCNC(=O)c2ccc(-c3c4nc(c(-c5c(F)cccc5F)c5ccc([nH]5)c(-c5c(F)cccc5F)c5nc(c(-c6c(F)cccc6F)c6ccc3[nH]6)C=C5)C=C4)cc2)c1OC
REMARK SMILES IDX 15 1 14 2 13 3 11 4 12 5 10 7 9 8 8 9 3 10 4 11 74 12 5 13
REMARK SMILES IDX 6 14 7 15 2 16 1 17 75 18 76 19 16 20 17 21 18 22 19 24
REMARK SMILES IDX 20 25 21 26 73 27 22 28 72 29 23 30 24 31 25 32 66 33 26 34
REMARK SMILES IDX 71 35 65 36 67 37 27 38 70 39 64 40 63 41 28 43 54 44 37 45
REMARK SMILES IDX 53 46 38 47 41 48 52 49 68 50 39 51 40 52 51 54 69 55 42 56
REMARK SMILES IDX 29 57 30 58 35 59 31 60 32 61 34 62 36 63 33 64 55 65 56 66
REMARK SMILES IDX 61 67 57 68 58 69 60 70 62 71 59 72 43 73 44 74 49 75 45 76
REMARK SMILES IDX 46 77 48 78 50 79 47 80
REMARK H PARENT 13 6 17 23 67 42 41 53
REMARK Flexibility Score: inf
ROOT
ATOM      1  C   UNL A   1      37.346  19.424  24.970  1.00  0.00     0.042 C 
ENDROOT
BRANCH   1   2
ATOM      2  C   UNL A   1      36.104  20.311  24.946  1.00  0.00     0.118 C 
BRANCH   2   3
ATOM      3  N   UNL A   1      34.887  19.527  25.074  1.00  0.00    -0.352 N 
ATOM      4  C   UNL A   1      33.584  19.896  24.949  1.00  0.00     0.244 C 
ATOM      5  O   UNL A   1      32.702  19.043  24.989  1.00  0.00    -0.270 OA
ATOM      6  H   UNL A   1      35.029  18.576  25.284  1.00  0.00     0.163 HD
BRANCH   4   7
ATOM      7  C   UNL A   1      33.223  21.301  24.674  1.00  0.00     0.072 C 
ATOM      8  C   UNL A   1      32.741  21.732  23.499  1.00  0.00     0.018 C 
BRANCH   8   9
ATOM      9  C   UNL A   1      32.390  23.140  23.227  1.00  0.00     0.022 A 
ATOM     10  C   UNL A   1      32.954  25.352  22.381  1.00  0.00     0.162 A 
ATOM     11  C   UNL A   1      31.690  25.814  22.774  1.00  0.00     0.071 A 
ATOM     12  C   UNL A   1      33.312  24.005  22.580  1.00  0.00     0.168 A 
ATOM     13  C   UNL A   1      30.803  24.960  23.417  1.00  0.00     0.045 A 
ATOM     14  Cl  UNL A   1      29.265  25.546  23.921  1.00  0.00    -0.084 Cl
ATOM     15  C   UNL A   1      31.148  23.635  23.656  1.00  0.00     0.032 A 
BRANCH  10  16
ATOM     16  O   UNL A   1      33.791  26.219  21.726  1.00  0.00    -0.493 OA
ATOM     17  C   UNL A   1      33.600  27.576  22.130  1.00  0.00     0.278 C 
ENDBRANCH  10  16
BRANCH  12  18
ATOM     18  O   UNL A   1      34.490  23.399  22.213  1.00  0.00    -0.492 OA
ATOM     19  C   UNL A   1      35.610  23.458  23.083  1.00  0.00     0.278 C 
ENDBRANCH  12  18
ENDBRANCH   8   9
ENDBRANCH   4   7
ENDBRANCH   2   3
ENDBRANCH   1   2
BRANCH   1  20
ATOM     20  C   UNL A   1      38.609  20.152  25.427  1.00  0.00     0.118 C 
BRANCH  20  21
ATOM     21  N   UNL A   1      39.719  19.238  25.661  1.00  0.00    -0.352 N 
ATOM     22  C   UNL A   1      41.002  19.489  26.078  1.00  0.00     0.251 C 
ATOM     23  H   UNL A   1      39.516  18.290  25.492  1.00  0.00     0.163 HD
ATOM     24  O   UNL A   1      41.844  18.599  26.008  1.00  0.00    -0.269 OA
BRANCH  22  25
ATOM     25  C   UNL A   1      41.386  20.818  26.603  1.00  0.00     0.039 A 
ATOM     26  C   UNL A   1      41.918  21.760  25.717  1.00  0.00     0.014 A 
ATOM     27  C   UNL A   1      41.280  21.125  27.963  1.00  0.00     0.014 A 
ATOM     28  C   UNL A   1      42.295  23.022  26.181  1.00  0.00     0.010 A 
ATOM     29  C   UNL A   1      41.596  22.406  28.415  1.00  0.00     0.010 A 
ATOM     30  C   UNL A   1      42.109  23.366  27.530  1.00  0.00    -0.014 A 
BRANCH  30  31
ATOM     31  C   UNL A   1      42.447  24.722  28.030  1.00  0.00     0.031 A 
ATOM     32  C   UNL A   1      43.857  25.055  28.431  1.00  0.00     0.074 A 
ATOM     33  C   UNL A   1      41.469  25.636  28.184  1.00  0.00     0.049 A 
ATOM     34  N   UNL A   1      44.328  26.155  28.964  1.00  0.00    -0.248 NA
ATOM     35  C   UNL A   1      44.869  24.006  28.232  1.00  0.00     0.031 C 
ATOM     36  C   UNL A   1      40.054  25.421  27.871  1.00  0.00     0.029 A 
ATOM     37  N   UNL A   1      41.514  26.924  28.655  1.00  0.00    -0.354 N 
ATOM     38  C   UNL A   1      45.680  25.923  29.179  1.00  0.00     0.074 A 
ATOM     39  C   UNL A   1      45.949  24.565  28.758  1.00  0.00     0.031 C 
ATOM     40  C   UNL A   1      39.369  26.543  28.145  1.00  0.00     0.029 A 
ATOM     41  C   UNL A   1      40.287  27.542  28.684  1.00  0.00     0.049 A 
ATOM     42  H   UNL A   1      42.345  27.364  28.945  1.00  0.00     0.167 HD
ATOM     43  C   UNL A   1      46.618  26.772  29.665  1.00  0.00     0.037 A 
ATOM     44  C   UNL A   1      39.939  28.771  29.107  1.00  0.00     0.037 A 
ATOM     45  C   UNL A   1      46.356  28.133  30.054  1.00  0.00     0.049 A 
ATOM     46  C   UNL A   1      40.999  29.696  29.637  1.00  0.00     0.074 A 
ATOM     47  C   UNL A   1      47.252  29.089  30.501  1.00  0.00     0.029 A 
ATOM     48  N   UNL A   1      45.105  28.730  30.044  1.00  0.00    -0.354 N 
ATOM     49  N   UNL A   1      42.285  29.483  29.775  1.00  0.00    -0.248 NA
ATOM     50  C   UNL A   1      40.562  31.032  30.062  1.00  0.00     0.031 C 
ATOM     51  C   UNL A   1      46.537  30.255  30.794  1.00  0.00     0.029 A 
ATOM     52  C   UNL A   1      45.203  30.037  30.491  1.00  0.00     0.049 A 
ATOM     53  H   UNL A   1      44.271  28.290  29.761  1.00  0.00     0.167 HD
ATOM     54  C   UNL A   1      42.813  30.664  30.278  1.00  0.00     0.074 A 
ATOM     55  C   UNL A   1      41.712  31.595  30.408  1.00  0.00     0.031 C 
ATOM     56  C   UNL A   1      44.097  30.953  30.605  1.00  0.00     0.037 A 
BRANCH  43  57
ATOM     57  C   UNL A   1      48.020  26.254  29.800  1.00  0.00     0.057 A 
ATOM     58  C   UNL A   1      48.947  26.356  28.754  1.00  0.00     0.134 A 
ATOM     59  C   UNL A   1      48.462  25.686  31.002  1.00  0.00     0.134 A 
ATOM     60  F   UNL A   1      48.586  26.879  27.573  1.00  0.00    -0.206 F 
ATOM     61  C   UNL A   1      50.257  25.893  28.893  1.00  0.00     0.040 A 
ATOM     62  C   UNL A   1      49.776  25.243  31.160  1.00  0.00     0.040 A 
ATOM     63  F   UNL A   1      47.627  25.565  32.045  1.00  0.00    -0.206 F 
ATOM     64  C   UNL A   1      50.676  25.341  30.101  1.00  0.00     0.006 A 
ENDBRANCH  43  57
BRANCH  44  65
ATOM     65  C   UNL A   1      38.523  29.210  29.031  1.00  0.00     0.057 A 
ATOM     66  C   UNL A   1      37.989  29.717  27.841  1.00  0.00     0.134 A 
ATOM     67  C   UNL A   1      37.676  29.145  30.143  1.00  0.00     0.134 A 
ATOM     68  F   UNL A   1      38.757  29.821  26.748  1.00  0.00    -0.206 F 
ATOM     69  C   UNL A   1      36.668  30.160  27.764  1.00  0.00     0.040 A 
ATOM     70  C   UNL A   1      36.346  29.562  30.074  1.00  0.00     0.040 A 
ATOM     71  F   UNL A   1      38.126  28.662  31.311  1.00  0.00    -0.206 F 
ATOM     72  C   UNL A   1      35.840  30.080  28.883  1.00  0.00     0.006 A 
ENDBRANCH  44  65
BRANCH  56  73
ATOM     73  C   UNL A   1      44.382  32.340  31.099  1.00  0.00     0.057 A 
ATOM     74  C   UNL A   1      44.372  32.653  32.464  1.00  0.00     0.134 A 
ATOM     75  C   UNL A   1      44.707  33.364  30.201  1.00  0.00     0.134 A 
ATOM     76  F   UNL A   1      44.055  31.720  33.375  1.00  0.00    -0.206 F 
ATOM     77  C   UNL A   1      44.655  33.944  32.916  1.00  0.00     0.040 A 
ATOM     78  C   UNL A   1      45.014  34.651  30.642  1.00  0.00     0.040 A 
ATOM     79  F   UNL A   1      44.741  33.126  28.880  1.00  0.00    -0.206 F 
ATOM     80  C   UNL A   1      44.983  34.944  32.003  1.00  0.00     0.006 A 
ENDBRANCH  56  73
ENDBRANCH  30  31
ENDBRANCH  22  25
ENDBRANCH  20  21
ENDBRANCH   1  20
TORSDOF 13
ENDMDL
MODEL 2
REMARK VINA RESULT:     -11.0      2.497      7.788
REMARK SMILES COc1cc(Cl)cc(/C=C/C(=O)NCCCNC(=O)c2ccc(-c3c4nc(c(-c5c(F)cccc5F)c5ccc([nH]5)c(-c5c(F)cccc5F)c5nc(c(-c6c(F)cccc6F)c6ccc3[nH]6)C=C5)C=C4)cc2)c1OC
REMARK SMILES IDX 15 1 14 2 13 3 11 4 12 5 10 7 9 8 8 9 3 10 4 11 74 12 5 13
REMARK SMILES IDX 6 14 7 15 2 16 1 17 75 18 76 19 16 20 17 21 18 22 19 24
REMARK SMILES IDX 20 25 21 26 73 27 22 28 72 29 23 30 24 31 25 32 66 33 26 34
REMARK SMILES IDX 71 35 65 36 67 37 27 38 70 39 64 40 63 41 28 43 54 44 37 45
REMARK SMILES IDX 53 46 38 47 41 48 52 49 68 50 39 51 40 52 51 54 69 55 42 56
REMARK SMILES IDX 29 57 30 58 35 59 31 60 32 61 34 62 36 63 33 64 55 65 56 66
REMARK SMILES IDX 61 67 57 68 58 69 60 70 62 71 59 72 43 73 44 74 49 75 45 76
REMARK SMILES IDX 46 77 48 78 50 79 47 80
REMARK H PARENT 13 6 17 23 67 42 41 53
REMARK Flexibility Score: inf
ROOT
ATOM      1  C   UNL A   1      34.015  28.192  25.348  1.00  0.00     0.042 C 
ENDROOT
BRANCH   1   2
ATOM      2  C   UNL A   1      32.794  27.553  24.692  1.00  0.00     0.118 C 
BRANCH   2   3
ATOM      3  N   UNL A   1      33.007  27.331  23.271  1.00  0.00    -0.352 N 
ATOM      4  C   UNL A   1      33.556  26.273  22.618  1.00  0.00     0.244 C 
ATOM      5  O   UNL A   1      33.542  26.240  21.390  1.00  0.00    -0.270 OA
ATOM      6  H   UNL A   1      32.703  28.065  22.689  1.00  0.00     0.163 HD
BRANCH   4   7
ATOM      7  C   UNL A   1      34.090  25.119  23.369  1.00  0.00     0.072 C 
ATOM      8  C   UNL A   1      34.097  23.862  22.901  1.00  0.00     0.018 C 
BRANCH   8   9
ATOM      9  C   UNL A   1      34.624  22.711  23.660  1.00  0.00     0.022 A 
ATOM     10  C   UNL A   1      34.302  20.591  24.814  1.00  0.00     0.162 A 
ATOM     11  C   UNL A   1      35.666  20.572  25.138  1.00  0.00     0.071 A 
ATOM     12  C   UNL A   1      33.767  21.648  24.051  1.00  0.00     0.168 A 
ATOM     13  C   UNL A   1      36.489  21.625  24.759  1.00  0.00     0.045 A 
ATOM     14  Cl  UNL A   1      38.155  21.604  25.189  1.00  0.00    -0.084 Cl
ATOM     15  C   UNL A   1      35.976  22.695  24.037  1.00  0.00     0.032 A 
BRANCH  10  16
ATOM     16  O   UNL A   1      33.528  19.521  25.183  1.00  0.00    -0.493 OA
ATOM     17  C   UNL A   1      33.929  18.308  24.543  1.00  0.00     0.278 C 
ENDBRANCH  10  16
BRANCH  12  18
ATOM     18  O   UNL A   1      32.469  21.785  23.623  1.00  0.00    -0.492 OA
ATOM     19  C   UNL A   1      31.995  20.981  22.552  1.00  0.00     0.278 C 
ENDBRANCH  12  18
ENDBRANCH   8   9
ENDBRANCH   4   7
ENDBRANCH   2   3
ENDBRANCH   1   2
BRANCH   1  20
ATOM     20  C   UNL A   1      33.919  28.272  26.871  1.00  0.00     0.118 C 
BRANCH  20  21
ATOM     21  N   UNL A   1      33.737  29.638  27.341  1.00  0.00    -0.352 N 
ATOM     22  C   UNL A   1      34.572  30.443  28.077  1.00  0.00     0.251 C 
ATOM     23  H   UNL A   1      32.879  30.051  27.091  1.00  0.00     0.163 HD
ATOM     24  O   UNL A   1      34.140  31.490  28.548  1.00  0.00    -0.269 OA
BRANCH  22  25
ATOM     25  C   UNL A   1      35.981  30.060  28.316  1.00  0.00     0.039 A 
ATOM     26  C   UNL A   1      36.349  29.625  29.593  1.00  0.00     0.014 A 
ATOM     27  C   UNL A   1      36.950  30.180  27.316  1.00  0.00     0.014 A 
ATOM     28  C   UNL A   1      37.672  29.261  29.853  1.00  0.00     0.010 A 
ATOM     29  C   UNL A   1      38.257  29.757  27.557  1.00  0.00     0.010 A 
ATOM     30  C   UNL A   1      38.632  29.297  28.828  1.00  0.00    -0.014 A 
BRANCH  30  31
ATOM     31  C   UNL A   1      40.029  28.857  29.070  1.00  0.00     0.031 A 
ATOM     32  C   UNL A   1      41.025  29.796  29.693  1.00  0.00     0.074 A 
ATOM     33  C   UNL A   1      40.419  27.631  28.667  1.00  0.00     0.049 A 
ATOM     34  N   UNL A   1      42.304  29.621  29.907  1.00  0.00    -0.248 NA
ATOM     35  C   UNL A   1      40.522  31.115  30.107  1.00  0.00     0.031 C 
ATOM     36  C   UNL A   1      39.559  26.644  28.011  1.00  0.00     0.029 A 
ATOM     37  N   UNL A   1      41.641  27.013  28.738  1.00  0.00    -0.354 N 
ATOM     38  C   UNL A   1      42.761  30.809  30.463  1.00  0.00     0.074 A 
ATOM     39  C   UNL A   1      41.633  31.713  30.514  1.00  0.00     0.031 C 
ATOM     40  C   UNL A   1      40.277  25.539  27.753  1.00  0.00     0.029 A 
ATOM     41  C   UNL A   1      41.653  25.752  28.193  1.00  0.00     0.049 A 
ATOM     42  H   UNL A   1      42.436  27.433  29.141  1.00  0.00     0.167 HD
ATOM     43  C   UNL A   1      44.005  31.113  30.906  1.00  0.00     0.037 A 
ATOM     44  C   UNL A   1      42.660  24.871  28.053  1.00  0.00     0.037 A 
ATOM     45  C   UNL A   1      45.119  30.203  30.883  1.00  0.00     0.049 A 
ATOM     46  C   UNL A   1      44.029  25.230  28.559  1.00  0.00     0.074 A 
ATOM     47  C   UNL A   1      46.402  30.397  31.366  1.00  0.00     0.029 A 
ATOM     48  N   UNL A   1      45.083  28.925  30.347  1.00  0.00    -0.354 N 
ATOM     49  N   UNL A   1      44.431  26.335  29.138  1.00  0.00    -0.248 NA
ATOM     50  C   UNL A   1      45.082  24.219  28.399  1.00  0.00     0.031 C 
ATOM     51  C   UNL A   1      47.153  29.250  31.091  1.00  0.00     0.029 A 
ATOM     52  C   UNL A   1      46.326  28.326  30.472  1.00  0.00     0.049 A 
ATOM     53  H   UNL A   1      44.292  28.505  29.937  1.00  0.00     0.167 HD
ATOM     54  C   UNL A   1      45.773  26.142  29.434  1.00  0.00     0.074 A 
ATOM     55  C   UNL A   1      46.115  24.810  28.983  1.00  0.00     0.031 C 
ATOM     56  C   UNL A   1      46.647  26.994  30.027  1.00  0.00     0.037 A 
BRANCH  43  57
ATOM     57  C   UNL A   1      44.227  32.489  31.462  1.00  0.00     0.057 A 
ATOM     58  C   UNL A   1      44.100  32.762  32.831  1.00  0.00     0.134 A 
ATOM     59  C   UNL A   1      44.613  33.546  30.627  1.00  0.00     0.134 A 
ATOM     60  F   UNL A   1      43.722  31.797  33.684  1.00  0.00    -0.206 F 
ATOM     61  C   UNL A   1      44.329  34.039  33.346  1.00  0.00     0.040 A 
ATOM     62  C   UNL A   1      44.869  34.821  31.133  1.00  0.00     0.040 A 
ATOM     63  F   UNL A   1      44.759  33.352  29.308  1.00  0.00    -0.206 F 
ATOM     64  C   UNL A   1      44.722  35.071  32.497  1.00  0.00     0.006 A 
ENDBRANCH  43  57
BRANCH  44  65
ATOM     65  C   UNL A   1      42.411  23.551  27.420  1.00  0.00     0.057 A 
ATOM     66  C   UNL A   1      42.048  22.441  28.191  1.00  0.00     0.134 A 
ATOM     67  C   UNL A   1      42.539  23.365  26.039  1.00  0.00     0.134 A 
ATOM     68  F   UNL A   1      41.927  22.553  29.521  1.00  0.00    -0.206 F 
ATOM     69  C   UNL A   1      41.839  21.188  27.613  1.00  0.00     0.040 A 
ATOM     70  C   UNL A   1      42.310  22.124  25.445  1.00  0.00     0.040 A 
ATOM     71  F   UNL A   1      42.878  24.392  25.246  1.00  0.00    -0.206 F 
ATOM     72  C   UNL A   1      41.966  21.027  26.234  1.00  0.00     0.006 A 
ENDBRANCH  44  65
BRANCH  56  73
ATOM     73  C   UNL A   1      48.043  26.496  30.251  1.00  0.00     0.057 A 
ATOM     74  C   UNL A   1      49.059  26.695  29.307  1.00  0.00     0.134 A 
ATOM     75  C   UNL A   1      48.383  25.842  31.441  1.00  0.00     0.134 A 
ATOM     76  F   UNL A   1      48.793  27.302  28.140  1.00  0.00    -0.206 F 
ATOM     77  C   UNL A   1      50.360  26.242  29.532  1.00  0.00     0.040 A 
ATOM     78  C   UNL A   1      49.685  25.406  31.688  1.00  0.00     0.040 A 
ATOM     79  F   UNL A   1      47.457  25.627  32.389  1.00  0.00    -0.206 F 
ATOM     80  C   UNL A   1      50.676  25.601  30.728  1.00  0.00     0.006 A 
ENDBRANCH  56  73
ENDBRANCH  30  31
ENDBRANCH  22  25
ENDBRANCH  20  21
ENDBRANCH   1  20
TORSDOF 13
ENDMDL
MODEL 3
REMARK VINA RESULT:     -10.9      1.678      6.627
REMARK SMILES COc1cc(Cl)cc(/C=C/C(=O)NCCCNC(=O)c2ccc(-c3c4nc(c(-c5c(F)cccc5F)c5ccc([nH]5)c(-c5c(F)cccc5F)c5nc(c(-c6c(F)cccc6F)c6ccc3[nH]6)C=C5)C=C4)cc2)c1OC
REMARK SMILES IDX 15 1 14 2 13 3 11 4 12 5 10 7 9 8 8 9 3 10 4 11 74 12 5 13
REMARK SMILES IDX 6 14 7 15 2 16 1 17 75 18 76 19 16 20 17 21 18 22 19 24
REMARK SMILES IDX 20 25 21 26 73 27 22 28 72 29 23 30 24 31 25 32 66 33 26 34
REMARK SMILES IDX 71 35 65 36 67 37 27 38 70 39 64 40 63 41 28 43 54 44 37 45
REMARK SMILES IDX 53 46 38 47 41 48 52 49 68 50 39 51 40 52 51 54 69 55 42 56
REMARK SMILES IDX 29 57 30 58 35 59 31 60 32 61 34 62 36 63 33 64 55 65 56 66
REMARK SMILES IDX 61 67 57 68 58 69 60 70 62 71 59 72 43 73 44 74 49 75 45 76
REMARK SMILES IDX 46 77 48 78 50 79 47 80
REMARK H PARENT 13 6 17 23 67 42 41 53
REMARK Flexibility Score: inf
ROOT
ATOM      1  C   UNL A   1      37.790  19.607  24.945  1.00  0.00     0.042 C 
ENDROOT
BRANCH   1   2
ATOM      2  C   UNL A   1      36.575  20.531  24.906  1.00  0.00     0.118 C 
BRANCH   2   3
ATOM      3  N   UNL A   1      35.334  19.784  25.021  1.00  0.00    -0.352 N 
ATOM      4  C   UNL A   1      34.043  20.198  24.921  1.00  0.00     0.244 C 
ATOM      5  O   UNL A   1      33.133  19.373  24.943  1.00  0.00    -0.270 OA
ATOM      6  H   UNL A   1      35.447  18.822  25.201  1.00  0.00     0.163 HD
BRANCH   4   7
ATOM      7  C   UNL A   1      33.725  21.623  24.693  1.00  0.00     0.072 C 
ATOM      8  C   UNL A   1      32.978  22.364  25.524  1.00  0.00     0.018 C 
BRANCH   8   9
ATOM      9  C   UNL A   1      32.657  23.785  25.286  1.00  0.00     0.022 A 
ATOM     10  C   UNL A   1      31.466  25.827  25.867  1.00  0.00     0.162 A 
ATOM     11  C   UNL A   1      32.046  26.467  24.763  1.00  0.00     0.071 A 
ATOM     12  C   UNL A   1      31.781  24.485  26.157  1.00  0.00     0.168 A 
ATOM     13  C   UNL A   1      32.891  25.766  23.913  1.00  0.00     0.045 A 
ATOM     14  Cl  UNL A   1      33.573  26.555  22.544  1.00  0.00    -0.084 Cl
ATOM     15  C   UNL A   1      33.189  24.431  24.159  1.00  0.00     0.032 A 
BRANCH  10  16
ATOM     16  O   UNL A   1      30.657  26.561  26.698  1.00  0.00    -0.493 OA
ATOM     17  C   UNL A   1      31.289  27.756  27.161  1.00  0.00     0.278 C 
ENDBRANCH  10  16
BRANCH  12  18
ATOM     18  O   UNL A   1      31.328  23.740  27.219  1.00  0.00    -0.492 OA
ATOM     19  C   UNL A   1      30.086  23.060  27.121  1.00  0.00     0.278 C 
ENDBRANCH  12  18
ENDBRANCH   8   9
ENDBRANCH   4   7
ENDBRANCH   2   3
ENDBRANCH   1   2
BRANCH   1  20
ATOM     20  C   UNL A   1      38.959  20.169  25.753  1.00  0.00     0.118 C 
BRANCH  20  21
ATOM     21  N   UNL A   1      40.085  19.248  25.805  1.00  0.00    -0.352 N 
ATOM     22  C   UNL A   1      41.417  19.486  26.041  1.00  0.00     0.251 C 
ATOM     23  H   UNL A   1      39.856  18.303  25.645  1.00  0.00     0.163 HD
ATOM     24  O   UNL A   1      42.236  18.597  25.832  1.00  0.00    -0.269 OA
BRANCH  22  25
ATOM     25  C   UNL A   1      41.878  20.802  26.537  1.00  0.00     0.039 A 
ATOM     26  C   UNL A   1      42.262  21.771  25.604  1.00  0.00     0.014 A 
ATOM     27  C   UNL A   1      41.989  21.070  27.904  1.00  0.00     0.014 A 
ATOM     28  C   UNL A   1      42.707  23.022  26.038  1.00  0.00     0.010 A 
ATOM     29  C   UNL A   1      42.372  22.339  28.337  1.00  0.00     0.010 A 
ATOM     30  C   UNL A   1      42.738  23.326  27.409  1.00  0.00    -0.014 A 
BRANCH  30  31
ATOM     31  C   UNL A   1      43.150  24.669  27.887  1.00  0.00     0.031 A 
ATOM     32  C   UNL A   1      42.116  25.719  28.189  1.00  0.00     0.074 A 
ATOM     33  C   UNL A   1      44.461  24.966  27.988  1.00  0.00     0.049 A 
ATOM     34  N   UNL A   1      42.285  26.970  28.537  1.00  0.00    -0.248 NA
ATOM     35  C   UNL A   1      40.707  25.318  28.057  1.00  0.00     0.031 C 
ATOM     36  C   UNL A   1      45.561  24.049  27.683  1.00  0.00     0.029 A 
ATOM     37  N   UNL A   1      45.089  26.127  28.362  1.00  0.00    -0.354 N 
ATOM     38  C   UNL A   1      41.008  27.507  28.648  1.00  0.00     0.074 A 
ATOM     39  C   UNL A   1      40.076  26.460  28.289  1.00  0.00     0.031 C 
ATOM     40  C   UNL A   1      46.728  24.677  27.897  1.00  0.00     0.029 A 
ATOM     41  C   UNL A   1      46.460  26.049  28.318  1.00  0.00     0.049 A 
ATOM     42  H   UNL A   1      44.604  26.939  28.635  1.00  0.00     0.167 HD
ATOM     43  C   UNL A   1      40.646  28.755  29.031  1.00  0.00     0.037 A 
ATOM     44  C   UNL A   1      47.396  26.980  28.577  1.00  0.00     0.037 A 
ATOM     45  C   UNL A   1      41.573  29.786  29.417  1.00  0.00     0.049 A 
ATOM     46  C   UNL A   1      46.967  28.356  29.007  1.00  0.00     0.074 A 
ATOM     47  C   UNL A   1      41.300  31.063  29.880  1.00  0.00     0.029 A 
ATOM     48  N   UNL A   1      42.953  29.659  29.385  1.00  0.00    -0.354 N 
ATOM     49  N   UNL A   1      45.756  28.830  29.167  1.00  0.00    -0.248 NA
ATOM     50  C   UNL A   1      48.034  29.322  29.299  1.00  0.00     0.031 C 
ATOM     51  C   UNL A   1      42.515  31.720  30.094  1.00  0.00     0.029 A 
ATOM     52  C   UNL A   1      43.545  30.840  29.803  1.00  0.00     0.049 A 
ATOM     53  H   UNL A   1      43.440  28.851  29.105  1.00  0.00     0.167 HD
ATOM     54  C   UNL A   1      45.915  30.139  29.602  1.00  0.00     0.074 A 
ATOM     55  C   UNL A   1      47.340  30.380  29.694  1.00  0.00     0.031 C 
ATOM     56  C   UNL A   1      44.965  31.060  29.898  1.00  0.00     0.037 A 
BRANCH  43  57
ATOM     57  C   UNL A   1      39.180  29.075  29.058  1.00  0.00     0.057 A 
ATOM     58  C   UNL A   1      38.498  29.511  27.914  1.00  0.00     0.134 A 
ATOM     59  C   UNL A   1      38.431  28.904  30.229  1.00  0.00     0.134 A 
ATOM     60  F   UNL A   1      39.158  29.705  26.762  1.00  0.00    -0.206 F 
ATOM     61  C   UNL A   1      37.130  29.786  27.940  1.00  0.00     0.040 A 
ATOM     62  C   UNL A   1      37.058  29.151  30.261  1.00  0.00     0.040 A 
ATOM     63  F   UNL A   1      39.020  28.483  31.359  1.00  0.00    -0.206 F 
ATOM     64  C   UNL A   1      36.405  29.599  29.114  1.00  0.00     0.006 A 
ENDBRANCH  43  57
BRANCH  44  65
ATOM     65  C   UNL A   1      48.836  26.641  28.457  1.00  0.00     0.057 A 
ATOM     66  C   UNL A   1      49.514  26.799  27.243  1.00  0.00     0.134 A 
ATOM     67  C   UNL A   1      49.564  26.143  29.544  1.00  0.00     0.134 A 
ATOM     68  F   UNL A   1      48.865  27.254  26.162  1.00  0.00    -0.206 F 
ATOM     69  C   UNL A   1      50.860  26.456  27.108  1.00  0.00     0.040 A 
ATOM     70  C   UNL A   1      50.917  25.819  29.430  1.00  0.00     0.040 A 
ATOM     71  F   UNL A   1      48.973  25.977  30.736  1.00  0.00    -0.206 F 
ATOM     72  C   UNL A   1      51.567  25.968  28.206  1.00  0.00     0.006 A 
ENDBRANCH  44  65
BRANCH  56  73
ATOM     73  C   UNL A   1      45.437  32.398  30.381  1.00  0.00     0.057 A 
ATOM     74  C   UNL A   1      45.666  33.464  29.500  1.00  0.00     0.134 A 
ATOM     75  C   UNL A   1      45.630  32.635  31.748  1.00  0.00     0.134 A 
ATOM     76  F   UNL A   1      45.512  33.297  28.178  1.00  0.00    -0.206 F 
ATOM     77  C   UNL A   1      46.089  34.711  29.962  1.00  0.00     0.040 A 
ATOM     78  C   UNL A   1      46.030  33.884  32.223  1.00  0.00     0.040 A 
ATOM     79  F   UNL A   1      45.421  31.658  32.645  1.00  0.00    -0.206 F 
ATOM     80  C   UNL A   1      46.266  34.925  31.328  1.00  0.00     0.006 A 
ENDBRANCH  56  73
ENDBRANCH  30  31
ENDBRANCH  22  25
ENDBRANCH  20  21
ENDBRANCH   1  20
TORSDOF 13
ENDMDL
