MODEL 1
REMARK VINA RESULT:     -11.5      0.000      0.000
REMARK SMILES CC1(C)CCN(c2ncccc2C(=O)NCCCNC(=O)c2ccc(-c3c4nc(c(-c5c(F)cccc5F)c5ccc([nH]5)c(-c5c(F)cccc5F)c5nc(c(-c6c(F)cccc6F)c6ccc3[nH]6)C=C5)C=C4)cc2)C1
REMARK SMILES IDX 17 1 16 2 15 3 13 4 14 5 12 7 7 8 8 9 9 10 11 11 10 12 6 13
REMARK SMILES IDX 1 14 2 15 3 16 4 17 76 18 5 19 18 20 19 21 20 22 21 24 22 25
REMARK SMILES IDX 23 26 75 27 24 28 74 29 25 30 26 31 27 32 68 33 28 34 73 35
REMARK SMILES IDX 67 36 69 37 29 38 72 39 66 40 65 41 30 43 56 44 39 45 55 46
REMARK SMILES IDX 40 47 43 48 54 49 70 50 41 51 42 52 53 54 71 55 44 56 31 57
REMARK SMILES IDX 32 58 37 59 33 60 34 61 36 62 38 63 35 64 57 65 58 66 63 67
REMARK SMILES IDX 59 68 60 69 62 70 64 71 61 72 45 73 46 74 51 75 47 76 48 77
REMARK SMILES IDX 50 78 52 79 49 80
REMARK H PARENT 15 6 19 23 69 42 43 53
REMARK Flexibility Score: inf
ROOT
ATOM      1  C   UNL A   1      33.314  27.945  26.880  1.00  0.00     0.042 C 
ENDROOT
BRANCH   1   2
ATOM      2  C   UNL A   1      31.833  28.312  26.986  1.00  0.00     0.118 C 
BRANCH   2   3
ATOM      3  N   UNL A   1      31.005  27.140  26.785  1.00  0.00    -0.352 N 
ATOM      4  C   UNL A   1      30.641  26.354  25.722  1.00  0.00     0.255 C 
ATOM      5  O   UNL A   1      29.811  25.499  26.030  1.00  0.00    -0.269 OA
ATOM      6  H   UNL A   1      30.601  26.828  27.628  1.00  0.00     0.163 HD
BRANCH   4   7
ATOM      7  C   UNL A   1      31.207  26.477  24.336  1.00  0.00     0.082 A 
ATOM      8  C   UNL A   1      30.523  27.198  23.329  1.00  0.00     0.141 A 
ATOM      9  N   UNL A   1      30.917  27.140  22.026  1.00  0.00    -0.238 NA
ATOM     10  C   UNL A   1      32.027  26.452  21.704  1.00  0.00     0.113 A 
ATOM     11  C   UNL A   1      32.403  25.846  23.965  1.00  0.00     0.019 A 
ATOM     12  C   UNL A   1      32.816  25.818  22.635  1.00  0.00     0.021 A 
BRANCH   8  13
ATOM     13  N   UNL A   1      29.487  28.071  23.586  1.00  0.00    -0.355 N 
ATOM     14  C   UNL A   1      28.448  30.292  21.423  1.00  0.00     0.013 C 
ATOM     15  C   UNL A   1      28.434  30.123  22.951  1.00  0.00    -0.016 C 
ATOM     16  C   UNL A   1      28.169  31.481  23.606  1.00  0.00     0.013 C 
ATOM     17  C   UNL A   1      27.397  29.075  23.387  1.00  0.00     0.030 C 
ATOM     18  C   UNL A   1      29.762  29.507  23.445  1.00  0.00     0.124 C 
ATOM     19  C   UNL A   1      28.128  27.749  23.185  1.00  0.00     0.119 C 
ENDBRANCH   8  13
ENDBRANCH   4   7
ENDBRANCH   2   3
ENDBRANCH   1   2
BRANCH   1  20
ATOM     20  C   UNL A   1      34.152  28.991  26.139  1.00  0.00     0.118 C 
BRANCH  20  21
ATOM     21  N   UNL A   1      33.954  30.333  26.669  1.00  0.00    -0.352 N 
ATOM     22  C   UNL A   1      34.602  30.990  27.683  1.00  0.00     0.251 C 
ATOM     23  H   UNL A   1      33.240  30.850  26.230  1.00  0.00     0.163 HD
ATOM     24  O   UNL A   1      34.129  32.027  28.135  1.00  0.00    -0.269 OA
BRANCH  22  25
ATOM     25  C   UNL A   1      35.864  30.457  28.240  1.00  0.00     0.039 A 
ATOM     26  C   UNL A   1      35.815  29.697  29.413  1.00  0.00     0.014 A 
ATOM     27  C   UNL A   1      37.096  30.752  27.649  1.00  0.00     0.014 A 
ATOM     28  C   UNL A   1      36.993  29.189  29.962  1.00  0.00     0.010 A 
ATOM     29  C   UNL A   1      38.264  30.192  28.161  1.00  0.00     0.010 A 
ATOM     30  C   UNL A   1      38.225  29.409  29.325  1.00  0.00    -0.014 A 
BRANCH  30  31
ATOM     31  C   UNL A   1      39.481  28.828  29.859  1.00  0.00     0.031 A 
ATOM     32  C   UNL A   1      40.133  29.420  31.078  1.00  0.00     0.074 A 
ATOM     33  C   UNL A   1      40.072  27.811  29.204  1.00  0.00     0.049 A 
ATOM     34  N   UNL A   1      41.271  29.105  31.642  1.00  0.00    -0.248 NA
ATOM     35  C   UNL A   1      39.423  30.530  31.733  1.00  0.00     0.031 C 
ATOM     36  C   UNL A   1      39.562  27.179  27.986  1.00  0.00     0.029 A 
ATOM     37  N   UNL A   1      41.239  27.137  29.464  1.00  0.00    -0.354 N 
ATOM     38  C   UNL A   1      41.424  29.988  32.703  1.00  0.00     0.074 A 
ATOM     39  C   UNL A   1      40.284  30.880  32.678  1.00  0.00     0.031 C 
ATOM     40  C   UNL A   1      40.402  26.200  27.614  1.00  0.00     0.029 A 
ATOM     41  C   UNL A   1      41.525  26.159  28.543  1.00  0.00     0.049 A 
ATOM     42  H   UNL A   1      41.816  27.337  30.236  1.00  0.00     0.167 HD
ATOM     43  C   UNL A   1      42.415  30.039  33.626  1.00  0.00     0.037 A 
ATOM     44  C   UNL A   1      42.579  25.326  28.456  1.00  0.00     0.037 A 
ATOM     45  C   UNL A   1      43.532  29.134  33.665  1.00  0.00     0.049 A 
ATOM     46  C   UNL A   1      43.662  25.398  29.496  1.00  0.00     0.074 A 
ATOM     47  C   UNL A   1      44.556  29.064  34.595  1.00  0.00     0.029 A 
ATOM     48  N   UNL A   1      43.774  28.138  32.730  1.00  0.00    -0.354 N 
ATOM     49  N   UNL A   1      43.762  26.198  30.529  1.00  0.00    -0.248 NA
ATOM     50  C   UNL A   1      44.774  24.447  29.360  1.00  0.00     0.031 C 
ATOM     51  C   UNL A   1      45.435  28.049  34.203  1.00  0.00     0.029 A 
ATOM     52  C   UNL A   1      44.938  27.460  33.051  1.00  0.00     0.049 A 
ATOM     53  H   UNL A   1      43.202  27.943  31.953  1.00  0.00     0.167 HD
ATOM     54  C   UNL A   1      44.932  25.831  31.181  1.00  0.00     0.074 A 
ATOM     55  C   UNL A   1      45.500  24.729  30.432  1.00  0.00     0.031 C 
ATOM     56  C   UNL A   1      45.486  26.361  32.299  1.00  0.00     0.037 A 
BRANCH  43  57
ATOM     57  C   UNL A   1      42.330  31.114  34.671  1.00  0.00     0.057 A 
ATOM     58  C   UNL A   1      41.711  30.892  35.909  1.00  0.00     0.134 A 
ATOM     59  C   UNL A   1      42.900  32.373  34.451  1.00  0.00     0.134 A 
ATOM     60  F   UNL A   1      41.136  29.711  36.180  1.00  0.00    -0.206 F 
ATOM     61  C   UNL A   1      41.637  31.895  36.878  1.00  0.00     0.040 A 
ATOM     62  C   UNL A   1      42.855  33.376  35.422  1.00  0.00     0.040 A 
ATOM     63  F   UNL A   1      43.515  32.651  33.291  1.00  0.00    -0.206 F 
ATOM     64  C   UNL A   1      42.216  33.139  36.637  1.00  0.00     0.006 A 
ENDBRANCH  43  57
BRANCH  44  65
ATOM     65  C   UNL A   1      42.648  24.335  27.355  1.00  0.00     0.057 A 
ATOM     66  C   UNL A   1      43.227  24.665  26.125  1.00  0.00     0.134 A 
ATOM     67  C   UNL A   1      42.144  23.037  27.503  1.00  0.00     0.134 A 
ATOM     68  F   UNL A   1      43.711  25.899  25.917  1.00  0.00    -0.206 F 
ATOM     69  C   UNL A   1      43.291  23.746  25.076  1.00  0.00     0.040 A 
ATOM     70  C   UNL A   1      42.221  22.101  26.471  1.00  0.00     0.040 A 
ATOM     71  F   UNL A   1      41.585  22.657  28.661  1.00  0.00    -0.206 F 
ATOM     72  C   UNL A   1      42.791  22.458  25.249  1.00  0.00     0.006 A 
ENDBRANCH  44  65
BRANCH  56  73
ATOM     73  C   UNL A   1      46.753  25.732  32.797  1.00  0.00     0.057 A 
ATOM     74  C   UNL A   1      48.010  26.137  32.333  1.00  0.00     0.134 A 
ATOM     75  C   UNL A   1      46.715  24.736  33.782  1.00  0.00     0.134 A 
ATOM     76  F   UNL A   1      48.114  27.076  31.381  1.00  0.00    -0.206 F 
ATOM     77  C   UNL A   1      49.185  25.558  32.816  1.00  0.00     0.040 A 
ATOM     78  C   UNL A   1      47.882  24.168  34.290  1.00  0.00     0.040 A 
ATOM     79  F   UNL A   1      45.541  24.310  34.273  1.00  0.00    -0.206 F 
ATOM     80  C   UNL A   1      49.123  24.576  33.803  1.00  0.00     0.006 A 
ENDBRANCH  56  73
ENDBRANCH  30  31
ENDBRANCH  22  25
ENDBRANCH  20  21
ENDBRANCH   1  20
TORSDOF 11
ENDMDL
MODEL 2
REMARK VINA RESULT:     -11.4      2.588      4.297
REMARK SMILES CC1(C)CCN(c2ncccc2C(=O)NCCCNC(=O)c2ccc(-c3c4nc(c(-c5c(F)cccc5F)c5ccc([nH]5)c(-c5c(F)cccc5F)c5nc(c(-c6c(F)cccc6F)c6ccc3[nH]6)C=C5)C=C4)cc2)C1
REMARK SMILES IDX 17 1 16 2 15 3 13 4 14 5 12 7 7 8 8 9 9 10 11 11 10 12 6 13
REMARK SMILES IDX 1 14 2 15 3 16 4 17 76 18 5 19 18 20 19 21 20 22 21 24 22 25
REMARK SMILES IDX 23 26 75 27 24 28 74 29 25 30 26 31 27 32 68 33 28 34 73 35
REMARK SMILES IDX 67 36 69 37 29 38 72 39 66 40 65 41 30 43 56 44 39 45 55 46
REMARK SMILES IDX 40 47 43 48 54 49 70 50 41 51 42 52 53 54 71 55 44 56 31 57
REMARK SMILES IDX 32 58 37 59 33 60 34 61 36 62 38 63 35 64 57 65 58 66 63 67
REMARK SMILES IDX 59 68 60 69 62 70 64 71 61 72 45 73 46 74 51 75 47 76 48 77
REMARK SMILES IDX 50 78 52 79 49 80
REMARK H PARENT 15 6 19 23 69 42 43 53
REMARK Flexibility Score: inf
ROOT
ATOM      1  C   UNL A   1      34.136  28.000  25.817  1.00  0.00     0.042 C 
ENDROOT
BRANCH   1   2
ATOM      2  C   UNL A   1      33.326  28.671  24.706  1.00  0.00     0.118 C 
BRANCH   2   3
ATOM      3  N   UNL A   1      33.664  28.102  23.417  1.00  0.00    -0.352 N 
ATOM      4  C   UNL A   1      33.428  26.919  22.763  1.00  0.00     0.255 C 
ATOM      5  O   UNL A   1      34.021  26.849  21.687  1.00  0.00    -0.269 OA
ATOM      6  H   UNL A   1      34.201  28.722  22.872  1.00  0.00     0.163 HD
BRANCH   4   7
ATOM      7  C   UNL A   1      32.519  25.833  23.265  1.00  0.00     0.082 A 
ATOM      8  C   UNL A   1      33.028  24.562  23.620  1.00  0.00     0.141 A 
ATOM      9  N   UNL A   1      32.196  23.512  23.873  1.00  0.00    -0.238 NA
ATOM     10  C   UNL A   1      30.865  23.711  23.866  1.00  0.00     0.113 A 
ATOM     11  C   UNL A   1      31.131  26.010  23.354  1.00  0.00     0.019 A 
ATOM     12  C   UNL A   1      30.290  24.939  23.644  1.00  0.00     0.021 A 
BRANCH   8  13
ATOM     13  N   UNL A   1      34.367  24.307  23.828  1.00  0.00    -0.355 N 
ATOM     14  C   UNL A   1      35.449  22.114  25.999  1.00  0.00     0.013 C 
ATOM     15  C   UNL A   1      35.989  23.386  25.326  1.00  0.00    -0.016 C 
ATOM     16  C   UNL A   1      37.181  23.914  26.129  1.00  0.00     0.013 C 
ATOM     17  C   UNL A   1      36.369  23.123  23.860  1.00  0.00     0.030 C 
ATOM     18  C   UNL A   1      34.877  24.452  25.198  1.00  0.00     0.124 C 
ATOM     19  C   UNL A   1      35.035  23.225  23.125  1.00  0.00     0.119 C 
ENDBRANCH   8  13
ENDBRANCH   4   7
ENDBRANCH   2   3
ENDBRANCH   1   2
BRANCH   1  20
ATOM     20  C   UNL A   1      33.637  28.335  27.225  1.00  0.00     0.118 C 
BRANCH  20  21
ATOM     21  N   UNL A   1      33.596  29.770  27.468  1.00  0.00    -0.352 N 
ATOM     22  C   UNL A   1      34.520  30.596  28.056  1.00  0.00     0.251 C 
ATOM     23  H   UNL A   1      32.775  30.218  27.164  1.00  0.00     0.163 HD
ATOM     24  O   UNL A   1      34.197  31.734  28.381  1.00  0.00    -0.269 OA
BRANCH  22  25
ATOM     25  C   UNL A   1      35.900  30.127  28.305  1.00  0.00     0.039 A 
ATOM     26  C   UNL A   1      36.818  30.147  27.250  1.00  0.00     0.014 A 
ATOM     27  C   UNL A   1      36.276  29.614  29.549  1.00  0.00     0.014 A 
ATOM     28  C   UNL A   1      38.125  29.704  27.457  1.00  0.00     0.010 A 
ATOM     29  C   UNL A   1      37.596  29.230  29.772  1.00  0.00     0.010 A 
ATOM     30  C   UNL A   1      38.532  29.267  28.728  1.00  0.00    -0.014 A 
BRANCH  30  31
ATOM     31  C   UNL A   1      39.932  28.847  28.984  1.00  0.00     0.031 A 
ATOM     32  C   UNL A   1      40.909  29.802  29.611  1.00  0.00     0.074 A 
ATOM     33  C   UNL A   1      40.341  27.627  28.587  1.00  0.00     0.049 A 
ATOM     34  N   UNL A   1      42.188  29.647  29.836  1.00  0.00    -0.248 NA
ATOM     35  C   UNL A   1      40.382  31.115  30.015  1.00  0.00     0.031 C 
ATOM     36  C   UNL A   1      39.500  26.626  27.927  1.00  0.00     0.029 A 
ATOM     37  N   UNL A   1      41.572  27.026  28.667  1.00  0.00    -0.354 N 
ATOM     38  C   UNL A   1      42.623  30.846  30.387  1.00  0.00     0.074 A 
ATOM     39  C   UNL A   1      41.481  31.733  30.422  1.00  0.00     0.031 C 
ATOM     40  C   UNL A   1      40.235  25.531  27.678  1.00  0.00     0.029 A 
ATOM     41  C   UNL A   1      41.603  25.764  28.126  1.00  0.00     0.049 A 
ATOM     42  H   UNL A   1      42.357  27.458  29.073  1.00  0.00     0.167 HD
ATOM     43  C   UNL A   1      43.859  31.171  30.839  1.00  0.00     0.037 A 
ATOM     44  C   UNL A   1      42.623  24.895  28.000  1.00  0.00     0.037 A 
ATOM     45  C   UNL A   1      44.986  30.276  30.828  1.00  0.00     0.049 A 
ATOM     46  C   UNL A   1      43.983  25.276  28.516  1.00  0.00     0.074 A 
ATOM     47  C   UNL A   1      46.263  30.490  31.321  1.00  0.00     0.029 A 
ATOM     48  N   UNL A   1      44.972  28.996  30.297  1.00  0.00    -0.354 N 
ATOM     49  N   UNL A   1      44.365  26.390  29.091  1.00  0.00    -0.248 NA
ATOM     50  C   UNL A   1      45.050  24.276  28.372  1.00  0.00     0.031 C 
ATOM     51  C   UNL A   1      47.030  29.350  31.054  1.00  0.00     0.029 A 
ATOM     52  C   UNL A   1      46.221  28.413  30.432  1.00  0.00     0.049 A 
ATOM     53  H   UNL A   1      44.189  28.565  29.882  1.00  0.00     0.167 HD
ATOM     54  C   UNL A   1      45.707  26.218  29.400  1.00  0.00     0.074 A 
ATOM     55  C   UNL A   1      46.069  24.886  28.959  1.00  0.00     0.031 C 
ATOM     56  C   UNL A   1      46.563  27.084  29.994  1.00  0.00     0.037 A 
BRANCH  43  57
ATOM     57  C   UNL A   1      44.052  32.555  31.386  1.00  0.00     0.057 A 
ATOM     58  C   UNL A   1      44.434  33.626  30.567  1.00  0.00     0.134 A 
ATOM     59  C   UNL A   1      43.823  32.828  32.740  1.00  0.00     0.134 A 
ATOM     60  F   UNL A   1      44.679  33.431  29.262  1.00  0.00    -0.206 F 
ATOM     61  C   UNL A   1      44.610  34.912  31.081  1.00  0.00     0.040 A 
ATOM     62  C   UNL A   1      43.971  34.115  33.262  1.00  0.00     0.040 A 
ATOM     63  F   UNL A   1      43.448  31.851  33.579  1.00  0.00    -0.206 F 
ATOM     64  C   UNL A   1      44.372  35.160  32.432  1.00  0.00     0.006 A 
ENDBRANCH  43  57
BRANCH  44  65
ATOM     65  C   UNL A   1      42.391  23.568  27.379  1.00  0.00     0.057 A 
ATOM     66  C   UNL A   1      42.037  22.461  28.159  1.00  0.00     0.134 A 
ATOM     67  C   UNL A   1      42.511  23.373  25.998  1.00  0.00     0.134 A 
ATOM     68  F   UNL A   1      41.924  22.583  29.489  1.00  0.00    -0.206 F 
ATOM     69  C   UNL A   1      41.825  21.204  27.590  1.00  0.00     0.040 A 
ATOM     70  C   UNL A   1      42.280  22.127  25.414  1.00  0.00     0.040 A 
ATOM     71  F   UNL A   1      42.839  24.397  25.196  1.00  0.00    -0.206 F 
ATOM     72  C   UNL A   1      41.941  21.036  26.212  1.00  0.00     0.006 A 
ENDBRANCH  44  65
BRANCH  56  73
ATOM     73  C   UNL A   1      47.964  26.606  30.232  1.00  0.00     0.057 A 
ATOM     74  C   UNL A   1      48.330  25.949  31.413  1.00  0.00     0.134 A 
ATOM     75  C   UNL A   1      48.950  26.773  29.251  1.00  0.00     0.134 A 
ATOM     76  F   UNL A   1      47.436  25.772  32.397  1.00  0.00    -0.206 F 
ATOM     77  C   UNL A   1      49.632  25.493  31.619  1.00  0.00     0.040 A 
ATOM     78  C   UNL A   1      50.249  26.299  29.434  1.00  0.00     0.040 A 
ATOM     79  F   UNL A   1      48.661  27.388  28.094  1.00  0.00    -0.206 F 
ATOM     80  C   UNL A   1      50.595  25.661  30.624  1.00  0.00     0.006 A 
ENDBRANCH  56  73
ENDBRANCH  30  31
ENDBRANCH  22  25
ENDBRANCH  20  21
ENDBRANCH   1  20
TORSDOF 11
ENDMDL
MODEL 3
REMARK VINA RESULT:     -11.4      4.085      8.604
REMARK SMILES CC1(C)CCN(c2ncccc2C(=O)NCCCNC(=O)c2ccc(-c3c4nc(c(-c5c(F)cccc5F)c5ccc([nH]5)c(-c5c(F)cccc5F)c5nc(c(-c6c(F)cccc6F)c6ccc3[nH]6)C=C5)C=C4)cc2)C1
REMARK SMILES IDX 17 1 16 2 15 3 13 4 14 5 12 7 7 8 8 9 9 10 11 11 10 12 6 13
REMARK SMILES IDX 1 14 2 15 3 16 4 17 76 18 5 19 18 20 19 21 20 22 21 24 22 25
REMARK SMILES IDX 23 26 75 27 24 28 74 29 25 30 26 31 27 32 68 33 28 34 73 35
REMARK SMILES IDX 67 36 69 37 29 38 72 39 66 40 65 41 30 43 56 44 39 45 55 46
REMARK SMILES IDX 40 47 43 48 54 49 70 50 41 51 42 52 53 54 71 55 44 56 31 57
REMARK SMILES IDX 32 58 37 59 33 60 34 61 36 62 38 63 35 64 57 65 58 66 63 67
REMARK SMILES IDX 59 68 60 69 62 70 64 71 61 72 45 73 46 74 51 75 47 76 48 77
REMARK SMILES IDX 50 78 52 79 49 80
REMARK H PARENT 15 6 19 23 69 42 43 53
REMARK Flexibility Score: inf
ROOT
ATOM      1  C   UNL A   1      38.522  20.383  25.010  1.00  0.00     0.042 C 
ENDROOT
BRANCH   1   2
ATOM      2  C   UNL A   1      37.793  21.699  25.294  1.00  0.00     0.118 C 
BRANCH   2   3
ATOM      3  N   UNL A   1      37.257  22.255  24.069  1.00  0.00    -0.352 N 
ATOM      4  C   UNL A   1      36.071  22.821  23.673  1.00  0.00     0.255 C 
ATOM      5  O   UNL A   1      36.044  23.061  22.467  1.00  0.00    -0.269 OA
ATOM      6  H   UNL A   1      37.910  22.217  23.332  1.00  0.00     0.163 HD
BRANCH   4   7
ATOM      7  C   UNL A   1      34.935  23.158  24.597  1.00  0.00     0.082 A 
ATOM      8  C   UNL A   1      33.769  22.360  24.640  1.00  0.00     0.141 A 
ATOM      9  N   UNL A   1      32.656  22.769  25.313  1.00  0.00    -0.238 NA
ATOM     10  C   UNL A   1      32.697  23.914  26.017  1.00  0.00     0.113 A 
ATOM     11  C   UNL A   1      34.957  24.298  25.414  1.00  0.00     0.019 A 
ATOM     12  C   UNL A   1      33.826  24.692  26.123  1.00  0.00     0.021 A 
BRANCH   8  13
ATOM     13  N   UNL A   1      33.691  21.092  24.102  1.00  0.00    -0.355 N 
ATOM     14  C   UNL A   1      32.738  18.479  25.820  1.00  0.00     0.013 C 
ATOM     15  C   UNL A   1      33.601  18.749  24.578  1.00  0.00    -0.016 C 
ATOM     16  C   UNL A   1      34.482  17.528  24.299  1.00  0.00     0.013 C 
ATOM     17  C   UNL A   1      32.731  19.106  23.361  1.00  0.00     0.030 C 
ATOM     18  C   UNL A   1      34.450  20.027  24.769  1.00  0.00     0.124 C 
ATOM     19  C   UNL A   1      32.439  20.592  23.559  1.00  0.00     0.119 C 
ENDBRANCH   8  13
ENDBRANCH   4   7
ENDBRANCH   2   3
ENDBRANCH   1   2
BRANCH   1  20
ATOM     20  C   UNL A   1      39.248  19.810  26.231  1.00  0.00     0.118 C 
BRANCH  20  21
ATOM     21  N   UNL A   1      40.507  19.172  25.874  1.00  0.00    -0.352 N 
ATOM     22  C   UNL A   1      41.775  19.690  25.806  1.00  0.00     0.251 C 
ATOM     23  H   UNL A   1      40.437  18.218  25.643  1.00  0.00     0.163 HD
ATOM     24  O   UNL A   1      42.665  19.050  25.256  1.00  0.00    -0.269 OA
BRANCH  22  25
ATOM     25  C   UNL A   1      42.080  21.014  26.388  1.00  0.00     0.039 A 
ATOM     26  C   UNL A   1      42.420  22.065  25.529  1.00  0.00     0.014 A 
ATOM     27  C   UNL A   1      42.091  21.212  27.772  1.00  0.00     0.014 A 
ATOM     28  C   UNL A   1      42.719  23.323  26.054  1.00  0.00     0.010 A 
ATOM     29  C   UNL A   1      42.326  22.483  28.291  1.00  0.00     0.010 A 
ATOM     30  C   UNL A   1      42.647  23.549  27.438  1.00  0.00    -0.014 A 
BRANCH  30  31
ATOM     31  C   UNL A   1      42.903  24.894  28.011  1.00  0.00     0.031 A 
ATOM     32  C   UNL A   1      44.281  25.270  28.479  1.00  0.00     0.074 A 
ATOM     33  C   UNL A   1      41.876  25.751  28.173  1.00  0.00     0.049 A 
ATOM     34  N   UNL A   1      44.680  26.362  29.081  1.00  0.00    -0.248 NA
ATOM     35  C   UNL A   1      45.344  24.277  28.266  1.00  0.00     0.031 C 
ATOM     36  C   UNL A   1      40.486  25.486  27.800  1.00  0.00     0.029 A 
ATOM     37  N   UNL A   1      41.842  27.014  28.709  1.00  0.00    -0.354 N 
ATOM     38  C   UNL A   1      46.033  26.179  29.336  1.00  0.00     0.074 A 
ATOM     39  C   UNL A   1      46.377  24.855  28.864  1.00  0.00     0.031 C 
ATOM     40  C   UNL A   1      39.738  26.559  28.102  1.00  0.00     0.029 A 
ATOM     41  C   UNL A   1      40.586  27.571  28.721  1.00  0.00     0.049 A 
ATOM     42  H   UNL A   1      42.640  27.476  29.051  1.00  0.00     0.167 HD
ATOM     43  C   UNL A   1      46.913  27.044  29.897  1.00  0.00     0.037 A 
ATOM     44  C   UNL A   1      40.167  28.762  29.186  1.00  0.00     0.037 A 
ATOM     45  C   UNL A   1      46.574  28.370  30.339  1.00  0.00     0.049 A 
ATOM     46  C   UNL A   1      41.164  29.707  29.797  1.00  0.00     0.074 A 
ATOM     47  C   UNL A   1      47.407  29.345  30.863  1.00  0.00     0.029 A 
ATOM     48  N   UNL A   1      45.297  28.909  30.311  1.00  0.00    -0.354 N 
ATOM     49  N   UNL A   1      42.452  29.545  29.976  1.00  0.00    -0.248 NA
ATOM     50  C   UNL A   1      40.649  31.002  30.264  1.00  0.00     0.031 C 
ATOM     51  C   UNL A   1      46.625  30.461  31.185  1.00  0.00     0.029 A 
ATOM     52  C   UNL A   1      45.314  30.196  30.824  1.00  0.00     0.049 A 
ATOM     53  H   UNL A   1      44.495  28.445  29.977  1.00  0.00     0.167 HD
ATOM     54  C   UNL A   1      42.907  30.723  30.552  1.00  0.00     0.074 A 
ATOM     55  C   UNL A   1      41.758  31.596  30.681  1.00  0.00     0.031 C 
ATOM     56  C   UNL A   1      44.163  31.053  30.939  1.00  0.00     0.037 A 
BRANCH  43  57
ATOM     57  C   UNL A   1      48.331  26.577  30.059  1.00  0.00     0.057 A 
ATOM     58  C   UNL A   1      49.316  26.865  29.106  1.00  0.00     0.134 A 
ATOM     59  C   UNL A   1      48.722  25.859  31.195  1.00  0.00     0.134 A 
ATOM     60  F   UNL A   1      49.006  27.541  27.989  1.00  0.00    -0.206 F 
ATOM     61  C   UNL A   1      50.634  26.431  29.263  1.00  0.00     0.040 A 
ATOM     62  C   UNL A   1      50.042  25.440  31.377  1.00  0.00     0.040 A 
ATOM     63  F   UNL A   1      47.831  25.555  32.151  1.00  0.00    -0.206 F 
ATOM     64  C   UNL A   1      51.001  25.721  30.405  1.00  0.00     0.006 A 
ENDBRANCH  43  57
BRANCH  44  65
ATOM     65  C   UNL A   1      38.737  29.139  29.069  1.00  0.00     0.057 A 
ATOM     66  C   UNL A   1      37.877  29.052  30.170  1.00  0.00     0.134 A 
ATOM     67  C   UNL A   1      38.196  29.598  27.862  1.00  0.00     0.134 A 
ATOM     68  F   UNL A   1      38.335  28.603  31.347  1.00  0.00    -0.206 F 
ATOM     69  C   UNL A   1      36.527  29.394  30.072  1.00  0.00     0.040 A 
ATOM     70  C   UNL A   1      36.853  29.964  27.756  1.00  0.00     0.040 A 
ATOM     71  F   UNL A   1      38.970  29.712  26.773  1.00  0.00    -0.206 F 
ATOM     72  C   UNL A   1      36.013  29.856  28.863  1.00  0.00     0.006 A 
ENDBRANCH  44  65
BRANCH  56  73
ATOM     73  C   UNL A   1      44.365  32.426  31.508  1.00  0.00     0.057 A 
ATOM     74  C   UNL A   1      44.650  33.528  30.693  1.00  0.00     0.134 A 
ATOM     75  C   UNL A   1      44.235  32.653  32.884  1.00  0.00     0.134 A 
ATOM     76  F   UNL A   1      44.802  33.374  29.370  1.00  0.00    -0.206 F 
ATOM     77  C   UNL A   1      44.820  34.805  31.230  1.00  0.00     0.040 A 
ATOM     78  C   UNL A   1      44.377  33.929  33.429  1.00  0.00     0.040 A 
ATOM     79  F   UNL A   1      43.955  31.639  33.718  1.00  0.00    -0.206 F 
ATOM     80  C   UNL A   1      44.676  35.009  32.601  1.00  0.00     0.006 A 
ENDBRANCH  56  73
ENDBRANCH  30  31
ENDBRANCH  22  25
ENDBRANCH  20  21
ENDBRANCH   1  20
TORSDOF 11
ENDMDL
