MODEL 1
REMARK VINA RESULT:     -13.0      0.000      0.000
REMARK SMILES C[C@@H]1C(C(=O)NCCCNC(=O)c2ccc(-c3c4nc(c(-c5c(F)cccc5F)c5ccc([nH]5)c(-c5c(F)cccc5F)c5nc(c(-c6c(F)cccc6F)c6ccc3[nH]6)C=C5)C=C4)cc2)=NC2=C1C(=O)C[C@H](c1ccccc1)C2
REMARK SMILES IDX 8 1 7 2 6 3 4 4 5 5 3 7 1 8 2 9 69 10 67 11 68 12 70 13
REMARK SMILES IDX 80 14 71 15 72 16 73 17 74 18 75 19 79 20 76 21 78 22 77 23
REMARK SMILES IDX 9 24 10 25 11 26 12 28 13 29 14 30 66 31 15 32 65 33 16 34
REMARK SMILES IDX 17 35 18 36 59 37 19 38 64 39 58 40 60 41 20 42 63 43 57 44
REMARK SMILES IDX 56 45 21 47 47 48 30 49 46 50 31 51 34 52 45 53 61 54 32 55
REMARK SMILES IDX 33 56 44 58 62 59 35 60 22 61 23 62 28 63 24 64 25 65 27 66
REMARK SMILES IDX 29 67 26 68 48 69 49 70 54 71 50 72 51 73 53 74 55 75 52 76
REMARK SMILES IDX 36 77 37 78 42 79 38 80 39 81 41 82 43 83 40 84
REMARK H PARENT 6 6 10 27 60 46 34 57
REMARK Flexibility Score: inf
ROOT
ATOM      1  C   UNL A   1      33.445  28.789  27.148  1.00  0.00     0.042 C 
ENDROOT
BRANCH   1   2
ATOM      2  C   UNL A   1      32.933  28.824  25.704  1.00  0.00     0.118 C 
BRANCH   2   3
ATOM      3  N   UNL A   1      33.654  27.948  24.789  1.00  0.00    -0.351 N 
ATOM      4  C   UNL A   1      33.230  27.489  23.552  1.00  0.00     0.266 C 
ATOM      5  O   UNL A   1      33.986  27.556  22.590  1.00  0.00    -0.268 OA
ATOM      6  H   UNL A   1      34.543  27.649  25.082  1.00  0.00     0.163 HD
BRANCH   4   7
ATOM      7  C   UNL A   1      31.950  26.669  23.443  1.00  0.00     0.113 C 
ATOM      8  C   UNL A   1      29.811  27.858  23.229  1.00  0.00     0.020 C 
ATOM      9  C   UNL A   1      30.687  27.033  24.166  1.00  0.00     0.076 C 
ATOM     10  C   UNL A   1      30.272  25.612  24.301  1.00  0.00     0.026 C 
ATOM     11  N   UNL A   1      31.897  25.543  22.774  1.00  0.00    -0.251 NA
ATOM     12  C   UNL A   1      30.850  24.860  23.359  1.00  0.00     0.049 C 
ATOM     13  C   UNL A   1      30.161  24.992  25.641  1.00  0.00     0.161 C 
ATOM     14  C   UNL A   1      30.896  23.368  23.500  1.00  0.00     0.065 C 
ATOM     15  O   UNL A   1      29.509  25.568  26.511  1.00  0.00    -0.294 OA
ATOM     16  C   UNL A   1      30.997  23.742  25.963  1.00  0.00     0.089 C 
ATOM     17  C   UNL A   1      31.722  23.050  24.764  1.00  0.00     0.033 C 
BRANCH  17  18
ATOM     18  C   UNL A   1      33.231  23.332  24.598  1.00  0.00    -0.044 A 
ATOM     19  C   UNL A   1      33.895  24.238  25.454  1.00  0.00     0.004 A 
ATOM     20  C   UNL A   1      34.004  22.751  23.582  1.00  0.00     0.004 A 
ATOM     21  C   UNL A   1      35.274  24.452  25.390  1.00  0.00     0.000 A 
ATOM     22  C   UNL A   1      35.387  22.981  23.501  1.00  0.00     0.000 A 
ATOM     23  C   UNL A   1      36.025  23.810  24.419  1.00  0.00     0.000 A 
ENDBRANCH  17  18
ENDBRANCH   4   7
ENDBRANCH   2   3
ENDBRANCH   1   2
BRANCH   1  24
ATOM     24  C   UNL A   1      34.881  29.284  27.248  1.00  0.00     0.118 C 
BRANCH  24  25
ATOM     25  N   UNL A   1      35.160  30.063  28.466  1.00  0.00    -0.352 N 
ATOM     26  C   UNL A   1      36.301  30.054  29.263  1.00  0.00     0.251 C 
ATOM     27  H   UNL A   1      34.443  30.672  28.756  1.00  0.00     0.163 HD
ATOM     28  O   UNL A   1      36.332  30.618  30.340  1.00  0.00    -0.269 OA
BRANCH  26  29
ATOM     29  C   UNL A   1      37.468  29.307  28.763  1.00  0.00     0.039 A 
ATOM     30  C   UNL A   1      38.172  29.709  27.626  1.00  0.00     0.014 A 
ATOM     31  C   UNL A   1      37.962  28.319  29.593  1.00  0.00     0.014 A 
ATOM     32  C   UNL A   1      39.453  29.192  27.416  1.00  0.00     0.010 A 
ATOM     33  C   UNL A   1      39.298  28.035  29.529  1.00  0.00     0.010 A 
ATOM     34  C   UNL A   1      40.038  28.384  28.402  1.00  0.00    -0.014 A 
BRANCH  34  35
ATOM     35  C   UNL A   1      41.426  27.920  28.313  1.00  0.00     0.031 A 
ATOM     36  C   UNL A   1      41.668  26.648  27.577  1.00  0.00     0.074 A 
ATOM     37  C   UNL A   1      42.480  28.688  28.679  1.00  0.00     0.049 A 
ATOM     38  N   UNL A   1      42.104  25.531  28.059  1.00  0.00    -0.248 NA
ATOM     39  C   UNL A   1      41.346  26.589  26.143  1.00  0.00     0.031 C 
ATOM     40  C   UNL A   1      42.472  30.090  29.129  1.00  0.00     0.029 A 
ATOM     41  N   UNL A   1      43.815  28.408  28.620  1.00  0.00    -0.354 N 
ATOM     42  C   UNL A   1      42.313  24.693  26.965  1.00  0.00     0.074 A 
ATOM     43  C   UNL A   1      41.689  25.334  25.837  1.00  0.00     0.031 C 
ATOM     44  C   UNL A   1      43.709  30.612  29.029  1.00  0.00     0.029 A 
ATOM     45  C   UNL A   1      44.625  29.522  28.771  1.00  0.00     0.049 A 
ATOM     46  H   UNL A   1      44.170  27.499  28.486  1.00  0.00     0.167 HD
ATOM     47  C   UNL A   1      43.213  23.671  27.025  1.00  0.00     0.037 A 
ATOM     48  C   UNL A   1      45.972  29.584  28.759  1.00  0.00     0.037 A 
ATOM     49  C   UNL A   1      43.663  23.447  28.374  1.00  0.00     0.049 A 
ATOM     50  C   UNL A   1      46.492  28.255  29.134  1.00  0.00     0.074 A 
ATOM     51  C   UNL A   1      43.213  22.798  29.501  1.00  0.00     0.029 A 
ATOM     52  N   UNL A   1      44.677  24.278  28.759  1.00  0.00    -0.354 N 
ATOM     53  N   UNL A   1      46.289  27.708  30.302  1.00  0.00    -0.248 NA
ATOM     54  C   UNL A   1      46.991  27.358  28.100  1.00  0.00     0.031 C 
ATOM     55  C   UNL A   1      43.886  23.403  30.608  1.00  0.00     0.029 A 
ATOM     56  C   UNL A   1      44.738  24.390  30.121  1.00  0.00     0.049 A 
ATOM     57  H   UNL A   1      45.285  24.739  28.136  1.00  0.00     0.167 HD
ATOM     58  C   UNL A   1      46.225  26.357  30.034  1.00  0.00     0.074 A 
ATOM     59  C   UNL A   1      46.845  26.188  28.728  1.00  0.00     0.031 C 
ATOM     60  C   UNL A   1      45.377  25.540  30.722  1.00  0.00     0.037 A 
BRANCH  47  61
ATOM     61  C   UNL A   1      44.047  23.169  25.868  1.00  0.00     0.057 A 
ATOM     62  C   UNL A   1      44.046  21.795  25.559  1.00  0.00     0.134 A 
ATOM     63  C   UNL A   1      45.078  23.917  25.267  1.00  0.00     0.134 A 
ATOM     64  F   UNL A   1      43.129  20.971  26.091  1.00  0.00    -0.206 F 
ATOM     65  C   UNL A   1      45.029  21.204  24.753  1.00  0.00     0.040 A 
ATOM     66  C   UNL A   1      46.036  23.345  24.422  1.00  0.00     0.040 A 
ATOM     67  F   UNL A   1      45.276  25.210  25.554  1.00  0.00    -0.206 F 
ATOM     68  C   UNL A   1      46.031  21.980  24.183  1.00  0.00     0.006 A 
ENDBRANCH  47  61
BRANCH  48  69
ATOM     69  C   UNL A   1      46.814  30.689  28.272  1.00  0.00     0.057 A 
ATOM     70  C   UNL A   1      46.782  31.097  26.937  1.00  0.00     0.134 A 
ATOM     71  C   UNL A   1      47.477  31.538  29.177  1.00  0.00     0.134 A 
ATOM     72  F   UNL A   1      46.155  30.353  26.014  1.00  0.00    -0.206 F 
ATOM     73  C   UNL A   1      47.345  32.309  26.524  1.00  0.00     0.040 A 
ATOM     74  C   UNL A   1      48.045  32.750  28.779  1.00  0.00     0.040 A 
ATOM     75  F   UNL A   1      47.517  31.254  30.489  1.00  0.00    -0.206 F 
ATOM     76  C   UNL A   1      47.962  33.148  27.450  1.00  0.00     0.006 A 
ENDBRANCH  48  69
BRANCH  60  77
ATOM     77  C   UNL A   1      44.938  25.980  32.082  1.00  0.00     0.057 A 
ATOM     78  C   UNL A   1      43.778  26.721  32.340  1.00  0.00     0.134 A 
ATOM     79  C   UNL A   1      45.696  25.584  33.189  1.00  0.00     0.134 A 
ATOM     80  F   UNL A   1      42.952  27.078  31.352  1.00  0.00    -0.206 F 
ATOM     81  C   UNL A   1      43.413  27.090  33.639  1.00  0.00     0.040 A 
ATOM     82  C   UNL A   1      45.330  25.920  34.493  1.00  0.00     0.040 A 
ATOM     83  F   UNL A   1      46.796  24.834  33.020  1.00  0.00    -0.206 F 
ATOM     84  C   UNL A   1      44.190  26.687  34.721  1.00  0.00     0.006 A 
ENDBRANCH  60  77
ENDBRANCH  34  35
ENDBRANCH  26  29
ENDBRANCH  24  25
ENDBRANCH   1  24
TORSDOF 11
ENDMDL
MODEL 2
REMARK VINA RESULT:     -12.6      1.880      6.031
REMARK SMILES C[C@@H]1C(C(=O)NCCCNC(=O)c2ccc(-c3c4nc(c(-c5c(F)cccc5F)c5ccc([nH]5)c(-c5c(F)cccc5F)c5nc(c(-c6c(F)cccc6F)c6ccc3[nH]6)C=C5)C=C4)cc2)=NC2=C1C(=O)C[C@H](c1ccccc1)C2
REMARK SMILES IDX 8 1 7 2 6 3 4 4 5 5 3 7 1 8 2 9 69 10 67 11 68 12 70 13
REMARK SMILES IDX 80 14 71 15 72 16 73 17 74 18 75 19 79 20 76 21 78 22 77 23
REMARK SMILES IDX 9 24 10 25 11 26 12 28 13 29 14 30 66 31 15 32 65 33 16 34
REMARK SMILES IDX 17 35 18 36 59 37 19 38 64 39 58 40 60 41 20 42 63 43 57 44
REMARK SMILES IDX 56 45 21 47 47 48 30 49 46 50 31 51 34 52 45 53 61 54 32 55
REMARK SMILES IDX 33 56 44 58 62 59 35 60 22 61 23 62 28 63 24 64 25 65 27 66
REMARK SMILES IDX 29 67 26 68 48 69 49 70 54 71 50 72 51 73 53 74 55 75 52 76
REMARK SMILES IDX 36 77 37 78 42 79 38 80 39 81 41 82 43 83 40 84
REMARK H PARENT 6 6 10 27 60 46 34 57
REMARK Flexibility Score: inf
ROOT
ATOM      1  C   UNL A   1      33.196  29.454  26.117  1.00  0.00     0.042 C 
ENDROOT
BRANCH   1   2
ATOM      2  C   UNL A   1      33.540  27.960  26.080  1.00  0.00     0.118 C 
BRANCH   2   3
ATOM      3  N   UNL A   1      34.005  27.482  24.785  1.00  0.00    -0.351 N 
ATOM      4  C   UNL A   1      33.298  27.451  23.593  1.00  0.00     0.266 C 
ATOM      5  O   UNL A   1      33.818  27.875  22.569  1.00  0.00    -0.268 OA
ATOM      6  H   UNL A   1      34.927  27.142  24.752  1.00  0.00     0.163 HD
BRANCH   4   7
ATOM      7  C   UNL A   1      31.999  26.658  23.501  1.00  0.00     0.113 C 
ATOM      8  C   UNL A   1      29.879  27.892  23.362  1.00  0.00     0.020 C 
ATOM      9  C   UNL A   1      30.761  27.033  24.262  1.00  0.00     0.076 C 
ATOM     10  C   UNL A   1      30.321  25.617  24.380  1.00  0.00     0.026 C 
ATOM     11  N   UNL A   1      31.907  25.546  22.812  1.00  0.00    -0.251 NA
ATOM     12  C   UNL A   1      30.862  24.873  23.410  1.00  0.00     0.049 C 
ATOM     13  C   UNL A   1      30.231  24.974  25.710  1.00  0.00     0.161 C 
ATOM     14  C   UNL A   1      30.881  23.377  23.521  1.00  0.00     0.065 C 
ATOM     15  O   UNL A   1      29.612  25.545  26.607  1.00  0.00    -0.294 OA
ATOM     16  C   UNL A   1      31.049  23.701  25.987  1.00  0.00     0.089 C 
ATOM     17  C   UNL A   1      31.731  23.019  24.758  1.00  0.00     0.033 C 
BRANCH  17  18
ATOM     18  C   UNL A   1      33.241  23.275  24.561  1.00  0.00    -0.044 A 
ATOM     19  C   UNL A   1      33.962  24.080  25.469  1.00  0.00     0.004 A 
ATOM     20  C   UNL A   1      33.959  22.769  23.467  1.00  0.00     0.004 A 
ATOM     21  C   UNL A   1      35.344  24.262  25.372  1.00  0.00     0.000 A 
ATOM     22  C   UNL A   1      35.345  22.969  23.354  1.00  0.00     0.000 A 
ATOM     23  C   UNL A   1      36.039  23.692  24.318  1.00  0.00     0.000 A 
ENDBRANCH  17  18
ENDBRANCH   4   7
ENDBRANCH   2   3
ENDBRANCH   1   2
BRANCH   1  24
ATOM     24  C   UNL A   1      33.686  30.112  27.399  1.00  0.00     0.118 C 
BRANCH  24  25
ATOM     25  N   UNL A   1      34.236  31.463  27.203  1.00  0.00    -0.352 N 
ATOM     26  C   UNL A   1      35.428  31.997  27.682  1.00  0.00     0.251 C 
ATOM     27  H   UNL A   1      33.686  32.072  26.660  1.00  0.00     0.163 HD
ATOM     28  O   UNL A   1      35.680  33.182  27.592  1.00  0.00    -0.269 OA
BRANCH  26  29
ATOM     29  C   UNL A   1      36.369  31.068  28.334  1.00  0.00     0.039 A 
ATOM     30  C   UNL A   1      36.532  29.752  27.897  1.00  0.00     0.014 A 
ATOM     31  C   UNL A   1      37.236  31.624  29.255  1.00  0.00     0.014 A 
ATOM     32  C   UNL A   1      37.669  29.050  28.303  1.00  0.00     0.010 A 
ATOM     33  C   UNL A   1      38.460  31.038  29.420  1.00  0.00     0.010 A 
ATOM     34  C   UNL A   1      38.664  29.716  29.033  1.00  0.00    -0.014 A 
BRANCH  34  35
ATOM     35  C   UNL A   1      39.942  29.083  29.373  1.00  0.00     0.031 A 
ATOM     36  C   UNL A   1      40.269  28.954  30.820  1.00  0.00     0.074 A 
ATOM     37  C   UNL A   1      40.710  28.444  28.458  1.00  0.00     0.049 A 
ATOM     38  N   UNL A   1      41.229  29.532  31.465  1.00  0.00    -0.248 NA
ATOM     39  C   UNL A   1      39.403  28.122  31.669  1.00  0.00     0.031 C 
ATOM     40  C   UNL A   1      40.409  28.184  27.040  1.00  0.00     0.029 A 
ATOM     41  N   UNL A   1      41.894  27.786  28.631  1.00  0.00    -0.354 N 
ATOM     42  C   UNL A   1      41.223  28.980  32.744  1.00  0.00     0.074 A 
ATOM     43  C   UNL A   1      39.994  28.240  32.862  1.00  0.00     0.031 C 
ATOM     44  C   UNL A   1      41.214  27.212  26.571  1.00  0.00     0.029 A 
ATOM     45  C   UNL A   1      42.244  26.980  27.560  1.00  0.00     0.049 A 
ATOM     46  H   UNL A   1      42.447  27.875  29.440  1.00  0.00     0.167 HD
ATOM     47  C   UNL A   1      42.354  28.959  33.505  1.00  0.00     0.037 A 
ATOM     48  C   UNL A   1      43.339  26.205  27.421  1.00  0.00     0.037 A 
ATOM     49  C   UNL A   1      43.388  29.779  32.931  1.00  0.00     0.049 A 
ATOM     50  C   UNL A   1      44.396  26.749  28.294  1.00  0.00     0.074 A 
ATOM     51  C   UNL A   1      43.726  31.112  32.895  1.00  0.00     0.029 A 
ATOM     52  N   UNL A   1      44.109  29.149  31.955  1.00  0.00    -0.354 N 
ATOM     53  N   UNL A   1      44.921  27.933  28.134  1.00  0.00    -0.248 NA
ATOM     54  C   UNL A   1      44.678  26.105  29.571  1.00  0.00     0.031 C 
ATOM     55  C   UNL A   1      44.552  31.286  31.742  1.00  0.00     0.029 A 
ATOM     56  C   UNL A   1      44.708  30.051  31.119  1.00  0.00     0.049 A 
ATOM     57  H   UNL A   1      44.185  28.171  31.865  1.00  0.00     0.167 HD
ATOM     58  C   UNL A   1      45.223  28.343  29.415  1.00  0.00     0.074 A 
ATOM     59  C   UNL A   1      45.235  27.131  30.221  1.00  0.00     0.031 C 
ATOM     60  C   UNL A   1      45.098  29.649  29.786  1.00  0.00     0.037 A 
BRANCH  47  61
ATOM     61  C   UNL A   1      42.724  27.877  34.495  1.00  0.00     0.057 A 
ATOM     62  C   UNL A   1      43.091  26.603  34.023  1.00  0.00     0.134 A 
ATOM     63  C   UNL A   1      42.424  27.942  35.870  1.00  0.00     0.134 A 
ATOM     64  F   UNL A   1      43.375  26.406  32.725  1.00  0.00    -0.206 F 
ATOM     65  C   UNL A   1      43.108  25.469  34.847  1.00  0.00     0.040 A 
ATOM     66  C   UNL A   1      42.486  26.826  36.713  1.00  0.00     0.040 A 
ATOM     67  F   UNL A   1      41.953  29.057  36.442  1.00  0.00    -0.206 F 
ATOM     68  C   UNL A   1      42.802  25.579  36.198  1.00  0.00     0.006 A 
ENDBRANCH  47  61
BRANCH  48  69
ATOM     69  C   UNL A   1      43.445  24.926  26.700  1.00  0.00     0.057 A 
ATOM     70  C   UNL A   1      42.691  23.812  27.076  1.00  0.00     0.134 A 
ATOM     71  C   UNL A   1      44.103  24.854  25.458  1.00  0.00     0.134 A 
ATOM     72  F   UNL A   1      42.019  23.806  28.236  1.00  0.00    -0.206 F 
ATOM     73  C   UNL A   1      42.561  22.696  26.242  1.00  0.00     0.040 A 
ATOM     74  C   UNL A   1      43.983  23.746  24.617  1.00  0.00     0.040 A 
ATOM     75  F   UNL A   1      44.810  25.895  24.990  1.00  0.00    -0.206 F 
ATOM     76  C   UNL A   1      43.193  22.669  25.001  1.00  0.00     0.006 A 
ENDBRANCH  48  69
BRANCH  60  77
ATOM     77  C   UNL A   1      45.167  30.687  28.712  1.00  0.00     0.057 A 
ATOM     78  C   UNL A   1      44.051  31.251  28.081  1.00  0.00     0.134 A 
ATOM     79  C   UNL A   1      46.421  31.181  28.339  1.00  0.00     0.134 A 
ATOM     80  F   UNL A   1      42.809  30.896  28.427  1.00  0.00    -0.206 F 
ATOM     81  C   UNL A   1      44.180  32.230  27.092  1.00  0.00     0.040 A 
ATOM     82  C   UNL A   1      46.565  32.178  27.373  1.00  0.00     0.040 A 
ATOM     83  F   UNL A   1      47.532  30.718  28.933  1.00  0.00    -0.206 F 
ATOM     84  C   UNL A   1      45.441  32.699  26.736  1.00  0.00     0.006 A 
ENDBRANCH  60  77
ENDBRANCH  34  35
ENDBRANCH  26  29
ENDBRANCH  24  25
ENDBRANCH   1  24
TORSDOF 11
ENDMDL
MODEL 3
REMARK VINA RESULT:     -12.5      3.415      7.395
REMARK SMILES C[C@@H]1C(C(=O)NCCCNC(=O)c2ccc(-c3c4nc(c(-c5c(F)cccc5F)c5ccc([nH]5)c(-c5c(F)cccc5F)c5nc(c(-c6c(F)cccc6F)c6ccc3[nH]6)C=C5)C=C4)cc2)=NC2=C1C(=O)C[C@H](c1ccccc1)C2
REMARK SMILES IDX 8 1 7 2 6 3 4 4 5 5 3 7 1 8 2 9 69 10 67 11 68 12 70 13
REMARK SMILES IDX 80 14 71 15 72 16 73 17 74 18 75 19 79 20 76 21 78 22 77 23
REMARK SMILES IDX 9 24 10 25 11 26 12 28 13 29 14 30 66 31 15 32 65 33 16 34
REMARK SMILES IDX 17 35 18 36 59 37 19 38 64 39 58 40 60 41 20 42 63 43 57 44
REMARK SMILES IDX 56 45 21 47 47 48 30 49 46 50 31 51 34 52 45 53 61 54 32 55
REMARK SMILES IDX 33 56 44 58 62 59 35 60 22 61 23 62 28 63 24 64 25 65 27 66
REMARK SMILES IDX 29 67 26 68 48 69 49 70 54 71 50 72 51 73 53 74 55 75 52 76
REMARK SMILES IDX 36 77 37 78 42 79 38 80 39 81 41 82 43 83 40 84
REMARK H PARENT 6 6 10 27 60 46 34 57
REMARK Flexibility Score: inf
ROOT
ATOM      1  C   UNL A   1      36.812  23.649  25.407  1.00  0.00     0.042 C 
ENDROOT
BRANCH   1   2
ATOM      2  C   UNL A   1      35.701  22.699  25.870  1.00  0.00     0.118 C 
BRANCH   2   3
ATOM      3  N   UNL A   1      34.610  23.351  26.582  1.00  0.00    -0.351 N 
ATOM      4  C   UNL A   1      33.291  22.934  26.669  1.00  0.00     0.266 C 
ATOM      5  O   UNL A   1      32.735  22.906  27.760  1.00  0.00    -0.268 OA
ATOM      6  H   UNL A   1      34.835  24.182  27.058  1.00  0.00     0.163 HD
BRANCH   4   7
ATOM      7  C   UNL A   1      32.461  22.771  25.401  1.00  0.00     0.113 C 
ATOM      8  C   UNL A   1      32.417  20.574  24.303  1.00  0.00     0.020 C 
ATOM      9  C   UNL A   1      32.944  22.002  24.206  1.00  0.00     0.076 C 
ATOM     10  C   UNL A   1      32.194  22.869  23.258  1.00  0.00     0.026 C 
ATOM     11  N   UNL A   1      31.303  23.366  25.243  1.00  0.00    -0.251 NA
ATOM     12  C   UNL A   1      31.165  23.460  23.873  1.00  0.00     0.049 C 
ATOM     13  C   UNL A   1      32.923  23.703  22.276  1.00  0.00     0.161 C 
ATOM     14  C   UNL A   1      30.491  24.649  23.254  1.00  0.00     0.065 C 
ATOM     15  O   UNL A   1      33.782  23.177  21.570  1.00  0.00    -0.294 OA
ATOM     16  C   UNL A   1      32.712  25.226  22.280  1.00  0.00     0.089 C 
ATOM     17  C   UNL A   1      31.541  25.775  23.159  1.00  0.00     0.033 C 
BRANCH  17  18
ATOM     18  C   UNL A   1      31.915  26.384  24.527  1.00  0.00    -0.044 A 
ATOM     19  C   UNL A   1      33.260  26.424  24.958  1.00  0.00     0.004 A 
ATOM     20  C   UNL A   1      30.958  26.882  25.422  1.00  0.00     0.004 A 
ATOM     21  C   UNL A   1      33.645  27.044  26.148  1.00  0.00     0.000 A 
ATOM     22  C   UNL A   1      31.339  27.487  26.631  1.00  0.00     0.000 A 
ATOM     23  C   UNL A   1      32.682  27.590  26.981  1.00  0.00     0.000 A 
ENDBRANCH  17  18
ENDBRANCH   4   7
ENDBRANCH   2   3
ENDBRANCH   1   2
BRANCH   1  24
ATOM     24  C   UNL A   1      37.870  23.843  26.484  1.00  0.00     0.118 C 
BRANCH  24  25
ATOM     25  N   UNL A   1      38.919  22.810  26.482  1.00  0.00    -0.352 N 
ATOM     26  C   UNL A   1      40.298  22.968  26.581  1.00  0.00     0.251 C 
ATOM     27  H   UNL A   1      38.603  21.882  26.400  1.00  0.00     0.163 HD
ATOM     28  O   UNL A   1      41.063  22.043  26.392  1.00  0.00    -0.269 OA
BRANCH  26  29
ATOM     29  C   UNL A   1      40.801  24.317  26.899  1.00  0.00     0.039 A 
ATOM     30  C   UNL A   1      40.565  25.410  26.063  1.00  0.00     0.014 A 
ATOM     31  C   UNL A   1      41.329  24.489  28.164  1.00  0.00     0.014 A 
ATOM     32  C   UNL A   1      40.743  26.696  26.580  1.00  0.00     0.010 A 
ATOM     33  C   UNL A   1      41.236  25.727  28.735  1.00  0.00     0.010 A 
ATOM     34  C   UNL A   1      41.036  26.854  27.943  1.00  0.00    -0.014 A 
BRANCH  34  35
ATOM     35  C   UNL A   1      41.100  28.172  28.582  1.00  0.00     0.031 A 
ATOM     36  C   UNL A   1      42.242  29.051  28.206  1.00  0.00     0.074 A 
ATOM     37  C   UNL A   1      40.081  28.683  29.314  1.00  0.00     0.049 A 
ATOM     38  N   UNL A   1      43.207  29.455  28.965  1.00  0.00    -0.248 NA
ATOM     39  C   UNL A   1      42.359  29.501  26.810  1.00  0.00     0.031 C 
ATOM     40  C   UNL A   1      38.744  28.107  29.537  1.00  0.00     0.029 A 
ATOM     41  N   UNL A   1      39.984  29.896  29.933  1.00  0.00    -0.354 N 
ATOM     42  C   UNL A   1      43.933  30.375  28.211  1.00  0.00     0.074 A 
ATOM     43  C   UNL A   1      43.465  30.249  26.855  1.00  0.00     0.031 C 
ATOM     44  C   UNL A   1      37.902  29.060  29.979  1.00  0.00     0.029 A 
ATOM     45  C   UNL A   1      38.693  30.222  30.319  1.00  0.00     0.049 A 
ATOM     46  H   UNL A   1      40.757  30.484  30.092  1.00  0.00     0.167 HD
ATOM     47  C   UNL A   1      44.672  31.350  28.813  1.00  0.00     0.037 A 
ATOM     48  C   UNL A   1      38.266  31.337  30.945  1.00  0.00     0.037 A 
ATOM     49  C   UNL A   1      44.791  31.119  30.229  1.00  0.00     0.049 A 
ATOM     50  C   UNL A   1      39.409  31.916  31.676  1.00  0.00     0.074 A 
ATOM     51  C   UNL A   1      45.561  30.350  31.072  1.00  0.00     0.029 A 
ATOM     52  N   UNL A   1      43.722  31.571  30.950  1.00  0.00    -0.354 N 
ATOM     53  N   UNL A   1      40.014  31.309  32.660  1.00  0.00    -0.248 NA
ATOM     54  C   UNL A   1      40.114  33.063  31.119  1.00  0.00     0.031 C 
ATOM     55  C   UNL A   1      44.817  30.219  32.285  1.00  0.00     0.029 A 
ATOM     56  C   UNL A   1      43.625  30.925  32.153  1.00  0.00     0.049 A 
ATOM     57  H   UNL A   1      43.100  32.270  30.643  1.00  0.00     0.167 HD
ATOM     58  C   UNL A   1      41.325  31.722  32.555  1.00  0.00     0.074 A 
ATOM     59  C   UNL A   1      41.292  32.923  31.734  1.00  0.00     0.031 C 
ATOM     60  C   UNL A   1      42.357  30.878  32.845  1.00  0.00     0.037 A 
BRANCH  47  61
ATOM     61  C   UNL A   1      44.903  32.739  28.263  1.00  0.00     0.057 A 
ATOM     62  C   UNL A   1      43.828  33.645  28.194  1.00  0.00     0.134 A 
ATOM     63  C   UNL A   1      46.040  33.102  27.513  1.00  0.00     0.134 A 
ATOM     64  F   UNL A   1      42.679  33.399  28.843  1.00  0.00    -0.206 F 
ATOM     65  C   UNL A   1      43.864  34.799  27.398  1.00  0.00     0.040 A 
ATOM     66  C   UNL A   1      46.105  34.276  26.754  1.00  0.00     0.040 A 
ATOM     67  F   UNL A   1      47.097  32.289  27.389  1.00  0.00    -0.206 F 
ATOM     68  C   UNL A   1      45.006  35.116  26.672  1.00  0.00     0.006 A 
ENDBRANCH  47  61
BRANCH  48  69
ATOM     69  C   UNL A   1      36.963  32.005  30.793  1.00  0.00     0.057 A 
ATOM     70  C   UNL A   1      35.981  31.922  31.782  1.00  0.00     0.134 A 
ATOM     71  C   UNL A   1      36.759  32.959  29.778  1.00  0.00     0.134 A 
ATOM     72  F   UNL A   1      36.107  31.051  32.794  1.00  0.00    -0.206 F 
ATOM     73  C   UNL A   1      34.870  32.773  31.790  1.00  0.00     0.040 A 
ATOM     74  C   UNL A   1      35.654  33.812  29.772  1.00  0.00     0.040 A 
ATOM     75  F   UNL A   1      37.673  33.146  28.812  1.00  0.00    -0.206 F 
ATOM     76  C   UNL A   1      34.714  33.733  30.793  1.00  0.00     0.006 A 
ENDBRANCH  48  69
BRANCH  60  77
ATOM     77  C   UNL A   1      42.081  29.735  33.769  1.00  0.00     0.057 A 
ATOM     78  C   UNL A   1      41.767  28.436  33.351  1.00  0.00     0.134 A 
ATOM     79  C   UNL A   1      42.197  29.946  35.147  1.00  0.00     0.134 A 
ATOM     80  F   UNL A   1      41.710  28.122  32.053  1.00  0.00    -0.206 F 
ATOM     81  C   UNL A   1      41.534  27.404  34.265  1.00  0.00     0.040 A 
ATOM     82  C   UNL A   1      41.995  28.920  36.070  1.00  0.00     0.040 A 
ATOM     83  F   UNL A   1      42.539  31.156  35.617  1.00  0.00    -0.206 F 
ATOM     84  C   UNL A   1      41.650  27.644  35.631  1.00  0.00     0.006 A 
ENDBRANCH  60  77
ENDBRANCH  34  35
ENDBRANCH  26  29
ENDBRANCH  24  25
ENDBRANCH   1  24
TORSDOF 11
ENDMDL
