MODEL 1
REMARK VINA RESULT:     -12.8      0.000      0.000
REMARK SMILES Cc1c(CCC(=O)N2CCC[C@H]2C(=O)NCCCNC(=O)c2ccc(-c3c4nc(c(-c5c(F)cccc5F)c5ccc([nH]5)c(-c5c(F)cccc5F)c5nc(c(-c6c(F)cccc6F)c6ccc3[nH]6)C=C5)C=C4)cc2)c(=O)oc2cc3oc4c(c3cc12)CCCC4
REMARK SMILES IDX 16 1 15 2 13 3 14 4 12 6 8 7 9 8 10 9 11 10 6 11 7 12 5 13
REMARK SMILES IDX 4 14 3 15 1 16 2 17 87 18 76 19 79 20 86 21 77 22 78 23
REMARK SMILES IDX 80 24 85 25 81 26 84 27 82 28 83 29 88 30 91 31 89 32 90 33
REMARK SMILES IDX 17 34 18 35 19 36 20 37 21 39 22 40 23 41 75 42 24 43 74 44
REMARK SMILES IDX 25 45 26 46 27 47 68 48 28 49 73 50 67 51 69 52 29 53 72 54
REMARK SMILES IDX 66 55 65 56 30 58 56 59 39 60 55 61 40 62 43 63 54 64 70 65
REMARK SMILES IDX 41 66 42 67 53 69 71 70 44 71 31 72 32 73 37 74 33 75 34 76
REMARK SMILES IDX 36 77 38 78 35 79 57 80 58 81 63 82 59 83 60 84 62 85 64 86
REMARK SMILES IDX 61 87 45 88 46 89 51 90 47 91 48 92 50 93 52 94 49 95
REMARK H PARENT 15 5 19 38 69 57 43 68
REMARK Flexibility Score: inf
ROOT
ATOM      1  C   UNL A   1      31.948  29.435  25.934  1.00  0.00     0.117 C 
ENDROOT
BRANCH   1   2
ATOM      2  N   UNL A   1      31.667  29.628  24.536  1.00  0.00    -0.354 N 
ATOM      3  C   UNL A   1      31.936  28.844  23.466  1.00  0.00     0.242 C 
ATOM      4  O   UNL A   1      31.698  29.379  22.369  1.00  0.00    -0.273 OA
ATOM      5  H   UNL A   1      31.200  30.469  24.323  1.00  0.00     0.163 HD
BRANCH   3   6
ATOM      6  C   UNL A   1      32.257  27.320  23.489  1.00  0.00     0.174 C 
ATOM      7  N   UNL A   1      31.425  26.102  23.369  1.00  0.00    -0.331 N 
ATOM      8  C   UNL A   1      32.206  25.027  22.758  1.00  0.00     0.120 C 
ATOM      9  C   UNL A   1      33.522  25.632  22.310  1.00  0.00     0.024 C 
ATOM     10  C   UNL A   1      33.270  27.124  22.342  1.00  0.00     0.037 C 
BRANCH   7  11
ATOM     11  C   UNL A   1      30.321  25.881  24.178  1.00  0.00     0.223 C 
ATOM     12  O   UNL A   1      29.233  26.396  23.910  1.00  0.00    -0.275 OA
BRANCH  11  13
ATOM     13  C   UNL A   1      30.459  24.995  25.436  1.00  0.00     0.105 C 
BRANCH  13  14
ATOM     14  C   UNL A   1      31.586  25.324  26.437  1.00  0.00     0.053 C 
BRANCH  14  15
ATOM     15  C   UNL A   1      32.690  24.302  26.413  1.00  0.00     0.042 A 
ATOM     16  C   UNL A   1      31.283  22.501  27.472  1.00  0.00     0.046 C 
ATOM     17  C   UNL A   1      32.469  23.014  26.714  1.00  0.00    -0.030 A 
ATOM     18  C   UNL A   1      33.363  22.086  26.039  1.00  0.00     0.022 A 
ATOM     19  C   UNL A   1      34.069  24.733  26.022  1.00  0.00     0.339 A 
ATOM     20  C   UNL A   1      34.696  22.427  25.848  1.00  0.00     0.142 A 
ATOM     21  C   UNL A   1      32.859  20.960  25.403  1.00  0.00     0.024 A 
ATOM     22  O   UNL A   1      34.317  25.900  25.743  1.00  0.00    -0.246 OA
ATOM     23  O   UNL A   1      35.078  23.761  26.079  1.00  0.00    -0.422 OA
ATOM     24  C   UNL A   1      35.644  21.520  25.347  1.00  0.00     0.095 A 
ATOM     25  C   UNL A   1      33.742  20.088  24.774  1.00  0.00     0.025 A 
ATOM     26  C   UNL A   1      35.108  20.309  24.907  1.00  0.00     0.138 A 
ATOM     27  C   UNL A   1      33.580  18.856  24.122  1.00  0.00     0.001 A 
ATOM     28  O   UNL A   1      35.768  19.131  24.651  1.00  0.00    -0.461 OA
ATOM     29  C   UNL A   1      34.783  18.234  24.362  1.00  0.00     0.108 A 
ATOM     30  C   UNL A   1      32.357  18.063  23.856  1.00  0.00     0.040 C 
ATOM     31  C   UNL A   1      34.830  16.830  24.859  1.00  0.00     0.076 C 
ATOM     32  C   UNL A   1      32.204  16.995  24.951  1.00  0.00     0.005 C 
ATOM     33  C   UNL A   1      33.524  16.640  25.701  1.00  0.00     0.008 C 
ENDBRANCH  14  15
ENDBRANCH  13  14
ENDBRANCH  11  13
ENDBRANCH   7  11
ENDBRANCH   3   6
ENDBRANCH   1   2
BRANCH   1  34
ATOM     34  C   UNL A   1      33.437  29.576  26.244  1.00  0.00     0.042 C 
BRANCH  34  35
ATOM     35  C   UNL A   1      33.709  30.301  27.560  1.00  0.00     0.118 C 
BRANCH  35  36
ATOM     36  N   UNL A   1      34.179  31.669  27.399  1.00  0.00    -0.352 N 
ATOM     37  C   UNL A   1      35.335  32.299  27.805  1.00  0.00     0.251 C 
ATOM     38  H   UNL A   1      33.555  32.253  26.910  1.00  0.00     0.163 HD
ATOM     39  O   UNL A   1      35.467  33.492  27.573  1.00  0.00    -0.269 OA
BRANCH  37  40
ATOM     40  C   UNL A   1      36.394  31.584  28.563  1.00  0.00     0.039 A 
ATOM     41  C   UNL A   1      36.530  31.685  29.948  1.00  0.00     0.014 A 
ATOM     42  C   UNL A   1      37.240  30.726  27.848  1.00  0.00     0.014 A 
ATOM     43  C   UNL A   1      37.547  31.000  30.611  1.00  0.00     0.010 A 
ATOM     44  C   UNL A   1      38.237  30.009  28.513  1.00  0.00     0.010 A 
ATOM     45  C   UNL A   1      38.394  30.150  29.900  1.00  0.00    -0.014 A 
BRANCH  45  46
ATOM     46  C   UNL A   1      39.333  29.320  30.673  1.00  0.00     0.031 A 
ATOM     47  C   UNL A   1      39.387  27.899  30.243  1.00  0.00     0.074 A 
ATOM     48  C   UNL A   1      40.471  29.810  31.211  1.00  0.00     0.049 A 
ATOM     49  N   UNL A   1      40.099  27.570  29.210  1.00  0.00    -0.248 NA
ATOM     50  C   UNL A   1      38.526  26.829  30.730  1.00  0.00     0.031 C 
ATOM     51  C   UNL A   1      41.110  31.063  30.793  1.00  0.00     0.029 A 
ATOM     52  N   UNL A   1      41.393  29.214  32.044  1.00  0.00    -0.354 N 
ATOM     53  C   UNL A   1      39.753  26.286  28.852  1.00  0.00     0.074 A 
ATOM     54  C   UNL A   1      38.790  25.852  29.842  1.00  0.00     0.031 C 
ATOM     55  C   UNL A   1      42.384  31.064  31.233  1.00  0.00     0.029 A 
ATOM     56  C   UNL A   1      42.593  29.907  32.094  1.00  0.00     0.049 A 
ATOM     57  H   UNL A   1      41.218  28.389  32.549  1.00  0.00     0.167 HD
ATOM     58  C   UNL A   1      40.307  25.687  27.765  1.00  0.00     0.037 A 
ATOM     59  C   UNL A   1      43.802  29.410  32.456  1.00  0.00     0.037 A 
ATOM     60  C   UNL A   1      41.315  26.425  27.027  1.00  0.00     0.049 A 
ATOM     61  C   UNL A   1      44.196  28.619  31.237  1.00  0.00     0.074 A 
ATOM     62  C   UNL A   1      41.769  26.548  25.729  1.00  0.00     0.029 A 
ATOM     63  N   UNL A   1      42.108  27.267  27.756  1.00  0.00    -0.354 N 
ATOM     64  N   UNL A   1      44.675  29.118  30.125  1.00  0.00    -0.248 NA
ATOM     65  C   UNL A   1      43.792  27.206  31.145  1.00  0.00     0.031 C 
ATOM     66  C   UNL A   1      42.953  27.366  25.760  1.00  0.00     0.029 A 
ATOM     67  C   UNL A   1      43.220  27.680  27.081  1.00  0.00     0.049 A 
ATOM     68  H   UNL A   1      41.897  27.549  28.676  1.00  0.00     0.167 HD
ATOM     69  C   UNL A   1      44.380  28.167  29.156  1.00  0.00     0.074 A 
ATOM     70  C   UNL A   1      43.986  26.961  29.854  1.00  0.00     0.031 C 
ATOM     71  C   UNL A   1      44.170  28.453  27.840  1.00  0.00     0.037 A 
BRANCH  58  72
ATOM     72  C   UNL A   1      40.106  24.255  27.466  1.00  0.00     0.057 A 
ATOM     73  C   UNL A   1      41.092  23.350  27.886  1.00  0.00     0.134 A 
ATOM     74  C   UNL A   1      39.075  23.770  26.664  1.00  0.00     0.134 A 
ATOM     75  F   UNL A   1      42.102  23.765  28.667  1.00  0.00    -0.206 F 
ATOM     76  C   UNL A   1      41.074  22.013  27.496  1.00  0.00     0.040 A 
ATOM     77  C   UNL A   1      39.042  22.428  26.269  1.00  0.00     0.040 A 
ATOM     78  F   UNL A   1      38.109  24.588  26.225  1.00  0.00    -0.206 F 
ATOM     79  C   UNL A   1      40.049  21.550  26.675  1.00  0.00     0.006 A 
ENDBRANCH  58  72
BRANCH  59  80
ATOM     80  C   UNL A   1      43.908  28.909  33.862  1.00  0.00     0.057 A 
ATOM     81  C   UNL A   1      43.170  29.565  34.871  1.00  0.00     0.134 A 
ATOM     82  C   UNL A   1      44.725  27.862  34.304  1.00  0.00     0.134 A 
ATOM     83  F   UNL A   1      42.459  30.669  34.587  1.00  0.00    -0.206 F 
ATOM     84  C   UNL A   1      43.145  29.125  36.198  1.00  0.00     0.040 A 
ATOM     85  C   UNL A   1      44.690  27.392  35.623  1.00  0.00     0.040 A 
ATOM     86  F   UNL A   1      45.592  27.259  33.483  1.00  0.00    -0.206 F 
ATOM     87  C   UNL A   1      43.883  28.011  36.571  1.00  0.00     0.006 A 
ENDBRANCH  59  80
BRANCH  71  88
ATOM     88  C   UNL A   1      44.786  29.685  27.304  1.00  0.00     0.057 A 
ATOM     89  C   UNL A   1      44.052  30.877  27.288  1.00  0.00     0.134 A 
ATOM     90  C   UNL A   1      46.109  29.727  26.856  1.00  0.00     0.134 A 
ATOM     91  F   UNL A   1      42.788  30.906  27.740  1.00  0.00    -0.206 F 
ATOM     92  C   UNL A   1      44.612  32.072  26.840  1.00  0.00     0.040 A 
ATOM     93  C   UNL A   1      46.685  30.920  26.415  1.00  0.00     0.040 A 
ATOM     94  F   UNL A   1      46.866  28.619  26.837  1.00  0.00    -0.206 F 
ATOM     95  C   UNL A   1      45.936  32.096  26.407  1.00  0.00     0.006 A 
ENDBRANCH  71  88
ENDBRANCH  45  46
ENDBRANCH  37  40
ENDBRANCH  35  36
ENDBRANCH  34  35
ENDBRANCH   1  34
TORSDOF 14
ENDMDL
MODEL 2
REMARK VINA RESULT:     -12.7      2.487      8.083
REMARK SMILES Cc1c(CCC(=O)N2CCC[C@H]2C(=O)NCCCNC(=O)c2ccc(-c3c4nc(c(-c5c(F)cccc5F)c5ccc([nH]5)c(-c5c(F)cccc5F)c5nc(c(-c6c(F)cccc6F)c6ccc3[nH]6)C=C5)C=C4)cc2)c(=O)oc2cc3oc4c(c3cc12)CCCC4
REMARK SMILES IDX 16 1 15 2 13 3 14 4 12 6 8 7 9 8 10 9 11 10 6 11 7 12 5 13
REMARK SMILES IDX 4 14 3 15 1 16 2 17 87 18 76 19 79 20 86 21 77 22 78 23
REMARK SMILES IDX 80 24 85 25 81 26 84 27 82 28 83 29 88 30 91 31 89 32 90 33
REMARK SMILES IDX 17 34 18 35 19 36 20 37 21 39 22 40 23 41 75 42 24 43 74 44
REMARK SMILES IDX 25 45 26 46 27 47 68 48 28 49 73 50 67 51 69 52 29 53 72 54
REMARK SMILES IDX 66 55 65 56 30 58 56 59 39 60 55 61 40 62 43 63 54 64 70 65
REMARK SMILES IDX 41 66 42 67 53 69 71 70 44 71 31 72 32 73 37 74 33 75 34 76
REMARK SMILES IDX 36 77 38 78 35 79 57 80 58 81 63 82 59 83 60 84 62 85 64 86
REMARK SMILES IDX 61 87 45 88 46 89 51 90 47 91 48 92 50 93 52 94 49 95
REMARK H PARENT 15 5 19 38 69 57 43 68
REMARK Flexibility Score: inf
ROOT
ATOM      1  C   UNL A   1      36.015  22.015  25.495  1.00  0.00     0.117 C 
ENDROOT
BRANCH   1   2
ATOM      2  N   UNL A   1      35.221  21.781  26.672  1.00  0.00    -0.354 N 
ATOM      3  C   UNL A   1      33.908  21.476  26.803  1.00  0.00     0.242 C 
ATOM      4  O   UNL A   1      33.496  21.494  27.975  1.00  0.00    -0.273 OA
ATOM      5  H   UNL A   1      35.713  21.854  27.521  1.00  0.00     0.163 HD
BRANCH   3   6
ATOM      6  C   UNL A   1      32.979  20.883  25.703  1.00  0.00     0.174 C 
ATOM      7  N   UNL A   1      32.593  21.330  24.345  1.00  0.00    -0.331 N 
ATOM      8  C   UNL A   1      32.317  20.169  23.501  1.00  0.00     0.120 C 
ATOM      9  C   UNL A   1      32.714  18.938  24.293  1.00  0.00     0.024 C 
ATOM     10  C   UNL A   1      33.565  19.484  25.419  1.00  0.00     0.037 C 
BRANCH   7  11
ATOM     11  C   UNL A   1      32.070  22.592  24.106  1.00  0.00     0.223 C 
ATOM     12  O   UNL A   1      31.367  23.151  24.951  1.00  0.00    -0.275 OA
BRANCH  11  13
ATOM     13  C   UNL A   1      32.358  23.297  22.762  1.00  0.00     0.105 C 
BRANCH  13  14
ATOM     14  C   UNL A   1      33.653  24.126  22.639  1.00  0.00     0.053 C 
BRANCH  14  15
ATOM     15  C   UNL A   1      33.462  25.553  23.075  1.00  0.00     0.042 A 
ATOM     16  C   UNL A   1      32.632  26.315  20.822  1.00  0.00     0.046 C 
ATOM     17  C   UNL A   1      32.842  26.454  22.299  1.00  0.00    -0.030 A 
ATOM     18  C   UNL A   1      32.160  27.504  23.040  1.00  0.00     0.022 A 
ATOM     19  C   UNL A   1      33.962  25.972  24.422  1.00  0.00     0.339 A 
ATOM     20  C   UNL A   1      32.732  28.017  24.197  1.00  0.00     0.142 A 
ATOM     21  C   UNL A   1      30.854  27.854  22.724  1.00  0.00     0.024 A 
ATOM     22  O   UNL A   1      34.538  25.184  25.163  1.00  0.00    -0.246 OA
ATOM     23  O   UNL A   1      33.822  27.326  24.758  1.00  0.00    -0.422 OA
ATOM     24  C   UNL A   1      32.206  29.132  24.870  1.00  0.00     0.095 A 
ATOM     25  C   UNL A   1      30.233  28.868  23.445  1.00  0.00     0.025 A 
ATOM     26  C   UNL A   1      30.980  29.579  24.378  1.00  0.00     0.138 A 
ATOM     27  C   UNL A   1      28.985  29.502  23.340  1.00  0.00     0.001 A 
ATOM     28  O   UNL A   1      30.362  30.785  24.604  1.00  0.00    -0.461 OA
ATOM     29  C   UNL A   1      29.255  30.766  23.809  1.00  0.00     0.108 A 
ATOM     30  C   UNL A   1      27.864  29.265  22.401  1.00  0.00     0.040 C 
ATOM     31  C   UNL A   1      28.809  31.970  23.053  1.00  0.00     0.076 C 
ATOM     32  C   UNL A   1      27.966  30.262  21.236  1.00  0.00     0.005 C 
ATOM     33  C   UNL A   1      28.802  31.542  21.548  1.00  0.00     0.008 C 
ENDBRANCH  14  15
ENDBRANCH  13  14
ENDBRANCH  11  13
ENDBRANCH   7  11
ENDBRANCH   3   6
ENDBRANCH   1   2
BRANCH   1  34
ATOM     34  C   UNL A   1      37.397  22.568  25.836  1.00  0.00     0.042 C 
BRANCH  34  35
ATOM     35  C   UNL A   1      38.536  21.752  25.228  1.00  0.00     0.118 C 
BRANCH  35  36
ATOM     36  N   UNL A   1      39.306  20.990  26.200  1.00  0.00    -0.352 N 
ATOM     37  C   UNL A   1      40.345  21.342  27.032  1.00  0.00     0.251 C 
ATOM     38  H   UNL A   1      39.033  20.047  26.276  1.00  0.00     0.163 HD
ATOM     39  O   UNL A   1      40.852  20.481  27.736  1.00  0.00    -0.269 OA
BRANCH  37  40
ATOM     40  C   UNL A   1      40.899  22.720  27.055  1.00  0.00     0.039 A 
ATOM     41  C   UNL A   1      40.421  23.713  27.912  1.00  0.00     0.014 A 
ATOM     42  C   UNL A   1      41.992  22.997  26.222  1.00  0.00     0.014 A 
ATOM     43  C   UNL A   1      40.971  24.993  27.888  1.00  0.00     0.010 A 
ATOM     44  C   UNL A   1      42.569  24.268  26.221  1.00  0.00     0.010 A 
ATOM     45  C   UNL A   1      42.054  25.272  27.055  1.00  0.00    -0.014 A 
BRANCH  45  46
ATOM     46  C   UNL A   1      42.705  26.586  27.198  1.00  0.00     0.031 A 
ATOM     47  C   UNL A   1      41.758  27.727  27.288  1.00  0.00     0.074 A 
ATOM     48  C   UNL A   1      43.883  26.753  27.836  1.00  0.00     0.049 A 
ATOM     49  N   UNL A   1      41.186  27.996  28.420  1.00  0.00    -0.248 NA
ATOM     50  C   UNL A   1      41.209  28.469  26.160  1.00  0.00     0.031 C 
ATOM     51  C   UNL A   1      44.460  25.785  28.776  1.00  0.00     0.029 A 
ATOM     52  N   UNL A   1      44.677  27.872  27.965  1.00  0.00    -0.354 N 
ATOM     53  C   UNL A   1      40.162  28.883  28.173  1.00  0.00     0.074 A 
ATOM     54  C   UNL A   1      40.229  29.172  26.757  1.00  0.00     0.031 C 
ATOM     55  C   UNL A   1      45.407  26.406  29.507  1.00  0.00     0.029 A 
ATOM     56  C   UNL A   1      45.616  27.746  28.977  1.00  0.00     0.049 A 
ATOM     57  H   UNL A   1      44.588  28.672  27.399  1.00  0.00     0.167 HD
ATOM     58  C   UNL A   1      39.348  29.311  29.175  1.00  0.00     0.037 A 
ATOM     59  C   UNL A   1      46.245  28.756  29.629  1.00  0.00     0.037 A 
ATOM     60  C   UNL A   1      39.629  28.846  30.520  1.00  0.00     0.049 A 
ATOM     61  C   UNL A   1      45.167  29.252  30.556  1.00  0.00     0.074 A 
ATOM     62  C   UNL A   1      38.943  28.542  31.679  1.00  0.00     0.029 A 
ATOM     63  N   UNL A   1      40.944  28.625  30.825  1.00  0.00    -0.354 N 
ATOM     64  N   UNL A   1      44.803  28.683  31.678  1.00  0.00    -0.248 NA
ATOM     65  C   UNL A   1      44.254  30.306  30.085  1.00  0.00     0.031 C 
ATOM     66  C   UNL A   1      39.917  28.296  32.708  1.00  0.00     0.029 A 
ATOM     67  C   UNL A   1      41.173  28.503  32.165  1.00  0.00     0.049 A 
ATOM     68  H   UNL A   1      41.654  28.561  30.147  1.00  0.00     0.167 HD
ATOM     69  C   UNL A   1      43.503  29.123  31.891  1.00  0.00     0.074 A 
ATOM     70  C   UNL A   1      43.276  30.226  30.980  1.00  0.00     0.031 C 
ATOM     71  C   UNL A   1      42.555  28.413  32.566  1.00  0.00     0.037 A 
BRANCH  58  72
ATOM     72  C   UNL A   1      38.370  30.401  28.985  1.00  0.00     0.057 A 
ATOM     73  C   UNL A   1      38.694  31.671  29.485  1.00  0.00     0.134 A 
ATOM     74  C   UNL A   1      37.088  30.209  28.474  1.00  0.00     0.134 A 
ATOM     75  F   UNL A   1      39.919  31.910  29.981  1.00  0.00    -0.206 F 
ATOM     76  C   UNL A   1      37.764  32.708  29.508  1.00  0.00     0.040 A 
ATOM     77  C   UNL A   1      36.146  31.244  28.486  1.00  0.00     0.040 A 
ATOM     78  F   UNL A   1      36.718  29.015  27.989  1.00  0.00    -0.206 F 
ATOM     79  C   UNL A   1      36.481  32.493  29.015  1.00  0.00     0.006 A 
ENDBRANCH  58  72
BRANCH  59  80
ATOM     80  C   UNL A   1      47.111  29.639  28.788  1.00  0.00     0.057 A 
ATOM     81  C   UNL A   1      48.492  29.706  29.078  1.00  0.00     0.134 A 
ATOM     82  C   UNL A   1      46.678  30.468  27.747  1.00  0.00     0.134 A 
ATOM     83  F   UNL A   1      48.996  29.059  30.141  1.00  0.00    -0.206 F 
ATOM     84  C   UNL A   1      49.394  30.441  28.302  1.00  0.00     0.040 A 
ATOM     85  C   UNL A   1      47.572  31.189  26.944  1.00  0.00     0.040 A 
ATOM     86  F   UNL A   1      45.378  30.621  27.471  1.00  0.00    -0.206 F 
ATOM     87  C   UNL A   1      48.937  31.161  27.207  1.00  0.00     0.006 A 
ENDBRANCH  59  80
BRANCH  71  88
ATOM     88  C   UNL A   1      43.022  27.420  33.555  1.00  0.00     0.057 A 
ATOM     89  C   UNL A   1      42.949  27.715  34.922  1.00  0.00     0.134 A 
ATOM     90  C   UNL A   1      43.489  26.156  33.185  1.00  0.00     0.134 A 
ATOM     91  F   UNL A   1      42.473  28.900  35.340  1.00  0.00    -0.206 F 
ATOM     92  C   UNL A   1      43.328  26.788  35.889  1.00  0.00     0.040 A 
ATOM     93  C   UNL A   1      43.862  25.214  34.145  1.00  0.00     0.040 A 
ATOM     94  F   UNL A   1      43.592  25.811  31.892  1.00  0.00    -0.206 F 
ATOM     95  C   UNL A   1      43.782  25.529  35.501  1.00  0.00     0.006 A 
ENDBRANCH  71  88
ENDBRANCH  45  46
ENDBRANCH  37  40
ENDBRANCH  35  36
ENDBRANCH  34  35
ENDBRANCH   1  34
TORSDOF 14
ENDMDL
MODEL 3
REMARK VINA RESULT:     -12.5      8.124     13.894
REMARK SMILES Cc1c(CCC(=O)N2CCC[C@H]2C(=O)NCCCNC(=O)c2ccc(-c3c4nc(c(-c5c(F)cccc5F)c5ccc([nH]5)c(-c5c(F)cccc5F)c5nc(c(-c6c(F)cccc6F)c6ccc3[nH]6)C=C5)C=C4)cc2)c(=O)oc2cc3oc4c(c3cc12)CCCC4
REMARK SMILES IDX 16 1 15 2 13 3 14 4 12 6 8 7 9 8 10 9 11 10 6 11 7 12 5 13
REMARK SMILES IDX 4 14 3 15 1 16 2 17 87 18 76 19 79 20 86 21 77 22 78 23
REMARK SMILES IDX 80 24 85 25 81 26 84 27 82 28 83 29 88 30 91 31 89 32 90 33
REMARK SMILES IDX 17 34 18 35 19 36 20 37 21 39 22 40 23 41 75 42 24 43 74 44
REMARK SMILES IDX 25 45 26 46 27 47 68 48 28 49 73 50 67 51 69 52 29 53 72 54
REMARK SMILES IDX 66 55 65 56 30 58 56 59 39 60 55 61 40 62 43 63 54 64 70 65
REMARK SMILES IDX 41 66 42 67 53 69 71 70 44 71 31 72 32 73 37 74 33 75 34 76
REMARK SMILES IDX 36 77 38 78 35 79 57 80 58 81 63 82 59 83 60 84 62 85 64 86
REMARK SMILES IDX 61 87 45 88 46 89 51 90 47 91 48 92 50 93 52 94 49 95
REMARK H PARENT 15 5 19 38 69 57 43 68
REMARK Flexibility Score: inf
ROOT
ATOM      1  C   UNL A   1      47.366  20.465  34.708  1.00  0.00     0.117 C 
ENDROOT
BRANCH   1   2
ATOM      2  N   UNL A   1      48.342  21.474  34.394  1.00  0.00    -0.354 N 
ATOM      3  C   UNL A   1      49.491  21.815  35.023  1.00  0.00     0.242 C 
ATOM      4  O   UNL A   1      50.030  22.844  34.580  1.00  0.00    -0.273 OA
ATOM      5  H   UNL A   1      48.142  22.004  33.588  1.00  0.00     0.163 HD
BRANCH   3   6
ATOM      6  C   UNL A   1      50.294  20.937  36.028  1.00  0.00     0.174 C 
ATOM      7  N   UNL A   1      49.902  19.941  37.050  1.00  0.00    -0.331 N 
ATOM      8  C   UNL A   1      50.957  18.940  37.197  1.00  0.00     0.120 C 
ATOM      9  C   UNL A   1      51.976  19.203  36.106  1.00  0.00     0.024 C 
ATOM     10  C   UNL A   1      51.252  20.116  35.140  1.00  0.00     0.037 C 
BRANCH   7  11
ATOM     11  C   UNL A   1      48.976  20.229  38.042  1.00  0.00     0.223 C 
ATOM     12  O   UNL A   1      48.367  21.301  38.041  1.00  0.00    -0.275 OA
BRANCH  11  13
ATOM     13  C   UNL A   1      48.717  19.203  39.168  1.00  0.00     0.105 C 
BRANCH  13  14
ATOM     14  C   UNL A   1      47.386  19.294  39.942  1.00  0.00     0.053 C 
BRANCH  14  15
ATOM     15  C   UNL A   1      46.428  18.197  39.563  1.00  0.00     0.042 A 
ATOM     16  C   UNL A   1      47.317  16.586  41.283  1.00  0.00     0.046 C 
ATOM     17  C   UNL A   1      46.306  17.080  40.294  1.00  0.00    -0.030 A 
ATOM     18  C   UNL A   1      44.984  16.475  40.235  1.00  0.00     0.022 A 
ATOM     19  C   UNL A   1      45.573  18.370  38.346  1.00  0.00     0.339 A 
ATOM     20  C   UNL A   1      44.274  16.479  39.041  1.00  0.00     0.142 A 
ATOM     21  C   UNL A   1      44.338  16.081  41.399  1.00  0.00     0.024 A 
ATOM     22  O   UNL A   1      45.654  19.374  37.647  1.00  0.00    -0.246 OA
ATOM     23  O   UNL A   1      44.744  17.296  37.995  1.00  0.00    -0.422 OA
ATOM     24  C   UNL A   1      43.067  15.781  38.876  1.00  0.00     0.095 A 
ATOM     25  C   UNL A   1      43.078  15.498  41.308  1.00  0.00     0.025 A 
ATOM     26  C   UNL A   1      42.560  15.220  40.048  1.00  0.00     0.138 A 
ATOM     27  C   UNL A   1      42.206  14.935  42.252  1.00  0.00     0.001 A 
ATOM     28  O   UNL A   1      41.593  14.253  40.178  1.00  0.00    -0.461 OA
ATOM     29  C   UNL A   1      41.547  13.979  41.513  1.00  0.00     0.108 A 
ATOM     30  C   UNL A   1      42.339  14.798  43.721  1.00  0.00     0.040 C 
ATOM     31  C   UNL A   1      41.398  12.589  42.025  1.00  0.00     0.076 C 
ATOM     32  C   UNL A   1      42.879  13.395  44.047  1.00  0.00     0.005 C 
ATOM     33  C   UNL A   1      42.653  12.336  42.925  1.00  0.00     0.008 C 
ENDBRANCH  14  15
ENDBRANCH  13  14
ENDBRANCH  11  13
ENDBRANCH   7  11
ENDBRANCH   3   6
ENDBRANCH   1   2
BRANCH   1  34
ATOM     34  C   UNL A   1      45.955  21.042  34.807  1.00  0.00     0.042 C 
BRANCH  34  35
ATOM     35  C   UNL A   1      45.879  22.291  35.682  1.00  0.00     0.118 C 
BRANCH  35  36
ATOM     36  N   UNL A   1      44.523  22.738  35.963  1.00  0.00    -0.352 N 
ATOM     37  C   UNL A   1      43.700  23.640  35.327  1.00  0.00     0.251 C 
ATOM     38  H   UNL A   1      44.119  22.318  36.757  1.00  0.00     0.163 HD
ATOM     39  O   UNL A   1      42.598  23.869  35.803  1.00  0.00    -0.269 OA
BRANCH  37  40
ATOM     40  C   UNL A   1      44.136  24.381  34.115  1.00  0.00     0.039 A 
ATOM     41  C   UNL A   1      44.099  23.824  32.836  1.00  0.00     0.014 A 
ATOM     42  C   UNL A   1      44.535  25.715  34.274  1.00  0.00     0.014 A 
ATOM     43  C   UNL A   1      44.528  24.558  31.731  1.00  0.00     0.010 A 
ATOM     44  C   UNL A   1      44.930  26.466  33.166  1.00  0.00     0.010 A 
ATOM     45  C   UNL A   1      44.931  25.885  31.889  1.00  0.00    -0.014 A 
BRANCH  45  46
ATOM     46  C   UNL A   1      45.204  26.664  30.670  1.00  0.00     0.031 A 
ATOM     47  C   UNL A   1      45.238  25.855  29.424  1.00  0.00     0.074 A 
ATOM     48  C   UNL A   1      44.817  27.949  30.520  1.00  0.00     0.049 A 
ATOM     49  N   UNL A   1      44.125  25.525  28.846  1.00  0.00    -0.248 NA
ATOM     50  C   UNL A   1      46.408  25.177  28.880  1.00  0.00     0.031 C 
ATOM     51  C   UNL A   1      43.779  28.599  31.328  1.00  0.00     0.029 A 
ATOM     52  N   UNL A   1      45.082  28.849  29.511  1.00  0.00    -0.354 N 
ATOM     53  C   UNL A   1      44.409  24.555  27.910  1.00  0.00     0.074 A 
ATOM     54  C   UNL A   1      45.846  24.388  27.945  1.00  0.00     0.031 C 
ATOM     55  C   UNL A   1      43.373  29.715  30.689  1.00  0.00     0.029 A 
ATOM     56  C   UNL A   1      44.229  29.942  29.533  1.00  0.00     0.049 A 
ATOM     57  H   UNL A   1      45.799  28.730  28.847  1.00  0.00     0.167 HD
ATOM     58  C   UNL A   1      43.421  23.979  27.175  1.00  0.00     0.037 A 
ATOM     59  C   UNL A   1      43.940  30.766  28.495  1.00  0.00     0.037 A 
ATOM     60  C   UNL A   1      42.066  24.458  27.370  1.00  0.00     0.049 A 
ATOM     61  C   UNL A   1      42.998  29.924  27.677  1.00  0.00     0.074 A 
ATOM     62  C   UNL A   1      40.775  23.970  27.326  1.00  0.00     0.029 A 
ATOM     63  N   UNL A   1      41.928  25.782  27.685  1.00  0.00    -0.354 N 
ATOM     64  N   UNL A   1      41.731  29.722  27.938  1.00  0.00    -0.248 NA
ATOM     65  C   UNL A   1      43.555  29.036  26.642  1.00  0.00     0.031 C 
ATOM     66  C   UNL A   1      39.883  25.090  27.465  1.00  0.00     0.029 A 
ATOM     67  C   UNL A   1      40.650  26.240  27.543  1.00  0.00     0.049 A 
ATOM     68  H   UNL A   1      42.676  26.347  27.986  1.00  0.00     0.167 HD
ATOM     69  C   UNL A   1      41.426  28.526  27.300  1.00  0.00     0.074 A 
ATOM     70  C   UNL A   1      42.523  28.235  26.401  1.00  0.00     0.031 C 
ATOM     71  C   UNL A   1      40.462  27.658  27.720  1.00  0.00     0.037 A 
BRANCH  58  72
ATOM     72  C   UNL A   1      43.706  23.083  26.036  1.00  0.00     0.057 A 
ATOM     73  C   UNL A   1      43.504  21.707  26.215  1.00  0.00     0.134 A 
ATOM     74  C   UNL A   1      44.302  23.507  24.849  1.00  0.00     0.134 A 
ATOM     75  F   UNL A   1      42.926  21.247  27.336  1.00  0.00    -0.206 F 
ATOM     76  C   UNL A   1      43.912  20.777  25.260  1.00  0.00     0.040 A 
ATOM     77  C   UNL A   1      44.711  22.583  23.881  1.00  0.00     0.040 A 
ATOM     78  F   UNL A   1      44.527  24.808  24.626  1.00  0.00    -0.206 F 
ATOM     79  C   UNL A   1      44.527  21.215  24.091  1.00  0.00     0.006 A 
ENDBRANCH  58  72
BRANCH  59  80
ATOM     80  C   UNL A   1      45.091  31.539  27.934  1.00  0.00     0.057 A 
ATOM     81  C   UNL A   1      45.018  32.949  27.924  1.00  0.00     0.134 A 
ATOM     82  C   UNL A   1      46.244  30.997  27.354  1.00  0.00     0.134 A 
ATOM     83  F   UNL A   1      43.901  33.576  28.328  1.00  0.00    -0.206 F 
ATOM     84  C   UNL A   1      46.073  33.760  27.492  1.00  0.00     0.040 A 
ATOM     85  C   UNL A   1      47.320  31.794  26.942  1.00  0.00     0.040 A 
ATOM     86  F   UNL A   1      46.372  29.680  27.156  1.00  0.00    -0.206 F 
ATOM     87  C   UNL A   1      47.245  33.180  27.029  1.00  0.00     0.006 A 
ENDBRANCH  59  80
BRANCH  71  88
ATOM     88  C   UNL A   1      39.353  28.207  28.526  1.00  0.00     0.057 A 
ATOM     89  C   UNL A   1      39.259  27.889  29.886  1.00  0.00     0.134 A 
ATOM     90  C   UNL A   1      38.409  29.091  27.996  1.00  0.00     0.134 A 
ATOM     91  F   UNL A   1      40.160  27.075  30.460  1.00  0.00    -0.206 F 
ATOM     92  C   UNL A   1      38.261  28.428  30.694  1.00  0.00     0.040 A 
ATOM     93  C   UNL A   1      37.409  29.646  28.798  1.00  0.00     0.040 A 
ATOM     94  F   UNL A   1      38.436  29.433  26.698  1.00  0.00    -0.206 F 
ATOM     95  C   UNL A   1      37.334  29.315  30.150  1.00  0.00     0.006 A 
ENDBRANCH  71  88
ENDBRANCH  45  46
ENDBRANCH  37  40
ENDBRANCH  35  36
ENDBRANCH  34  35
ENDBRANCH   1  34
TORSDOF 14
ENDMDL
