MODEL 1
REMARK VINA RESULT:     -12.6      0.000      0.000
REMARK SMILES CS(=O)(=O)c1ccc(-c2cc(Cl)cnc2-c2ccc(C(=O)NCCCNC(=O)c3ccc(-c4c5nc(c(-c6c(F)cccc6F)c6ccc([nH]6)c(-c6c(F)cccc6F)c6nc(c(-c7c(F)cccc7F)c7ccc4[nH]7)C=C6)C=C5)cc3)nc2)cc1
REMARK SMILES IDX 23 1 22 2 20 3 21 4 19 6 16 7 17 8 84 9 18 10 83 11 15 12
REMARK SMILES IDX 9 13 10 14 11 15 14 16 12 17 13 18 8 19 5 20 6 21 86 22 7 23
REMARK SMILES IDX 85 24 2 25 1 26 3 27 4 28 24 29 25 30 26 31 27 32 28 34
REMARK SMILES IDX 29 35 30 36 82 37 31 38 81 39 32 40 33 41 34 42 75 43 35 44
REMARK SMILES IDX 80 45 74 46 76 47 36 48 79 49 73 50 72 51 37 53 63 54 46 55
REMARK SMILES IDX 62 56 47 57 50 58 61 59 77 60 48 61 49 62 60 64 78 65 51 66
REMARK SMILES IDX 38 67 39 68 44 69 40 70 41 71 43 72 45 73 42 74 64 75 65 76
REMARK SMILES IDX 70 77 66 78 67 79 69 80 71 81 68 82 52 83 53 84 58 85 54 86
REMARK SMILES IDX 55 87 57 88 59 89 56 90
REMARK H PARENT 22 5 26 33 76 52 50 63
REMARK Flexibility Score: inf
ROOT
ATOM      1  C   UNL A   1      31.849  30.774  26.816  1.00  0.00     0.118 C 
ENDROOT
BRANCH   1   2
ATOM      2  N   UNL A   1      33.089  30.465  27.505  1.00  0.00    -0.351 N 
ATOM      3  C   UNL A   1      33.874  29.332  27.541  1.00  0.00     0.269 C 
ATOM      4  O   UNL A   1      34.925  29.411  28.180  1.00  0.00    -0.268 OA
ATOM      5  H   UNL A   1      33.435  31.207  28.051  1.00  0.00     0.163 HD
BRANCH   3   6
ATOM      6  C   UNL A   1      33.519  28.061  26.822  1.00  0.00     0.128 A 
ATOM      7  C   UNL A   1      32.963  25.796  25.330  1.00  0.00     0.019 A 
ATOM      8  C   UNL A   1      32.203  26.090  26.464  1.00  0.00     0.014 A 
ATOM      9  C   UNL A   1      34.025  26.647  25.051  1.00  0.00     0.122 A 
ATOM     10  C   UNL A   1      32.496  27.217  27.230  1.00  0.00     0.035 A 
ATOM     11  N   UNL A   1      34.301  27.776  25.748  1.00  0.00    -0.250 NA
BRANCH   7  12
ATOM     12  C   UNL A   1      32.628  24.670  24.458  1.00  0.00     0.080 A 
ATOM     13  C   UNL A   1      31.550  24.711  23.549  1.00  0.00     0.010 A 
ATOM     14  C   UNL A   1      31.276  23.536  22.828  1.00  0.00     0.033 A 
ATOM     15  C   UNL A   1      32.056  22.401  23.021  1.00  0.00     0.060 A 
ATOM     16  N   UNL A   1      33.409  23.572  24.641  1.00  0.00    -0.254 NA
ATOM     17  Cl  UNL A   1      31.721  20.956  22.161  1.00  0.00    -0.083 Cl
ATOM     18  C   UNL A   1      33.104  22.466  23.922  1.00  0.00     0.132 A 
BRANCH  13  19
ATOM     19  C   UNL A   1      30.724  25.912  23.338  1.00  0.00    -0.016 A 
ATOM     20  C   UNL A   1      29.134  28.192  22.908  1.00  0.00     0.067 A 
ATOM     21  C   UNL A   1      28.655  27.160  23.715  1.00  0.00     0.021 A 
ATOM     22  C   UNL A   1      30.399  28.105  22.322  1.00  0.00     0.021 A 
ATOM     23  C   UNL A   1      29.450  26.028  23.926  1.00  0.00     0.010 A 
ATOM     24  C   UNL A   1      31.188  26.972  22.542  1.00  0.00     0.010 A 
BRANCH  20  25
ATOM     25  S   UNL A   1      28.146  29.644  22.631  1.00  0.00     0.175 S 
ATOM     26  C   UNL A   1      28.945  30.943  23.536  1.00  0.00     0.163 C 
ATOM     27  O   UNL A   1      26.863  29.415  23.266  1.00  0.00    -0.224 OA
ATOM     28  O   UNL A   1      28.241  29.944  21.216  1.00  0.00    -0.224 OA
ENDBRANCH  20  25
ENDBRANCH  13  19
ENDBRANCH   7  12
ENDBRANCH   3   6
ENDBRANCH   1   2
BRANCH   1  29
ATOM     29  C   UNL A   1      31.520  32.264  26.898  1.00  0.00     0.042 C 
BRANCH  29  30
ATOM     30  C   UNL A   1      32.751  33.165  26.947  1.00  0.00     0.118 C 
BRANCH  30  31
ATOM     31  N   UNL A   1      32.500  34.395  27.681  1.00  0.00    -0.352 N 
ATOM     32  C   UNL A   1      33.038  34.847  28.860  1.00  0.00     0.251 C 
ATOM     33  H   UNL A   1      31.840  34.998  27.268  1.00  0.00     0.163 HD
ATOM     34  O   UNL A   1      32.528  35.815  29.420  1.00  0.00    -0.269 OA
BRANCH  32  35
ATOM     35  C   UNL A   1      34.214  34.185  29.469  1.00  0.00     0.039 A 
ATOM     36  C   UNL A   1      35.491  34.554  29.034  1.00  0.00     0.014 A 
ATOM     37  C   UNL A   1      34.071  33.158  30.407  1.00  0.00     0.014 A 
ATOM     38  C   UNL A   1      36.621  33.931  29.571  1.00  0.00     0.010 A 
ATOM     39  C   UNL A   1      35.200  32.581  30.989  1.00  0.00     0.010 A 
ATOM     40  C   UNL A   1      36.485  32.955  30.570  1.00  0.00    -0.014 A 
BRANCH  40  41
ATOM     41  C   UNL A   1      37.675  32.299  31.172  1.00  0.00     0.031 A 
ATOM     42  C   UNL A   1      38.405  31.221  30.417  1.00  0.00     0.074 A 
ATOM     43  C   UNL A   1      38.066  32.634  32.417  1.00  0.00     0.049 A 
ATOM     44  N   UNL A   1      39.400  30.467  30.809  1.00  0.00    -0.248 NA
ATOM     45  C   UNL A   1      37.940  30.940  29.050  1.00  0.00     0.031 C 
ATOM     46  C   UNL A   1      37.426  33.642  33.263  1.00  0.00     0.029 A 
ATOM     47  N   UNL A   1      39.092  32.152  33.191  1.00  0.00    -0.354 N 
ATOM     48  C   UNL A   1      39.671  29.614  29.746  1.00  0.00     0.074 A 
ATOM     49  C   UNL A   1      38.707  29.915  28.708  1.00  0.00     0.031 C 
ATOM     50  C   UNL A   1      38.082  33.714  34.434  1.00  0.00     0.029 A 
ATOM     51  C   UNL A   1      39.165  32.735  34.434  1.00  0.00     0.049 A 
ATOM     52  H   UNL A   1      39.717  31.455  32.885  1.00  0.00     0.167 HD
ATOM     53  C   UNL A   1      40.644  28.679  29.635  1.00  0.00     0.037 A 
ATOM     54  C   UNL A   1      40.004  32.499  35.459  1.00  0.00     0.037 A 
ATOM     55  C   UNL A   1      41.620  28.399  30.655  1.00  0.00     0.049 A 
ATOM     56  C   UNL A   1      41.075  31.455  35.309  1.00  0.00     0.074 A 
ATOM     57  C   UNL A   1      42.666  27.492  30.623  1.00  0.00     0.029 A 
ATOM     58  N   UNL A   1      41.677  29.032  31.886  1.00  0.00    -0.354 N 
ATOM     59  N   UNL A   1      41.338  30.681  34.284  1.00  0.00    -0.248 NA
ATOM     60  C   UNL A   1      41.970  31.254  36.458  1.00  0.00     0.031 C 
ATOM     61  C   UNL A   1      43.341  27.559  31.847  1.00  0.00     0.029 A 
ATOM     62  C   UNL A   1      42.737  28.532  32.625  1.00  0.00     0.049 A 
ATOM     63  H   UNL A   1      41.056  29.732  32.191  1.00  0.00     0.167 HD
ATOM     64  C   UNL A   1      42.444  29.927  34.653  1.00  0.00     0.074 A 
ATOM     65  C   UNL A   1      42.810  30.342  35.991  1.00  0.00     0.031 C 
ATOM     66  C   UNL A   1      43.097  28.973  33.946  1.00  0.00     0.037 A 
BRANCH  53  67
ATOM     67  C   UNL A   1      40.713  27.898  28.356  1.00  0.00     0.057 A 
ATOM     68  C   UNL A   1      41.463  28.347  27.263  1.00  0.00     0.134 A 
ATOM     69  C   UNL A   1      40.064  26.663  28.233  1.00  0.00     0.134 A 
ATOM     70  F   UNL A   1      42.098  29.528  27.312  1.00  0.00    -0.206 F 
ATOM     71  C   UNL A   1      41.551  27.604  26.084  1.00  0.00     0.040 A 
ATOM     72  C   UNL A   1      40.164  25.900  27.068  1.00  0.00     0.040 A 
ATOM     73  F   UNL A   1      39.335  26.172  29.246  1.00  0.00    -0.206 F 
ATOM     74  C   UNL A   1      40.907  26.372  25.987  1.00  0.00     0.006 A 
ENDBRANCH  53  67
BRANCH  54  75
ATOM     75  C   UNL A   1      39.884  33.276  36.718  1.00  0.00     0.057 A 
ATOM     76  C   UNL A   1      39.003  32.876  37.729  1.00  0.00     0.134 A 
ATOM     77  C   UNL A   1      40.622  34.445  36.930  1.00  0.00     0.134 A 
ATOM     78  F   UNL A   1      38.254  31.774  37.574  1.00  0.00    -0.206 F 
ATOM     79  C   UNL A   1      38.840  33.624  38.896  1.00  0.00     0.040 A 
ATOM     80  C   UNL A   1      40.488  35.191  38.102  1.00  0.00     0.040 A 
ATOM     81  F   UNL A   1      41.489  34.877  36.003  1.00  0.00    -0.206 F 
ATOM     82  C   UNL A   1      39.586  34.786  39.085  1.00  0.00     0.006 A 
ENDBRANCH  54  75
BRANCH  66  83
ATOM     83  C   UNL A   1      44.300  28.350  34.589  1.00  0.00     0.057 A 
ATOM     84  C   UNL A   1      45.576  28.912  34.466  1.00  0.00     0.134 A 
ATOM     85  C   UNL A   1      44.172  27.192  35.366  1.00  0.00     0.134 A 
ATOM     86  F   UNL A   1      45.765  30.013  33.723  1.00  0.00    -0.206 F 
ATOM     87  C   UNL A   1      46.688  28.333  35.079  1.00  0.00     0.040 A 
ATOM     88  C   UNL A   1      45.272  26.617  36.001  1.00  0.00     0.040 A 
ATOM     89  F   UNL A   1      42.975  26.610  35.528  1.00  0.00    -0.206 F 
ATOM     90  C   UNL A   1      46.536  27.184  35.854  1.00  0.00     0.006 A 
ENDBRANCH  66  83
ENDBRANCH  40  41
ENDBRANCH  32  35
ENDBRANCH  30  31
ENDBRANCH  29  30
ENDBRANCH   1  29
TORSDOF 13
ENDMDL
MODEL 2
REMARK VINA RESULT:     -12.6      0.511      5.958
REMARK SMILES CS(=O)(=O)c1ccc(-c2cc(Cl)cnc2-c2ccc(C(=O)NCCCNC(=O)c3ccc(-c4c5nc(c(-c6c(F)cccc6F)c6ccc([nH]6)c(-c6c(F)cccc6F)c6nc(c(-c7c(F)cccc7F)c7ccc4[nH]7)C=C6)C=C5)cc3)nc2)cc1
REMARK SMILES IDX 23 1 22 2 20 3 21 4 19 6 16 7 17 8 84 9 18 10 83 11 15 12
REMARK SMILES IDX 9 13 10 14 11 15 14 16 12 17 13 18 8 19 5 20 6 21 86 22 7 23
REMARK SMILES IDX 85 24 2 25 1 26 3 27 4 28 24 29 25 30 26 31 27 32 28 34
REMARK SMILES IDX 29 35 30 36 82 37 31 38 81 39 32 40 33 41 34 42 75 43 35 44
REMARK SMILES IDX 80 45 74 46 76 47 36 48 79 49 73 50 72 51 37 53 63 54 46 55
REMARK SMILES IDX 62 56 47 57 50 58 61 59 77 60 48 61 49 62 60 64 78 65 51 66
REMARK SMILES IDX 38 67 39 68 44 69 40 70 41 71 43 72 45 73 42 74 64 75 65 76
REMARK SMILES IDX 70 77 66 78 67 79 69 80 71 81 68 82 52 83 53 84 58 85 54 86
REMARK SMILES IDX 55 87 57 88 59 89 56 90
REMARK H PARENT 22 5 26 33 76 52 50 63
REMARK Flexibility Score: inf
ROOT
ATOM      1  C   UNL A   1      31.781  30.840  26.845  1.00  0.00     0.118 C 
ENDROOT
BRANCH   1   2
ATOM      2  N   UNL A   1      33.019  30.529  27.535  1.00  0.00    -0.351 N 
ATOM      3  C   UNL A   1      33.799  29.393  27.576  1.00  0.00     0.269 C 
ATOM      4  O   UNL A   1      34.850  29.470  28.215  1.00  0.00    -0.268 OA
ATOM      5  H   UNL A   1      33.368  31.271  28.079  1.00  0.00     0.163 HD
BRANCH   3   6
ATOM      6  C   UNL A   1      33.438  28.120  26.863  1.00  0.00     0.128 A 
ATOM      7  C   UNL A   1      32.896  25.839  25.390  1.00  0.00     0.019 A 
ATOM      8  C   UNL A   1      32.033  26.231  26.416  1.00  0.00     0.014 A 
ATOM      9  C   UNL A   1      34.041  26.604  25.211  1.00  0.00     0.122 A 
ATOM     10  C   UNL A   1      32.316  27.365  27.175  1.00  0.00     0.035 A 
ATOM     11  N   UNL A   1      34.316  27.739  25.898  1.00  0.00    -0.250 NA
BRANCH   7  12
ATOM     12  C   UNL A   1      32.583  24.703  24.522  1.00  0.00     0.080 A 
ATOM     13  C   UNL A   1      31.531  24.736  23.582  1.00  0.00     0.010 A 
ATOM     14  C   UNL A   1      31.274  23.553  22.868  1.00  0.00     0.033 A 
ATOM     15  C   UNL A   1      32.046  22.420  23.095  1.00  0.00     0.060 A 
ATOM     16  N   UNL A   1      33.355  23.606  24.740  1.00  0.00    -0.254 NA
ATOM     17  Cl  UNL A   1      31.732  20.965  22.243  1.00  0.00    -0.083 Cl
ATOM     18  C   UNL A   1      33.068  22.493  24.026  1.00  0.00     0.132 A 
BRANCH  13  19
ATOM     19  C   UNL A   1      30.713  25.937  23.335  1.00  0.00    -0.016 A 
ATOM     20  C   UNL A   1      29.165  28.242  22.892  1.00  0.00     0.067 A 
ATOM     21  C   UNL A   1      30.446  28.157  22.347  1.00  0.00     0.021 A 
ATOM     22  C   UNL A   1      28.644  27.188  23.646  1.00  0.00     0.021 A 
ATOM     23  C   UNL A   1      31.212  27.008  22.570  1.00  0.00     0.010 A 
ATOM     24  C   UNL A   1      29.415  26.042  23.860  1.00  0.00     0.010 A 
BRANCH  20  25
ATOM     25  S   UNL A   1      28.169  29.689  22.615  1.00  0.00     0.175 S 
ATOM     26  C   UNL A   1      28.990  31.003  23.477  1.00  0.00     0.163 C 
ATOM     27  O   UNL A   1      26.903  29.471  23.287  1.00  0.00    -0.224 OA
ATOM     28  O   UNL A   1      28.228  29.965  21.193  1.00  0.00    -0.224 OA
ENDBRANCH  20  25
ENDBRANCH  13  19
ENDBRANCH   7  12
ENDBRANCH   3   6
ENDBRANCH   1   2
BRANCH   1  29
ATOM     29  C   UNL A   1      31.509  32.345  26.835  1.00  0.00     0.042 C 
BRANCH  29  30
ATOM     30  C   UNL A   1      32.772  33.199  26.895  1.00  0.00     0.118 C 
BRANCH  30  31
ATOM     31  N   UNL A   1      32.591  34.387  27.714  1.00  0.00    -0.352 N 
ATOM     32  C   UNL A   1      33.180  34.740  28.903  1.00  0.00     0.251 C 
ATOM     33  H   UNL A   1      31.944  35.040  27.361  1.00  0.00     0.163 HD
ATOM     34  O   UNL A   1      32.725  35.687  29.539  1.00  0.00    -0.269 OA
BRANCH  32  35
ATOM     35  C   UNL A   1      34.345  33.995  29.432  1.00  0.00     0.039 A 
ATOM     36  C   UNL A   1      35.628  34.397  29.047  1.00  0.00     0.014 A 
ATOM     37  C   UNL A   1      34.186  32.866  30.241  1.00  0.00     0.014 A 
ATOM     38  C   UNL A   1      36.748  33.700  29.509  1.00  0.00     0.010 A 
ATOM     39  C   UNL A   1      35.305  32.209  30.753  1.00  0.00     0.010 A 
ATOM     40  C   UNL A   1      36.596  32.614  30.384  1.00  0.00    -0.014 A 
BRANCH  40  41
ATOM     41  C   UNL A   1      37.775  31.876  30.907  1.00  0.00     0.031 A 
ATOM     42  C   UNL A   1      38.336  32.214  32.262  1.00  0.00     0.074 A 
ATOM     43  C   UNL A   1      38.374  30.942  30.143  1.00  0.00     0.049 A 
ATOM     44  N   UNL A   1      39.410  31.753  32.851  1.00  0.00    -0.248 NA
ATOM     45  C   UNL A   1      37.604  33.218  33.050  1.00  0.00     0.031 C 
ATOM     46  C   UNL A   1      37.945  30.543  28.802  1.00  0.00     0.029 A 
ATOM     47  N   UNL A   1      39.480  30.166  30.383  1.00  0.00    -0.354 N 
ATOM     48  C   UNL A   1      39.492  32.420  34.067  1.00  0.00     0.074 A 
ATOM     49  C   UNL A   1      38.381  33.347  34.115  1.00  0.00     0.031 C 
ATOM     50  C   UNL A   1      38.770  29.587  28.343  1.00  0.00     0.029 A 
ATOM     51  C   UNL A   1      39.804  29.330  29.342  1.00  0.00     0.049 A 
ATOM     52  H   UNL A   1      39.993  30.204  31.224  1.00  0.00     0.167 HD
ATOM     53  C   UNL A   1      40.396  32.260  35.063  1.00  0.00     0.037 A 
ATOM     54  C   UNL A   1      40.824  28.462  29.205  1.00  0.00     0.037 A 
ATOM     55  C   UNL A   1      41.483  31.318  35.029  1.00  0.00     0.049 A 
ATOM     56  C   UNL A   1      41.813  28.306  30.325  1.00  0.00     0.074 A 
ATOM     57  C   UNL A   1      42.433  31.060  36.002  1.00  0.00     0.029 A 
ATOM     58  N   UNL A   1      41.758  30.470  33.968  1.00  0.00    -0.354 N 
ATOM     59  N   UNL A   1      41.856  28.919  31.483  1.00  0.00    -0.248 NA
ATOM     60  C   UNL A   1      42.896  27.333  30.122  1.00  0.00     0.031 C 
ATOM     61  C   UNL A   1      43.299  30.073  35.519  1.00  0.00     0.029 A 
ATOM     62  C   UNL A   1      42.865  29.692  34.260  1.00  0.00     0.049 A 
ATOM     63  H   UNL A   1      41.242  30.427  33.130  1.00  0.00     0.167 HD
ATOM     64  C   UNL A   1      42.946  28.385  32.156  1.00  0.00     0.074 A 
ATOM     65  C   UNL A   1      43.533  27.391  31.282  1.00  0.00     0.031 C 
ATOM     66  C   UNL A   1      43.422  28.693  33.387  1.00  0.00     0.037 A 
BRANCH  53  67
ATOM     67  C   UNL A   1      40.239  33.115  36.285  1.00  0.00     0.057 A 
ATOM     68  C   UNL A   1      40.968  34.299  36.450  1.00  0.00     0.134 A 
ATOM     69  C   UNL A   1      39.316  32.778  37.284  1.00  0.00     0.134 A 
ATOM     70  F   UNL A   1      41.877  34.670  35.536  1.00  0.00    -0.206 F 
ATOM     71  C   UNL A   1      40.799  35.109  37.574  1.00  0.00     0.040 A 
ATOM     72  C   UNL A   1      39.121  33.593  38.401  1.00  0.00     0.040 A 
ATOM     73  F   UNL A   1      38.581  31.661  37.184  1.00  0.00    -0.206 F 
ATOM     74  C   UNL A   1      39.866  34.761  38.550  1.00  0.00     0.006 A 
ENDBRANCH  53  67
BRANCH  54  75
ATOM     75  C   UNL A   1      40.958  27.655  27.966  1.00  0.00     0.057 A 
ATOM     76  C   UNL A   1      40.387  26.382  27.872  1.00  0.00     0.134 A 
ATOM     77  C   UNL A   1      41.681  28.123  26.864  1.00  0.00     0.134 A 
ATOM     78  F   UNL A   1      39.700  25.873  28.905  1.00  0.00    -0.206 F 
ATOM     79  C   UNL A   1      40.549  25.590  26.734  1.00  0.00     0.040 A 
ATOM     80  C   UNL A   1      41.832  27.352  25.710  1.00  0.00     0.040 A 
ATOM     81  F   UNL A   1      42.247  29.338  26.889  1.00  0.00    -0.206 F 
ATOM     82  C   UNL A   1      41.272  26.076  25.647  1.00  0.00     0.006 A 
ENDBRANCH  54  75
BRANCH  66  83
ATOM     83  C   UNL A   1      44.604  27.912  33.878  1.00  0.00     0.057 A 
ATOM     84  C   UNL A   1      45.914  28.368  33.699  1.00  0.00     0.134 A 
ATOM     85  C   UNL A   1      44.422  26.706  34.567  1.00  0.00     0.134 A 
ATOM     86  F   UNL A   1      46.153  29.509  33.035  1.00  0.00    -0.206 F 
ATOM     87  C   UNL A   1      47.008  27.642  34.172  1.00  0.00     0.040 A 
ATOM     88  C   UNL A   1      45.506  25.982  35.063  1.00  0.00     0.040 A 
ATOM     89  F   UNL A   1      43.190  26.220  34.777  1.00  0.00    -0.206 F 
ATOM     90  C   UNL A   1      46.804  26.447  34.862  1.00  0.00     0.006 A 
ENDBRANCH  66  83
ENDBRANCH  40  41
ENDBRANCH  32  35
ENDBRANCH  30  31
ENDBRANCH  29  30
ENDBRANCH   1  29
TORSDOF 13
ENDMDL
MODEL 3
REMARK VINA RESULT:     -11.9      1.322      6.182
REMARK SMILES CS(=O)(=O)c1ccc(-c2cc(Cl)cnc2-c2ccc(C(=O)NCCCNC(=O)c3ccc(-c4c5nc(c(-c6c(F)cccc6F)c6ccc([nH]6)c(-c6c(F)cccc6F)c6nc(c(-c7c(F)cccc7F)c7ccc4[nH]7)C=C6)C=C5)cc3)nc2)cc1
REMARK SMILES IDX 23 1 22 2 20 3 21 4 19 6 16 7 17 8 84 9 18 10 83 11 15 12
REMARK SMILES IDX 9 13 10 14 11 15 14 16 12 17 13 18 8 19 5 20 6 21 86 22 7 23
REMARK SMILES IDX 85 24 2 25 1 26 3 27 4 28 24 29 25 30 26 31 27 32 28 34
REMARK SMILES IDX 29 35 30 36 82 37 31 38 81 39 32 40 33 41 34 42 75 43 35 44
REMARK SMILES IDX 80 45 74 46 76 47 36 48 79 49 73 50 72 51 37 53 63 54 46 55
REMARK SMILES IDX 62 56 47 57 50 58 61 59 77 60 48 61 49 62 60 64 78 65 51 66
REMARK SMILES IDX 38 67 39 68 44 69 40 70 41 71 43 72 45 73 42 74 64 75 65 76
REMARK SMILES IDX 70 77 66 78 67 79 69 80 71 81 68 82 52 83 53 84 58 85 54 86
REMARK SMILES IDX 55 87 57 88 59 89 56 90
REMARK H PARENT 22 5 26 33 76 52 50 63
REMARK Flexibility Score: inf
ROOT
ATOM      1  C   UNL A   1      32.254  31.438  26.968  1.00  0.00     0.118 C 
ENDROOT
BRANCH   1   2
ATOM      2  N   UNL A   1      33.422  30.973  27.694  1.00  0.00    -0.351 N 
ATOM      3  C   UNL A   1      34.154  29.807  27.626  1.00  0.00     0.269 C 
ATOM      4  O   UNL A   1      35.154  29.742  28.343  1.00  0.00    -0.268 OA
ATOM      5  H   UNL A   1      33.755  31.614  28.362  1.00  0.00     0.163 HD
BRANCH   3   6
ATOM      6  C   UNL A   1      33.803  28.666  26.712  1.00  0.00     0.128 A 
ATOM      7  C   UNL A   1      33.095  26.460  25.196  1.00  0.00     0.019 A 
ATOM      8  C   UNL A   1      33.991  27.401  24.685  1.00  0.00     0.014 A 
ATOM      9  C   UNL A   1      32.547  26.732  26.444  1.00  0.00     0.122 A 
ATOM     10  C   UNL A   1      34.331  28.525  25.436  1.00  0.00     0.035 A 
ATOM     11  N   UNL A   1      32.897  27.788  27.216  1.00  0.00    -0.250 NA
BRANCH   7  12
ATOM     12  C   UNL A   1      32.784  25.229  24.469  1.00  0.00     0.080 A 
ATOM     13  C   UNL A   1      31.654  25.109  23.633  1.00  0.00     0.010 A 
ATOM     14  C   UNL A   1      31.415  23.849  23.057  1.00  0.00     0.033 A 
ATOM     15  C   UNL A   1      32.279  22.790  23.313  1.00  0.00     0.060 A 
ATOM     16  N   UNL A   1      33.645  24.205  24.712  1.00  0.00    -0.254 NA
ATOM     17  Cl  UNL A   1      31.990  21.244  22.630  1.00  0.00    -0.083 Cl
ATOM     18  C   UNL A   1      33.372  23.013  24.133  1.00  0.00     0.132 A 
BRANCH  13  19
ATOM     19  C   UNL A   1      30.739  26.230  23.355  1.00  0.00    -0.016 A 
ATOM     20  C   UNL A   1      29.003  28.385  22.853  1.00  0.00     0.067 A 
ATOM     21  C   UNL A   1      30.289  28.396  22.314  1.00  0.00     0.021 A 
ATOM     22  C   UNL A   1      28.569  27.308  23.630  1.00  0.00     0.021 A 
ATOM     23  C   UNL A   1      31.149  27.321  22.567  1.00  0.00     0.010 A 
ATOM     24  C   UNL A   1      29.434  26.237  23.873  1.00  0.00     0.010 A 
BRANCH  20  25
ATOM     25  S   UNL A   1      27.889  29.735  22.540  1.00  0.00     0.175 S 
ATOM     26  C   UNL A   1      28.526  31.103  23.470  1.00  0.00     0.163 C 
ATOM     27  O   UNL A   1      26.613  29.382  23.129  1.00  0.00    -0.224 OA
ATOM     28  O   UNL A   1      28.005  30.047  21.128  1.00  0.00    -0.224 OA
ENDBRANCH  20  25
ENDBRANCH  13  19
ENDBRANCH   7  12
ENDBRANCH   3   6
ENDBRANCH   1   2
BRANCH   1  29
ATOM     29  C   UNL A   1      32.060  32.946  27.127  1.00  0.00     0.042 C 
BRANCH  29  30
ATOM     30  C   UNL A   1      33.298  33.675  27.640  1.00  0.00     0.118 C 
BRANCH  30  31
ATOM     31  N   UNL A   1      32.995  34.545  28.765  1.00  0.00    -0.352 N 
ATOM     32  C   UNL A   1      33.553  34.598  30.018  1.00  0.00     0.251 C 
ATOM     33  H   UNL A   1      32.276  35.198  28.603  1.00  0.00     0.163 HD
ATOM     34  O   UNL A   1      33.002  35.262  30.892  1.00  0.00    -0.269 OA
BRANCH  32  35
ATOM     35  C   UNL A   1      34.800  33.863  30.333  1.00  0.00     0.039 A 
ATOM     36  C   UNL A   1      34.750  32.835  31.280  1.00  0.00     0.014 A 
ATOM     37  C   UNL A   1      36.025  34.219  29.761  1.00  0.00     0.014 A 
ATOM     38  C   UNL A   1      35.913  32.137  31.618  1.00  0.00     0.010 A 
ATOM     39  C   UNL A   1      37.172  33.481  30.050  1.00  0.00     0.010 A 
ATOM     40  C   UNL A   1      37.130  32.439  30.988  1.00  0.00    -0.014 A 
BRANCH  40  41
ATOM     41  C   UNL A   1      38.371  31.692  31.314  1.00  0.00     0.031 A 
ATOM     42  C   UNL A   1      39.251  32.148  32.447  1.00  0.00     0.074 A 
ATOM     43  C   UNL A   1      38.736  30.638  30.559  1.00  0.00     0.049 A 
ATOM     44  N   UNL A   1      40.417  31.689  32.825  1.00  0.00    -0.248 NA
ATOM     45  C   UNL A   1      38.765  33.282  33.247  1.00  0.00     0.031 C 
ATOM     46  C   UNL A   1      37.986  30.114  29.416  1.00  0.00     0.029 A 
ATOM     47  N   UNL A   1      39.839  29.824  30.633  1.00  0.00    -0.354 N 
ATOM     48  C   UNL A   1      40.811  32.485  33.893  1.00  0.00     0.074 A 
ATOM     49  C   UNL A   1      39.778  33.483  34.077  1.00  0.00     0.031 C 
ATOM     50  C   UNL A   1      38.643  29.059  28.906  1.00  0.00     0.029 A 
ATOM     51  C   UNL A   1      39.874  28.853  29.661  1.00  0.00     0.049 A 
ATOM     52  H   UNL A   1      40.538  29.926  31.320  1.00  0.00     0.167 HD
ATOM     53  C   UNL A   1      41.919  32.383  34.664  1.00  0.00     0.037 A 
ATOM     54  C   UNL A   1      40.800  27.910  29.404  1.00  0.00     0.037 A 
ATOM     55  C   UNL A   1      42.932  31.374  34.499  1.00  0.00     0.049 A 
ATOM     56  C   UNL A   1      42.022  27.821  30.275  1.00  0.00     0.074 A 
ATOM     57  C   UNL A   1      44.077  31.170  35.251  1.00  0.00     0.029 A 
ATOM     58  N   UNL A   1      42.915  30.392  33.522  1.00  0.00    -0.354 N 
ATOM     59  N   UNL A   1      42.362  28.561  31.303  1.00  0.00    -0.248 NA
ATOM     60  C   UNL A   1      42.989  26.761  29.953  1.00  0.00     0.031 C 
ATOM     61  C   UNL A   1      44.766  30.078  34.711  1.00  0.00     0.029 A 
ATOM     62  C   UNL A   1      44.031  29.583  33.647  1.00  0.00     0.049 A 
ATOM     63  H   UNL A   1      42.213  30.287  32.839  1.00  0.00     0.167 HD
ATOM     64  C   UNL A   1      43.561  28.038  31.767  1.00  0.00     0.074 A 
ATOM     65  C   UNL A   1      43.886  26.912  30.916  1.00  0.00     0.031 C 
ATOM     66  C   UNL A   1      44.327  28.454  32.804  1.00  0.00     0.037 A 
BRANCH  53  67
ATOM     67  C   UNL A   1      42.090  33.383  35.769  1.00  0.00     0.057 A 
ATOM     68  C   UNL A   1      41.563  33.159  37.047  1.00  0.00     0.134 A 
ATOM     69  C   UNL A   1      42.827  34.557  35.569  1.00  0.00     0.134 A 
ATOM     70  F   UNL A   1      40.836  32.060  37.300  1.00  0.00    -0.206 F 
ATOM     71  C   UNL A   1      41.749  34.076  38.083  1.00  0.00     0.040 A 
ATOM     72  C   UNL A   1      43.039  35.470  36.604  1.00  0.00     0.040 A 
ATOM     73  F   UNL A   1      43.364  34.829  34.370  1.00  0.00    -0.206 F 
ATOM     74  C   UNL A   1      42.496  35.232  37.865  1.00  0.00     0.006 A 
ENDBRANCH  53  67
BRANCH  54  75
ATOM     75  C   UNL A   1      40.606  26.958  28.283  1.00  0.00     0.057 A 
ATOM     76  C   UNL A   1      41.281  27.129  27.069  1.00  0.00     0.134 A 
ATOM     77  C   UNL A   1      39.725  25.876  28.386  1.00  0.00     0.134 A 
ATOM     78  F   UNL A   1      42.123  28.159  26.905  1.00  0.00    -0.206 F 
ATOM     79  C   UNL A   1      41.069  26.272  25.987  1.00  0.00     0.040 A 
ATOM     80  C   UNL A   1      39.521  24.997  27.321  1.00  0.00     0.040 A 
ATOM     81  F   UNL A   1      39.054  25.653  29.525  1.00  0.00    -0.206 F 
ATOM     82  C   UNL A   1      40.188  25.200  26.113  1.00  0.00     0.006 A 
ENDBRANCH  54  75
BRANCH  66  83
ATOM     83  C   UNL A   1      45.563  27.660  33.104  1.00  0.00     0.057 A 
ATOM     84  C   UNL A   1      46.806  27.997  32.558  1.00  0.00     0.134 A 
ATOM     85  C   UNL A   1      45.510  26.565  33.975  1.00  0.00     0.134 A 
ATOM     86  F   UNL A   1      46.918  29.027  31.705  1.00  0.00    -0.206 F 
ATOM     87  C   UNL A   1      47.954  27.261  32.853  1.00  0.00     0.040 A 
ATOM     88  C   UNL A   1      46.654  25.835  34.296  1.00  0.00     0.040 A 
ATOM     89  F   UNL A   1      44.349  26.196  34.536  1.00  0.00    -0.206 F 
ATOM     90  C   UNL A   1      47.880  26.178  33.730  1.00  0.00     0.006 A 
ENDBRANCH  66  83
ENDBRANCH  40  41
ENDBRANCH  32  35
ENDBRANCH  30  31
ENDBRANCH  29  30
ENDBRANCH   1  29
TORSDOF 13
ENDMDL
