MODEL 1
REMARK VINA RESULT:     -10.8      0.000      0.000
REMARK SMILES CC[C@H]1CCCC[C@@H]1C1(C(=O)NCCCNC(=O)c2ccc(-c3c4nc(c(-c5c(F)cccc5F)c5ccc([nH]5)c(-c5c(F)cccc5F)c5nc(c(-c6c(F)cccc6F)c6ccc3[nH]6)C=C5)C=C4)cc2)CC1
REMARK SMILES IDX 14 1 13 2 12 3 10 4 11 5 9 7 73 8 74 9 8 10 3 11 4 12 5 13
REMARK SMILES IDX 7 14 6 15 2 16 1 17 15 18 16 19 17 20 18 22 19 23 20 24
REMARK SMILES IDX 72 25 21 26 71 27 22 28 23 29 24 30 65 31 25 32 70 33 64 34
REMARK SMILES IDX 66 35 26 36 69 37 63 38 62 39 27 41 53 42 36 43 52 44 37 45
REMARK SMILES IDX 40 46 51 47 67 48 38 49 39 50 50 52 68 53 41 54 28 55 29 56
REMARK SMILES IDX 34 57 30 58 31 59 33 60 35 61 32 62 54 63 55 64 60 65 56 66
REMARK SMILES IDX 57 67 59 68 61 69 58 70 42 71 43 72 48 73 44 74 45 75 47 76
REMARK SMILES IDX 49 77 46 78
REMARK H PARENT 12 6 16 21 66 40 40 51
REMARK Flexibility Score: inf
ROOT
ATOM      1  C   UNL A   1      33.094  27.690  26.815  1.00  0.00     0.042 C 
ENDROOT
BRANCH   1   2
ATOM      2  C   UNL A   1      32.141  26.966  25.869  1.00  0.00     0.117 C 
BRANCH   2   3
ATOM      3  N   UNL A   1      31.397  25.914  26.528  1.00  0.00    -0.356 N 
ATOM      4  C   UNL A   1      31.283  24.566  26.379  1.00  0.00     0.226 C 
ATOM      5  O   UNL A   1      30.618  23.999  27.251  1.00  0.00    -0.274 OA
ATOM      6  H   UNL A   1      30.839  26.256  27.262  1.00  0.00     0.163 HD
BRANCH   4   7
ATOM      7  C   UNL A   1      31.897  23.726  25.258  1.00  0.00     0.052 C 
ATOM      8  C   UNL A   1      31.116  23.783  23.942  1.00  0.00     0.018 C 
ATOM      9  C   UNL A   1      31.240  22.486  24.676  1.00  0.00     0.018 C 
BRANCH   7  10
ATOM     10  C   UNL A   1      33.467  23.754  25.279  1.00  0.00     0.008 C 
ATOM     11  C   UNL A   1      34.280  22.944  24.221  1.00  0.00    -0.007 C 
ATOM     12  C   UNL A   1      34.510  21.477  24.622  1.00  0.00     0.004 C 
ATOM     13  C   UNL A   1      35.032  21.316  26.044  1.00  0.00     0.000 C 
ATOM     14  C   UNL A   1      33.979  23.509  26.716  1.00  0.00     0.005 C 
ATOM     15  C   UNL A   1      34.154  22.034  27.059  1.00  0.00     0.000 C 
BRANCH  11  16
ATOM     16  C   UNL A   1      35.623  23.696  23.965  1.00  0.00     0.000 C 
ATOM     17  C   UNL A   1      36.653  22.952  23.128  1.00  0.00     0.004 C 
ENDBRANCH  11  16
ENDBRANCH   7  10
ENDBRANCH   4   7
ENDBRANCH   2   3
ENDBRANCH   1   2
BRANCH   1  18
ATOM     18  C   UNL A   1      34.024  28.689  26.124  1.00  0.00     0.118 C 
BRANCH  18  19
ATOM     19  N   UNL A   1      33.817  30.063  26.568  1.00  0.00    -0.352 N 
ATOM     20  C   UNL A   1      34.486  30.817  27.493  1.00  0.00     0.251 C 
ATOM     21  H   UNL A   1      33.069  30.526  26.126  1.00  0.00     0.163 HD
ATOM     22  O   UNL A   1      34.019  31.899  27.849  1.00  0.00    -0.269 OA
BRANCH  20  23
ATOM     23  C   UNL A   1      35.752  30.339  28.079  1.00  0.00     0.039 A 
ATOM     24  C   UNL A   1      35.725  29.717  29.330  1.00  0.00     0.014 A 
ATOM     25  C   UNL A   1      36.967  30.532  27.417  1.00  0.00     0.014 A 
ATOM     26  C   UNL A   1      36.909  29.234  29.888  1.00  0.00     0.010 A 
ATOM     27  C   UNL A   1      38.132  29.975  27.934  1.00  0.00     0.010 A 
ATOM     28  C   UNL A   1      38.116  29.329  29.179  1.00  0.00    -0.014 A 
BRANCH  28  29
ATOM     29  C   UNL A   1      39.376  28.770  29.730  1.00  0.00     0.031 A 
ATOM     30  C   UNL A   1      40.017  29.400  30.936  1.00  0.00     0.074 A 
ATOM     31  C   UNL A   1      39.971  27.734  29.109  1.00  0.00     0.049 A 
ATOM     32  N   UNL A   1      41.145  29.095  31.525  1.00  0.00    -0.248 NA
ATOM     33  C   UNL A   1      39.313  30.541  31.541  1.00  0.00     0.031 C 
ATOM     34  C   UNL A   1      39.473  27.070  27.902  1.00  0.00     0.029 A 
ATOM     35  N   UNL A   1      41.131  27.062  29.402  1.00  0.00    -0.354 N 
ATOM     36  C   UNL A   1      41.290  30.014  32.557  1.00  0.00     0.074 A 
ATOM     37  C   UNL A   1      40.169  30.923  32.476  1.00  0.00     0.031 C 
ATOM     38  C   UNL A   1      40.307  26.070  27.575  1.00  0.00     0.029 A 
ATOM     39  C   UNL A   1      41.416  26.047  28.521  1.00  0.00     0.049 A 
ATOM     40  H   UNL A   1      41.705  27.288  30.169  1.00  0.00     0.167 HD
ATOM     41  C   UNL A   1      42.257  30.079  33.504  1.00  0.00     0.037 A 
ATOM     42  C   UNL A   1      42.459  25.196  28.481  1.00  0.00     0.037 A 
ATOM     43  C   UNL A   1      43.360  29.158  33.594  1.00  0.00     0.049 A 
ATOM     44  C   UNL A   1      43.522  25.290  29.541  1.00  0.00     0.074 A 
ATOM     45  C   UNL A   1      44.363  29.103  34.546  1.00  0.00     0.029 A 
ATOM     46  N   UNL A   1      43.604  28.129  32.696  1.00  0.00    -0.354 N 
ATOM     47  N   UNL A   1      43.611  26.121  30.552  1.00  0.00    -0.248 NA
ATOM     48  C   UNL A   1      44.623  24.322  29.460  1.00  0.00     0.031 C 
ATOM     49  C   UNL A   1      45.240  28.071  34.197  1.00  0.00     0.029 A 
ATOM     50  C   UNL A   1      44.753  27.446  33.060  1.00  0.00     0.049 A 
ATOM     51  H   UNL A   1      43.043  27.916  31.915  1.00  0.00     0.167 HD
ATOM     52  C   UNL A   1      44.758  25.757  31.245  1.00  0.00     0.074 A 
ATOM     53  C   UNL A   1      45.323  24.620  30.546  1.00  0.00     0.031 C 
ATOM     54  C   UNL A   1      45.296  26.311  32.359  1.00  0.00     0.037 A 
BRANCH  41  55
ATOM     55  C   UNL A   1      42.161  31.182  34.519  1.00  0.00     0.057 A 
ATOM     56  C   UNL A   1      41.442  31.029  35.712  1.00  0.00     0.134 A 
ATOM     57  C   UNL A   1      42.815  32.404  34.313  1.00  0.00     0.134 A 
ATOM     58  F   UNL A   1      40.782  29.889  35.967  1.00  0.00    -0.206 F 
ATOM     59  C   UNL A   1      41.354  32.059  36.650  1.00  0.00     0.040 A 
ATOM     60  C   UNL A   1      42.758  33.431  35.258  1.00  0.00     0.040 A 
ATOM     61  F   UNL A   1      43.526  32.617  33.196  1.00  0.00    -0.206 F 
ATOM     62  C   UNL A   1      42.019  33.262  36.427  1.00  0.00     0.006 A 
ENDBRANCH  41  55
BRANCH  42  63
ATOM     63  C   UNL A   1      42.536  24.162  27.418  1.00  0.00     0.057 A 
ATOM     64  C   UNL A   1      43.115  24.445  26.175  1.00  0.00     0.134 A 
ATOM     65  C   UNL A   1      42.024  22.873  27.611  1.00  0.00     0.134 A 
ATOM     66  F   UNL A   1      43.607  25.667  25.923  1.00  0.00    -0.206 F 
ATOM     67  C   UNL A   1      43.162  23.493  25.156  1.00  0.00     0.040 A 
ATOM     68  C   UNL A   1      42.090  21.903  26.609  1.00  0.00     0.040 A 
ATOM     69  F   UNL A   1      41.466  22.534  28.783  1.00  0.00    -0.206 F 
ATOM     70  C   UNL A   1      42.652  22.215  25.373  1.00  0.00     0.006 A 
ENDBRANCH  42  63
BRANCH  54  71
ATOM     71  C   UNL A   1      46.531  25.667  32.918  1.00  0.00     0.057 A 
ATOM     72  C   UNL A   1      46.469  24.645  33.875  1.00  0.00     0.134 A 
ATOM     73  C   UNL A   1      47.799  26.053  32.465  1.00  0.00     0.134 A 
ATOM     74  F   UNL A   1      45.285  24.238  34.359  1.00  0.00    -0.206 F 
ATOM     75  C   UNL A   1      47.626  24.051  34.382  1.00  0.00     0.040 A 
ATOM     76  C   UNL A   1      48.961  25.445  32.943  1.00  0.00     0.040 A 
ATOM     77  F   UNL A   1      47.929  27.018  31.543  1.00  0.00    -0.206 F 
ATOM     78  C   UNL A   1      48.876  24.447  33.909  1.00  0.00     0.006 A 
ENDBRANCH  54  71
ENDBRANCH  28  29
ENDBRANCH  20  23
ENDBRANCH  18  19
ENDBRANCH   1  18
TORSDOF 12
ENDMDL
MODEL 2
REMARK VINA RESULT:     -10.8      4.173      7.473
REMARK SMILES CC[C@H]1CCCC[C@@H]1C1(C(=O)NCCCNC(=O)c2ccc(-c3c4nc(c(-c5c(F)cccc5F)c5ccc([nH]5)c(-c5c(F)cccc5F)c5nc(c(-c6c(F)cccc6F)c6ccc3[nH]6)C=C5)C=C4)cc2)CC1
REMARK SMILES IDX 14 1 13 2 12 3 10 4 11 5 9 7 73 8 74 9 8 10 3 11 4 12 5 13
REMARK SMILES IDX 7 14 6 15 2 16 1 17 15 18 16 19 17 20 18 22 19 23 20 24
REMARK SMILES IDX 72 25 21 26 71 27 22 28 23 29 24 30 65 31 25 32 70 33 64 34
REMARK SMILES IDX 66 35 26 36 69 37 63 38 62 39 27 41 53 42 36 43 52 44 37 45
REMARK SMILES IDX 40 46 51 47 67 48 38 49 39 50 50 52 68 53 41 54 28 55 29 56
REMARK SMILES IDX 34 57 30 58 31 59 33 60 35 61 32 62 54 63 55 64 60 65 56 66
REMARK SMILES IDX 57 67 59 68 61 69 58 70 42 71 43 72 48 73 44 74 45 75 47 76
REMARK SMILES IDX 49 77 46 78
REMARK H PARENT 12 6 16 21 66 40 40 51
REMARK Flexibility Score: inf
ROOT
ATOM      1  C   UNL A   1      37.506  19.626  25.001  1.00  0.00     0.042 C 
ENDROOT
BRANCH   1   2
ATOM      2  C   UNL A   1      36.346  20.616  24.986  1.00  0.00     0.117 C 
BRANCH   2   3
ATOM      3  N   UNL A   1      35.078  19.990  25.291  1.00  0.00    -0.356 N 
ATOM      4  C   UNL A   1      33.769  20.289  25.067  1.00  0.00     0.226 C 
ATOM      5  O   UNL A   1      32.969  19.403  25.387  1.00  0.00    -0.274 OA
ATOM      6  H   UNL A   1      35.188  19.141  25.776  1.00  0.00     0.163 HD
BRANCH   4   7
ATOM      7  C   UNL A   1      33.228  21.587  24.467  1.00  0.00     0.052 C 
ATOM      8  C   UNL A   1      32.490  21.395  23.139  1.00  0.00     0.018 C 
ATOM      9  C   UNL A   1      33.748  22.202  23.179  1.00  0.00     0.018 C 
BRANCH   7  10
ATOM     10  C   UNL A   1      32.696  22.578  25.562  1.00  0.00     0.008 C 
ATOM     11  C   UNL A   1      31.830  23.809  25.152  1.00  0.00    -0.007 C 
ATOM     12  C   UNL A   1      32.668  25.036  24.749  1.00  0.00     0.004 C 
ATOM     13  C   UNL A   1      33.766  25.370  25.751  1.00  0.00     0.000 C 
ATOM     14  C   UNL A   1      33.843  22.969  26.521  1.00  0.00     0.005 C 
ATOM     15  C   UNL A   1      34.653  24.169  26.047  1.00  0.00     0.000 C 
BRANCH  11  16
ATOM     16  C   UNL A   1      30.857  24.130  26.328  1.00  0.00     0.000 C 
ATOM     17  C   UNL A   1      30.063  22.953  26.876  1.00  0.00     0.004 C 
ENDBRANCH  11  16
ENDBRANCH   7  10
ENDBRANCH   4   7
ENDBRANCH   2   3
ENDBRANCH   1   2
BRANCH   1  18
ATOM     18  C   UNL A   1      38.817  20.206  25.537  1.00  0.00     0.118 C 
BRANCH  18  19
ATOM     19  N   UNL A   1      39.844  19.193  25.751  1.00  0.00    -0.352 N 
ATOM     20  C   UNL A   1      41.176  19.314  26.042  1.00  0.00     0.251 C 
ATOM     21  H   UNL A   1      39.525  18.265  25.672  1.00  0.00     0.163 HD
ATOM     22  O   UNL A   1      41.902  18.321  25.992  1.00  0.00    -0.269 OA
BRANCH  20  23
ATOM     23  C   UNL A   1      41.752  20.623  26.401  1.00  0.00     0.039 A 
ATOM     24  C   UNL A   1      42.131  21.497  25.378  1.00  0.00     0.014 A 
ATOM     25  C   UNL A   1      41.950  20.979  27.737  1.00  0.00     0.014 A 
ATOM     26  C   UNL A   1      42.652  22.751  25.697  1.00  0.00     0.010 A 
ATOM     27  C   UNL A   1      42.389  22.260  28.054  1.00  0.00     0.010 A 
ATOM     28  C   UNL A   1      42.753  23.155  27.038  1.00  0.00    -0.014 A 
BRANCH  28  29
ATOM     29  C   UNL A   1      43.250  24.507  27.396  1.00  0.00     0.031 A 
ATOM     30  C   UNL A   1      42.286  25.573  27.839  1.00  0.00     0.074 A 
ATOM     31  C   UNL A   1      44.560  24.790  27.263  1.00  0.00     0.049 A 
ATOM     32  N   UNL A   1      42.519  26.827  28.134  1.00  0.00    -0.248 NA
ATOM     33  C   UNL A   1      40.869  25.187  27.935  1.00  0.00     0.031 C 
ATOM     34  C   UNL A   1      45.586  23.856  26.795  1.00  0.00     0.029 A 
ATOM     35  N   UNL A   1      45.253  25.950  27.504  1.00  0.00    -0.354 N 
ATOM     36  C   UNL A   1      41.280  27.379  28.434  1.00  0.00     0.074 A 
ATOM     37  C   UNL A   1      40.293  26.343  28.228  1.00  0.00     0.031 C 
ATOM     38  C   UNL A   1      46.779  24.470  26.809  1.00  0.00     0.029 A 
ATOM     39  C   UNL A   1      46.599  25.850  27.247  1.00  0.00     0.049 A 
ATOM     40  H   UNL A   1      44.826  26.775  27.829  1.00  0.00     0.167 HD
ATOM     41  C   UNL A   1      40.993  28.629  28.870  1.00  0.00     0.037 A 
ATOM     42  C   UNL A   1      47.576  26.770  27.349  1.00  0.00     0.037 A 
ATOM     43  C   UNL A   1      41.982  29.651  29.095  1.00  0.00     0.049 A 
ATOM     44  C   UNL A   1      47.232  28.152  27.831  1.00  0.00     0.074 A 
ATOM     45  C   UNL A   1      41.801  30.932  29.586  1.00  0.00     0.029 A 
ATOM     46  N   UNL A   1      43.337  29.506  28.843  1.00  0.00    -0.354 N 
ATOM     47  N   UNL A   1      46.065  28.642  28.177  1.00  0.00    -0.248 NA
ATOM     48  C   UNL A   1      48.342  29.108  27.945  1.00  0.00     0.031 C 
ATOM     49  C   UNL A   1      43.042  31.578  29.586  1.00  0.00     0.029 A 
ATOM     50  C   UNL A   1      44.004  30.681  29.149  1.00  0.00     0.049 A 
ATOM     51  H   UNL A   1      43.764  28.687  28.497  1.00  0.00     0.167 HD
ATOM     52  C   UNL A   1      46.304  29.949  28.580  1.00  0.00     0.074 A 
ATOM     53  C   UNL A   1      47.730  30.171  28.448  1.00  0.00     0.031 C 
ATOM     54  C   UNL A   1      45.425  30.881  29.021  1.00  0.00     0.037 A 
BRANCH  41  55
ATOM     55  C   UNL A   1      39.550  28.958  29.132  1.00  0.00     0.057 A 
ATOM     56  C   UNL A   1      38.975  28.799  30.400  1.00  0.00     0.134 A 
ATOM     57  C   UNL A   1      38.734  29.463  28.112  1.00  0.00     0.134 A 
ATOM     58  F   UNL A   1      39.697  28.307  31.419  1.00  0.00    -0.206 F 
ATOM     59  C   UNL A   1      37.633  29.103  30.637  1.00  0.00     0.040 A 
ATOM     60  C   UNL A   1      37.399  29.799  28.345  1.00  0.00     0.040 A 
ATOM     61  F   UNL A   1      39.221  29.647  26.876  1.00  0.00    -0.206 F 
ATOM     62  C   UNL A   1      36.843  29.612  29.609  1.00  0.00     0.006 A 
ENDBRANCH  41  55
BRANCH  42  63
ATOM     63  C   UNL A   1      48.978  26.408  27.018  1.00  0.00     0.057 A 
ATOM     64  C   UNL A   1      49.464  26.527  25.710  1.00  0.00     0.134 A 
ATOM     65  C   UNL A   1      49.860  25.925  27.991  1.00  0.00     0.134 A 
ATOM     66  F   UNL A   1      48.662  26.967  24.729  1.00  0.00    -0.206 F 
ATOM     67  C   UNL A   1      50.769  26.158  25.378  1.00  0.00     0.040 A 
ATOM     68  C   UNL A   1      51.176  25.578  27.679  1.00  0.00     0.040 A 
ATOM     69  F   UNL A   1      49.460  25.797  29.266  1.00  0.00    -0.206 F 
ATOM     70  C   UNL A   1      51.630  25.685  26.366  1.00  0.00     0.006 A 
ENDBRANCH  42  63
BRANCH  54  71
ATOM     71  C   UNL A   1      45.985  32.210  29.437  1.00  0.00     0.057 A 
ATOM     72  C   UNL A   1      46.084  33.287  28.546  1.00  0.00     0.134 A 
ATOM     73  C   UNL A   1      46.397  32.425  30.758  1.00  0.00     0.134 A 
ATOM     74  F   UNL A   1      45.718  33.144  27.262  1.00  0.00    -0.206 F 
ATOM     75  C   UNL A   1      46.601  34.520  28.947  1.00  0.00     0.040 A 
ATOM     76  C   UNL A   1      46.887  33.662  31.179  1.00  0.00     0.040 A 
ATOM     77  F   UNL A   1      46.320  31.439  31.665  1.00  0.00    -0.206 F 
ATOM     78  C   UNL A   1      46.998  34.711  30.270  1.00  0.00     0.006 A 
ENDBRANCH  54  71
ENDBRANCH  28  29
ENDBRANCH  20  23
ENDBRANCH  18  19
ENDBRANCH   1  18
TORSDOF 12
ENDMDL
MODEL 3
REMARK VINA RESULT:     -10.8      4.012      7.403
REMARK SMILES CC[C@H]1CCCC[C@@H]1C1(C(=O)NCCCNC(=O)c2ccc(-c3c4nc(c(-c5c(F)cccc5F)c5ccc([nH]5)c(-c5c(F)cccc5F)c5nc(c(-c6c(F)cccc6F)c6ccc3[nH]6)C=C5)C=C4)cc2)CC1
REMARK SMILES IDX 14 1 13 2 12 3 10 4 11 5 9 7 73 8 74 9 8 10 3 11 4 12 5 13
REMARK SMILES IDX 7 14 6 15 2 16 1 17 15 18 16 19 17 20 18 22 19 23 20 24
REMARK SMILES IDX 72 25 21 26 71 27 22 28 23 29 24 30 65 31 25 32 70 33 64 34
REMARK SMILES IDX 66 35 26 36 69 37 63 38 62 39 27 41 53 42 36 43 52 44 37 45
REMARK SMILES IDX 40 46 51 47 67 48 38 49 39 50 50 52 68 53 41 54 28 55 29 56
REMARK SMILES IDX 34 57 30 58 31 59 33 60 35 61 32 62 54 63 55 64 60 65 56 66
REMARK SMILES IDX 57 67 59 68 61 69 58 70 42 71 43 72 48 73 44 74 45 75 47 76
REMARK SMILES IDX 49 77 46 78
REMARK H PARENT 12 6 16 21 66 40 40 51
REMARK Flexibility Score: inf
ROOT
ATOM      1  C   UNL A   1      37.507  19.673  25.000  1.00  0.00     0.042 C 
ENDROOT
BRANCH   1   2
ATOM      2  C   UNL A   1      36.340  20.655  24.974  1.00  0.00     0.117 C 
BRANCH   2   3
ATOM      3  N   UNL A   1      35.086  20.037  25.349  1.00  0.00    -0.356 N 
ATOM      4  C   UNL A   1      33.769  20.326  25.165  1.00  0.00     0.226 C 
ATOM      5  O   UNL A   1      32.985  19.451  25.546  1.00  0.00    -0.274 OA
ATOM      6  H   UNL A   1      35.218  19.207  25.859  1.00  0.00     0.163 HD
BRANCH   4   7
ATOM      7  C   UNL A   1      33.202  21.601  24.540  1.00  0.00     0.052 C 
ATOM      8  C   UNL A   1      32.482  21.371  23.208  1.00  0.00     0.018 C 
ATOM      9  C   UNL A   1      33.719  22.210  23.248  1.00  0.00     0.018 C 
BRANCH   7  10
ATOM     10  C   UNL A   1      32.634  22.595  25.615  1.00  0.00     0.008 C 
ATOM     11  C   UNL A   1      31.753  23.805  25.177  1.00  0.00    -0.007 C 
ATOM     12  C   UNL A   1      32.573  25.042  24.773  1.00  0.00     0.004 C 
ATOM     13  C   UNL A   1      33.649  25.408  25.788  1.00  0.00     0.000 C 
ATOM     14  C   UNL A   1      33.759  23.017  26.587  1.00  0.00     0.005 C 
ATOM     15  C   UNL A   1      34.554  24.227  26.112  1.00  0.00     0.000 C 
BRANCH  11  16
ATOM     16  C   UNL A   1      30.755  24.120  26.334  1.00  0.00     0.000 C 
ATOM     17  C   UNL A   1      30.032  22.924  26.936  1.00  0.00     0.004 C 
ENDBRANCH  11  16
ENDBRANCH   7  10
ENDBRANCH   4   7
ENDBRANCH   2   3
ENDBRANCH   1   2
BRANCH   1  18
ATOM     18  C   UNL A   1      38.762  20.210  25.693  1.00  0.00     0.118 C 
BRANCH  18  19
ATOM     19  N   UNL A   1      39.822  19.215  25.807  1.00  0.00    -0.352 N 
ATOM     20  C   UNL A   1      41.162  19.355  26.045  1.00  0.00     0.251 C 
ATOM     21  H   UNL A   1      39.521  18.284  25.693  1.00  0.00     0.163 HD
ATOM     22  O   UNL A   1      41.908  18.386  25.910  1.00  0.00    -0.269 OA
BRANCH  20  23
ATOM     23  C   UNL A   1      41.722  20.659  26.446  1.00  0.00     0.039 A 
ATOM     24  C   UNL A   1      42.114  21.560  25.452  1.00  0.00     0.014 A 
ATOM     25  C   UNL A   1      41.893  20.983  27.794  1.00  0.00     0.014 A 
ATOM     26  C   UNL A   1      42.620  22.809  25.812  1.00  0.00     0.010 A 
ATOM     27  C   UNL A   1      42.317  22.259  28.151  1.00  0.00     0.010 A 
ATOM     28  C   UNL A   1      42.693  23.181  27.164  1.00  0.00    -0.014 A 
BRANCH  28  29
ATOM     29  C   UNL A   1      43.175  24.527  27.564  1.00  0.00     0.031 A 
ATOM     30  C   UNL A   1      42.193  25.581  27.996  1.00  0.00     0.074 A 
ATOM     31  C   UNL A   1      44.487  24.815  27.480  1.00  0.00     0.049 A 
ATOM     32  N   UNL A   1      42.413  26.830  28.323  1.00  0.00    -0.248 NA
ATOM     33  C   UNL A   1      40.776  25.190  28.039  1.00  0.00     0.031 C 
ATOM     34  C   UNL A   1      45.531  23.893  27.027  1.00  0.00     0.029 A 
ATOM     35  N   UNL A   1      45.169  25.972  27.766  1.00  0.00    -0.354 N 
ATOM     36  C   UNL A   1      41.163  27.373  28.594  1.00  0.00     0.074 A 
ATOM     37  C   UNL A   1      40.186  26.339  28.335  1.00  0.00     0.031 C 
ATOM     38  C   UNL A   1      46.721  24.509  27.092  1.00  0.00     0.029 A 
ATOM     39  C   UNL A   1      46.523  25.880  27.551  1.00  0.00     0.049 A 
ATOM     40  H   UNL A   1      44.729  26.790  28.092  1.00  0.00     0.167 HD
ATOM     41  C   UNL A   1      40.858  28.614  29.044  1.00  0.00     0.037 A 
ATOM     42  C   UNL A   1      47.493  26.800  27.703  1.00  0.00     0.037 A 
ATOM     43  C   UNL A   1      41.836  29.633  29.321  1.00  0.00     0.049 A 
ATOM     44  C   UNL A   1      47.129  28.172  28.200  1.00  0.00     0.074 A 
ATOM     45  C   UNL A   1      41.636  30.904  29.831  1.00  0.00     0.029 A 
ATOM     46  N   UNL A   1      43.200  29.496  29.111  1.00  0.00    -0.354 N 
ATOM     47  N   UNL A   1      45.951  28.652  28.517  1.00  0.00    -0.248 NA
ATOM     48  C   UNL A   1      48.232  29.128  28.368  1.00  0.00     0.031 C 
ATOM     49  C   UNL A   1      42.874  31.552  29.884  1.00  0.00     0.029 A 
ATOM     50  C   UNL A   1      43.853  30.666  29.461  1.00  0.00     0.049 A 
ATOM     51  H   UNL A   1      43.640  28.686  28.763  1.00  0.00     0.167 HD
ATOM     52  C   UNL A   1      46.172  29.951  28.954  1.00  0.00     0.074 A 
ATOM     53  C   UNL A   1      47.601  30.180  28.873  1.00  0.00     0.031 C 
ATOM     54  C   UNL A   1      45.277  30.873  29.384  1.00  0.00     0.037 A 
BRANCH  41  55
ATOM     55  C   UNL A   1      39.407  28.933  29.265  1.00  0.00     0.057 A 
ATOM     56  C   UNL A   1      38.595  29.433  28.238  1.00  0.00     0.134 A 
ATOM     57  C   UNL A   1      38.807  28.715  30.512  1.00  0.00     0.134 A 
ATOM     58  F   UNL A   1      39.109  29.677  27.022  1.00  0.00    -0.206 F 
ATOM     59  C   UNL A   1      37.248  29.732  28.450  1.00  0.00     0.040 A 
ATOM     60  C   UNL A   1      37.454  28.982  30.728  1.00  0.00     0.040 A 
ATOM     61  F   UNL A   1      39.524  28.233  31.538  1.00  0.00    -0.206 F 
ATOM     62  C   UNL A   1      36.672  29.499  29.696  1.00  0.00     0.006 A 
ENDBRANCH  41  55
BRANCH  42  63
ATOM     63  C   UNL A   1      48.906  26.448  27.410  1.00  0.00     0.057 A 
ATOM     64  C   UNL A   1      49.435  26.595  26.122  1.00  0.00     0.134 A 
ATOM     65  C   UNL A   1      49.758  25.947  28.402  1.00  0.00     0.134 A 
ATOM     66  F   UNL A   1      48.664  27.054  25.125  1.00  0.00    -0.206 F 
ATOM     67  C   UNL A   1      50.750  26.235  25.826  1.00  0.00     0.040 A 
ATOM     68  C   UNL A   1      51.083  25.609  28.126  1.00  0.00     0.040 A 
ATOM     69  F   UNL A   1      49.316  25.792  29.660  1.00  0.00    -0.206 F 
ATOM     70  C   UNL A   1      51.581  25.744  26.831  1.00  0.00     0.006 A 
ENDBRANCH  42  63
BRANCH  54  71
ATOM     71  C   UNL A   1      45.818  32.195  29.843  1.00  0.00     0.057 A 
ATOM     72  C   UNL A   1      46.222  32.413  31.167  1.00  0.00     0.134 A 
ATOM     73  C   UNL A   1      45.970  33.253  28.938  1.00  0.00     0.134 A 
ATOM     74  F   UNL A   1      46.092  31.444  32.086  1.00  0.00    -0.206 F 
ATOM     75  C   UNL A   1      46.731  33.646  31.580  1.00  0.00     0.040 A 
ATOM     76  C   UNL A   1      46.506  34.480  29.332  1.00  0.00     0.040 A 
ATOM     77  F   UNL A   1      45.613  33.108  27.654  1.00  0.00    -0.206 F 
ATOM     78  C   UNL A   1      46.880  34.681  30.658  1.00  0.00     0.006 A 
ENDBRANCH  54  71
ENDBRANCH  28  29
ENDBRANCH  20  23
ENDBRANCH  18  19
ENDBRANCH   1  18
TORSDOF 12
ENDMDL
