MODEL 1
REMARK VINA RESULT:     -12.0      0.000      0.000
REMARK SMILES O=C(C[C@@H](NS(=O)(=O)c1ccc2c(c1)OCCO2)c1ccccc1)NCCCNC(=O)c1ccc(-c2c3nc(c(-c4c(F)cccc4F)c4ccc([nH]4)c(-c4c(F)cccc4F)c4nc(c(-c5c(F)cccc5F)c5ccc2[nH]5)C=C4)C=C3)cc1
REMARK SMILES IDX 26 1 25 2 1 3 2 4 3 6 4 7 5 8 6 10 7 11 8 12 9 13 10 14
REMARK SMILES IDX 14 15 11 16 13 17 12 18 15 19 18 20 16 21 17 22 19 23 20 24
REMARK SMILES IDX 24 25 21 26 23 27 22 28 27 29 28 30 29 31 30 32 31 34 32 35
REMARK SMILES IDX 33 36 85 37 34 38 84 39 35 40 36 41 37 42 78 43 38 44 83 45
REMARK SMILES IDX 77 46 79 47 39 48 82 49 76 50 75 51 40 53 66 54 49 55 65 56
REMARK SMILES IDX 50 57 53 58 64 59 80 60 51 61 52 62 63 64 81 65 54 66 41 67
REMARK SMILES IDX 42 68 47 69 43 70 44 71 46 72 48 73 45 74 67 75 68 76 73 77
REMARK SMILES IDX 69 78 70 79 72 80 74 81 71 82 55 83 56 84 61 85 57 86 58 87
REMARK SMILES IDX 60 88 62 89 59 90
REMARK H PARENT 25 5 5 9 29 33 79 52 53 63
REMARK Flexibility Score: inf
ROOT
ATOM      1  C   UNL A   1      31.552  29.952  25.192  1.00  0.00     0.117 C 
ENDROOT
BRANCH   1   2
ATOM      2  N   UNL A   1      32.090  28.732  25.762  1.00  0.00    -0.356 N 
ATOM      3  O   UNL A   1      33.612  28.406  24.071  1.00  0.00    -0.275 OA
ATOM      4  C   UNL A   1      33.126  28.062  25.143  1.00  0.00     0.221 C 
ATOM      5  H   UNL A   1      31.712  28.377  26.599  1.00  0.00     0.163 HD
BRANCH   4   6
ATOM      6  C   UNL A   1      33.661  26.887  25.922  1.00  0.00     0.124 C 
BRANCH   6   7
ATOM      7  C   UNL A   1      33.137  25.572  25.311  1.00  0.00     0.109 C 
BRANCH   7   8
ATOM      8  N   UNL A   1      32.195  25.911  24.209  1.00  0.00    -0.203 NA
ATOM      9  H   UNL A   1      32.626  25.593  23.342  1.00  0.00     0.142 HD
BRANCH   8  10
ATOM     10  S   UNL A   1      30.624  25.287  24.239  1.00  0.00     0.241 S 
ATOM     11  O   UNL A   1      30.577  24.168  23.325  1.00  0.00    -0.207 OA
ATOM     12  O   UNL A   1      30.318  25.132  25.645  1.00  0.00    -0.207 OA
BRANCH  10  13
ATOM     13  C   UNL A   1      29.584  26.579  23.627  1.00  0.00     0.086 A 
ATOM     14  C   UNL A   1      28.241  26.650  24.007  1.00  0.00     0.026 A 
ATOM     15  C   UNL A   1      30.162  27.582  22.842  1.00  0.00     0.072 A 
ATOM     16  C   UNL A   1      27.485  27.766  23.646  1.00  0.00     0.052 A 
ATOM     17  C   UNL A   1      29.398  28.690  22.486  1.00  0.00     0.162 A 
ATOM     18  C   UNL A   1      28.063  28.786  22.891  1.00  0.00     0.161 A 
ATOM     19  O   UNL A   1      30.031  29.657  21.748  1.00  0.00    -0.486 OA
ATOM     20  O   UNL A   1      27.267  29.867  22.612  1.00  0.00    -0.486 OA
ATOM     21  C   UNL A   1      29.332  30.903  21.828  1.00  0.00     0.271 C 
ATOM     22  C   UNL A   1      27.842  30.706  21.604  1.00  0.00     0.271 C 
ENDBRANCH  10  13
ENDBRANCH   8  10
ENDBRANCH   7   8
BRANCH   7  23
ATOM     23  C   UNL A   1      34.287  24.701  24.822  1.00  0.00    -0.029 A 
ATOM     24  C   UNL A   1      34.279  24.088  23.556  1.00  0.00     0.005 A 
ATOM     25  C   UNL A   1      35.371  24.444  25.677  1.00  0.00     0.005 A 
ATOM     26  C   UNL A   1      35.323  23.249  23.161  1.00  0.00     0.000 A 
ATOM     27  C   UNL A   1      36.403  23.588  25.287  1.00  0.00     0.000 A 
ATOM     28  C   UNL A   1      36.379  22.993  24.030  1.00  0.00     0.000 A 
ENDBRANCH   7  23
ENDBRANCH   6   7
ENDBRANCH   4   6
ENDBRANCH   1   2
BRANCH   1  29
ATOM     29  C   UNL A   1      31.246  31.020  26.235  1.00  0.00     0.042 C 
BRANCH  29  30
ATOM     30  C   UNL A   1      32.469  31.660  26.886  1.00  0.00     0.118 C 
BRANCH  30  31
ATOM     31  N   UNL A   1      32.243  33.025  27.331  1.00  0.00    -0.352 N 
ATOM     32  C   UNL A   1      33.012  33.830  28.137  1.00  0.00     0.251 C 
ATOM     33  H   UNL A   1      31.410  33.436  27.005  1.00  0.00     0.163 HD
ATOM     34  O   UNL A   1      32.570  34.917  28.497  1.00  0.00    -0.269 OA
BRANCH  32  35
ATOM     35  C   UNL A   1      34.349  33.397  28.604  1.00  0.00     0.039 A 
ATOM     36  C   UNL A   1      34.428  32.676  29.802  1.00  0.00     0.014 A 
ATOM     37  C   UNL A   1      35.520  33.718  27.912  1.00  0.00     0.014 A 
ATOM     38  C   UNL A   1      35.666  32.230  30.270  1.00  0.00     0.010 A 
ATOM     39  C   UNL A   1      36.749  33.220  28.347  1.00  0.00     0.010 A 
ATOM     40  C   UNL A   1      36.835  32.471  29.530  1.00  0.00    -0.014 A 
BRANCH  40  41
ATOM     41  C   UNL A   1      38.143  31.940  29.989  1.00  0.00     0.031 A 
ATOM     42  C   UNL A   1      38.664  30.629  29.468  1.00  0.00     0.074 A 
ATOM     43  C   UNL A   1      38.850  32.621  30.912  1.00  0.00     0.049 A 
ATOM     44  N   UNL A   1      39.775  30.004  29.767  1.00  0.00    -0.248 NA
ATOM     45  C   UNL A   1      37.815  29.915  28.502  1.00  0.00     0.031 C 
ATOM     46  C   UNL A   1      38.433  33.876  31.539  1.00  0.00     0.029 A 
ATOM     47  N   UNL A   1      40.067  32.352  31.484  1.00  0.00    -0.354 N 
ATOM     48  C   UNL A   1      39.752  28.822  29.039  1.00  0.00     0.074 A 
ATOM     49  C   UNL A   1      38.498  28.794  28.317  1.00  0.00     0.031 C 
ATOM     50  C   UNL A   1      39.391  34.282  32.387  1.00  0.00     0.029 A 
ATOM     51  C   UNL A   1      40.477  33.307  32.382  1.00  0.00     0.049 A 
ATOM     52  H   UNL A   1      40.597  31.550  31.271  1.00  0.00     0.167 HD
ATOM     53  C   UNL A   1      40.699  27.854  28.963  1.00  0.00     0.037 A 
ATOM     54  C   UNL A   1      41.605  33.392  33.112  1.00  0.00     0.037 A 
ATOM     55  C   UNL A   1      41.963  27.894  29.651  1.00  0.00     0.049 A 
ATOM     56  C   UNL A   1      42.654  32.326  32.982  1.00  0.00     0.074 A 
ATOM     57  C   UNL A   1      43.008  26.989  29.587  1.00  0.00     0.029 A 
ATOM     58  N   UNL A   1      42.352  28.895  30.527  1.00  0.00    -0.354 N 
ATOM     59  N   UNL A   1      42.645  31.245  32.241  1.00  0.00    -0.248 NA
ATOM     60  C   UNL A   1      43.876  32.498  33.780  1.00  0.00     0.031 C 
ATOM     61  C   UNL A   1      44.023  27.431  30.444  1.00  0.00     0.029 A 
ATOM     62  C   UNL A   1      43.620  28.625  31.018  1.00  0.00     0.049 A 
ATOM     63  H   UNL A   1      41.809  29.681  30.764  1.00  0.00     0.167 HD
ATOM     64  C   UNL A   1      43.864  30.620  32.466  1.00  0.00     0.074 A 
ATOM     65  C   UNL A   1      44.594  31.450  33.402  1.00  0.00     0.031 C 
ATOM     66  C   UNL A   1      44.336  29.462  31.944  1.00  0.00     0.037 A 
BRANCH  53  67
ATOM     67  C   UNL A   1      40.403  26.671  28.090  1.00  0.00     0.057 A 
ATOM     68  C   UNL A   1      39.536  25.652  28.504  1.00  0.00     0.134 A 
ATOM     69  C   UNL A   1      40.965  26.566  26.812  1.00  0.00     0.134 A 
ATOM     70  F   UNL A   1      38.976  25.689  29.722  1.00  0.00    -0.206 F 
ATOM     71  C   UNL A   1      39.256  24.557  27.685  1.00  0.00     0.040 A 
ATOM     72  C   UNL A   1      40.675  25.486  25.976  1.00  0.00     0.040 A 
ATOM     73  F   UNL A   1      41.800  27.511  26.355  1.00  0.00    -0.206 F 
ATOM     74  C   UNL A   1      39.822  24.475  26.414  1.00  0.00     0.006 A 
ENDBRANCH  53  67
BRANCH  54  75
ATOM     75  C   UNL A   1      41.820  34.556  34.004  1.00  0.00     0.057 A 
ATOM     76  C   UNL A   1      41.431  34.515  35.347  1.00  0.00     0.134 A 
ATOM     77  C   UNL A   1      42.415  35.734  33.538  1.00  0.00     0.134 A 
ATOM     78  F   UNL A   1      40.839  33.418  35.843  1.00  0.00    -0.206 F 
ATOM     79  C   UNL A   1      41.610  35.608  36.194  1.00  0.00     0.040 A 
ATOM     80  C   UNL A   1      42.617  36.830  34.379  1.00  0.00     0.040 A 
ATOM     81  F   UNL A   1      42.814  35.832  32.262  1.00  0.00    -0.206 F 
ATOM     82  C   UNL A   1      42.209  36.770  35.710  1.00  0.00     0.006 A 
ENDBRANCH  54  75
BRANCH  66  83
ATOM     83  C   UNL A   1      45.714  29.042  32.354  1.00  0.00     0.057 A 
ATOM     84  C   UNL A   1      46.851  29.469  31.658  1.00  0.00     0.134 A 
ATOM     85  C   UNL A   1      45.906  28.218  33.471  1.00  0.00     0.134 A 
ATOM     86  F   UNL A   1      46.731  30.247  30.572  1.00  0.00    -0.206 F 
ATOM     87  C   UNL A   1      48.132  29.074  32.047  1.00  0.00     0.040 A 
ATOM     88  C   UNL A   1      47.183  27.833  33.880  1.00  0.00     0.040 A 
ATOM     89  F   UNL A   1      44.857  27.779  34.182  1.00  0.00    -0.206 F 
ATOM     90  C   UNL A   1      48.301  28.258  33.165  1.00  0.00     0.006 A 
ENDBRANCH  66  83
ENDBRANCH  40  41
ENDBRANCH  32  35
ENDBRANCH  30  31
ENDBRANCH  29  30
ENDBRANCH   1  29
TORSDOF 15
ENDMDL
MODEL 2
REMARK VINA RESULT:     -12.0      3.845      8.838
REMARK SMILES O=C(C[C@@H](NS(=O)(=O)c1ccc2c(c1)OCCO2)c1ccccc1)NCCCNC(=O)c1ccc(-c2c3nc(c(-c4c(F)cccc4F)c4ccc([nH]4)c(-c4c(F)cccc4F)c4nc(c(-c5c(F)cccc5F)c5ccc2[nH]5)C=C4)C=C3)cc1
REMARK SMILES IDX 26 1 25 2 1 3 2 4 3 6 4 7 5 8 6 10 7 11 8 12 9 13 10 14
REMARK SMILES IDX 14 15 11 16 13 17 12 18 15 19 18 20 16 21 17 22 19 23 20 24
REMARK SMILES IDX 24 25 21 26 23 27 22 28 27 29 28 30 29 31 30 32 31 34 32 35
REMARK SMILES IDX 33 36 85 37 34 38 84 39 35 40 36 41 37 42 78 43 38 44 83 45
REMARK SMILES IDX 77 46 79 47 39 48 82 49 76 50 75 51 40 53 66 54 49 55 65 56
REMARK SMILES IDX 50 57 53 58 64 59 80 60 51 61 52 62 63 64 81 65 54 66 41 67
REMARK SMILES IDX 42 68 47 69 43 70 44 71 46 72 48 73 45 74 67 75 68 76 73 77
REMARK SMILES IDX 69 78 70 79 72 80 74 81 71 82 55 83 56 84 61 85 57 86 58 87
REMARK SMILES IDX 60 88 62 89 59 90
REMARK H PARENT 25 5 5 9 29 33 79 52 53 63
REMARK Flexibility Score: inf
ROOT
ATOM      1  C   UNL A   1      36.235  20.222  25.021  1.00  0.00     0.117 C 
ENDROOT
BRANCH   1   2
ATOM      2  N   UNL A   1      35.792  21.406  24.308  1.00  0.00    -0.356 N 
ATOM      3  O   UNL A   1      36.280  22.841  26.035  1.00  0.00    -0.275 OA
ATOM      4  C   UNL A   1      35.885  22.654  24.889  1.00  0.00     0.221 C 
ATOM      5  H   UNL A   1      35.422  21.317  23.400  1.00  0.00     0.163 HD
BRANCH   4   6
ATOM      6  C   UNL A   1      35.508  23.795  23.978  1.00  0.00     0.124 C 
BRANCH   6   7
ATOM      7  C   UNL A   1      34.020  24.150  24.173  1.00  0.00     0.109 C 
BRANCH   7   8
ATOM      8  N   UNL A   1      33.469  23.281  25.249  1.00  0.00    -0.203 NA
ATOM      9  H   UNL A   1      33.465  23.835  26.105  1.00  0.00     0.142 HD
BRANCH   8  10
ATOM     10  S   UNL A   1      31.919  22.629  25.075  1.00  0.00     0.241 S 
ATOM     11  O   UNL A   1      31.328  22.540  26.391  1.00  0.00    -0.207 OA
ATOM     12  O   UNL A   1      31.309  23.410  24.020  1.00  0.00    -0.207 OA
BRANCH  10  13
ATOM     13  C   UNL A   1      32.155  20.999  24.434  1.00  0.00     0.086 A 
ATOM     14  C   UNL A   1      32.102  20.761  23.058  1.00  0.00     0.026 A 
ATOM     15  C   UNL A   1      32.500  19.977  25.325  1.00  0.00     0.072 A 
ATOM     16  C   UNL A   1      32.453  19.503  22.565  1.00  0.00     0.052 A 
ATOM     17  C   UNL A   1      32.847  18.727  24.823  1.00  0.00     0.162 A 
ATOM     18  C   UNL A   1      32.830  18.490  23.445  1.00  0.00     0.161 A 
ATOM     19  O   UNL A   1      33.212  17.778  25.744  1.00  0.00    -0.486 OA
ATOM     20  O   UNL A   1      33.200  17.296  22.881  1.00  0.00    -0.486 OA
ATOM     21  C   UNL A   1      33.960  16.725  25.128  1.00  0.00     0.271 C 
ATOM     22  C   UNL A   1      33.281  16.249  23.854  1.00  0.00     0.271 C 
ENDBRANCH  10  13
ENDBRANCH   8  10
ENDBRANCH   7   8
BRANCH   7  23
ATOM     23  C   UNL A   1      33.852  25.628  24.500  1.00  0.00    -0.029 A 
ATOM     24  C   UNL A   1      33.716  26.609  23.502  1.00  0.00     0.005 A 
ATOM     25  C   UNL A   1      33.892  26.047  25.841  1.00  0.00     0.005 A 
ATOM     26  C   UNL A   1      33.622  27.962  23.834  1.00  0.00     0.000 A 
ATOM     27  C   UNL A   1      33.818  27.402  26.170  1.00  0.00     0.000 A 
ATOM     28  C   UNL A   1      33.681  28.358  25.168  1.00  0.00     0.000 A 
ENDBRANCH   7  23
ENDBRANCH   6   7
ENDBRANCH   4   6
ENDBRANCH   1   2
BRANCH   1  29
ATOM     29  C   UNL A   1      37.664  19.814  24.682  1.00  0.00     0.042 C 
BRANCH  29  30
ATOM     30  C   UNL A   1      38.705  20.161  25.742  1.00  0.00     0.118 C 
BRANCH  30  31
ATOM     31  N   UNL A   1      39.878  19.305  25.706  1.00  0.00    -0.352 N 
ATOM     32  C   UNL A   1      41.185  19.581  26.033  1.00  0.00     0.251 C 
ATOM     33  H   UNL A   1      39.712  18.385  25.400  1.00  0.00     0.163 HD
ATOM     34  O   UNL A   1      42.052  18.743  25.805  1.00  0.00    -0.269 OA
BRANCH  32  35
ATOM     35  C   UNL A   1      41.570  20.884  26.624  1.00  0.00     0.039 A 
ATOM     36  C   UNL A   1      41.999  21.900  25.762  1.00  0.00     0.014 A 
ATOM     37  C   UNL A   1      41.553  21.110  28.004  1.00  0.00     0.014 A 
ATOM     38  C   UNL A   1      42.351  23.150  26.273  1.00  0.00     0.010 A 
ATOM     39  C   UNL A   1      41.846  22.377  28.509  1.00  0.00     0.010 A 
ATOM     40  C   UNL A   1      42.249  23.410  27.650  1.00  0.00    -0.014 A 
BRANCH  40  41
ATOM     41  C   UNL A   1      42.557  24.758  28.190  1.00  0.00     0.031 A 
ATOM     42  C   UNL A   1      43.960  25.121  28.594  1.00  0.00     0.074 A 
ATOM     43  C   UNL A   1      41.561  25.650  28.357  1.00  0.00     0.049 A 
ATOM     44  N   UNL A   1      44.409  26.243  29.098  1.00  0.00    -0.248 NA
ATOM     45  C   UNL A   1      44.986  24.081  28.433  1.00  0.00     0.031 C 
ATOM     46  C   UNL A   1      40.149  25.407  28.056  1.00  0.00     0.029 A 
ATOM     47  N   UNL A   1      41.584  26.941  28.822  1.00  0.00    -0.354 N 
ATOM     48  C   UNL A   1      45.764  26.039  29.326  1.00  0.00     0.074 A 
ATOM     49  C   UNL A   1      46.055  24.673  28.946  1.00  0.00     0.031 C 
ATOM     50  C   UNL A   1      39.446  26.521  28.318  1.00  0.00     0.029 A 
ATOM     51  C   UNL A   1      40.352  27.547  28.824  1.00  0.00     0.049 A 
ATOM     52  H   UNL A   1      42.407  27.390  29.124  1.00  0.00     0.167 HD
ATOM     53  C   UNL A   1      46.687  26.916  29.791  1.00  0.00     0.037 A 
ATOM     54  C   UNL A   1      39.993  28.793  29.187  1.00  0.00     0.037 A 
ATOM     55  C   UNL A   1      46.411  28.285  30.136  1.00  0.00     0.049 A 
ATOM     56  C   UNL A   1      41.041  29.757  29.664  1.00  0.00     0.074 A 
ATOM     57  C   UNL A   1      47.294  29.264  30.558  1.00  0.00     0.029 A 
ATOM     58  N   UNL A   1      45.154  28.870  30.095  1.00  0.00    -0.354 N 
ATOM     59  N   UNL A   1      42.329  29.568  29.815  1.00  0.00    -0.248 NA
ATOM     60  C   UNL A   1      40.587  31.111  30.010  1.00  0.00     0.031 C 
ATOM     61  C   UNL A   1      46.567  30.436  30.796  1.00  0.00     0.029 A 
ATOM     62  C   UNL A   1      45.238  30.194  30.494  1.00  0.00     0.049 A 
ATOM     63  H   UNL A   1      44.326  28.412  29.823  1.00  0.00     0.167 HD
ATOM     64  C   UNL A   1      42.843  30.782  30.251  1.00  0.00     0.074 A 
ATOM     65  C   UNL A   1      41.729  31.705  30.328  1.00  0.00     0.031 C 
ATOM     66  C   UNL A   1      44.122  31.102  30.560  1.00  0.00     0.037 A 
BRANCH  53  67
ATOM     67  C   UNL A   1      48.093  26.417  29.942  1.00  0.00     0.057 A 
ATOM     68  C   UNL A   1      48.538  25.820  31.129  1.00  0.00     0.134 A 
ATOM     69  C   UNL A   1      49.002  26.504  28.880  1.00  0.00     0.134 A 
ATOM     70  F   UNL A   1      47.719  25.719  32.186  1.00  0.00    -0.206 F 
ATOM     71  C   UNL A   1      49.845  25.349  31.263  1.00  0.00     0.040 A 
ATOM     72  C   UNL A   1      50.305  26.016  28.995  1.00  0.00     0.040 A 
ATOM     73  F   UNL A   1      48.637  27.060  27.715  1.00  0.00    -0.206 F 
ATOM     74  C   UNL A   1      50.731  25.441  30.191  1.00  0.00     0.006 A 
ENDBRANCH  53  67
BRANCH  54  75
ATOM     75  C   UNL A   1      38.577  29.215  29.072  1.00  0.00     0.057 A 
ATOM     76  C   UNL A   1      38.058  29.664  27.853  1.00  0.00     0.134 A 
ATOM     77  C   UNL A   1      37.712  29.183  30.172  1.00  0.00     0.134 A 
ATOM     78  F   UNL A   1      38.846  29.734  26.770  1.00  0.00    -0.206 F 
ATOM     79  C   UNL A   1      36.732  30.082  27.733  1.00  0.00     0.040 A 
ATOM     80  C   UNL A   1      36.379  29.579  30.062  1.00  0.00     0.040 A 
ATOM     81  F   UNL A   1      38.151  28.756  31.365  1.00  0.00    -0.206 F 
ATOM     82  C   UNL A   1      35.887  30.036  28.841  1.00  0.00     0.006 A 
ENDBRANCH  54  75
BRANCH  66  83
ATOM     83  C   UNL A   1      44.387  32.514  30.984  1.00  0.00     0.057 A 
ATOM     84  C   UNL A   1      44.677  33.519  30.053  1.00  0.00     0.134 A 
ATOM     85  C   UNL A   1      44.330  32.876  32.336  1.00  0.00     0.134 A 
ATOM     86  F   UNL A   1      44.760  33.232  28.745  1.00  0.00    -0.206 F 
ATOM     87  C   UNL A   1      44.921  34.834  30.455  1.00  0.00     0.040 A 
ATOM     88  C   UNL A   1      44.554  34.191  32.747  1.00  0.00     0.040 A 
ATOM     89  F   UNL A   1      44.053  31.960  33.275  1.00  0.00    -0.206 F 
ATOM     90  C   UNL A   1      44.855  35.174  31.805  1.00  0.00     0.006 A 
ENDBRANCH  66  83
ENDBRANCH  40  41
ENDBRANCH  32  35
ENDBRANCH  30  31
ENDBRANCH  29  30
ENDBRANCH   1  29
TORSDOF 15
ENDMDL
MODEL 3
REMARK VINA RESULT:     -11.9      3.840      8.934
REMARK SMILES O=C(C[C@@H](NS(=O)(=O)c1ccc2c(c1)OCCO2)c1ccccc1)NCCCNC(=O)c1ccc(-c2c3nc(c(-c4c(F)cccc4F)c4ccc([nH]4)c(-c4c(F)cccc4F)c4nc(c(-c5c(F)cccc5F)c5ccc2[nH]5)C=C4)C=C3)cc1
REMARK SMILES IDX 26 1 25 2 1 3 2 4 3 6 4 7 5 8 6 10 7 11 8 12 9 13 10 14
REMARK SMILES IDX 14 15 11 16 13 17 12 18 15 19 18 20 16 21 17 22 19 23 20 24
REMARK SMILES IDX 24 25 21 26 23 27 22 28 27 29 28 30 29 31 30 32 31 34 32 35
REMARK SMILES IDX 33 36 85 37 34 38 84 39 35 40 36 41 37 42 78 43 38 44 83 45
REMARK SMILES IDX 77 46 79 47 39 48 82 49 76 50 75 51 40 53 66 54 49 55 65 56
REMARK SMILES IDX 50 57 53 58 64 59 80 60 51 61 52 62 63 64 81 65 54 66 41 67
REMARK SMILES IDX 42 68 47 69 43 70 44 71 46 72 48 73 45 74 67 75 68 76 73 77
REMARK SMILES IDX 69 78 70 79 72 80 74 81 71 82 55 83 56 84 61 85 57 86 58 87
REMARK SMILES IDX 60 88 62 89 59 90
REMARK H PARENT 25 5 5 9 29 33 79 52 53 63
REMARK Flexibility Score: inf
ROOT
ATOM      1  C   UNL A   1      36.178  20.307  25.020  1.00  0.00     0.117 C 
ENDROOT
BRANCH   1   2
ATOM      2  N   UNL A   1      35.663  21.445  24.283  1.00  0.00    -0.356 N 
ATOM      3  O   UNL A   1      36.328  22.986  25.851  1.00  0.00    -0.275 OA
ATOM      4  C   UNL A   1      35.815  22.727  24.768  1.00  0.00     0.221 C 
ATOM      5  H   UNL A   1      35.199  21.300  23.426  1.00  0.00     0.163 HD
BRANCH   4   6
ATOM      6  C   UNL A   1      35.344  23.809  23.829  1.00  0.00     0.124 C 
BRANCH   6   7
ATOM      7  C   UNL A   1      33.888  24.192  24.160  1.00  0.00     0.109 C 
BRANCH   7   8
ATOM      8  N   UNL A   1      33.421  23.331  25.282  1.00  0.00    -0.203 NA
ATOM      9  H   UNL A   1      33.448  23.902  26.126  1.00  0.00     0.142 HD
BRANCH   8  10
ATOM     10  S   UNL A   1      31.884  22.632  25.206  1.00  0.00     0.241 S 
ATOM     11  O   UNL A   1      31.390  22.506  26.558  1.00  0.00    -0.207 OA
ATOM     12  O   UNL A   1      31.177  23.407  24.209  1.00  0.00    -0.207 OA
BRANCH  10  13
ATOM     13  C   UNL A   1      32.125  21.019  24.524  1.00  0.00     0.086 A 
ATOM     14  C   UNL A   1      32.089  20.819  23.141  1.00  0.00     0.026 A 
ATOM     15  C   UNL A   1      32.456  19.973  25.391  1.00  0.00     0.072 A 
ATOM     16  C   UNL A   1      32.444  19.574  22.618  1.00  0.00     0.052 A 
ATOM     17  C   UNL A   1      32.807  18.735  24.860  1.00  0.00     0.162 A 
ATOM     18  C   UNL A   1      32.807  18.536  23.475  1.00  0.00     0.161 A 
ATOM     19  O   UNL A   1      33.159  17.761  25.759  1.00  0.00    -0.486 OA
ATOM     20  O   UNL A   1      33.182  17.357  22.884  1.00  0.00    -0.486 OA
ATOM     21  C   UNL A   1      33.913  16.724  25.124  1.00  0.00     0.271 C 
ATOM     22  C   UNL A   1      33.249  16.284  23.829  1.00  0.00     0.271 C 
ENDBRANCH  10  13
ENDBRANCH   8  10
ENDBRANCH   7   8
BRANCH   7  23
ATOM     23  C   UNL A   1      33.778  25.672  24.503  1.00  0.00    -0.029 A 
ATOM     24  C   UNL A   1      33.676  26.668  23.515  1.00  0.00     0.005 A 
ATOM     25  C   UNL A   1      33.840  26.076  25.847  1.00  0.00     0.005 A 
ATOM     26  C   UNL A   1      33.636  28.019  23.861  1.00  0.00     0.000 A 
ATOM     27  C   UNL A   1      33.820  27.429  26.190  1.00  0.00     0.000 A 
ATOM     28  C   UNL A   1      33.716  28.399  25.198  1.00  0.00     0.000 A 
ENDBRANCH   7  23
ENDBRANCH   6   7
ENDBRANCH   4   6
ENDBRANCH   1   2
BRANCH   1  29
ATOM     29  C   UNL A   1      37.620  19.963  24.667  1.00  0.00     0.042 C 
BRANCH  29  30
ATOM     30  C   UNL A   1      38.641  20.244  25.766  1.00  0.00     0.118 C 
BRANCH  30  31
ATOM     31  N   UNL A   1      39.775  19.336  25.751  1.00  0.00    -0.352 N 
ATOM     32  C   UNL A   1      41.091  19.560  26.080  1.00  0.00     0.251 C 
ATOM     33  H   UNL A   1      39.569  18.419  25.460  1.00  0.00     0.163 HD
ATOM     34  O   UNL A   1      41.921  18.680  25.872  1.00  0.00    -0.269 OA
BRANCH  32  35
ATOM     35  C   UNL A   1      41.531  20.855  26.650  1.00  0.00     0.039 A 
ATOM     36  C   UNL A   1      42.093  21.800  25.784  1.00  0.00     0.014 A 
ATOM     37  C   UNL A   1      41.437  21.138  28.016  1.00  0.00     0.014 A 
ATOM     38  C   UNL A   1      42.502  23.042  26.274  1.00  0.00     0.010 A 
ATOM     39  C   UNL A   1      41.788  22.400  28.494  1.00  0.00     0.010 A 
ATOM     40  C   UNL A   1      42.326  23.365  27.630  1.00  0.00    -0.014 A 
BRANCH  40  41
ATOM     41  C   UNL A   1      42.696  24.709  28.141  1.00  0.00     0.031 A 
ATOM     42  C   UNL A   1      41.648  25.769  28.344  1.00  0.00     0.074 A 
ATOM     43  C   UNL A   1      43.990  24.992  28.388  1.00  0.00     0.049 A 
ATOM     44  N   UNL A   1      41.790  27.000  28.767  1.00  0.00    -0.248 NA
ATOM     45  C   UNL A   1      40.264  25.406  28.005  1.00  0.00     0.031 C 
ATOM     46  C   UNL A   1      45.110  24.072  28.182  1.00  0.00     0.029 A 
ATOM     47  N   UNL A   1      44.581  26.135  28.863  1.00  0.00    -0.354 N 
ATOM     48  C   UNL A   1      40.520  27.560  28.731  1.00  0.00     0.074 A 
ATOM     49  C   UNL A   1      39.627  26.550  28.205  1.00  0.00     0.031 C 
ATOM     50  C   UNL A   1      46.249  24.678  28.555  1.00  0.00     0.029 A 
ATOM     51  C   UNL A   1      45.943  26.033  29.005  1.00  0.00     0.049 A 
ATOM     52  H   UNL A   1      44.076  26.951  29.083  1.00  0.00     0.167 HD
ATOM     53  C   UNL A   1      40.129  28.799  29.121  1.00  0.00     0.037 A 
ATOM     54  C   UNL A   1      46.844  26.927  29.454  1.00  0.00     0.037 A 
ATOM     55  C   UNL A   1      41.006  29.794  29.678  1.00  0.00     0.049 A 
ATOM     56  C   UNL A   1      46.379  28.279  29.913  1.00  0.00     0.074 A 
ATOM     57  C   UNL A   1      40.689  31.054  30.156  1.00  0.00     0.029 A 
ATOM     58  N   UNL A   1      42.375  29.639  29.833  1.00  0.00    -0.354 N 
ATOM     59  N   UNL A   1      45.166  28.772  29.933  1.00  0.00    -0.248 NA
ATOM     60  C   UNL A   1      47.409  29.194  30.425  1.00  0.00     0.031 C 
ATOM     61  C   UNL A   1      41.871  31.672  30.579  1.00  0.00     0.029 A 
ATOM     62  C   UNL A   1      42.918  30.786  30.392  1.00  0.00     0.049 A 
ATOM     63  H   UNL A   1      42.885  28.835  29.584  1.00  0.00     0.167 HD
ATOM     64  C   UNL A   1      45.281  30.044  30.478  1.00  0.00     0.074 A 
ATOM     65  C   UNL A   1      46.682  30.241  30.788  1.00  0.00     0.031 C 
ATOM     66  C   UNL A   1      44.314  30.966  30.700  1.00  0.00     0.037 A 
BRANCH  53  67
ATOM     67  C   UNL A   1      38.677  29.140  28.966  1.00  0.00     0.057 A 
ATOM     68  C   UNL A   1      37.782  29.047  30.041  1.00  0.00     0.134 A 
ATOM     69  C   UNL A   1      38.174  29.595  27.742  1.00  0.00     0.134 A 
ATOM     70  F   UNL A   1      38.200  28.605  31.235  1.00  0.00    -0.206 F 
ATOM     71  C   UNL A   1      36.433  29.374  29.896  1.00  0.00     0.040 A 
ATOM     72  C   UNL A   1      36.832  29.947  27.591  1.00  0.00     0.040 A 
ATOM     73  F   UNL A   1      38.980  29.712  26.675  1.00  0.00    -0.206 F 
ATOM     74  C   UNL A   1      35.956  29.832  28.668  1.00  0.00     0.006 A 
ENDBRANCH  53  67
BRANCH  54  75
ATOM     75  C   UNL A   1      48.276  26.556  29.531  1.00  0.00     0.057 A 
ATOM     76  C   UNL A   1      49.158  26.871  28.491  1.00  0.00     0.134 A 
ATOM     77  C   UNL A   1      48.797  25.878  30.639  1.00  0.00     0.134 A 
ATOM     78  F   UNL A   1      48.710  27.503  27.397  1.00  0.00    -0.206 F 
ATOM     79  C   UNL A   1      50.505  26.512  28.541  1.00  0.00     0.040 A 
ATOM     80  C   UNL A   1      50.147  25.530  30.711  1.00  0.00     0.040 A 
ATOM     81  F   UNL A   1      48.003  25.554  31.669  1.00  0.00    -0.206 F 
ATOM     82  C   UNL A   1      51.003  25.842  29.657  1.00  0.00     0.006 A 
ENDBRANCH  54  75
BRANCH  66  83
ATOM     83  C   UNL A   1      44.734  32.257  31.331  1.00  0.00     0.057 A 
ATOM     84  C   UNL A   1      44.759  32.423  32.721  1.00  0.00     0.134 A 
ATOM     85  C   UNL A   1      45.140  33.340  30.539  1.00  0.00     0.134 A 
ATOM     86  F   UNL A   1      44.369  31.428  33.531  1.00  0.00    -0.206 F 
ATOM     87  C   UNL A   1      45.155  33.629  33.302  1.00  0.00     0.040 A 
ATOM     88  C   UNL A   1      45.555  34.543  31.110  1.00  0.00     0.040 A 
ATOM     89  F   UNL A   1      45.142  33.242  29.202  1.00  0.00    -0.206 F 
ATOM     90  C   UNL A   1      45.559  34.692  32.496  1.00  0.00     0.006 A 
ENDBRANCH  66  83
ENDBRANCH  40  41
ENDBRANCH  32  35
ENDBRANCH  30  31
ENDBRANCH  29  30
ENDBRANCH   1  29
TORSDOF 15
ENDMDL
