MODEL 1
REMARK VINA RESULT:     -10.3      0.000      0.000
REMARK SMILES CCO[C@H](CCn1nnc2c(cnn2C)c1=O)C(=O)NCCCNC(=O)c1ccc(-c2c3nc(c(-c4c(F)cccc4F)c4ccc([nH]4)c(-c4c(F)cccc4F)c4nc(c(-c5c(F)cccc5F)c5ccc2[nH]5)C=C4)C=C3)cc1
REMARK SMILES IDX 21 1 20 2 18 3 19 4 4 6 3 7 2 8 1 9 5 10 6 11 7 12 8 13
REMARK SMILES IDX 16 14 9 15 11 16 17 17 10 18 12 19 14 20 13 21 15 22 22 23
REMARK SMILES IDX 23 24 24 25 25 26 26 28 27 29 28 30 80 31 29 32 79 33 30 34
REMARK SMILES IDX 31 35 32 36 73 37 33 38 78 39 72 40 74 41 34 42 77 43 71 44
REMARK SMILES IDX 70 45 35 47 61 48 44 49 60 50 45 51 48 52 59 53 75 54 46 55
REMARK SMILES IDX 47 56 58 58 76 59 49 60 36 61 37 62 42 63 38 64 39 65 41 66
REMARK SMILES IDX 43 67 40 68 62 69 63 70 68 71 64 72 65 73 67 74 69 75 66 76
REMARK SMILES IDX 50 77 51 78 56 79 52 80 53 81 55 82 57 83 54 84
REMARK H PARENT 20 5 24 27 74 46 48 57
REMARK Flexibility Score: inf
ROOT
ATOM      1  C   UNL A   1      38.076  31.569  33.268  1.00  0.00     0.117 C 
ENDROOT
BRANCH   1   2
ATOM      2  N   UNL A   1      38.323  32.955  32.947  1.00  0.00    -0.354 N 
ATOM      3  C   UNL A   1      38.167  33.563  31.731  1.00  0.00     0.249 C 
ATOM      4  O   UNL A   1      37.734  34.720  31.737  1.00  0.00    -0.272 OA
ATOM      5  H   UNL A   1      38.638  33.526  33.684  1.00  0.00     0.163 HD
BRANCH   3   6
ATOM      6  C   UNL A   1      38.486  32.849  30.390  1.00  0.00     0.208 C 
BRANCH   6   7
ATOM      7  O   UNL A   1      39.804  32.357  30.145  1.00  0.00    -0.369 OA
BRANCH   7   8
ATOM      8  C   UNL A   1      40.947  33.196  30.229  1.00  0.00     0.158 C 
ATOM      9  C   UNL A   1      41.742  33.154  31.527  1.00  0.00     0.035 C 
ENDBRANCH   7   8
ENDBRANCH   6   7
BRANCH   6  10
ATOM     10  C   UNL A   1      37.891  33.522  29.122  1.00  0.00     0.066 C 
BRANCH  10  11
ATOM     11  C   UNL A   1      36.512  33.001  28.638  1.00  0.00     0.153 C 
BRANCH  11  12
ATOM     12  N   UNL A   1      35.354  33.610  29.270  1.00  0.00    -0.210 N 
ATOM     13  N   UNL A   1      34.988  33.061  30.502  1.00  0.00    -0.062 NA
ATOM     14  C   UNL A   1      34.649  34.650  28.655  1.00  0.00     0.280 A 
ATOM     15  N   UNL A   1      34.277  33.720  31.309  1.00  0.00    -0.111 NA
ATOM     16  C   UNL A   1      33.732  35.267  29.548  1.00  0.00     0.108 A 
ATOM     17  O   UNL A   1      34.856  35.091  27.527  1.00  0.00    -0.267 OA
ATOM     18  C   UNL A   1      33.716  34.841  30.844  1.00  0.00     0.187 A 
ATOM     19  C   UNL A   1      32.794  36.280  29.495  1.00  0.00     0.151 A 
ATOM     20  N   UNL A   1      33.141  35.856  31.545  1.00  0.00    -0.249 N 
ATOM     21  N   UNL A   1      32.449  36.673  30.724  1.00  0.00    -0.179 NA
ATOM     22  C   UNL A   1      33.475  36.311  32.875  1.00  0.00     0.176 C 
ENDBRANCH  11  12
ENDBRANCH  10  11
ENDBRANCH   6  10
ENDBRANCH   3   6
ENDBRANCH   1   2
BRANCH   1  23
ATOM     23  C   UNL A   1      36.751  31.011  32.813  1.00  0.00     0.042 C 
BRANCH  23  24
ATOM     24  C   UNL A   1      36.803  29.837  31.860  1.00  0.00     0.118 C 
BRANCH  24  25
ATOM     25  N   UNL A   1      36.013  29.935  30.641  1.00  0.00    -0.352 N 
ATOM     26  C   UNL A   1      36.360  29.579  29.343  1.00  0.00     0.251 C 
ATOM     27  H   UNL A   1      35.107  30.304  30.752  1.00  0.00     0.163 HD
ATOM     28  O   UNL A   1      35.535  29.726  28.444  1.00  0.00    -0.269 OA
BRANCH  26  29
ATOM     29  C   UNL A   1      37.670  28.935  29.042  1.00  0.00     0.039 A 
ATOM     30  C   UNL A   1      38.188  27.922  29.867  1.00  0.00     0.014 A 
ATOM     31  C   UNL A   1      38.444  29.362  27.983  1.00  0.00     0.014 A 
ATOM     32  C   UNL A   1      39.544  27.545  29.775  1.00  0.00     0.010 A 
ATOM     33  C   UNL A   1      39.786  29.061  27.952  1.00  0.00     0.010 A 
ATOM     34  C   UNL A   1      40.383  28.208  28.882  1.00  0.00    -0.014 A 
BRANCH  34  35
ATOM     35  C   UNL A   1      41.828  27.963  28.703  1.00  0.00     0.031 A 
ATOM     36  C   UNL A   1      42.113  26.753  27.886  1.00  0.00     0.074 A 
ATOM     37  C   UNL A   1      42.873  28.793  28.926  1.00  0.00     0.049 A 
ATOM     38  N   UNL A   1      42.160  25.533  28.313  1.00  0.00    -0.248 NA
ATOM     39  C   UNL A   1      42.132  26.864  26.414  1.00  0.00     0.031 C 
ATOM     40  C   UNL A   1      42.875  30.185  29.366  1.00  0.00     0.029 A 
ATOM     41  N   UNL A   1      44.205  28.554  28.695  1.00  0.00    -0.354 N 
ATOM     42  C   UNL A   1      42.452  24.781  27.185  1.00  0.00     0.074 A 
ATOM     43  C   UNL A   1      42.053  25.578  26.061  1.00  0.00     0.031 C 
ATOM     44  C   UNL A   1      44.102  30.732  29.168  1.00  0.00     0.029 A 
ATOM     45  C   UNL A   1      45.026  29.673  28.800  1.00  0.00     0.049 A 
ATOM     46  H   UNL A   1      44.553  27.661  28.473  1.00  0.00     0.167 HD
ATOM     47  C   UNL A   1      43.371  23.777  27.219  1.00  0.00     0.037 A 
ATOM     48  C   UNL A   1      46.375  29.705  28.657  1.00  0.00     0.037 A 
ATOM     49  C   UNL A   1      43.877  23.602  28.559  1.00  0.00     0.049 A 
ATOM     50  C   UNL A   1      46.872  28.349  28.978  1.00  0.00     0.074 A 
ATOM     51  C   UNL A   1      43.430  23.077  29.751  1.00  0.00     0.029 A 
ATOM     52  N   UNL A   1      44.938  24.420  28.848  1.00  0.00    -0.354 N 
ATOM     53  N   UNL A   1      46.810  27.827  30.171  1.00  0.00    -0.248 NA
ATOM     54  C   UNL A   1      47.231  27.424  27.907  1.00  0.00     0.031 C 
ATOM     55  C   UNL A   1      44.178  23.722  30.782  1.00  0.00     0.029 A 
ATOM     56  C   UNL A   1      45.075  24.610  30.199  1.00  0.00     0.049 A 
ATOM     57  H   UNL A   1      45.530  24.819  28.171  1.00  0.00     0.167 HD
ATOM     58  C   UNL A   1      46.663  26.481  29.933  1.00  0.00     0.074 A 
ATOM     59  C   UNL A   1      47.142  26.271  28.574  1.00  0.00     0.031 C 
ATOM     60  C   UNL A   1      45.833  25.730  30.710  1.00  0.00     0.037 A 
BRANCH  47  61
ATOM     61  C   UNL A   1      44.167  23.266  26.040  1.00  0.00     0.057 A 
ATOM     62  C   UNL A   1      44.077  21.902  25.716  1.00  0.00     0.134 A 
ATOM     63  C   UNL A   1      45.175  23.975  25.354  1.00  0.00     0.134 A 
ATOM     64  F   UNL A   1      43.181  21.110  26.326  1.00  0.00    -0.206 F 
ATOM     65  C   UNL A   1      44.939  21.286  24.801  1.00  0.00     0.040 A 
ATOM     66  C   UNL A   1      45.999  23.385  24.391  1.00  0.00     0.040 A 
ATOM     67  F   UNL A   1      45.495  25.241  25.646  1.00  0.00    -0.206 F 
ATOM     68  C   UNL A   1      45.899  22.030  24.128  1.00  0.00     0.006 A 
ENDBRANCH  47  61
BRANCH  48  69
ATOM     69  C   UNL A   1      47.338  30.756  28.266  1.00  0.00     0.057 A 
ATOM     70  C   UNL A   1      47.255  31.372  27.005  1.00  0.00     0.134 A 
ATOM     71  C   UNL A   1      48.114  31.416  29.228  1.00  0.00     0.134 A 
ATOM     72  F   UNL A   1      46.528  30.822  26.022  1.00  0.00    -0.206 F 
ATOM     73  C   UNL A   1      47.844  32.612  26.738  1.00  0.00     0.040 A 
ATOM     74  C   UNL A   1      48.715  32.655  28.971  1.00  0.00     0.040 A 
ATOM     75  F   UNL A   1      48.222  30.927  30.473  1.00  0.00    -0.206 F 
ATOM     76  C   UNL A   1      48.558  33.270  27.732  1.00  0.00     0.006 A 
ENDBRANCH  48  69
BRANCH  60  77
ATOM     77  C   UNL A   1      45.572  26.218  32.103  1.00  0.00     0.057 A 
ATOM     78  C   UNL A   1      44.440  26.943  32.504  1.00  0.00     0.134 A 
ATOM     79  C   UNL A   1      46.504  25.905  33.098  1.00  0.00     0.134 A 
ATOM     80  F   UNL A   1      43.464  27.240  31.640  1.00  0.00    -0.206 F 
ATOM     81  C   UNL A   1      44.263  27.365  33.825  1.00  0.00     0.040 A 
ATOM     82  C   UNL A   1      46.324  26.292  34.428  1.00  0.00     0.040 A 
ATOM     83  F   UNL A   1      47.600  25.193  32.795  1.00  0.00    -0.206 F 
ATOM     84  C   UNL A   1      45.205  27.034  34.794  1.00  0.00     0.006 A 
ENDBRANCH  60  77
ENDBRANCH  34  35
ENDBRANCH  26  29
ENDBRANCH  24  25
ENDBRANCH  23  24
ENDBRANCH   1  23
TORSDOF 15
ENDMDL
MODEL 2
REMARK VINA RESULT:     -10.1      5.952     10.400
REMARK SMILES CCO[C@H](CCn1nnc2c(cnn2C)c1=O)C(=O)NCCCNC(=O)c1ccc(-c2c3nc(c(-c4c(F)cccc4F)c4ccc([nH]4)c(-c4c(F)cccc4F)c4nc(c(-c5c(F)cccc5F)c5ccc2[nH]5)C=C4)C=C3)cc1
REMARK SMILES IDX 21 1 20 2 18 3 19 4 4 6 3 7 2 8 1 9 5 10 6 11 7 12 8 13
REMARK SMILES IDX 16 14 9 15 11 16 17 17 10 18 12 19 14 20 13 21 15 22 22 23
REMARK SMILES IDX 23 24 24 25 25 26 26 28 27 29 28 30 80 31 29 32 79 33 30 34
REMARK SMILES IDX 31 35 32 36 73 37 33 38 78 39 72 40 74 41 34 42 77 43 71 44
REMARK SMILES IDX 70 45 35 47 61 48 44 49 60 50 45 51 48 52 59 53 75 54 46 55
REMARK SMILES IDX 47 56 58 58 76 59 49 60 36 61 37 62 42 63 38 64 39 65 41 66
REMARK SMILES IDX 43 67 40 68 62 69 63 70 68 71 64 72 65 73 67 74 69 75 66 76
REMARK SMILES IDX 50 77 51 78 56 79 52 80 53 81 55 82 57 83 54 84
REMARK H PARENT 20 5 24 27 74 46 48 57
REMARK Flexibility Score: inf
ROOT
ATOM      1  C   UNL A   1      35.892  22.353  24.226  1.00  0.00     0.117 C 
ENDROOT
BRANCH   1   2
ATOM      2  N   UNL A   1      35.526  23.702  24.591  1.00  0.00    -0.354 N 
ATOM      3  C   UNL A   1      34.530  24.465  24.046  1.00  0.00     0.249 C 
ATOM      4  O   UNL A   1      33.898  25.193  24.820  1.00  0.00    -0.272 OA
ATOM      5  H   UNL A   1      36.051  24.117  25.313  1.00  0.00     0.163 HD
BRANCH   3   6
ATOM      6  C   UNL A   1      34.170  24.421  22.537  1.00  0.00     0.208 C 
BRANCH   6   7
ATOM      7  O   UNL A   1      33.791  25.623  21.864  1.00  0.00    -0.369 OA
BRANCH   7   8
ATOM      8  C   UNL A   1      32.432  25.945  21.608  1.00  0.00     0.158 C 
ATOM      9  C   UNL A   1      31.833  27.096  22.404  1.00  0.00     0.035 C 
ENDBRANCH   7   8
ENDBRANCH   6   7
BRANCH   6  10
ATOM     10  C   UNL A   1      33.278  23.226  22.102  1.00  0.00     0.066 C 
BRANCH  10  11
ATOM     11  C   UNL A   1      32.163  22.791  23.090  1.00  0.00     0.153 C 
BRANCH  11  12
ATOM     12  N   UNL A   1      32.144  21.379  23.433  1.00  0.00    -0.210 N 
ATOM     13  N   UNL A   1      31.871  20.511  22.372  1.00  0.00    -0.062 NA
ATOM     14  C   UNL A   1      32.354  20.944  24.745  1.00  0.00     0.280 A 
ATOM     15  N   UNL A   1      32.199  19.295  22.442  1.00  0.00    -0.111 NA
ATOM     16  C   UNL A   1      32.556  19.539  24.809  1.00  0.00     0.108 A 
ATOM     17  O   UNL A   1      32.484  21.666  25.731  1.00  0.00    -0.267 OA
ATOM     18  C   UNL A   1      32.596  18.844  23.637  1.00  0.00     0.187 A 
ATOM     19  C   UNL A   1      32.774  18.592  25.792  1.00  0.00     0.151 A 
ATOM     20  N   UNL A   1      33.243  17.684  23.933  1.00  0.00    -0.249 N 
ATOM     21  N   UNL A   1      33.231  17.455  25.262  1.00  0.00    -0.179 NA
ATOM     22  C   UNL A   1      34.170  16.951  23.100  1.00  0.00     0.176 C 
ENDBRANCH  11  12
ENDBRANCH  10  11
ENDBRANCH   6  10
ENDBRANCH   3   6
ENDBRANCH   1   2
BRANCH   1  23
ATOM     23  C   UNL A   1      37.336  21.978  24.449  1.00  0.00     0.042 C 
BRANCH  23  24
ATOM     24  C   UNL A   1      38.027  22.618  25.632  1.00  0.00     0.118 C 
BRANCH  24  25
ATOM     25  N   UNL A   1      38.911  21.773  26.423  1.00  0.00    -0.352 N 
ATOM     26  C   UNL A   1      39.988  22.140  27.222  1.00  0.00     0.251 C 
ATOM     27  H   UNL A   1      38.718  20.808  26.386  1.00  0.00     0.163 HD
ATOM     28  O   UNL A   1      40.603  21.266  27.829  1.00  0.00    -0.269 OA
BRANCH  26  29
ATOM     29  C   UNL A   1      40.342  23.572  27.432  1.00  0.00     0.039 A 
ATOM     30  C   UNL A   1      41.605  23.943  27.923  1.00  0.00     0.014 A 
ATOM     31  C   UNL A   1      39.417  24.571  27.216  1.00  0.00     0.014 A 
ATOM     32  C   UNL A   1      41.829  25.244  28.421  1.00  0.00     0.010 A 
ATOM     33  C   UNL A   1      39.604  25.811  27.782  1.00  0.00     0.010 A 
ATOM     34  C   UNL A   1      40.776  26.156  28.458  1.00  0.00    -0.014 A 
BRANCH  34  35
ATOM     35  C   UNL A   1      40.838  27.531  28.989  1.00  0.00     0.031 A 
ATOM     36  C   UNL A   1      41.924  28.341  28.376  1.00  0.00     0.074 A 
ATOM     37  C   UNL A   1      39.919  28.213  29.712  1.00  0.00     0.049 A 
ATOM     38  N   UNL A   1      43.166  28.357  28.738  1.00  0.00    -0.248 NA
ATOM     39  C   UNL A   1      41.672  29.038  27.099  1.00  0.00     0.031 C 
ATOM     40  C   UNL A   1      38.584  27.805  30.139  1.00  0.00     0.029 A 
ATOM     41  N   UNL A   1      39.982  29.515  30.144  1.00  0.00    -0.354 N 
ATOM     42  C   UNL A   1      43.769  29.254  27.868  1.00  0.00     0.074 A 
ATOM     43  C   UNL A   1      42.919  29.323  26.715  1.00  0.00     0.031 C 
ATOM     44  C   UNL A   1      37.885  28.885  30.572  1.00  0.00     0.029 A 
ATOM     45  C   UNL A   1      38.792  30.016  30.664  1.00  0.00     0.049 A 
ATOM     46  H   UNL A   1      40.805  30.052  30.091  1.00  0.00     0.167 HD
ATOM     47  C   UNL A   1      44.660  30.182  28.312  1.00  0.00     0.037 A 
ATOM     48  C   UNL A   1      38.594  31.251  31.189  1.00  0.00     0.037 A 
ATOM     49  C   UNL A   1      44.904  30.014  29.724  1.00  0.00     0.049 A 
ATOM     50  C   UNL A   1      39.909  31.728  31.671  1.00  0.00     0.074 A 
ATOM     51  C   UNL A   1      45.587  29.138  30.538  1.00  0.00     0.029 A 
ATOM     52  N   UNL A   1      44.002  30.680  30.512  1.00  0.00    -0.354 N 
ATOM     53  N   UNL A   1      40.546  31.186  32.671  1.00  0.00    -0.248 NA
ATOM     54  C   UNL A   1      40.681  32.681  30.879  1.00  0.00     0.031 C 
ATOM     55  C   UNL A   1      44.962  29.206  31.820  1.00  0.00     0.029 A 
ATOM     56  C   UNL A   1      43.927  30.133  31.766  1.00  0.00     0.049 A 
ATOM     57  H   UNL A   1      43.475  31.457  30.215  1.00  0.00     0.167 HD
ATOM     58  C   UNL A   1      41.871  31.366  32.352  1.00  0.00     0.074 A 
ATOM     59  C   UNL A   1      41.895  32.456  31.387  1.00  0.00     0.031 C 
ATOM     60  C   UNL A   1      42.781  30.387  32.612  1.00  0.00     0.037 A 
BRANCH  47  61
ATOM     61  C   UNL A   1      44.964  31.506  27.648  1.00  0.00     0.057 A 
ATOM     62  C   UNL A   1      46.222  31.677  27.045  1.00  0.00     0.134 A 
ATOM     63  C   UNL A   1      44.193  32.682  27.759  1.00  0.00     0.134 A 
ATOM     64  F   UNL A   1      47.064  30.641  26.912  1.00  0.00    -0.206 F 
ATOM     65  C   UNL A   1      46.686  32.924  26.611  1.00  0.00     0.040 A 
ATOM     66  C   UNL A   1      44.620  33.920  27.272  1.00  0.00     0.040 A 
ATOM     67  F   UNL A   1      43.039  32.728  28.435  1.00  0.00    -0.206 F 
ATOM     68  C   UNL A   1      45.881  34.050  26.716  1.00  0.00     0.006 A 
ENDBRANCH  47  61
BRANCH  48  69
ATOM     69  C   UNL A   1      37.408  32.121  31.341  1.00  0.00     0.057 A 
ATOM     70  C   UNL A   1      36.975  32.935  30.280  1.00  0.00     0.134 A 
ATOM     71  C   UNL A   1      36.487  31.908  32.375  1.00  0.00     0.134 A 
ATOM     72  F   UNL A   1      37.781  33.189  29.239  1.00  0.00    -0.206 F 
ATOM     73  C   UNL A   1      35.674  33.445  30.211  1.00  0.00     0.040 A 
ATOM     74  C   UNL A   1      35.183  32.418  32.321  1.00  0.00     0.040 A 
ATOM     75  F   UNL A   1      36.793  31.113  33.412  1.00  0.00    -0.206 F 
ATOM     76  C   UNL A   1      34.765  33.166  31.224  1.00  0.00     0.006 A 
ENDBRANCH  48  69
BRANCH  60  77
ATOM     77  C   UNL A   1      42.461  29.430  33.720  1.00  0.00     0.057 A 
ATOM     78  C   UNL A   1      41.886  28.163  33.549  1.00  0.00     0.134 A 
ATOM     79  C   UNL A   1      42.786  29.803  35.029  1.00  0.00     0.134 A 
ATOM     80  F   UNL A   1      41.594  27.691  32.333  1.00  0.00    -0.206 F 
ATOM     81  C   UNL A   1      41.617  27.322  34.634  1.00  0.00     0.040 A 
ATOM     82  C   UNL A   1      42.551  28.960  36.117  1.00  0.00     0.040 A 
ATOM     83  F   UNL A   1      43.361  30.991  35.269  1.00  0.00    -0.206 F 
ATOM     84  C   UNL A   1      41.955  27.718  35.923  1.00  0.00     0.006 A 
ENDBRANCH  60  77
ENDBRANCH  34  35
ENDBRANCH  26  29
ENDBRANCH  24  25
ENDBRANCH  23  24
ENDBRANCH   1  23
TORSDOF 15
ENDMDL
MODEL 3
REMARK VINA RESULT:     -10.0      5.326      9.484
REMARK SMILES CCO[C@H](CCn1nnc2c(cnn2C)c1=O)C(=O)NCCCNC(=O)c1ccc(-c2c3nc(c(-c4c(F)cccc4F)c4ccc([nH]4)c(-c4c(F)cccc4F)c4nc(c(-c5c(F)cccc5F)c5ccc2[nH]5)C=C4)C=C3)cc1
REMARK SMILES IDX 21 1 20 2 18 3 19 4 4 6 3 7 2 8 1 9 5 10 6 11 7 12 8 13
REMARK SMILES IDX 16 14 9 15 11 16 17 17 10 18 12 19 14 20 13 21 15 22 22 23
REMARK SMILES IDX 23 24 24 25 25 26 26 28 27 29 28 30 80 31 29 32 79 33 30 34
REMARK SMILES IDX 31 35 32 36 73 37 33 38 78 39 72 40 74 41 34 42 77 43 71 44
REMARK SMILES IDX 70 45 35 47 61 48 44 49 60 50 45 51 48 52 59 53 75 54 46 55
REMARK SMILES IDX 47 56 58 58 76 59 49 60 36 61 37 62 42 63 38 64 39 65 41 66
REMARK SMILES IDX 43 67 40 68 62 69 63 70 68 71 64 72 65 73 67 74 69 75 66 76
REMARK SMILES IDX 50 77 51 78 56 79 52 80 53 81 55 82 57 83 54 84
REMARK H PARENT 20 5 24 27 74 46 48 57
REMARK Flexibility Score: inf
ROOT
ATOM      1  C   UNL A   1      36.262  21.600  24.950  1.00  0.00     0.117 C 
ENDROOT
BRANCH   1   2
ATOM      2  N   UNL A   1      35.674  21.859  26.243  1.00  0.00    -0.354 N 
ATOM      3  C   UNL A   1      34.341  21.912  26.550  1.00  0.00     0.249 C 
ATOM      4  O   UNL A   1      34.003  21.450  27.645  1.00  0.00    -0.272 OA
ATOM      5  H   UNL A   1      36.301  22.014  26.986  1.00  0.00     0.163 HD
BRANCH   3   6
ATOM      6  C   UNL A   1      33.279  22.495  25.580  1.00  0.00     0.208 C 
BRANCH   6   7
ATOM      7  O   UNL A   1      32.502  23.626  25.979  1.00  0.00    -0.369 OA
BRANCH   7   8
ATOM      8  C   UNL A   1      33.073  24.917  26.128  1.00  0.00     0.158 C 
ATOM      9  C   UNL A   1      34.378  25.184  25.389  1.00  0.00     0.035 C 
ENDBRANCH   7   8
ENDBRANCH   6   7
BRANCH   6  10
ATOM     10  C   UNL A   1      32.409  21.444  24.839  1.00  0.00     0.066 C 
BRANCH  10  11
ATOM     11  C   UNL A   1      32.132  21.703  23.334  1.00  0.00     0.153 C 
BRANCH  11  12
ATOM     12  N   UNL A   1      31.948  23.095  22.961  1.00  0.00    -0.210 N 
ATOM     13  N   UNL A   1      30.679  23.620  23.220  1.00  0.00    -0.062 NA
ATOM     14  C   UNL A   1      32.972  23.831  22.355  1.00  0.00     0.280 A 
ATOM     15  N   UNL A   1      30.509  24.867  23.307  1.00  0.00    -0.111 NA
ATOM     16  C   UNL A   1      32.675  25.219  22.319  1.00  0.00     0.108 A 
ATOM     17  O   UNL A   1      34.062  23.389  22.001  1.00  0.00    -0.267 OA
ATOM     18  C   UNL A   1      31.526  25.644  22.919  1.00  0.00     0.187 A 
ATOM     19  C   UNL A   1      33.273  26.370  21.840  1.00  0.00     0.151 A 
ATOM     20  N   UNL A   1      31.715  26.972  23.150  1.00  0.00    -0.249 N 
ATOM     21  N   UNL A   1      32.709  27.455  22.376  1.00  0.00    -0.179 NA
ATOM     22  C   UNL A   1      31.269  27.743  24.288  1.00  0.00     0.176 C 
ENDBRANCH  11  12
ENDBRANCH  10  11
ENDBRANCH   6  10
ENDBRANCH   3   6
ENDBRANCH   1   2
BRANCH   1  23
ATOM     23  C   UNL A   1      37.711  21.183  24.955  1.00  0.00     0.042 C 
BRANCH  23  24
ATOM     24  C   UNL A   1      38.668  22.068  25.722  1.00  0.00     0.118 C 
BRANCH  24  25
ATOM     25  N   UNL A   1      39.649  21.408  26.571  1.00  0.00    -0.352 N 
ATOM     26  C   UNL A   1      40.648  21.973  27.356  1.00  0.00     0.251 C 
ATOM     27  H   UNL A   1      39.599  20.425  26.592  1.00  0.00     0.163 HD
ATOM     28  O   UNL A   1      41.371  21.235  28.022  1.00  0.00    -0.269 OA
BRANCH  26  29
ATOM     29  C   UNL A   1      40.789  23.451  27.482  1.00  0.00     0.039 A 
ATOM     30  C   UNL A   1      42.055  24.059  27.532  1.00  0.00     0.014 A 
ATOM     31  C   UNL A   1      39.681  24.260  27.622  1.00  0.00     0.014 A 
ATOM     32  C   UNL A   1      42.195  25.393  27.968  1.00  0.00     0.010 A 
ATOM     33  C   UNL A   1      39.821  25.530  28.132  1.00  0.00     0.010 A 
ATOM     34  C   UNL A   1      41.071  26.101  28.386  1.00  0.00    -0.014 A 
BRANCH  34  35
ATOM     35  C   UNL A   1      41.059  27.481  28.910  1.00  0.00     0.031 A 
ATOM     36  C   UNL A   1      42.105  28.342  28.298  1.00  0.00     0.074 A 
ATOM     37  C   UNL A   1      40.102  28.118  29.625  1.00  0.00     0.049 A 
ATOM     38  N   UNL A   1      43.343  28.424  28.665  1.00  0.00    -0.248 NA
ATOM     39  C   UNL A   1      41.824  29.019  27.016  1.00  0.00     0.031 C 
ATOM     40  C   UNL A   1      38.788  27.644  30.048  1.00  0.00     0.029 A 
ATOM     41  N   UNL A   1      40.097  29.424  30.051  1.00  0.00    -0.354 N 
ATOM     42  C   UNL A   1      43.903  29.346  27.794  1.00  0.00     0.074 A 
ATOM     43  C   UNL A   1      43.056  29.365  26.636  1.00  0.00     0.031 C 
ATOM     44  C   UNL A   1      38.032  28.689  30.472  1.00  0.00     0.029 A 
ATOM     45  C   UNL A   1      38.880  29.866  30.563  1.00  0.00     0.049 A 
ATOM     46  H   UNL A   1      40.891  30.002  29.999  1.00  0.00     0.167 HD
ATOM     47  C   UNL A   1      44.743  30.321  28.237  1.00  0.00     0.037 A 
ATOM     48  C   UNL A   1      38.616  31.092  31.081  1.00  0.00     0.037 A 
ATOM     49  C   UNL A   1      44.989  30.172  29.651  1.00  0.00     0.049 A 
ATOM     50  C   UNL A   1      39.903  31.638  31.565  1.00  0.00     0.074 A 
ATOM     51  C   UNL A   1      45.712  29.337  30.472  1.00  0.00     0.029 A 
ATOM     52  N   UNL A   1      44.050  30.796  30.431  1.00  0.00    -0.354 N 
ATOM     53  N   UNL A   1      40.561  31.134  32.571  1.00  0.00    -0.248 NA
ATOM     54  C   UNL A   1      40.628  32.625  30.772  1.00  0.00     0.031 C 
ATOM     55  C   UNL A   1      45.078  29.379  31.751  1.00  0.00     0.029 A 
ATOM     56  C   UNL A   1      43.997  30.251  31.688  1.00  0.00     0.049 A 
ATOM     57  H   UNL A   1      43.485  31.542  30.128  1.00  0.00     0.167 HD
ATOM     58  C   UNL A   1      41.877  31.381  32.257  1.00  0.00     0.074 A 
ATOM     59  C   UNL A   1      41.850  32.465  31.287  1.00  0.00     0.031 C 
ATOM     60  C   UNL A   1      42.835  30.450  32.526  1.00  0.00     0.037 A 
BRANCH  47  61
ATOM     61  C   UNL A   1      44.982  31.655  27.567  1.00  0.00     0.057 A 
ATOM     62  C   UNL A   1      46.223  31.878  26.946  1.00  0.00     0.134 A 
ATOM     63  C   UNL A   1      44.164  32.798  27.689  1.00  0.00     0.134 A 
ATOM     64  F   UNL A   1      47.106  30.878  26.802  1.00  0.00    -0.206 F 
ATOM     65  C   UNL A   1      46.628  33.142  26.504  1.00  0.00     0.040 A 
ATOM     66  C   UNL A   1      44.532  34.053  27.194  1.00  0.00     0.040 A 
ATOM     67  F   UNL A   1      43.019  32.797  28.381  1.00  0.00    -0.206 F 
ATOM     68  C   UNL A   1      45.778  34.234  26.619  1.00  0.00     0.006 A 
ENDBRANCH  47  61
BRANCH  48  69
ATOM     69  C   UNL A   1      37.386  31.900  31.222  1.00  0.00     0.057 A 
ATOM     70  C   UNL A   1      36.693  32.356  30.087  1.00  0.00     0.134 A 
ATOM     71  C   UNL A   1      36.683  31.934  32.433  1.00  0.00     0.134 A 
ATOM     72  F   UNL A   1      37.278  32.352  28.881  1.00  0.00    -0.206 F 
ATOM     73  C   UNL A   1      35.352  32.751  30.138  1.00  0.00     0.040 A 
ATOM     74  C   UNL A   1      35.342  32.334  32.499  1.00  0.00     0.040 A 
ATOM     75  F   UNL A   1      37.246  31.483  33.565  1.00  0.00    -0.206 F 
ATOM     76  C   UNL A   1      34.664  32.718  31.345  1.00  0.00     0.006 A 
ENDBRANCH  48  69
BRANCH  60  77
ATOM     77  C   UNL A   1      42.559  29.484  33.639  1.00  0.00     0.057 A 
ATOM     78  C   UNL A   1      42.055  28.187  33.471  1.00  0.00     0.134 A 
ATOM     79  C   UNL A   1      42.854  29.881  34.947  1.00  0.00     0.134 A 
ATOM     80  F   UNL A   1      41.797  27.693  32.256  1.00  0.00    -0.206 F 
ATOM     81  C   UNL A   1      41.823  27.338  34.559  1.00  0.00     0.040 A 
ATOM     82  C   UNL A   1      42.658  29.033  36.039  1.00  0.00     0.040 A 
ATOM     83  F   UNL A   1      43.363  31.100  35.184  1.00  0.00    -0.206 F 
ATOM     84  C   UNL A   1      42.131  27.759  35.848  1.00  0.00     0.006 A 
ENDBRANCH  60  77
ENDBRANCH  34  35
ENDBRANCH  26  29
ENDBRANCH  24  25
ENDBRANCH  23  24
ENDBRANCH   1  23
TORSDOF 15
ENDMDL
