MODEL 1
REMARK VINA RESULT:     -11.8      0.000      0.000
REMARK SMILES CS(=O)(=O)c1ccc(/C=C(/C(=O)NCCCNC(=O)c2ccc(-c3c4nc(c(-c5c(F)cccc5F)c5ccc([nH]5)c(-c5c(F)cccc5F)c5nc(c(-c6c(F)cccc6F)c6ccc3[nH]6)C=C5)C=C4)cc2)c2cccc(Br)c2)cc1
REMARK SMILES IDX 15 1 14 2 13 3 11 4 12 5 10 7 9 8 8 9 5 10 6 11 82 12 7 13
REMARK SMILES IDX 81 14 2 15 1 16 3 17 4 18 74 19 75 20 80 21 76 22 78 23
REMARK SMILES IDX 77 24 79 25 16 26 17 27 18 28 19 30 20 31 21 32 73 33 22 34
REMARK SMILES IDX 72 35 23 36 24 37 25 38 66 39 26 40 71 41 65 42 67 43 27 44
REMARK SMILES IDX 70 45 64 46 63 47 28 49 54 50 37 51 53 52 38 53 41 54 52 55
REMARK SMILES IDX 68 56 39 57 40 58 51 60 69 61 42 62 29 63 30 64 35 65 31 66
REMARK SMILES IDX 32 67 34 68 36 69 33 70 55 71 56 72 61 73 57 74 58 75 60 76
REMARK SMILES IDX 62 77 59 78 43 79 44 80 49 81 45 82 46 83 48 84 50 85 47 86
REMARK H PARENT 13 6 17 29 67 48 41 59
REMARK Flexibility Score: inf
ROOT
ATOM      1  C   UNL A   1      32.717  27.623  25.344  1.00  0.00     0.042 C 
ENDROOT
BRANCH   1   2
ATOM      2  C   UNL A   1      33.645  26.414  25.472  1.00  0.00     0.118 C 
BRANCH   2   3
ATOM      3  N   UNL A   1      33.660  25.657  24.235  1.00  0.00    -0.352 N 
ATOM      4  C   UNL A   1      34.363  24.583  23.790  1.00  0.00     0.251 C 
ATOM      5  O   UNL A   1      34.134  24.241  22.627  1.00  0.00    -0.269 OA
ATOM      6  H   UNL A   1      33.019  25.997  23.570  1.00  0.00     0.163 HD
BRANCH   4   7
ATOM      7  C   UNL A   1      35.303  23.776  24.658  1.00  0.00     0.047 C 
ATOM      8  C   UNL A   1      36.648  23.899  24.566  1.00  0.00     0.022 C 
BRANCH   8   9
ATOM      9  C   UNL A   1      37.717  23.317  25.412  1.00  0.00    -0.025 A 
ATOM     10  C   UNL A   1      39.862  22.110  26.762  1.00  0.00     0.067 A 
ATOM     11  C   UNL A   1      39.572  23.454  26.984  1.00  0.00     0.021 A 
ATOM     12  C   UNL A   1      39.072  21.345  25.905  1.00  0.00     0.021 A 
ATOM     13  C   UNL A   1      38.476  24.039  26.340  1.00  0.00     0.009 A 
ATOM     14  C   UNL A   1      38.003  21.950  25.236  1.00  0.00     0.009 A 
BRANCH  10  15
ATOM     15  S   UNL A   1      41.283  21.371  27.531  1.00  0.00     0.175 S 
ATOM     16  C   UNL A   1      42.460  21.287  26.208  1.00  0.00     0.163 C 
ATOM     17  O   UNL A   1      40.932  20.015  27.904  1.00  0.00    -0.224 OA
ATOM     18  O   UNL A   1      41.778  22.313  28.519  1.00  0.00    -0.224 OA
ENDBRANCH  10  15
ENDBRANCH   8   9
BRANCH   7  19
ATOM     19  C   UNL A   1      34.689  22.710  25.491  1.00  0.00    -0.012 A 
ATOM     20  C   UNL A   1      34.438  22.986  26.848  1.00  0.00     0.009 A 
ATOM     21  C   UNL A   1      34.250  21.493  24.956  1.00  0.00     0.024 A 
ATOM     22  C   UNL A   1      33.730  22.089  27.646  1.00  0.00     0.002 A 
ATOM     23  C   UNL A   1      33.512  20.614  25.753  1.00  0.00     0.018 A 
ATOM     24  C   UNL A   1      33.248  20.908  27.091  1.00  0.00     0.016 A 
ATOM     25  Br  UNL A   1      32.794  19.040  24.990  1.00  0.00    -0.051 Br
ENDBRANCH   7  19
ENDBRANCH   4   7
ENDBRANCH   2   3
ENDBRANCH   1   2
BRANCH   1  26
ATOM     26  C   UNL A   1      33.463  28.926  25.055  1.00  0.00     0.118 C 
BRANCH  26  27
ATOM     27  N   UNL A   1      32.738  30.089  25.545  1.00  0.00    -0.352 N 
ATOM     28  C   UNL A   1      32.949  30.856  26.662  1.00  0.00     0.251 C 
ATOM     29  H   UNL A   1      31.977  30.370  24.986  1.00  0.00     0.163 HD
ATOM     30  O   UNL A   1      32.078  31.638  27.033  1.00  0.00    -0.269 OA
BRANCH  28  31
ATOM     31  C   UNL A   1      34.212  30.747  27.422  1.00  0.00     0.039 A 
ATOM     32  C   UNL A   1      34.577  29.503  27.948  1.00  0.00     0.014 A 
ATOM     33  C   UNL A   1      35.007  31.869  27.665  1.00  0.00     0.014 A 
ATOM     34  C   UNL A   1      35.760  29.381  28.679  1.00  0.00     0.010 A 
ATOM     35  C   UNL A   1      36.225  31.730  28.324  1.00  0.00     0.010 A 
ATOM     36  C   UNL A   1      36.607  30.487  28.851  1.00  0.00    -0.014 A 
BRANCH  36  37
ATOM     37  C   UNL A   1      37.883  30.372  29.602  1.00  0.00     0.031 A 
ATOM     38  C   UNL A   1      39.047  29.630  29.002  1.00  0.00     0.074 A 
ATOM     39  C   UNL A   1      37.975  30.886  30.844  1.00  0.00     0.049 A 
ATOM     40  N   UNL A   1      40.214  29.355  29.529  1.00  0.00    -0.248 NA
ATOM     41  C   UNL A   1      38.867  29.101  27.640  1.00  0.00     0.031 C 
ATOM     42  C   UNL A   1      36.904  31.592  31.551  1.00  0.00     0.029 A 
ATOM     43  N   UNL A   1      39.016  30.883  31.740  1.00  0.00    -0.354 N 
ATOM     44  C   UNL A   1      40.896  28.613  28.573  1.00  0.00     0.074 A 
ATOM     45  C   UNL A   1      39.995  28.431  27.457  1.00  0.00     0.031 C 
ATOM     46  C   UNL A   1      37.350  31.974  32.758  1.00  0.00     0.029 A 
ATOM     47  C   UNL A   1      38.720  31.503  32.930  1.00  0.00     0.049 A 
ATOM     48  H   UNL A   1      39.892  30.478  31.546  1.00  0.00     0.167 HD
ATOM     49  C   UNL A   1      42.166  28.146  28.612  1.00  0.00     0.037 A 
ATOM     50  C   UNL A   1      39.466  31.661  34.040  1.00  0.00     0.037 A 
ATOM     51  C   UNL A   1      43.068  28.352  29.715  1.00  0.00     0.049 A 
ATOM     52  C   UNL A   1      40.870  31.119  34.061  1.00  0.00     0.074 A 
ATOM     53  C   UNL A   1      44.392  27.966  29.828  1.00  0.00     0.029 A 
ATOM     54  N   UNL A   1      42.736  29.000  30.895  1.00  0.00    -0.354 N 
ATOM     55  N   UNL A   1      41.524  30.475  33.124  1.00  0.00    -0.248 NA
ATOM     56  C   UNL A   1      41.645  31.334  35.291  1.00  0.00     0.031 C 
ATOM     57  C   UNL A   1      44.847  28.334  31.098  1.00  0.00     0.029 A 
ATOM     58  C   UNL A   1      43.825  29.005  31.751  1.00  0.00     0.049 A 
ATOM     59  H   UNL A   1      41.858  29.397  31.094  1.00  0.00     0.167 HD
ATOM     60  C   UNL A   1      42.794  30.244  33.634  1.00  0.00     0.074 A 
ATOM     61  C   UNL A   1      42.823  30.827  34.959  1.00  0.00     0.031 C 
ATOM     62  C   UNL A   1      43.844  29.607  33.060  1.00  0.00     0.037 A 
BRANCH  49  63
ATOM     63  C   UNL A   1      42.661  27.366  27.428  1.00  0.00     0.057 A 
ATOM     64  C   UNL A   1      43.312  27.985  26.351  1.00  0.00     0.134 A 
ATOM     65  C   UNL A   1      42.534  25.971  27.386  1.00  0.00     0.134 A 
ATOM     66  F   UNL A   1      43.458  29.319  26.322  1.00  0.00    -0.206 F 
ATOM     67  C   UNL A   1      43.796  27.250  25.268  1.00  0.00     0.040 A 
ATOM     68  C   UNL A   1      43.042  25.222  26.322  1.00  0.00     0.040 A 
ATOM     69  F   UNL A   1      41.928  25.312  28.384  1.00  0.00    -0.206 F 
ATOM     70  C   UNL A   1      43.671  25.863  25.257  1.00  0.00     0.006 A 
ENDBRANCH  49  63
BRANCH  50  71
ATOM     71  C   UNL A   1      38.913  32.371  35.223  1.00  0.00     0.057 A 
ATOM     72  C   UNL A   1      39.030  33.760  35.353  1.00  0.00     0.134 A 
ATOM     73  C   UNL A   1      38.285  31.679  36.265  1.00  0.00     0.134 A 
ATOM     74  F   UNL A   1      39.636  34.479  34.396  1.00  0.00    -0.206 F 
ATOM     75  C   UNL A   1      38.574  34.431  36.489  1.00  0.00     0.040 A 
ATOM     76  C   UNL A   1      37.797  32.340  37.393  1.00  0.00     0.040 A 
ATOM     77  F   UNL A   1      38.130  30.348  36.199  1.00  0.00    -0.206 F 
ATOM     78  C   UNL A   1      37.952  33.719  37.513  1.00  0.00     0.006 A 
ENDBRANCH  50  71
BRANCH  62  79
ATOM     79  C   UNL A   1      45.130  29.559  33.833  1.00  0.00     0.057 A 
ATOM     80  C   UNL A   1      45.447  28.495  34.687  1.00  0.00     0.134 A 
ATOM     81  C   UNL A   1      46.082  30.576  33.687  1.00  0.00     0.134 A 
ATOM     82  F   UNL A   1      44.575  27.493  34.880  1.00  0.00    -0.206 F 
ATOM     83  C   UNL A   1      46.653  28.459  35.389  1.00  0.00     0.040 A 
ATOM     84  C   UNL A   1      47.304  30.535  34.358  1.00  0.00     0.040 A 
ATOM     85  F   UNL A   1      45.847  31.619  32.877  1.00  0.00    -0.206 F 
ATOM     86  C   UNL A   1      47.589  29.478  35.219  1.00  0.00     0.006 A 
ENDBRANCH  62  79
ENDBRANCH  36  37
ENDBRANCH  28  31
ENDBRANCH  26  27
ENDBRANCH   1  26
TORSDOF 13
ENDMDL
MODEL 2
REMARK VINA RESULT:     -11.6      4.654      9.770
REMARK SMILES CS(=O)(=O)c1ccc(/C=C(/C(=O)NCCCNC(=O)c2ccc(-c3c4nc(c(-c5c(F)cccc5F)c5ccc([nH]5)c(-c5c(F)cccc5F)c5nc(c(-c6c(F)cccc6F)c6ccc3[nH]6)C=C5)C=C4)cc2)c2cccc(Br)c2)cc1
REMARK SMILES IDX 15 1 14 2 13 3 11 4 12 5 10 7 9 8 8 9 5 10 6 11 82 12 7 13
REMARK SMILES IDX 81 14 2 15 1 16 3 17 4 18 74 19 75 20 80 21 76 22 78 23
REMARK SMILES IDX 77 24 79 25 16 26 17 27 18 28 19 30 20 31 21 32 73 33 22 34
REMARK SMILES IDX 72 35 23 36 24 37 25 38 66 39 26 40 71 41 65 42 67 43 27 44
REMARK SMILES IDX 70 45 64 46 63 47 28 49 54 50 37 51 53 52 38 53 41 54 52 55
REMARK SMILES IDX 68 56 39 57 40 58 51 60 69 61 42 62 29 63 30 64 35 65 31 66
REMARK SMILES IDX 32 67 34 68 36 69 33 70 55 71 56 72 61 73 57 74 58 75 60 76
REMARK SMILES IDX 62 77 59 78 43 79 44 80 49 81 45 82 46 83 48 84 50 85 47 86
REMARK H PARENT 13 6 17 29 67 48 41 59
REMARK Flexibility Score: inf
ROOT
ATOM      1  C   UNL A   1      34.768  32.655  30.829  1.00  0.00     0.042 C 
ENDROOT
BRANCH   1   2
ATOM      2  C   UNL A   1      36.104  32.695  31.572  1.00  0.00     0.118 C 
BRANCH   2   3
ATOM      3  N   UNL A   1      35.897  33.040  32.965  1.00  0.00    -0.352 N 
ATOM      4  C   UNL A   1      36.598  32.825  34.108  1.00  0.00     0.251 C 
ATOM      5  O   UNL A   1      36.066  33.232  35.145  1.00  0.00    -0.269 OA
ATOM      6  H   UNL A   1      35.063  33.541  33.116  1.00  0.00     0.163 HD
BRANCH   4   7
ATOM      7  C   UNL A   1      37.981  32.213  34.143  1.00  0.00     0.047 C 
ATOM      8  C   UNL A   1      38.176  30.890  34.348  1.00  0.00     0.022 C 
BRANCH   8   9
ATOM      9  C   UNL A   1      39.421  30.088  34.274  1.00  0.00    -0.025 A 
ATOM     10  C   UNL A   1      41.818  28.686  33.861  1.00  0.00     0.067 A 
ATOM     11  C   UNL A   1      41.654  29.454  35.011  1.00  0.00     0.021 A 
ATOM     12  C   UNL A   1      40.786  28.574  32.929  1.00  0.00     0.021 A 
ATOM     13  C   UNL A   1      40.442  30.117  35.231  1.00  0.00     0.009 A 
ATOM     14  C   UNL A   1      39.593  29.272  33.141  1.00  0.00     0.009 A 
BRANCH  10  15
ATOM     15  S   UNL A   1      43.372  27.885  33.543  1.00  0.00     0.175 S 
ATOM     16  C   UNL A   1      43.348  26.505  34.656  1.00  0.00     0.163 C 
ATOM     17  O   UNL A   1      44.428  28.782  33.966  1.00  0.00    -0.224 OA
ATOM     18  O   UNL A   1      43.325  27.375  32.186  1.00  0.00    -0.224 OA
ENDBRANCH  10  15
ENDBRANCH   8   9
BRANCH   7  19
ATOM     19  C   UNL A   1      39.126  33.160  34.124  1.00  0.00    -0.012 A 
ATOM     20  C   UNL A   1      39.740  33.437  32.888  1.00  0.00     0.009 A 
ATOM     21  C   UNL A   1      39.542  33.866  35.260  1.00  0.00     0.024 A 
ATOM     22  C   UNL A   1      40.717  34.425  32.776  1.00  0.00     0.002 A 
ATOM     23  C   UNL A   1      40.497  34.878  35.132  1.00  0.00     0.018 A 
ATOM     24  C   UNL A   1      41.083  35.161  33.898  1.00  0.00     0.016 A 
ATOM     25  Br  UNL A   1      40.950  35.930  36.637  1.00  0.00    -0.051 Br
ENDBRANCH   7  19
ENDBRANCH   4   7
ENDBRANCH   2   3
ENDBRANCH   1   2
BRANCH   1  26
ATOM     26  C   UNL A   1      34.924  32.641  29.308  1.00  0.00     0.118 C 
BRANCH  26  27
ATOM     27  N   UNL A   1      34.223  31.520  28.699  1.00  0.00    -0.352 N 
ATOM     28  C   UNL A   1      34.716  30.366  28.147  1.00  0.00     0.251 C 
ATOM     29  H   UNL A   1      33.242  31.603  28.682  1.00  0.00     0.163 HD
ATOM     30  O   UNL A   1      33.980  29.661  27.461  1.00  0.00    -0.269 OA
BRANCH  28  31
ATOM     31  C   UNL A   1      36.121  29.966  28.367  1.00  0.00     0.039 A 
ATOM     32  C   UNL A   1      36.483  29.430  29.608  1.00  0.00     0.014 A 
ATOM     33  C   UNL A   1      37.091  30.165  27.382  1.00  0.00     0.014 A 
ATOM     34  C   UNL A   1      37.808  29.057  29.841  1.00  0.00     0.010 A 
ATOM     35  C   UNL A   1      38.393  29.718  27.587  1.00  0.00     0.010 A 
ATOM     36  C   UNL A   1      38.769  29.173  28.825  1.00  0.00    -0.014 A 
BRANCH  36  37
ATOM     37  C   UNL A   1      40.177  28.756  29.043  1.00  0.00     0.031 A 
ATOM     38  C   UNL A   1      41.156  29.710  29.674  1.00  0.00     0.074 A 
ATOM     39  C   UNL A   1      40.587  27.543  28.624  1.00  0.00     0.049 A 
ATOM     40  N   UNL A   1      42.441  29.562  29.879  1.00  0.00    -0.248 NA
ATOM     41  C   UNL A   1      40.628  31.014  30.108  1.00  0.00     0.031 C 
ATOM     42  C   UNL A   1      39.744  26.546  27.963  1.00  0.00     0.029 A 
ATOM     43  N   UNL A   1      41.822  26.947  28.681  1.00  0.00    -0.354 N 
ATOM     44  C   UNL A   1      42.873  30.753  30.447  1.00  0.00     0.074 A 
ATOM     45  C   UNL A   1      41.729  31.635  30.504  1.00  0.00     0.031 C 
ATOM     46  C   UNL A   1      40.479  25.454  27.697  1.00  0.00     0.029 A 
ATOM     47  C   UNL A   1      41.853  25.689  28.126  1.00  0.00     0.049 A 
ATOM     48  H   UNL A   1      42.611  27.378  29.083  1.00  0.00     0.167 HD
ATOM     49  C   UNL A   1      44.108  31.075  30.902  1.00  0.00     0.037 A 
ATOM     50  C   UNL A   1      42.878  24.830  27.971  1.00  0.00     0.037 A 
ATOM     51  C   UNL A   1      45.237  30.185  30.867  1.00  0.00     0.049 A 
ATOM     52  C   UNL A   1      44.243  25.220  28.473  1.00  0.00     0.074 A 
ATOM     53  C   UNL A   1      46.516  30.396  31.353  1.00  0.00     0.029 A 
ATOM     54  N   UNL A   1      45.224  28.913  30.314  1.00  0.00    -0.354 N 
ATOM     55  N   UNL A   1      44.622  26.325  29.067  1.00  0.00    -0.248 NA
ATOM     56  C   UNL A   1      45.320  24.237  28.292  1.00  0.00     0.031 C 
ATOM     57  C   UNL A   1      47.291  29.273  31.046  1.00  0.00     0.029 A 
ATOM     58  C   UNL A   1      46.478  28.337  30.426  1.00  0.00     0.049 A 
ATOM     59  H   UNL A   1      44.439  28.484  29.903  1.00  0.00     0.167 HD
ATOM     60  C   UNL A   1      45.967  26.156  29.365  1.00  0.00     0.074 A 
ATOM     61  C   UNL A   1      46.335  24.836  28.897  1.00  0.00     0.031 C 
ATOM     62  C   UNL A   1      46.823  27.014  29.972  1.00  0.00     0.037 A 
BRANCH  49  63
ATOM     63  C   UNL A   1      44.304  32.448  31.481  1.00  0.00     0.057 A 
ATOM     64  C   UNL A   1      44.093  32.716  32.841  1.00  0.00     0.134 A 
ATOM     65  C   UNL A   1      44.761  33.502  30.680  1.00  0.00     0.134 A 
ATOM     66  F   UNL A   1      43.644  31.755  33.662  1.00  0.00    -0.206 F 
ATOM     67  C   UNL A   1      44.307  33.987  33.377  1.00  0.00     0.040 A 
ATOM     68  C   UNL A   1      45.008  34.770  31.212  1.00  0.00     0.040 A 
ATOM     69  F   UNL A   1      44.991  33.315  29.372  1.00  0.00    -0.206 F 
ATOM     70  C   UNL A   1      44.776  35.016  32.563  1.00  0.00     0.006 A 
ENDBRANCH  49  63
BRANCH  50  71
ATOM     71  C   UNL A   1      42.661  23.511  27.321  1.00  0.00     0.057 A 
ATOM     72  C   UNL A   1      42.293  22.387  28.072  1.00  0.00     0.134 A 
ATOM     73  C   UNL A   1      42.846  23.332  25.945  1.00  0.00     0.134 A 
ATOM     74  F   UNL A   1      42.115  22.489  29.397  1.00  0.00    -0.206 F 
ATOM     75  C   UNL A   1      42.150  21.129  27.485  1.00  0.00     0.040 A 
ATOM     76  C   UNL A   1      42.677  22.086  25.340  1.00  0.00     0.040 A 
ATOM     77  F   UNL A   1      43.188  24.369  25.167  1.00  0.00    -0.206 F 
ATOM     78  C   UNL A   1      42.339  20.977  26.112  1.00  0.00     0.006 A 
ENDBRANCH  50  71
BRANCH  62  79
ATOM     79  C   UNL A   1      48.224  26.533  30.220  1.00  0.00     0.057 A 
ATOM     80  C   UNL A   1      49.272  26.795  29.327  1.00  0.00     0.134 A 
ATOM     81  C   UNL A   1      48.534  25.831  31.392  1.00  0.00     0.134 A 
ATOM     82  F   UNL A   1      49.040  27.454  28.181  1.00  0.00    -0.206 F 
ATOM     83  C   UNL A   1      50.571  26.352  29.579  1.00  0.00     0.040 A 
ATOM     84  C   UNL A   1      49.835  25.411  31.669  1.00  0.00     0.040 A 
ATOM     85  F   UNL A   1      47.581  25.556  32.295  1.00  0.00    -0.206 F 
ATOM     86  C   UNL A   1      50.857  25.664  30.758  1.00  0.00     0.006 A 
ENDBRANCH  62  79
ENDBRANCH  36  37
ENDBRANCH  28  31
ENDBRANCH  26  27
ENDBRANCH   1  26
TORSDOF 13
ENDMDL
MODEL 3
REMARK VINA RESULT:     -11.6      3.558      7.287
REMARK SMILES CS(=O)(=O)c1ccc(/C=C(/C(=O)NCCCNC(=O)c2ccc(-c3c4nc(c(-c5c(F)cccc5F)c5ccc([nH]5)c(-c5c(F)cccc5F)c5nc(c(-c6c(F)cccc6F)c6ccc3[nH]6)C=C5)C=C4)cc2)c2cccc(Br)c2)cc1
REMARK SMILES IDX 15 1 14 2 13 3 11 4 12 5 10 7 9 8 8 9 5 10 6 11 82 12 7 13
REMARK SMILES IDX 81 14 2 15 1 16 3 17 4 18 74 19 75 20 80 21 76 22 78 23
REMARK SMILES IDX 77 24 79 25 16 26 17 27 18 28 19 30 20 31 21 32 73 33 22 34
REMARK SMILES IDX 72 35 23 36 24 37 25 38 66 39 26 40 71 41 65 42 67 43 27 44
REMARK SMILES IDX 70 45 64 46 63 47 28 49 54 50 37 51 53 52 38 53 41 54 52 55
REMARK SMILES IDX 68 56 39 57 40 58 51 60 69 61 42 62 29 63 30 64 35 65 31 66
REMARK SMILES IDX 32 67 34 68 36 69 33 70 55 71 56 72 61 73 57 74 58 75 60 76
REMARK SMILES IDX 62 77 59 78 43 79 44 80 49 81 45 82 46 83 48 84 50 85 47 86
REMARK H PARENT 13 6 17 29 67 48 41 59
REMARK Flexibility Score: inf
ROOT
ATOM      1  C   UNL A   1      32.553  27.508  26.395  1.00  0.00     0.042 C 
ENDROOT
BRANCH   1   2
ATOM      2  C   UNL A   1      32.706  26.070  25.896  1.00  0.00     0.118 C 
BRANCH   2   3
ATOM      3  N   UNL A   1      33.130  26.061  24.509  1.00  0.00    -0.352 N 
ATOM      4  C   UNL A   1      33.681  25.125  23.693  1.00  0.00     0.251 C 
ATOM      5  O   UNL A   1      33.963  25.508  22.555  1.00  0.00    -0.269 OA
ATOM      6  H   UNL A   1      32.987  26.924  24.058  1.00  0.00     0.163 HD
BRANCH   4   7
ATOM      7  C   UNL A   1      33.868  23.675  24.084  1.00  0.00     0.047 C 
ATOM      8  C   UNL A   1      32.829  22.811  24.152  1.00  0.00     0.022 C 
BRANCH   8   9
ATOM      9  C   UNL A   1      32.824  21.344  24.369  1.00  0.00    -0.025 A 
ATOM     10  C   UNL A   1      32.985  18.546  24.535  1.00  0.00     0.067 A 
ATOM     11  C   UNL A   1      33.312  19.326  25.643  1.00  0.00     0.021 A 
ATOM     12  C   UNL A   1      32.539  19.140  23.355  1.00  0.00     0.021 A 
ATOM     13  C   UNL A   1      33.190  20.718  25.566  1.00  0.00     0.009 A 
ATOM     14  C   UNL A   1      32.458  20.534  23.278  1.00  0.00     0.009 A 
BRANCH  10  15
ATOM     15  S   UNL A   1      33.189  16.782  24.602  1.00  0.00     0.175 S 
ATOM     16  C   UNL A   1      34.773  16.589  25.376  1.00  0.00     0.163 C 
ATOM     17  O   UNL A   1      33.293  16.295  23.241  1.00  0.00    -0.224 OA
ATOM     18  O   UNL A   1      32.177  16.265  25.505  1.00  0.00    -0.224 OA
ENDBRANCH  10  15
ENDBRANCH   8   9
BRANCH   7  19
ATOM     19  C   UNL A   1      35.218  23.286  24.567  1.00  0.00    -0.012 A 
ATOM     20  C   UNL A   1      35.905  24.177  25.412  1.00  0.00     0.009 A 
ATOM     21  C   UNL A   1      35.781  22.031  24.305  1.00  0.00     0.024 A 
ATOM     22  C   UNL A   1      37.106  23.811  26.019  1.00  0.00     0.002 A 
ATOM     23  C   UNL A   1      36.967  21.659  24.944  1.00  0.00     0.018 A 
ATOM     24  C   UNL A   1      37.629  22.541  25.800  1.00  0.00     0.016 A 
ATOM     25  Br  UNL A   1      37.648  19.911  24.707  1.00  0.00    -0.051 Br
ENDBRANCH   7  19
ENDBRANCH   4   7
ENDBRANCH   2   3
ENDBRANCH   1   2
BRANCH   1  26
ATOM     26  C   UNL A   1      33.888  28.178  26.719  1.00  0.00     0.118 C 
BRANCH  26  27
ATOM     27  N   UNL A   1      33.713  29.550  27.174  1.00  0.00    -0.352 N 
ATOM     28  C   UNL A   1      34.531  30.336  27.945  1.00  0.00     0.251 C 
ATOM     29  H   UNL A   1      32.877  29.980  26.883  1.00  0.00     0.163 HD
ATOM     30  O   UNL A   1      34.092  31.376  28.427  1.00  0.00    -0.269 OA
BRANCH  28  31
ATOM     31  C   UNL A   1      35.933  29.941  28.200  1.00  0.00     0.039 A 
ATOM     32  C   UNL A   1      36.264  29.399  29.446  1.00  0.00     0.014 A 
ATOM     33  C   UNL A   1      36.927  30.152  27.242  1.00  0.00     0.014 A 
ATOM     34  C   UNL A   1      37.585  29.031  29.711  1.00  0.00     0.010 A 
ATOM     35  C   UNL A   1      38.226  29.710  27.478  1.00  0.00     0.010 A 
ATOM     36  C   UNL A   1      38.571  29.159  28.722  1.00  0.00    -0.014 A 
BRANCH  36  37
ATOM     37  C   UNL A   1      39.976  28.748  28.975  1.00  0.00     0.031 A 
ATOM     38  C   UNL A   1      40.937  29.707  29.624  1.00  0.00     0.074 A 
ATOM     39  C   UNL A   1      40.399  27.534  28.571  1.00  0.00     0.049 A 
ATOM     40  N   UNL A   1      42.217  29.565  29.859  1.00  0.00    -0.248 NA
ATOM     41  C   UNL A   1      40.395  31.012  30.039  1.00  0.00     0.031 C 
ATOM     42  C   UNL A   1      39.575  26.530  27.895  1.00  0.00     0.029 A 
ATOM     43  N   UNL A   1      41.635  26.942  28.659  1.00  0.00    -0.354 N 
ATOM     44  C   UNL A   1      42.632  30.760  30.431  1.00  0.00     0.074 A 
ATOM     45  C   UNL A   1      41.484  31.638  30.458  1.00  0.00     0.031 C 
ATOM     46  C   UNL A   1      40.320  25.440  27.651  1.00  0.00     0.029 A 
ATOM     47  C   UNL A   1      41.682  25.682  28.111  1.00  0.00     0.049 A 
ATOM     48  H   UNL A   1      42.412  27.378  29.077  1.00  0.00     0.167 HD
ATOM     49  C   UNL A   1      43.855  31.088  30.913  1.00  0.00     0.037 A 
ATOM     50  C   UNL A   1      42.713  24.826  27.983  1.00  0.00     0.037 A 
ATOM     51  C   UNL A   1      44.988  30.202  30.908  1.00  0.00     0.049 A 
ATOM     52  C   UNL A   1      44.064  25.222  28.515  1.00  0.00     0.074 A 
ATOM     53  C   UNL A   1      46.254  30.419  31.422  1.00  0.00     0.029 A 
ATOM     54  N   UNL A   1      44.991  28.927  30.361  1.00  0.00    -0.354 N 
ATOM     55  N   UNL A   1      44.426  26.332  29.113  1.00  0.00    -0.248 NA
ATOM     56  C   UNL A   1      45.149  24.242  28.364  1.00  0.00     0.031 C 
ATOM     57  C   UNL A   1      47.040  29.298  31.139  1.00  0.00     0.029 A 
ATOM     58  C   UNL A   1      46.244  28.356  30.505  1.00  0.00     0.049 A 
ATOM     59  H   UNL A   1      44.218  28.493  29.934  1.00  0.00     0.167 HD
ATOM     60  C   UNL A   1      45.765  26.168  29.443  1.00  0.00     0.074 A 
ATOM     61  C   UNL A   1      46.148  24.847  28.990  1.00  0.00     0.031 C 
ATOM     62  C   UNL A   1      46.604  27.032  30.065  1.00  0.00     0.037 A 
BRANCH  49  63
ATOM     63  C   UNL A   1      44.033  32.464  31.489  1.00  0.00     0.057 A 
ATOM     64  C   UNL A   1      44.391  33.561  30.693  1.00  0.00     0.134 A 
ATOM     65  C   UNL A   1      43.792  32.707  32.848  1.00  0.00     0.134 A 
ATOM     66  F   UNL A   1      44.648  33.397  29.386  1.00  0.00    -0.206 F 
ATOM     67  C   UNL A   1      44.525  34.842  31.230  1.00  0.00     0.040 A 
ATOM     68  C   UNL A   1      43.893  33.990  33.390  1.00  0.00     0.040 A 
ATOM     69  F   UNL A   1      43.439  31.706  33.667  1.00  0.00    -0.206 F 
ATOM     70  C   UNL A   1      44.265  35.061  32.581  1.00  0.00     0.006 A 
ENDBRANCH  49  63
BRANCH  50  71
ATOM     71  C   UNL A   1      42.515  23.503  27.336  1.00  0.00     0.057 A 
ATOM     72  C   UNL A   1      42.147  22.378  28.085  1.00  0.00     0.134 A 
ATOM     73  C   UNL A   1      42.720  23.321  25.963  1.00  0.00     0.134 A 
ATOM     74  F   UNL A   1      41.951  22.482  29.408  1.00  0.00    -0.206 F 
ATOM     75  C   UNL A   1      42.022  21.117  27.500  1.00  0.00     0.040 A 
ATOM     76  C   UNL A   1      42.569  22.071  25.359  1.00  0.00     0.040 A 
ATOM     77  F   UNL A   1      43.064  24.359  25.185  1.00  0.00    -0.206 F 
ATOM     78  C   UNL A   1      42.230  20.962  26.131  1.00  0.00     0.006 A 
ENDBRANCH  50  71
BRANCH  62  79
ATOM     79  C   UNL A   1      48.001  26.557  30.348  1.00  0.00     0.057 A 
ATOM     80  C   UNL A   1      48.336  25.889  31.532  1.00  0.00     0.134 A 
ATOM     81  C   UNL A   1      49.015  26.738  29.398  1.00  0.00     0.134 A 
ATOM     82  F   UNL A   1      47.414  25.693  32.488  1.00  0.00    -0.206 F 
ATOM     83  C   UNL A   1      49.636  25.442  31.774  1.00  0.00     0.040 A 
ATOM     84  C   UNL A   1      50.310  26.268  29.615  1.00  0.00     0.040 A 
ATOM     85  F   UNL A   1      48.760  27.360  28.238  1.00  0.00    -0.206 F 
ATOM     86  C   UNL A   1      50.626  25.625  30.809  1.00  0.00     0.006 A 
ENDBRANCH  62  79
ENDBRANCH  36  37
ENDBRANCH  28  31
ENDBRANCH  26  27
ENDBRANCH   1  26
TORSDOF 13
ENDMDL
