MODEL 1
REMARK VINA RESULT:     -11.1      0.000      0.000
REMARK SMILES Cc1ccc(C)c([C@@H](C)[N@@H+](CC(=O)NCCCNC(=O)c2ccc(-c3c4nc(c(-c5c(F)cccc5F)c5ccc([nH]5)c(-c5c(F)cccc5F)c5nc(c(-c6c(F)cccc6F)c6ccc3[nH]6)C=C5)C=C4)cc2)CC(F)(F)F)c1
REMARK SMILES IDX 15 1 14 2 12 3 13 4 11 6 10 7 8 9 9 10 7 11 1 12 2 13 3 14
REMARK SMILES IDX 80 15 4 16 5 17 6 18 75 19 76 20 77 21 78 22 79 23 16 24
REMARK SMILES IDX 17 25 18 26 19 27 20 29 21 30 22 31 74 32 23 33 73 34 24 35
REMARK SMILES IDX 25 36 26 37 67 38 27 39 72 40 66 41 68 42 28 43 71 44 65 45
REMARK SMILES IDX 64 46 29 48 55 49 38 50 54 51 39 52 42 53 53 54 69 55 40 56
REMARK SMILES IDX 41 57 52 59 70 60 43 61 30 62 31 63 36 64 32 65 33 66 35 67
REMARK SMILES IDX 37 68 34 69 56 70 57 71 62 72 58 73 59 74 61 75 63 76 60 77
REMARK SMILES IDX 44 78 45 79 50 80 46 81 47 82 49 83 51 84 48 85
REMARK H PARENT 14 5 10 8 18 28 68 47 42 58
REMARK Flexibility Score: inf
ROOT
ATOM      1  C   UNL A   1      32.748  30.147  26.518  1.00  0.00     0.118 C 
ENDROOT
BRANCH   1   2
ATOM      2  N   UNL A   1      31.784  29.077  26.740  1.00  0.00    -0.351 N 
ATOM      3  C   UNL A   1      31.909  27.721  26.840  1.00  0.00     0.275 C 
ATOM      4  O   UNL A   1      30.925  27.105  27.258  1.00  0.00    -0.269 OA
ATOM      5  H   UNL A   1      30.858  29.395  26.835  1.00  0.00     0.163 HD
BRANCH   3   6
ATOM      6  C   UNL A   1      33.176  26.983  26.395  1.00  0.00     0.364 C 
BRANCH   6   7
ATOM      7  N   UNL A   1      33.051  26.265  25.099  1.00  0.00    -0.314 N 
ATOM      8  H   UNL A   1      32.092  26.416  24.784  1.00  0.00     0.349 HD
BRANCH   7   9
ATOM      9  C   UNL A   1      33.023  24.800  25.213  1.00  0.00     0.212 C 
ATOM     10  C   UNL A   1      32.327  24.166  26.426  1.00  0.00     0.081 C 
BRANCH   9  11
ATOM     11  C   UNL A   1      34.306  24.055  24.802  1.00  0.00     0.012 A 
ATOM     12  C   UNL A   1      37.885  23.994  26.229  1.00  0.00     0.044 C 
ATOM     13  C   UNL A   1      36.707  23.755  25.331  1.00  0.00    -0.051 A 
ATOM     14  C   UNL A   1      36.903  23.167  24.086  1.00  0.00     0.004 A 
ATOM     15  C   UNL A   1      35.414  24.163  25.688  1.00  0.00     0.013 A 
ATOM     16  C   UNL A   1      35.822  22.977  23.229  1.00  0.00     0.004 A 
ATOM     17  C   UNL A   1      34.521  23.403  23.568  1.00  0.00    -0.042 A 
ATOM     18  C   UNL A   1      33.480  23.174  22.507  1.00  0.00     0.045 C 
ENDBRANCH   9  11
ENDBRANCH   7   9
BRANCH   7  19
ATOM     19  C   UNL A   1      33.742  26.900  23.958  1.00  0.00     0.380 C 
BRANCH  19  20
ATOM     20  C   UNL A   1      33.165  27.071  22.531  1.00  0.00     0.438 C 
ATOM     21  F   UNL A   1      31.829  26.912  22.472  1.00  0.00    -0.165 F 
ATOM     22  F   UNL A   1      33.418  28.337  22.099  1.00  0.00    -0.165 F 
ATOM     23  F   UNL A   1      33.741  26.242  21.640  1.00  0.00    -0.165 F 
ENDBRANCH  19  20
ENDBRANCH   7  19
ENDBRANCH   6   7
ENDBRANCH   3   6
ENDBRANCH   1   2
BRANCH   1  24
ATOM     24  C   UNL A   1      33.848  30.312  27.577  1.00  0.00     0.042 C 
BRANCH  24  25
ATOM     25  C   UNL A   1      34.400  31.718  27.768  1.00  0.00     0.118 C 
BRANCH  25  26
ATOM     26  N   UNL A   1      34.354  32.264  29.113  1.00  0.00    -0.352 N 
ATOM     27  C   UNL A   1      35.221  31.975  30.154  1.00  0.00     0.251 C 
ATOM     28  H   UNL A   1      33.631  32.904  29.306  1.00  0.00     0.163 HD
ATOM     29  O   UNL A   1      35.049  32.471  31.266  1.00  0.00    -0.269 OA
BRANCH  27  30
ATOM     30  C   UNL A   1      36.423  31.153  29.883  1.00  0.00     0.039 A 
ATOM     31  C   UNL A   1      36.360  29.784  30.155  1.00  0.00     0.014 A 
ATOM     32  C   UNL A   1      37.634  31.737  29.500  1.00  0.00     0.014 A 
ATOM     33  C   UNL A   1      37.538  29.047  30.207  1.00  0.00     0.010 A 
ATOM     34  C   UNL A   1      38.816  31.031  29.642  1.00  0.00     0.010 A 
ATOM     35  C   UNL A   1      38.768  29.693  30.024  1.00  0.00    -0.014 A 
BRANCH  35  36
ATOM     36  C   UNL A   1      39.991  28.903  30.022  1.00  0.00     0.031 A 
ATOM     37  C   UNL A   1      40.604  28.758  31.361  1.00  0.00     0.074 A 
ATOM     38  C   UNL A   1      40.471  28.197  28.980  1.00  0.00     0.049 A 
ATOM     39  N   UNL A   1      41.641  29.369  31.828  1.00  0.00    -0.248 NA
ATOM     40  C   UNL A   1      39.898  27.927  32.349  1.00  0.00     0.031 C 
ATOM     41  C   UNL A   1      39.794  27.895  27.719  1.00  0.00     0.029 A 
ATOM     42  N   UNL A   1      41.659  27.524  28.876  1.00  0.00    -0.354 N 
ATOM     43  C   UNL A   1      41.837  28.836  33.098  1.00  0.00     0.074 A 
ATOM     44  C   UNL A   1      40.625  28.148  33.445  1.00  0.00     0.031 C 
ATOM     45  C   UNL A   1      40.505  26.957  27.049  1.00  0.00     0.029 A 
ATOM     46  C   UNL A   1      41.749  26.702  27.761  1.00  0.00     0.049 A 
ATOM     47  H   UNL A   1      42.385  27.615  29.533  1.00  0.00     0.167 HD
ATOM     48  C   UNL A   1      43.085  28.727  33.627  1.00  0.00     0.037 A 
ATOM     49  C   UNL A   1      42.764  25.858  27.450  1.00  0.00     0.037 A 
ATOM     50  C   UNL A   1      44.052  29.452  32.845  1.00  0.00     0.049 A 
ATOM     51  C   UNL A   1      43.978  26.284  28.184  1.00  0.00     0.074 A 
ATOM     52  C   UNL A   1      44.447  30.759  32.674  1.00  0.00     0.029 A 
ATOM     53  N   UNL A   1      44.561  28.731  31.800  1.00  0.00    -0.354 N 
ATOM     54  N   UNL A   1      44.637  27.377  27.927  1.00  0.00    -0.248 NA
ATOM     55  C   UNL A   1      44.345  25.615  29.430  1.00  0.00     0.031 C 
ATOM     56  C   UNL A   1      45.098  30.820  31.404  1.00  0.00     0.029 A 
ATOM     57  C   UNL A   1      45.086  29.549  30.836  1.00  0.00     0.049 A 
ATOM     58  H   UNL A   1      44.550  27.748  31.747  1.00  0.00     0.167 HD
ATOM     59  C   UNL A   1      45.165  27.751  29.144  1.00  0.00     0.074 A 
ATOM     60  C   UNL A   1      45.126  26.555  29.970  1.00  0.00     0.031 C 
ATOM     61  C   UNL A   1      45.257  29.067  29.487  1.00  0.00     0.037 A 
BRANCH  48  62
ATOM     62  C   UNL A   1      43.537  27.606  34.537  1.00  0.00     0.057 A 
ATOM     63  C   UNL A   1      43.948  27.919  35.845  1.00  0.00     0.134 A 
ATOM     64  C   UNL A   1      43.867  26.305  34.104  1.00  0.00     0.134 A 
ATOM     65  F   UNL A   1      43.719  29.134  36.366  1.00  0.00    -0.206 F 
ATOM     66  C   UNL A   1      44.677  27.024  36.640  1.00  0.00     0.040 A 
ATOM     67  C   UNL A   1      44.543  25.384  34.910  1.00  0.00     0.040 A 
ATOM     68  F   UNL A   1      43.658  25.888  32.849  1.00  0.00    -0.206 F 
ATOM     69  C   UNL A   1      44.977  25.751  36.172  1.00  0.00     0.006 A 
ENDBRANCH  48  62
BRANCH  49  70
ATOM     70  C   UNL A   1      42.755  24.614  26.654  1.00  0.00     0.057 A 
ATOM     71  C   UNL A   1      43.386  24.542  25.403  1.00  0.00     0.134 A 
ATOM     72  C   UNL A   1      42.370  23.392  27.226  1.00  0.00     0.134 A 
ATOM     73  F   UNL A   1      43.821  25.653  24.792  1.00  0.00    -0.206 F 
ATOM     74  C   UNL A   1      43.650  23.320  24.771  1.00  0.00     0.040 A 
ATOM     75  C   UNL A   1      42.620  22.166  26.603  1.00  0.00     0.040 A 
ATOM     76  F   UNL A   1      41.826  23.346  28.451  1.00  0.00    -0.206 F 
ATOM     77  C   UNL A   1      43.278  22.126  25.378  1.00  0.00     0.006 A 
ENDBRANCH  49  70
BRANCH  61  78
ATOM     78  C   UNL A   1      45.332  30.055  28.368  1.00  0.00     0.057 A 
ATOM     79  C   UNL A   1      44.221  30.707  27.817  1.00  0.00     0.134 A 
ATOM     80  C   UNL A   1      46.590  30.388  27.854  1.00  0.00     0.134 A 
ATOM     81  F   UNL A   1      42.988  30.505  28.300  1.00  0.00    -0.206 F 
ATOM     82  C   UNL A   1      44.355  31.614  26.762  1.00  0.00     0.040 A 
ATOM     83  C   UNL A   1      46.741  31.316  26.825  1.00  0.00     0.040 A 
ATOM     84  F   UNL A   1      47.698  29.828  28.364  1.00  0.00    -0.206 F 
ATOM     85  C   UNL A   1      45.619  31.923  26.265  1.00  0.00     0.006 A 
ENDBRANCH  61  78
ENDBRANCH  35  36
ENDBRANCH  27  30
ENDBRANCH  25  26
ENDBRANCH  24  25
ENDBRANCH   1  24
TORSDOF 15
ENDMDL
MODEL 2
REMARK VINA RESULT:     -11.0      0.954      1.668
REMARK SMILES Cc1ccc(C)c([C@@H](C)[N@@H+](CC(=O)NCCCNC(=O)c2ccc(-c3c4nc(c(-c5c(F)cccc5F)c5ccc([nH]5)c(-c5c(F)cccc5F)c5nc(c(-c6c(F)cccc6F)c6ccc3[nH]6)C=C5)C=C4)cc2)CC(F)(F)F)c1
REMARK SMILES IDX 15 1 14 2 12 3 13 4 11 6 10 7 8 9 9 10 7 11 1 12 2 13 3 14
REMARK SMILES IDX 80 15 4 16 5 17 6 18 75 19 76 20 77 21 78 22 79 23 16 24
REMARK SMILES IDX 17 25 18 26 19 27 20 29 21 30 22 31 74 32 23 33 73 34 24 35
REMARK SMILES IDX 25 36 26 37 67 38 27 39 72 40 66 41 68 42 28 43 71 44 65 45
REMARK SMILES IDX 64 46 29 48 55 49 38 50 54 51 39 52 42 53 53 54 69 55 40 56
REMARK SMILES IDX 41 57 52 59 70 60 43 61 30 62 31 63 36 64 32 65 33 66 35 67
REMARK SMILES IDX 37 68 34 69 56 70 57 71 62 72 58 73 59 74 61 75 63 76 60 77
REMARK SMILES IDX 44 78 45 79 50 80 46 81 47 82 49 83 51 84 48 85
REMARK H PARENT 14 5 10 8 18 28 68 47 42 58
REMARK Flexibility Score: inf
ROOT
ATOM      1  C   UNL A   1      32.577  30.624  26.901  1.00  0.00     0.118 C 
ENDROOT
BRANCH   1   2
ATOM      2  N   UNL A   1      31.764  29.465  27.248  1.00  0.00    -0.351 N 
ATOM      3  C   UNL A   1      31.750  28.173  26.804  1.00  0.00     0.275 C 
ATOM      4  O   UNL A   1      31.086  27.370  27.464  1.00  0.00    -0.269 OA
ATOM      5  H   UNL A   1      31.090  29.650  27.941  1.00  0.00     0.163 HD
BRANCH   3   6
ATOM      6  C   UNL A   1      32.461  27.746  25.515  1.00  0.00     0.364 C 
BRANCH   6   7
ATOM      7  N   UNL A   1      31.695  26.789  24.674  1.00  0.00    -0.314 N 
ATOM      8  H   UNL A   1      31.113  26.252  25.317  1.00  0.00     0.349 HD
BRANCH   7   9
ATOM      9  C   UNL A   1      32.494  25.689  24.118  1.00  0.00     0.212 C 
ATOM     10  C   UNL A   1      31.909  24.859  22.967  1.00  0.00     0.081 C 
BRANCH   9  11
ATOM     11  C   UNL A   1      33.285  24.836  25.128  1.00  0.00     0.012 A 
ATOM     12  C   UNL A   1      36.963  23.701  25.301  1.00  0.00     0.044 C 
ATOM     13  C   UNL A   1      35.502  23.844  25.611  1.00  0.00    -0.051 A 
ATOM     14  C   UNL A   1      34.915  23.002  26.550  1.00  0.00     0.004 A 
ATOM     15  C   UNL A   1      34.693  24.768  24.935  1.00  0.00     0.013 A 
ATOM     16  C   UNL A   1      33.552  23.099  26.815  1.00  0.00     0.004 A 
ATOM     17  C   UNL A   1      32.724  24.010  26.126  1.00  0.00    -0.042 A 
ATOM     18  C   UNL A   1      31.267  23.947  26.492  1.00  0.00     0.045 C 
ENDBRANCH   9  11
ENDBRANCH   7   9
BRANCH   7  19
ATOM     19  C   UNL A   1      30.610  27.389  23.870  1.00  0.00     0.380 C 
BRANCH  19  20
ATOM     20  C   UNL A   1      30.698  28.716  23.075  1.00  0.00     0.438 C 
ATOM     21  F   UNL A   1      30.523  29.809  23.840  1.00  0.00    -0.165 F 
ATOM     22  F   UNL A   1      31.941  28.824  22.531  1.00  0.00    -0.165 F 
ATOM     23  F   UNL A   1      29.828  28.759  22.048  1.00  0.00    -0.165 F 
ENDBRANCH  19  20
ENDBRANCH   7  19
ENDBRANCH   6   7
ENDBRANCH   3   6
ENDBRANCH   1   2
BRANCH   1  24
ATOM     24  C   UNL A   1      34.019  30.635  27.430  1.00  0.00     0.042 C 
BRANCH  24  25
ATOM     25  C   UNL A   1      34.586  31.993  27.822  1.00  0.00     0.118 C 
BRANCH  25  26
ATOM     26  N   UNL A   1      34.437  32.389  29.211  1.00  0.00    -0.352 N 
ATOM     27  C   UNL A   1      35.198  31.953  30.283  1.00  0.00     0.251 C 
ATOM     28  H   UNL A   1      33.720  33.034  29.413  1.00  0.00     0.163 HD
ATOM     29  O   UNL A   1      34.944  32.331  31.425  1.00  0.00    -0.269 OA
BRANCH  27  30
ATOM     30  C   UNL A   1      36.394  31.117  30.024  1.00  0.00     0.039 A 
ATOM     31  C   UNL A   1      36.281  29.735  30.197  1.00  0.00     0.014 A 
ATOM     32  C   UNL A   1      37.639  31.691  29.750  1.00  0.00     0.014 A 
ATOM     33  C   UNL A   1      37.436  28.964  30.265  1.00  0.00     0.010 A 
ATOM     34  C   UNL A   1      38.792  30.944  29.911  1.00  0.00     0.010 A 
ATOM     35  C   UNL A   1      38.690  29.585  30.196  1.00  0.00    -0.014 A 
BRANCH  35  36
ATOM     36  C   UNL A   1      39.891  28.763  30.208  1.00  0.00     0.031 A 
ATOM     37  C   UNL A   1      40.503  28.629  31.549  1.00  0.00     0.074 A 
ATOM     38  C   UNL A   1      40.350  28.023  29.181  1.00  0.00     0.049 A 
ATOM     39  N   UNL A   1      41.557  29.222  32.001  1.00  0.00    -0.248 NA
ATOM     40  C   UNL A   1      39.778  27.839  32.555  1.00  0.00     0.031 C 
ATOM     41  C   UNL A   1      39.662  27.712  27.928  1.00  0.00     0.029 A 
ATOM     42  N   UNL A   1      41.519  27.315  29.089  1.00  0.00    -0.354 N 
ATOM     43  C   UNL A   1      41.742  28.711  33.282  1.00  0.00     0.074 A 
ATOM     44  C   UNL A   1      40.513  28.063  33.646  1.00  0.00     0.031 C 
ATOM     45  C   UNL A   1      40.346  26.742  27.276  1.00  0.00     0.029 A 
ATOM     46  C   UNL A   1      41.585  26.468  27.991  1.00  0.00     0.049 A 
ATOM     47  H   UNL A   1      42.249  27.401  29.743  1.00  0.00     0.167 HD
ATOM     48  C   UNL A   1      42.988  28.579  33.811  1.00  0.00     0.037 A 
ATOM     49  C   UNL A   1      42.576  25.591  27.697  1.00  0.00     0.037 A 
ATOM     50  C   UNL A   1      43.972  29.261  33.012  1.00  0.00     0.049 A 
ATOM     51  C   UNL A   1      43.803  25.999  28.420  1.00  0.00     0.074 A 
ATOM     52  C   UNL A   1      44.402  30.554  32.814  1.00  0.00     0.029 A 
ATOM     53  N   UNL A   1      44.459  28.505  31.982  1.00  0.00    -0.354 N 
ATOM     54  N   UNL A   1      44.490  27.069  28.138  1.00  0.00    -0.248 NA
ATOM     55  C   UNL A   1      44.155  25.347  29.678  1.00  0.00     0.031 C 
ATOM     56  C   UNL A   1      45.051  30.570  31.542  1.00  0.00     0.029 A 
ATOM     57  C   UNL A   1      45.003  29.289  31.000  1.00  0.00     0.049 A 
ATOM     58  H   UNL A   1      44.422  27.522  31.950  1.00  0.00     0.167 HD
ATOM     59  C   UNL A   1      45.030  27.454  29.346  1.00  0.00     0.074 A 
ATOM     60  C   UNL A   1      44.962  26.277  30.198  1.00  0.00     0.031 C 
ATOM     61  C   UNL A   1      45.159  28.774  29.661  1.00  0.00     0.037 A 
BRANCH  48  62
ATOM     62  C   UNL A   1      43.411  27.465  34.744  1.00  0.00     0.057 A 
ATOM     63  C   UNL A   1      43.455  26.149  34.252  1.00  0.00     0.134 A 
ATOM     64  C   UNL A   1      43.482  27.579  36.148  1.00  0.00     0.134 A 
ATOM     65  F   UNL A   1      43.368  25.903  32.936  1.00  0.00    -0.206 F 
ATOM     66  C   UNL A   1      43.513  25.031  35.096  1.00  0.00     0.040 A 
ATOM     67  C   UNL A   1      43.599  26.473  36.996  1.00  0.00     0.040 A 
ATOM     68  F   UNL A   1      43.332  28.747  36.785  1.00  0.00    -0.206 F 
ATOM     69  C   UNL A   1      43.585  25.192  36.473  1.00  0.00     0.006 A 
ENDBRANCH  48  62
BRANCH  49  70
ATOM     70  C   UNL A   1      42.532  24.331  26.927  1.00  0.00     0.057 A 
ATOM     71  C   UNL A   1      43.064  24.247  25.631  1.00  0.00     0.134 A 
ATOM     72  C   UNL A   1      42.219  23.113  27.550  1.00  0.00     0.134 A 
ATOM     73  F   UNL A   1      43.426  25.354  24.968  1.00  0.00    -0.206 F 
ATOM     74  C   UNL A   1      43.304  23.018  25.004  1.00  0.00     0.040 A 
ATOM     75  C   UNL A   1      42.446  21.880  26.932  1.00  0.00     0.040 A 
ATOM     76  F   UNL A   1      41.773  23.082  28.814  1.00  0.00    -0.206 F 
ATOM     77  C   UNL A   1      43.007  21.828  25.660  1.00  0.00     0.006 A 
ENDBRANCH  49  70
BRANCH  61  78
ATOM     78  C   UNL A   1      45.257  29.736  28.521  1.00  0.00     0.057 A 
ATOM     79  C   UNL A   1      44.162  30.398  27.951  1.00  0.00     0.134 A 
ATOM     80  C   UNL A   1      46.524  30.032  28.006  1.00  0.00     0.134 A 
ATOM     81  F   UNL A   1      42.923  30.230  28.434  1.00  0.00    -0.206 F 
ATOM     82  C   UNL A   1      44.318  31.278  26.878  1.00  0.00     0.040 A 
ATOM     83  C   UNL A   1      46.697  30.935  26.957  1.00  0.00     0.040 A 
ATOM     84  F   UNL A   1      47.619  29.462  28.532  1.00  0.00    -0.206 F 
ATOM     85  C   UNL A   1      45.590  31.552  26.380  1.00  0.00     0.006 A 
ENDBRANCH  61  78
ENDBRANCH  35  36
ENDBRANCH  27  30
ENDBRANCH  25  26
ENDBRANCH  24  25
ENDBRANCH   1  24
TORSDOF 15
ENDMDL
MODEL 3
REMARK VINA RESULT:     -11.0      3.181      8.055
REMARK SMILES Cc1ccc(C)c([C@@H](C)[N@@H+](CC(=O)NCCCNC(=O)c2ccc(-c3c4nc(c(-c5c(F)cccc5F)c5ccc([nH]5)c(-c5c(F)cccc5F)c5nc(c(-c6c(F)cccc6F)c6ccc3[nH]6)C=C5)C=C4)cc2)CC(F)(F)F)c1
REMARK SMILES IDX 15 1 14 2 12 3 13 4 11 6 10 7 8 9 9 10 7 11 1 12 2 13 3 14
REMARK SMILES IDX 80 15 4 16 5 17 6 18 75 19 76 20 77 21 78 22 79 23 16 24
REMARK SMILES IDX 17 25 18 26 19 27 20 29 21 30 22 31 74 32 23 33 73 34 24 35
REMARK SMILES IDX 25 36 26 37 67 38 27 39 72 40 66 41 68 42 28 43 71 44 65 45
REMARK SMILES IDX 64 46 29 48 55 49 38 50 54 51 39 52 42 53 53 54 69 55 40 56
REMARK SMILES IDX 41 57 52 59 70 60 43 61 30 62 31 63 36 64 32 65 33 66 35 67
REMARK SMILES IDX 37 68 34 69 56 70 57 71 62 72 58 73 59 74 61 75 63 76 60 77
REMARK SMILES IDX 44 78 45 79 50 80 46 81 47 82 49 83 51 84 48 85
REMARK H PARENT 14 5 10 8 18 28 68 47 42 58
REMARK Flexibility Score: inf
ROOT
ATOM      1  C   UNL A   1      38.131  22.694  25.709  1.00  0.00     0.118 C 
ENDROOT
BRANCH   1   2
ATOM      2  N   UNL A   1      37.251  22.586  24.552  1.00  0.00    -0.351 N 
ATOM      3  C   UNL A   1      36.230  23.364  24.086  1.00  0.00     0.275 C 
ATOM      4  O   UNL A   1      35.827  23.121  22.946  1.00  0.00    -0.269 OA
ATOM      5  H   UNL A   1      37.427  21.794  23.996  1.00  0.00     0.163 HD
BRANCH   3   6
ATOM      6  C   UNL A   1      35.564  24.440  24.950  1.00  0.00     0.364 C 
BRANCH   6   7
ATOM      7  N   UNL A   1      34.118  24.215  25.213  1.00  0.00    -0.314 N 
ATOM      8  H   UNL A   1      33.852  23.404  24.653  1.00  0.00     0.349 HD
BRANCH   7   9
ATOM      9  C   UNL A   1      33.224  25.212  24.608  1.00  0.00     0.212 C 
ATOM     10  C   UNL A   1      33.440  25.603  23.140  1.00  0.00     0.081 C 
BRANCH   9  11
ATOM     11  C   UNL A   1      32.830  26.408  25.494  1.00  0.00     0.012 A 
ATOM     12  C   UNL A   1      34.869  29.155  27.266  1.00  0.00     0.044 C 
ATOM     13  C   UNL A   1      33.720  28.294  26.828  1.00  0.00    -0.051 A 
ATOM     14  C   UNL A   1      32.486  28.427  27.456  1.00  0.00     0.004 A 
ATOM     15  C   UNL A   1      33.872  27.313  25.838  1.00  0.00     0.013 A 
ATOM     16  C   UNL A   1      31.426  27.605  27.085  1.00  0.00     0.004 A 
ATOM     17  C   UNL A   1      31.571  26.600  26.106  1.00  0.00    -0.042 A 
ATOM     18  C   UNL A   1      30.345  25.765  25.864  1.00  0.00     0.045 C 
ENDBRANCH   9  11
ENDBRANCH   7   9
BRANCH   7  19
ATOM     19  C   UNL A   1      33.801  23.654  26.544  1.00  0.00     0.380 C 
BRANCH  19  20
ATOM     20  C   UNL A   1      33.792  22.150  26.914  1.00  0.00     0.438 C 
ATOM     21  F   UNL A   1      35.018  21.594  26.919  1.00  0.00    -0.165 F 
ATOM     22  F   UNL A   1      33.302  22.008  28.176  1.00  0.00    -0.165 F 
ATOM     23  F   UNL A   1      32.990  21.426  26.110  1.00  0.00    -0.165 F 
ENDBRANCH  19  20
ENDBRANCH   7  19
ENDBRANCH   6   7
ENDBRANCH   3   6
ENDBRANCH   1   2
BRANCH   1  24
ATOM     24  C   UNL A   1      39.000  21.468  26.028  1.00  0.00     0.042 C 
BRANCH  24  25
ATOM     25  C   UNL A   1      40.291  21.733  26.791  1.00  0.00     0.118 C 
BRANCH  25  26
ATOM     26  N   UNL A   1      41.494  21.919  25.998  1.00  0.00    -0.352 N 
ATOM     27  C   UNL A   1      42.198  23.098  25.828  1.00  0.00     0.251 C 
ATOM     28  H   UNL A   1      41.844  21.124  25.534  1.00  0.00     0.163 HD
ATOM     29  O   UNL A   1      43.182  23.138  25.092  1.00  0.00    -0.269 OA
BRANCH  27  30
ATOM     30  C   UNL A   1      41.821  24.286  26.630  1.00  0.00     0.039 A 
ATOM     31  C   UNL A   1      41.045  25.274  26.020  1.00  0.00     0.014 A 
ATOM     32  C   UNL A   1      42.335  24.490  27.915  1.00  0.00     0.014 A 
ATOM     33  C   UNL A   1      40.933  26.520  26.627  1.00  0.00     0.010 A 
ATOM     34  C   UNL A   1      42.306  25.754  28.476  1.00  0.00     0.010 A 
ATOM     35  C   UNL A   1      41.628  26.777  27.816  1.00  0.00    -0.014 A 
BRANCH  35  36
ATOM     36  C   UNL A   1      41.457  28.064  28.475  1.00  0.00     0.031 A 
ATOM     37  C   UNL A   1      42.550  29.021  28.193  1.00  0.00     0.074 A 
ATOM     38  C   UNL A   1      40.357  28.472  29.135  1.00  0.00     0.049 A 
ATOM     39  N   UNL A   1      43.524  29.363  28.970  1.00  0.00    -0.248 NA
ATOM     40  C   UNL A   1      42.646  29.568  26.831  1.00  0.00     0.031 C 
ATOM     41  C   UNL A   1      39.043  27.828  29.164  1.00  0.00     0.029 A 
ATOM     42  N   UNL A   1      40.168  29.617  29.861  1.00  0.00    -0.354 N 
ATOM     43  C   UNL A   1      44.232  30.329  28.263  1.00  0.00     0.074 A 
ATOM     44  C   UNL A   1      43.796  30.240  26.897  1.00  0.00     0.031 C 
ATOM     45  C   UNL A   1      38.147  28.675  29.723  1.00  0.00     0.029 A 
ATOM     46  C   UNL A   1      38.847  29.852  30.217  1.00  0.00     0.049 A 
ATOM     47  H   UNL A   1      40.904  30.220  30.110  1.00  0.00     0.167 HD
ATOM     48  C   UNL A   1      44.878  31.336  28.909  1.00  0.00     0.037 A 
ATOM     49  C   UNL A   1      38.357  30.943  30.856  1.00  0.00     0.037 A 
ATOM     50  C   UNL A   1      44.942  31.095  30.326  1.00  0.00     0.049 A 
ATOM     51  C   UNL A   1      39.469  31.620  31.563  1.00  0.00     0.074 A 
ATOM     52  C   UNL A   1      45.681  30.323  31.194  1.00  0.00     0.029 A 
ATOM     53  N   UNL A   1      43.837  31.529  31.005  1.00  0.00    -0.354 N 
ATOM     54  N   UNL A   1      40.078  31.125  32.601  1.00  0.00    -0.248 NA
ATOM     55  C   UNL A   1      40.120  32.776  30.951  1.00  0.00     0.031 C 
ATOM     56  C   UNL A   1      44.900  30.195  32.383  1.00  0.00     0.029 A 
ATOM     57  C   UNL A   1      43.709  30.894  32.211  1.00  0.00     0.049 A 
ATOM     58  H   UNL A   1      43.212  32.212  30.668  1.00  0.00     0.167 HD
ATOM     59  C   UNL A   1      41.364  31.614  32.506  1.00  0.00     0.074 A 
ATOM     60  C   UNL A   1      41.282  32.757  31.611  1.00  0.00     0.031 C 
ATOM     61  C   UNL A   1      42.428  30.846  32.875  1.00  0.00     0.037 A 
BRANCH  48  62
ATOM     62  C   UNL A   1      45.025  32.744  28.374  1.00  0.00     0.057 A 
ATOM     63  C   UNL A   1      43.872  33.536  28.225  1.00  0.00     0.134 A 
ATOM     64  C   UNL A   1      46.177  33.241  27.730  1.00  0.00     0.134 A 
ATOM     65  F   UNL A   1      42.704  33.159  28.766  1.00  0.00    -0.206 F 
ATOM     66  C   UNL A   1      43.856  34.704  27.449  1.00  0.00     0.040 A 
ATOM     67  C   UNL A   1      46.186  34.436  27.003  1.00  0.00     0.040 A 
ATOM     68  F   UNL A   1      47.323  32.553  27.671  1.00  0.00    -0.206 F 
ATOM     69  C   UNL A   1      45.016  35.157  26.836  1.00  0.00     0.006 A 
ENDBRANCH  48  62
BRANCH  49  70
ATOM     70  C   UNL A   1      37.007  31.541  30.816  1.00  0.00     0.057 A 
ATOM     71  C   UNL A   1      36.193  31.588  31.958  1.00  0.00     0.134 A 
ATOM     72  C   UNL A   1      36.597  32.329  29.729  1.00  0.00     0.134 A 
ATOM     73  F   UNL A   1      36.520  30.896  33.059  1.00  0.00    -0.206 F 
ATOM     74  C   UNL A   1      35.054  32.399  32.028  1.00  0.00     0.040 A 
ATOM     75  C   UNL A   1      35.457  33.137  29.782  1.00  0.00     0.040 A 
ATOM     76  F   UNL A   1      37.344  32.410  28.618  1.00  0.00    -0.206 F 
ATOM     77  C   UNL A   1      34.690  33.188  30.941  1.00  0.00     0.006 A 
ENDBRANCH  49  70
BRANCH  61  78
ATOM     78  C   UNL A   1      42.171  29.767  33.876  1.00  0.00     0.057 A 
ATOM     79  C   UNL A   1      41.823  28.451  33.545  1.00  0.00     0.134 A 
ATOM     80  C   UNL A   1      42.320  30.067  35.235  1.00  0.00     0.134 A 
ATOM     81  F   UNL A   1      41.733  28.058  32.267  1.00  0.00    -0.206 F 
ATOM     82  C   UNL A   1      41.584  27.489  34.530  1.00  0.00     0.040 A 
ATOM     83  C   UNL A   1      42.118  29.107  36.225  1.00  0.00     0.040 A 
ATOM     84  F   UNL A   1      42.690  31.299  35.618  1.00  0.00    -0.206 F 
ATOM     85  C   UNL A   1      41.735  27.815  35.875  1.00  0.00     0.006 A 
ENDBRANCH  61  78
ENDBRANCH  35  36
ENDBRANCH  27  30
ENDBRANCH  25  26
ENDBRANCH  24  25
ENDBRANCH   1  24
TORSDOF 15
ENDMDL
