MODEL 1
REMARK VINA RESULT:     -11.6      0.000      0.000
REMARK SMILES CCc1c(C(=O)NCCCNC(=O)c2ccc(-c3c4nc(c(-c5c(F)cccc5F)c5ccc([nH]5)c(-c5c(F)cccc5F)c5nc(c(-c6c(F)cccc6F)c6ccc3[nH]6)C=C5)C=C4)cc2)nnn1-c1ccc(OC)cc1
REMARK SMILES IDX 9 1 8 2 7 3 5 4 6 5 4 7 3 8 70 9 68 10 69 11 2 12 1 13 71 14
REMARK SMILES IDX 72 15 78 16 73 17 77 18 74 19 75 20 76 21 10 22 11 23 12 24
REMARK SMILES IDX 13 26 14 27 15 28 67 29 16 30 66 31 17 32 18 33 19 34 60 35
REMARK SMILES IDX 20 36 65 37 59 38 61 39 21 40 64 41 58 42 57 43 22 45 48 46
REMARK SMILES IDX 31 47 47 48 32 49 35 50 46 51 62 52 33 53 34 54 45 56 63 57
REMARK SMILES IDX 36 58 23 59 24 60 29 61 25 62 26 63 28 64 30 65 27 66 49 67
REMARK SMILES IDX 50 68 55 69 51 70 52 71 54 72 56 73 53 74 37 75 38 76 43 77
REMARK SMILES IDX 39 78 40 79 42 80 44 81 41 82
REMARK H PARENT 7 6 11 25 61 44 35 55
REMARK Flexibility Score: inf
ROOT
ATOM      1  C   UNL A   1      31.266  32.016  26.657  1.00  0.00     0.042 C 
ENDROOT
BRANCH   1   2
ATOM      2  C   UNL A   1      31.468  30.729  25.885  1.00  0.00     0.118 C 
BRANCH   2   3
ATOM      3  N   UNL A   1      30.796  30.642  24.642  1.00  0.00    -0.351 N 
ATOM      4  C   UNL A   1      30.553  29.497  23.923  1.00  0.00     0.273 C 
ATOM      5  O   UNL A   1      29.744  29.642  23.002  1.00  0.00    -0.267 OA
ATOM      6  H   UNL A   1      30.471  31.487  24.255  1.00  0.00     0.163 HD
BRANCH   4   7
ATOM      7  C   UNL A   1      31.201  28.182  24.179  1.00  0.00     0.174 A 
ATOM      8  C   UNL A   1      32.443  27.670  24.623  1.00  0.00     0.077 A 
ATOM      9  N   UNL A   1      32.262  26.291  24.536  1.00  0.00    -0.217 N 
ATOM     10  N   UNL A   1      30.403  27.101  23.843  1.00  0.00    -0.124 NA
ATOM     11  N   UNL A   1      31.093  25.990  23.959  1.00  0.00    -0.061 NA
BRANCH   8  12
ATOM     12  C   UNL A   1      33.830  28.194  24.949  1.00  0.00     0.055 C 
ATOM     13  C   UNL A   1      34.156  28.384  26.440  1.00  0.00     0.011 C 
ENDBRANCH   8  12
BRANCH   9  14
ATOM     14  C   UNL A   1      33.164  25.267  24.883  1.00  0.00     0.067 A 
ATOM     15  C   UNL A   1      34.111  24.850  23.947  1.00  0.00     0.032 A 
ATOM     16  C   UNL A   1      33.126  24.697  26.159  1.00  0.00     0.032 A 
ATOM     17  C   UNL A   1      35.045  23.883  24.316  1.00  0.00     0.048 A 
ATOM     18  C   UNL A   1      34.061  23.730  26.516  1.00  0.00     0.048 A 
ATOM     19  C   UNL A   1      35.022  23.317  25.595  1.00  0.00     0.119 A 
BRANCH  19  20
ATOM     20  O   UNL A   1      35.981  22.369  25.820  1.00  0.00    -0.497 OA
ATOM     21  C   UNL A   1      35.862  21.161  25.079  1.00  0.00     0.278 C 
ENDBRANCH  19  20
ENDBRANCH   9  14
ENDBRANCH   4   7
ENDBRANCH   2   3
ENDBRANCH   1   2
BRANCH   1  22
ATOM     22  C   UNL A   1      32.584  32.391  27.245  1.00  0.00     0.118 C 
BRANCH  22  23
ATOM     23  N   UNL A   1      32.652  33.833  27.574  1.00  0.00    -0.352 N 
ATOM     24  C   UNL A   1      33.317  34.428  28.642  1.00  0.00     0.251 C 
ATOM     25  H   UNL A   1      32.171  34.441  26.966  1.00  0.00     0.163 HD
ATOM     26  O   UNL A   1      33.117  35.571  28.981  1.00  0.00    -0.269 OA
BRANCH  24  27
ATOM     27  C   UNL A   1      34.400  33.619  29.218  1.00  0.00     0.039 A 
ATOM     28  C   UNL A   1      34.401  32.702  30.265  1.00  0.00     0.014 A 
ATOM     29  C   UNL A   1      35.629  33.929  28.703  1.00  0.00     0.014 A 
ATOM     30  C   UNL A   1      35.686  32.242  30.683  1.00  0.00     0.010 A 
ATOM     31  C   UNL A   1      36.460  32.893  28.623  1.00  0.00     0.010 A 
ATOM     32  C   UNL A   1      36.807  32.610  29.898  1.00  0.00    -0.014 A 
BRANCH  32  33
ATOM     33  C   UNL A   1      38.221  32.204  29.867  1.00  0.00     0.031 A 
ATOM     34  C   UNL A   1      38.189  30.775  29.305  1.00  0.00     0.074 A 
ATOM     35  C   UNL A   1      39.291  33.077  30.046  1.00  0.00     0.049 A 
ATOM     36  N   UNL A   1      38.058  29.715  30.042  1.00  0.00    -0.248 NA
ATOM     37  C   UNL A   1      37.795  30.449  27.890  1.00  0.00     0.031 C 
ATOM     38  C   UNL A   1      39.380  34.533  30.395  1.00  0.00     0.029 A 
ATOM     39  N   UNL A   1      40.657  32.794  30.036  1.00  0.00    -0.354 N 
ATOM     40  C   UNL A   1      38.074  28.630  29.167  1.00  0.00     0.074 A 
ATOM     41  C   UNL A   1      37.562  29.130  27.937  1.00  0.00     0.031 C 
ATOM     42  C   UNL A   1      40.665  35.010  30.291  1.00  0.00     0.029 A 
ATOM     43  C   UNL A   1      41.568  33.910  30.004  1.00  0.00     0.049 A 
ATOM     44  H   UNL A   1      40.986  31.866  30.049  1.00  0.00     0.167 HD
ATOM     45  C   UNL A   1      38.924  27.592  29.417  1.00  0.00     0.037 A 
ATOM     46  C   UNL A   1      42.958  33.857  29.989  1.00  0.00     0.037 A 
ATOM     47  C   UNL A   1      39.417  27.743  30.769  1.00  0.00     0.049 A 
ATOM     48  C   UNL A   1      43.290  32.465  30.395  1.00  0.00     0.074 A 
ATOM     49  C   UNL A   1      38.850  27.681  32.023  1.00  0.00     0.029 A 
ATOM     50  N   UNL A   1      40.482  28.605  30.847  1.00  0.00    -0.354 N 
ATOM     51  N   UNL A   1      43.017  32.023  31.592  1.00  0.00    -0.248 NA
ATOM     52  C   UNL A   1      43.278  31.492  29.313  1.00  0.00     0.031 C 
ATOM     53  C   UNL A   1      39.417  28.772  32.750  1.00  0.00     0.029 A 
ATOM     54  C   UNL A   1      40.456  29.324  32.006  1.00  0.00     0.049 A 
ATOM     55  H   UNL A   1      41.175  28.694  30.154  1.00  0.00     0.167 HD
ATOM     56  C   UNL A   1      42.320  30.848  31.358  1.00  0.00     0.074 A 
ATOM     57  C   UNL A   1      42.527  30.566  29.923  1.00  0.00     0.031 C 
ATOM     58  C   UNL A   1      41.348  30.434  32.231  1.00  0.00     0.037 A 
BRANCH  45  59
ATOM     59  C   UNL A   1      39.736  26.826  28.385  1.00  0.00     0.057 A 
ATOM     60  C   UNL A   1      40.568  27.568  27.523  1.00  0.00     0.134 A 
ATOM     61  C   UNL A   1      39.536  25.485  27.997  1.00  0.00     0.134 A 
ATOM     62  F   UNL A   1      40.849  28.854  27.783  1.00  0.00    -0.206 F 
ATOM     63  C   UNL A   1      41.085  27.048  26.330  1.00  0.00     0.040 A 
ATOM     64  C   UNL A   1      40.083  24.941  26.826  1.00  0.00     0.040 A 
ATOM     65  F   UNL A   1      38.740  24.648  28.671  1.00  0.00    -0.206 F 
ATOM     66  C   UNL A   1      40.836  25.731  25.971  1.00  0.00     0.006 A 
ENDBRANCH  45  59
BRANCH  46  67
ATOM     67  C   UNL A   1      44.033  34.660  29.276  1.00  0.00     0.057 A 
ATOM     68  C   UNL A   1      44.197  34.780  27.868  1.00  0.00     0.134 A 
ATOM     69  C   UNL A   1      44.709  35.642  30.012  1.00  0.00     0.134 A 
ATOM     70  F   UNL A   1      43.539  33.969  27.025  1.00  0.00    -0.206 F 
ATOM     71  C   UNL A   1      45.002  35.784  27.263  1.00  0.00     0.040 A 
ATOM     72  C   UNL A   1      45.491  36.656  29.425  1.00  0.00     0.040 A 
ATOM     73  F   UNL A   1      44.537  35.709  31.339  1.00  0.00    -0.206 F 
ATOM     74  C   UNL A   1      45.646  36.734  28.047  1.00  0.00     0.006 A 
ENDBRANCH  46  67
BRANCH  58  75
ATOM     75  C   UNL A   1      41.205  31.161  33.548  1.00  0.00     0.057 A 
ATOM     76  C   UNL A   1      40.245  32.133  33.889  1.00  0.00     0.134 A 
ATOM     77  C   UNL A   1      42.029  30.722  34.581  1.00  0.00     0.134 A 
ATOM     78  F   UNL A   1      39.303  32.519  33.025  1.00  0.00    -0.206 F 
ATOM     79  C   UNL A   1      40.176  32.695  35.174  1.00  0.00     0.040 A 
ATOM     80  C   UNL A   1      41.947  31.239  35.872  1.00  0.00     0.040 A 
ATOM     81  F   UNL A   1      42.896  29.723  34.359  1.00  0.00    -0.206 F 
ATOM     82  C   UNL A   1      41.039  32.250  36.169  1.00  0.00     0.006 A 
ENDBRANCH  58  75
ENDBRANCH  32  33
ENDBRANCH  24  27
ENDBRANCH  22  23
ENDBRANCH   1  22
TORSDOF 13
ENDMDL
MODEL 2
REMARK VINA RESULT:     -11.5      5.235      7.435
REMARK SMILES CCc1c(C(=O)NCCCNC(=O)c2ccc(-c3c4nc(c(-c5c(F)cccc5F)c5ccc([nH]5)c(-c5c(F)cccc5F)c5nc(c(-c6c(F)cccc6F)c6ccc3[nH]6)C=C5)C=C4)cc2)nnn1-c1ccc(OC)cc1
REMARK SMILES IDX 9 1 8 2 7 3 5 4 6 5 4 7 3 8 70 9 68 10 69 11 2 12 1 13 71 14
REMARK SMILES IDX 72 15 78 16 73 17 77 18 74 19 75 20 76 21 10 22 11 23 12 24
REMARK SMILES IDX 13 26 14 27 15 28 67 29 16 30 66 31 17 32 18 33 19 34 60 35
REMARK SMILES IDX 20 36 65 37 59 38 61 39 21 40 64 41 58 42 57 43 22 45 48 46
REMARK SMILES IDX 31 47 47 48 32 49 35 50 46 51 62 52 33 53 34 54 45 56 63 57
REMARK SMILES IDX 36 58 23 59 24 60 29 61 25 62 26 63 28 64 30 65 27 66 49 67
REMARK SMILES IDX 50 68 55 69 51 70 52 71 54 72 56 73 53 74 37 75 38 76 43 77
REMARK SMILES IDX 39 78 40 79 42 80 44 81 41 82
REMARK H PARENT 7 6 11 25 61 44 35 55
REMARK Flexibility Score: inf
ROOT
ATOM      1  C   UNL A   1      36.115  29.996  27.333  1.00  0.00     0.042 C 
ENDROOT
BRANCH   1   2
ATOM      2  C   UNL A   1      34.821  30.195  28.093  1.00  0.00     0.118 C 
BRANCH   2   3
ATOM      3  N   UNL A   1      33.796  30.882  27.399  1.00  0.00    -0.351 N 
ATOM      4  C   UNL A   1      32.635  30.337  26.906  1.00  0.00     0.273 C 
ATOM      5  O   UNL A   1      31.792  31.171  26.561  1.00  0.00    -0.267 OA
ATOM      6  H   UNL A   1      33.929  31.848  27.256  1.00  0.00     0.163 HD
BRANCH   4   7
ATOM      7  C   UNL A   1      32.379  28.879  26.760  1.00  0.00     0.174 A 
ATOM      8  C   UNL A   1      32.790  27.796  25.947  1.00  0.00     0.077 A 
ATOM      9  N   UNL A   1      32.029  26.735  26.432  1.00  0.00    -0.217 N 
ATOM     10  N   UNL A   1      31.410  28.402  27.628  1.00  0.00    -0.124 NA
ATOM     11  N   UNL A   1      31.139  27.149  27.340  1.00  0.00    -0.061 NA
BRANCH   8  12
ATOM     12  C   UNL A   1      33.617  27.575  24.693  1.00  0.00     0.055 C 
ATOM     13  C   UNL A   1      32.906  27.827  23.353  1.00  0.00     0.011 C 
ENDBRANCH   8  12
BRANCH   9  14
ATOM     14  C   UNL A   1      32.042  25.388  26.017  1.00  0.00     0.067 A 
ATOM     15  C   UNL A   1      30.949  24.883  25.313  1.00  0.00     0.032 A 
ATOM     16  C   UNL A   1      33.150  24.579  26.287  1.00  0.00     0.032 A 
ATOM     17  C   UNL A   1      30.993  23.570  24.847  1.00  0.00     0.048 A 
ATOM     18  C   UNL A   1      33.183  23.268  25.820  1.00  0.00     0.048 A 
ATOM     19  C   UNL A   1      32.104  22.758  25.101  1.00  0.00     0.119 A 
BRANCH  19  20
ATOM     20  O   UNL A   1      32.011  21.488  24.604  1.00  0.00    -0.497 OA
ATOM     21  C   UNL A   1      33.145  20.650  24.794  1.00  0.00     0.278 C 
ENDBRANCH  19  20
ENDBRANCH   9  14
ENDBRANCH   4   7
ENDBRANCH   2   3
ENDBRANCH   1   2
BRANCH   1  22
ATOM     22  C   UNL A   1      36.977  29.098  28.154  1.00  0.00     0.118 C 
BRANCH  22  23
ATOM     23  N   UNL A   1      37.608  29.821  29.282  1.00  0.00    -0.352 N 
ATOM     24  C   UNL A   1      38.929  29.728  29.714  1.00  0.00     0.251 C 
ATOM     25  H   UNL A   1      37.028  30.439  29.783  1.00  0.00     0.163 HD
ATOM     26  O   UNL A   1      39.297  30.154  30.784  1.00  0.00    -0.269 OA
BRANCH  24  27
ATOM     27  C   UNL A   1      39.871  29.228  28.705  1.00  0.00     0.039 A 
ATOM     28  C   UNL A   1      39.955  29.462  27.335  1.00  0.00     0.014 A 
ATOM     29  C   UNL A   1      40.726  28.280  29.195  1.00  0.00     0.014 A 
ATOM     30  C   UNL A   1      40.891  28.651  26.625  1.00  0.00     0.010 A 
ATOM     31  C   UNL A   1      41.935  28.299  28.639  1.00  0.00     0.010 A 
ATOM     32  C   UNL A   1      41.762  27.828  27.384  1.00  0.00    -0.014 A 
BRANCH  32  33
ATOM     33  C   UNL A   1      42.952  27.022  27.070  1.00  0.00     0.031 A 
ATOM     34  C   UNL A   1      42.415  25.586  26.967  1.00  0.00     0.074 A 
ATOM     35  C   UNL A   1      44.180  27.554  26.684  1.00  0.00     0.049 A 
ATOM     36  N   UNL A   1      42.322  24.779  27.979  1.00  0.00    -0.248 NA
ATOM     37  C   UNL A   1      41.491  25.123  25.874  1.00  0.00     0.031 C 
ATOM     38  C   UNL A   1      44.700  28.956  26.569  1.00  0.00     0.029 A 
ATOM     39  N   UNL A   1      45.359  26.880  26.368  1.00  0.00    -0.354 N 
ATOM     40  C   UNL A   1      41.795  23.589  27.478  1.00  0.00     0.074 A 
ATOM     41  C   UNL A   1      41.009  23.969  26.355  1.00  0.00     0.031 C 
ATOM     42  C   UNL A   1      45.938  28.998  25.975  1.00  0.00     0.029 A 
ATOM     43  C   UNL A   1      46.422  27.645  25.766  1.00  0.00     0.049 A 
ATOM     44  H   UNL A   1      45.461  25.918  26.549  1.00  0.00     0.167 HD
ATOM     45  C   UNL A   1      42.432  22.415  27.759  1.00  0.00     0.037 A 
ATOM     46  C   UNL A   1      47.672  27.180  25.374  1.00  0.00     0.037 A 
ATOM     47  C   UNL A   1      43.386  22.673  28.816  1.00  0.00     0.049 A 
ATOM     48  C   UNL A   1      47.813  25.859  26.044  1.00  0.00     0.074 A 
ATOM     49  C   UNL A   1      43.292  23.030  30.144  1.00  0.00     0.029 A 
ATOM     50  N   UNL A   1      44.570  23.177  28.342  1.00  0.00    -0.354 N 
ATOM     51  N   UNL A   1      47.885  25.761  27.343  1.00  0.00    -0.248 NA
ATOM     52  C   UNL A   1      47.213  24.742  25.330  1.00  0.00     0.031 C 
ATOM     53  C   UNL A   1      44.300  24.022  30.341  1.00  0.00     0.029 A 
ATOM     54  C   UNL A   1      45.108  24.083  29.209  1.00  0.00     0.049 A 
ATOM     55  H   UNL A   1      44.980  22.918  27.486  1.00  0.00     0.167 HD
ATOM     56  C   UNL A   1      46.913  24.826  27.658  1.00  0.00     0.074 A 
ATOM     57  C   UNL A   1      46.540  24.220  26.363  1.00  0.00     0.031 C 
ATOM     58  C   UNL A   1      46.241  24.898  28.850  1.00  0.00     0.037 A 
BRANCH  45  59
ATOM     59  C   UNL A   1      42.644  21.256  26.800  1.00  0.00     0.057 A 
ATOM     60  C   UNL A   1      42.082  20.010  27.144  1.00  0.00     0.134 A 
ATOM     61  C   UNL A   1      43.581  21.206  25.747  1.00  0.00     0.134 A 
ATOM     62  F   UNL A   1      41.169  19.917  28.122  1.00  0.00    -0.206 F 
ATOM     63  C   UNL A   1      42.483  18.805  26.552  1.00  0.00     0.040 A 
ATOM     64  C   UNL A   1      43.959  20.011  25.119  1.00  0.00     0.040 A 
ATOM     65  F   UNL A   1      44.246  22.285  25.320  1.00  0.00    -0.206 F 
ATOM     66  C   UNL A   1      43.433  18.800  25.540  1.00  0.00     0.006 A 
ENDBRANCH  45  59
BRANCH  46  67
ATOM     67  C   UNL A   1      48.578  27.471  24.189  1.00  0.00     0.057 A 
ATOM     68  C   UNL A   1      49.942  27.083  24.059  1.00  0.00     0.134 A 
ATOM     69  C   UNL A   1      47.973  27.833  22.979  1.00  0.00     0.134 A 
ATOM     70  F   UNL A   1      50.632  26.623  25.114  1.00  0.00    -0.206 F 
ATOM     71  C   UNL A   1      50.637  27.096  22.819  1.00  0.00     0.040 A 
ATOM     72  C   UNL A   1      48.643  27.829  21.740  1.00  0.00     0.040 A 
ATOM     73  F   UNL A   1      46.661  28.103  22.950  1.00  0.00    -0.206 F 
ATOM     74  C   UNL A   1      49.980  27.462  21.650  1.00  0.00     0.006 A 
ENDBRANCH  46  67
BRANCH  58  75
ATOM     75  C   UNL A   1      46.728  25.878  29.893  1.00  0.00     0.057 A 
ATOM     76  C   UNL A   1      47.988  25.902  30.521  1.00  0.00     0.134 A 
ATOM     77  C   UNL A   1      45.886  26.953  30.162  1.00  0.00     0.134 A 
ATOM     78  F   UNL A   1      48.936  25.009  30.224  1.00  0.00    -0.206 F 
ATOM     79  C   UNL A   1      48.347  26.906  31.435  1.00  0.00     0.040 A 
ATOM     80  C   UNL A   1      46.242  27.979  31.034  1.00  0.00     0.040 A 
ATOM     81  F   UNL A   1      44.712  27.054  29.520  1.00  0.00    -0.206 F 
ATOM     82  C   UNL A   1      47.464  27.946  31.699  1.00  0.00     0.006 A 
ENDBRANCH  58  75
ENDBRANCH  32  33
ENDBRANCH  24  27
ENDBRANCH  22  23
ENDBRANCH   1  22
TORSDOF 13
ENDMDL
MODEL 3
REMARK VINA RESULT:     -11.5      4.077      9.104
REMARK SMILES CCc1c(C(=O)NCCCNC(=O)c2ccc(-c3c4nc(c(-c5c(F)cccc5F)c5ccc([nH]5)c(-c5c(F)cccc5F)c5nc(c(-c6c(F)cccc6F)c6ccc3[nH]6)C=C5)C=C4)cc2)nnn1-c1ccc(OC)cc1
REMARK SMILES IDX 9 1 8 2 7 3 5 4 6 5 4 7 3 8 70 9 68 10 69 11 2 12 1 13 71 14
REMARK SMILES IDX 72 15 78 16 73 17 77 18 74 19 75 20 76 21 10 22 11 23 12 24
REMARK SMILES IDX 13 26 14 27 15 28 67 29 16 30 66 31 17 32 18 33 19 34 60 35
REMARK SMILES IDX 20 36 65 37 59 38 61 39 21 40 64 41 58 42 57 43 22 45 48 46
REMARK SMILES IDX 31 47 47 48 32 49 35 50 46 51 62 52 33 53 34 54 45 56 63 57
REMARK SMILES IDX 36 58 23 59 24 60 29 61 25 62 26 63 28 64 30 65 27 66 49 67
REMARK SMILES IDX 50 68 55 69 51 70 52 71 54 72 56 73 53 74 37 75 38 76 43 77
REMARK SMILES IDX 39 78 40 79 42 80 44 81 41 82
REMARK H PARENT 7 6 11 25 61 44 35 55
REMARK Flexibility Score: inf
ROOT
ATOM      1  C   UNL A   1      38.510  19.625  24.974  1.00  0.00     0.042 C 
ENDROOT
BRANCH   1   2
ATOM      2  C   UNL A   1      37.197  20.370  25.083  1.00  0.00     0.118 C 
BRANCH   2   3
ATOM      3  N   UNL A   1      36.027  19.584  24.952  1.00  0.00    -0.351 N 
ATOM      4  C   UNL A   1      34.731  20.039  24.954  1.00  0.00     0.273 C 
ATOM      5  O   UNL A   1      33.901  19.204  24.583  1.00  0.00    -0.267 OA
ATOM      6  H   UNL A   1      36.155  18.613  24.850  1.00  0.00     0.163 HD
BRANCH   4   7
ATOM      7  C   UNL A   1      34.313  21.403  25.379  1.00  0.00     0.174 A 
ATOM      8  C   UNL A   1      33.862  22.613  24.800  1.00  0.00     0.077 A 
ATOM      9  N   UNL A   1      33.730  23.456  25.901  1.00  0.00    -0.217 N 
ATOM     10  N   UNL A   1      34.440  21.617  26.742  1.00  0.00    -0.124 NA
ATOM     11  N   UNL A   1      34.193  22.878  27.015  1.00  0.00    -0.061 NA
BRANCH   8  12
ATOM     12  C   UNL A   1      33.692  23.207  23.414  1.00  0.00     0.055 C 
ATOM     13  C   UNL A   1      32.255  23.274  22.871  1.00  0.00     0.011 C 
ENDBRANCH   8  12
BRANCH   9  14
ATOM     14  C   UNL A   1      33.280  24.791  25.932  1.00  0.00     0.067 A 
ATOM     15  C   UNL A   1      31.957  25.053  26.287  1.00  0.00     0.032 A 
ATOM     16  C   UNL A   1      34.158  25.838  25.635  1.00  0.00     0.032 A 
ATOM     17  C   UNL A   1      31.532  26.378  26.380  1.00  0.00     0.048 A 
ATOM     18  C   UNL A   1      33.723  27.157  25.727  1.00  0.00     0.048 A 
ATOM     19  C   UNL A   1      32.408  27.432  26.098  1.00  0.00     0.119 A 
BRANCH  19  20
ATOM     20  O   UNL A   1      31.860  28.678  26.211  1.00  0.00    -0.497 OA
ATOM     21  C   UNL A   1      32.750  29.732  26.560  1.00  0.00     0.278 C 
ENDBRANCH  19  20
ENDBRANCH   9  14
ENDBRANCH   4   7
ENDBRANCH   2   3
ENDBRANCH   1   2
BRANCH   1  22
ATOM     22  C   UNL A   1      39.409  20.156  26.038  1.00  0.00     0.118 C 
BRANCH  22  23
ATOM     23  N   UNL A   1      40.652  19.361  26.157  1.00  0.00    -0.352 N 
ATOM     24  C   UNL A   1      41.964  19.821  26.076  1.00  0.00     0.251 C 
ATOM     25  H   UNL A   1      40.539  18.395  26.313  1.00  0.00     0.163 HD
ATOM     26  O   UNL A   1      42.908  19.081  25.932  1.00  0.00    -0.269 OA
BRANCH  24  27
ATOM     27  C   UNL A   1      42.129  21.255  26.347  1.00  0.00     0.039 A 
ATOM     28  C   UNL A   1      42.321  22.334  25.488  1.00  0.00     0.014 A 
ATOM     29  C   UNL A   1      42.230  21.538  27.682  1.00  0.00     0.014 A 
ATOM     30  C   UNL A   1      42.637  23.576  26.116  1.00  0.00     0.010 A 
ATOM     31  C   UNL A   1      41.709  22.712  28.029  1.00  0.00     0.010 A 
ATOM     32  C   UNL A   1      42.551  23.643  27.530  1.00  0.00    -0.014 A 
BRANCH  32  33
ATOM     33  C   UNL A   1      42.601  24.735  28.515  1.00  0.00     0.031 A 
ATOM     34  C   UNL A   1      41.346  25.569  28.213  1.00  0.00     0.074 A 
ATOM     35  C   UNL A   1      43.458  24.762  29.612  1.00  0.00     0.049 A 
ATOM     36  N   UNL A   1      41.321  26.545  27.358  1.00  0.00    -0.248 NA
ATOM     37  C   UNL A   1      39.945  25.073  28.445  1.00  0.00     0.031 C 
ATOM     38  C   UNL A   1      44.568  23.864  30.070  1.00  0.00     0.029 A 
ATOM     39  N   UNL A   1      43.581  25.744  30.595  1.00  0.00    -0.354 N 
ATOM     40  C   UNL A   1      40.017  27.039  27.374  1.00  0.00     0.074 A 
ATOM     41  C   UNL A   1      39.199  25.933  27.738  1.00  0.00     0.031 C 
ATOM     42  C   UNL A   1      45.022  24.204  31.322  1.00  0.00     0.029 A 
ATOM     43  C   UNL A   1      44.370  25.425  31.759  1.00  0.00     0.049 A 
ATOM     44  H   UNL A   1      43.145  26.621  30.499  1.00  0.00     0.167 HD
ATOM     45  C   UNL A   1      39.821  28.379  27.537  1.00  0.00     0.037 A 
ATOM     46  C   UNL A   1      44.625  26.248  32.850  1.00  0.00     0.037 A 
ATOM     47  C   UNL A   1      41.095  29.038  27.347  1.00  0.00     0.049 A 
ATOM     48  C   UNL A   1      44.246  27.613  32.395  1.00  0.00     0.074 A 
ATOM     49  C   UNL A   1      41.947  29.215  26.279  1.00  0.00     0.029 A 
ATOM     50  N   UNL A   1      41.863  29.034  28.483  1.00  0.00    -0.354 N 
ATOM     51  N   UNL A   1      44.903  28.218  31.443  1.00  0.00    -0.248 NA
ATOM     52  C   UNL A   1      42.833  27.933  32.527  1.00  0.00     0.031 C 
ATOM     53  C   UNL A   1      43.258  28.994  26.799  1.00  0.00     0.029 A 
ATOM     54  C   UNL A   1      43.189  28.908  28.187  1.00  0.00     0.049 A 
ATOM     55  H   UNL A   1      41.504  29.111  29.396  1.00  0.00     0.167 HD
ATOM     56  C   UNL A   1      43.913  28.606  30.554  1.00  0.00     0.074 A 
ATOM     57  C   UNL A   1      42.647  28.411  31.291  1.00  0.00     0.031 C 
ATOM     58  C   UNL A   1      44.176  28.675  29.211  1.00  0.00     0.037 A 
BRANCH  45  59
ATOM     59  C   UNL A   1      38.737  29.033  28.380  1.00  0.00     0.057 A 
ATOM     60  C   UNL A   1      38.652  28.664  29.738  1.00  0.00     0.134 A 
ATOM     61  C   UNL A   1      37.623  29.749  27.895  1.00  0.00     0.134 A 
ATOM     62  F   UNL A   1      39.649  27.987  30.327  1.00  0.00    -0.206 F 
ATOM     63  C   UNL A   1      37.518  28.908  30.523  1.00  0.00     0.040 A 
ATOM     64  C   UNL A   1      36.500  30.036  28.684  1.00  0.00     0.040 A 
ATOM     65  F   UNL A   1      37.513  30.139  26.621  1.00  0.00    -0.206 F 
ATOM     66  C   UNL A   1      36.430  29.590  29.994  1.00  0.00     0.006 A 
ENDBRANCH  45  59
BRANCH  46  67
ATOM     67  C   UNL A   1      44.727  26.007  34.347  1.00  0.00     0.057 A 
ATOM     68  C   UNL A   1      43.911  25.131  35.115  1.00  0.00     0.134 A 
ATOM     69  C   UNL A   1      45.914  26.385  34.988  1.00  0.00     0.134 A 
ATOM     70  F   UNL A   1      42.785  24.610  34.602  1.00  0.00    -0.206 F 
ATOM     71  C   UNL A   1      44.251  24.704  36.428  1.00  0.00     0.040 A 
ATOM     72  C   UNL A   1      46.275  25.952  36.279  1.00  0.00     0.040 A 
ATOM     73  F   UNL A   1      46.823  27.111  34.323  1.00  0.00    -0.206 F 
ATOM     74  C   UNL A   1      45.446  25.110  37.010  1.00  0.00     0.006 A 
ENDBRANCH  46  67
BRANCH  58  75
ATOM     75  C   UNL A   1      45.609  28.534  28.749  1.00  0.00     0.057 A 
ATOM     76  C   UNL A   1      46.219  27.396  28.190  1.00  0.00     0.134 A 
ATOM     77  C   UNL A   1      46.370  29.700  28.754  1.00  0.00     0.134 A 
ATOM     78  F   UNL A   1      45.539  26.263  27.992  1.00  0.00    -0.206 F 
ATOM     79  C   UNL A   1      47.550  27.406  27.741  1.00  0.00     0.040 A 
ATOM     80  C   UNL A   1      47.677  29.739  28.275  1.00  0.00     0.040 A 
ATOM     81  F   UNL A   1      45.821  30.850  29.174  1.00  0.00    -0.206 F 
ATOM     82  C   UNL A   1      48.285  28.585  27.792  1.00  0.00     0.006 A 
ENDBRANCH  58  75
ENDBRANCH  32  33
ENDBRANCH  24  27
ENDBRANCH  22  23
ENDBRANCH   1  22
TORSDOF 13
ENDMDL
