MODEL 1
REMARK VINA RESULT:     -12.5      0.000      0.000
REMARK SMILES Cc1ccc(S(=O)(=O)N[C@@H](Cc2cccc(F)c2)C(=O)NCCCNC(=O)c2ccc(-c3c4nc(c(-c5c(F)cccc5F)c5ccc([nH]5)c(-c5c(F)cccc5F)c5nc(c(-c6c(F)cccc6F)c6ccc3[nH]6)C=C5)C=C4)cc2)cc1
REMARK SMILES IDX 22 1 21 2 19 3 20 4 10 6 9 7 6 9 7 10 8 11 5 12 1 13 2 14
REMARK SMILES IDX 3 15 83 16 4 17 82 18 11 19 12 20 13 21 18 22 14 23 16 24
REMARK SMILES IDX 15 25 17 26 23 27 24 28 25 29 26 30 27 32 28 33 29 34 81 35
REMARK SMILES IDX 30 36 80 37 31 38 32 39 33 40 74 41 34 42 79 43 73 44 75 45
REMARK SMILES IDX 35 46 78 47 72 48 71 49 36 51 62 52 45 53 61 54 46 55 49 56
REMARK SMILES IDX 60 57 76 58 47 59 48 60 59 62 77 63 50 64 37 65 38 66 43 67
REMARK SMILES IDX 39 68 40 69 42 70 44 71 41 72 63 73 64 74 69 75 65 76 66 77
REMARK SMILES IDX 68 78 70 79 67 80 51 81 52 82 57 83 53 84 54 85 56 86 58 87
REMARK SMILES IDX 55 88
REMARK H PARENT 21 5 9 8 25 31 75 50 49 61
REMARK Flexibility Score: inf
ROOT
ATOM      1  C   UNL A   1      35.715  21.069  25.162  1.00  0.00     0.117 C 
ENDROOT
BRANCH   1   2
ATOM      2  N   UNL A   1      35.335  21.459  26.512  1.00  0.00    -0.355 N 
ATOM      3  C   UNL A   1      34.398  22.371  26.904  1.00  0.00     0.238 C 
ATOM      4  O   UNL A   1      34.231  22.556  28.113  1.00  0.00    -0.273 OA
ATOM      5  H   UNL A   1      35.817  21.004  27.240  1.00  0.00     0.163 HD
BRANCH   3   6
ATOM      6  C   UNL A   1      33.644  23.232  25.869  1.00  0.00     0.163 C 
BRANCH   6   7
ATOM      7  N   UNL A   1      32.443  23.633  26.650  1.00  0.00    -0.198 NA
ATOM      8  H   UNL A   1      32.401  22.970  27.424  1.00  0.00     0.142 HD
BRANCH   7   9
ATOM      9  S   UNL A   1      30.887  23.744  26.097  1.00  0.00     0.241 S 
ATOM     10  O   UNL A   1      30.009  23.637  27.251  1.00  0.00    -0.207 OA
ATOM     11  O   UNL A   1      30.805  22.824  24.998  1.00  0.00    -0.207 OA
BRANCH   9  12
ATOM     12  C   UNL A   1      30.696  25.372  25.437  1.00  0.00     0.082 A 
ATOM     13  C   UNL A   1      30.688  29.327  23.774  1.00  0.00     0.044 C 
ATOM     14  C   UNL A   1      30.655  27.950  24.367  1.00  0.00    -0.051 A 
ATOM     15  C   UNL A   1      31.278  27.708  25.597  1.00  0.00     0.005 A 
ATOM     16  C   UNL A   1      29.994  26.902  23.713  1.00  0.00     0.005 A 
ATOM     17  C   UNL A   1      31.310  26.421  26.128  1.00  0.00     0.022 A 
ATOM     18  C   UNL A   1      29.998  25.615  24.253  1.00  0.00     0.022 A 
ENDBRANCH   9  12
ENDBRANCH   7   9
ENDBRANCH   6   7
BRANCH   6  19
ATOM     19  C   UNL A   1      34.424  24.390  25.210  1.00  0.00     0.065 C 
BRANCH  19  20
ATOM     20  C   UNL A   1      33.967  25.008  23.896  1.00  0.00    -0.043 A 
ATOM     21  C   UNL A   1      33.431  24.147  22.918  1.00  0.00     0.004 A 
ATOM     22  C   UNL A   1      34.028  26.375  23.592  1.00  0.00     0.043 A 
ATOM     23  C   UNL A   1      32.903  24.640  21.720  1.00  0.00     0.003 A 
ATOM     24  C   UNL A   1      33.459  26.862  22.415  1.00  0.00     0.123 A 
ATOM     25  C   UNL A   1      32.891  26.009  21.480  1.00  0.00     0.039 A 
ATOM     26  F   UNL A   1      33.442  28.183  22.193  1.00  0.00    -0.207 F 
ENDBRANCH  19  20
ENDBRANCH   6  19
ENDBRANCH   3   6
ENDBRANCH   1   2
BRANCH   1  27
ATOM     27  C   UNL A   1      37.218  20.952  25.000  1.00  0.00     0.042 C 
BRANCH  27  28
ATOM     28  C   UNL A   1      37.931  22.204  25.461  1.00  0.00     0.118 C 
BRANCH  28  29
ATOM     29  N   UNL A   1      39.151  21.969  26.220  1.00  0.00    -0.352 N 
ATOM     30  C   UNL A   1      40.050  22.868  26.766  1.00  0.00     0.251 C 
ATOM     31  H   UNL A   1      39.370  21.021  26.370  1.00  0.00     0.163 HD
ATOM     32  O   UNL A   1      41.088  22.440  27.267  1.00  0.00    -0.269 OA
BRANCH  30  33
ATOM     33  C   UNL A   1      39.700  24.307  26.921  1.00  0.00     0.039 A 
ATOM     34  C   UNL A   1      40.414  25.242  26.153  1.00  0.00     0.014 A 
ATOM     35  C   UNL A   1      38.940  24.749  27.990  1.00  0.00     0.014 A 
ATOM     36  C   UNL A   1      40.606  26.530  26.645  1.00  0.00     0.010 A 
ATOM     37  C   UNL A   1      39.282  25.937  28.577  1.00  0.00     0.010 A 
ATOM     38  C   UNL A   1      40.155  26.810  27.925  1.00  0.00    -0.014 A 
BRANCH  38  39
ATOM     39  C   UNL A   1      40.467  27.991  28.707  1.00  0.00     0.031 A 
ATOM     40  C   UNL A   1      39.486  29.092  28.715  1.00  0.00     0.074 A 
ATOM     41  C   UNL A   1      41.452  27.910  29.627  1.00  0.00     0.049 A 
ATOM     42  N   UNL A   1      39.660  30.220  29.305  1.00  0.00    -0.248 NA
ATOM     43  C   UNL A   1      38.209  29.001  28.018  1.00  0.00     0.031 C 
ATOM     44  C   UNL A   1      41.625  28.727  30.823  1.00  0.00     0.029 A 
ATOM     45  N   UNL A   1      42.635  27.165  29.545  1.00  0.00    -0.354 N 
ATOM     46  C   UNL A   1      38.457  30.889  29.304  1.00  0.00     0.074 A 
ATOM     47  C   UNL A   1      37.609  30.120  28.428  1.00  0.00     0.031 C 
ATOM     48  C   UNL A   1      42.914  28.677  31.198  1.00  0.00     0.029 A 
ATOM     49  C   UNL A   1      43.630  27.977  30.148  1.00  0.00     0.049 A 
ATOM     50  H   UNL A   1      42.751  26.268  29.153  1.00  0.00     0.167 HD
ATOM     51  C   UNL A   1      38.315  31.957  30.140  1.00  0.00     0.037 A 
ATOM     52  C   UNL A   1      44.621  28.528  29.381  1.00  0.00     0.037 A 
ATOM     53  C   UNL A   1      39.601  32.284  30.762  1.00  0.00     0.049 A 
ATOM     54  C   UNL A   1      44.616  30.044  29.332  1.00  0.00     0.074 A 
ATOM     55  C   UNL A   1      40.201  32.003  31.978  1.00  0.00     0.029 A 
ATOM     56  N   UNL A   1      40.607  32.756  29.943  1.00  0.00    -0.354 N 
ATOM     57  N   UNL A   1      43.684  30.795  29.851  1.00  0.00    -0.248 NA
ATOM     58  C   UNL A   1      45.621  30.831  28.614  1.00  0.00     0.031 C 
ATOM     59  C   UNL A   1      41.597  32.269  31.850  1.00  0.00     0.029 A 
ATOM     60  C   UNL A   1      41.835  32.730  30.568  1.00  0.00     0.049 A 
ATOM     61  H   UNL A   1      40.465  33.073  29.022  1.00  0.00     0.167 HD
ATOM     62  C   UNL A   1      43.893  32.098  29.492  1.00  0.00     0.074 A 
ATOM     63  C   UNL A   1      45.127  32.075  28.729  1.00  0.00     0.031 C 
ATOM     64  C   UNL A   1      43.013  33.094  29.796  1.00  0.00     0.037 A 
BRANCH  51  65
ATOM     65  C   UNL A   1      37.019  32.624  30.546  1.00  0.00     0.057 A 
ATOM     66  C   UNL A   1      36.372  32.228  31.736  1.00  0.00     0.134 A 
ATOM     67  C   UNL A   1      36.319  33.607  29.823  1.00  0.00     0.134 A 
ATOM     68  F   UNL A   1      36.931  31.357  32.586  1.00  0.00    -0.206 F 
ATOM     69  C   UNL A   1      35.110  32.704  32.120  1.00  0.00     0.040 A 
ATOM     70  C   UNL A   1      35.046  34.074  30.183  1.00  0.00     0.040 A 
ATOM     71  F   UNL A   1      36.828  34.214  28.751  1.00  0.00    -0.206 F 
ATOM     72  C   UNL A   1      34.430  33.614  31.331  1.00  0.00     0.006 A 
ENDBRANCH  51  65
BRANCH  52  73
ATOM     73  C   UNL A   1      44.992  27.641  28.241  1.00  0.00     0.057 A 
ATOM     74  C   UNL A   1      45.745  26.486  28.515  1.00  0.00     0.134 A 
ATOM     75  C   UNL A   1      44.251  27.656  27.054  1.00  0.00     0.134 A 
ATOM     76  F   UNL A   1      46.488  26.415  29.632  1.00  0.00    -0.206 F 
ATOM     77  C   UNL A   1      45.636  25.336  27.731  1.00  0.00     0.040 A 
ATOM     78  C   UNL A   1      44.156  26.516  26.249  1.00  0.00     0.040 A 
ATOM     79  F   UNL A   1      43.499  28.717  26.731  1.00  0.00    -0.206 F 
ATOM     80  C   UNL A   1      44.803  25.337  26.617  1.00  0.00     0.006 A 
ENDBRANCH  52  73
BRANCH  64  81
ATOM     81  C   UNL A   1      43.199  34.516  29.358  1.00  0.00     0.057 A 
ATOM     82  C   UNL A   1      43.346  35.565  30.274  1.00  0.00     0.134 A 
ATOM     83  C   UNL A   1      43.102  34.890  28.004  1.00  0.00     0.134 A 
ATOM     84  F   UNL A   1      43.419  35.322  31.591  1.00  0.00    -0.206 F 
ATOM     85  C   UNL A   1      43.404  36.902  29.864  1.00  0.00     0.040 A 
ATOM     86  C   UNL A   1      43.102  36.223  27.588  1.00  0.00     0.040 A 
ATOM     87  F   UNL A   1      43.026  33.976  27.025  1.00  0.00    -0.206 F 
ATOM     88  C   UNL A   1      43.261  37.236  28.522  1.00  0.00     0.006 A 
ENDBRANCH  64  81
ENDBRANCH  38  39
ENDBRANCH  30  33
ENDBRANCH  28  29
ENDBRANCH  27  28
ENDBRANCH   1  27
TORSDOF 15
ENDMDL
MODEL 2
REMARK VINA RESULT:     -12.3      3.474      8.268
REMARK SMILES Cc1ccc(S(=O)(=O)N[C@@H](Cc2cccc(F)c2)C(=O)NCCCNC(=O)c2ccc(-c3c4nc(c(-c5c(F)cccc5F)c5ccc([nH]5)c(-c5c(F)cccc5F)c5nc(c(-c6c(F)cccc6F)c6ccc3[nH]6)C=C5)C=C4)cc2)cc1
REMARK SMILES IDX 22 1 21 2 19 3 20 4 10 6 9 7 6 9 7 10 8 11 5 12 1 13 2 14
REMARK SMILES IDX 3 15 83 16 4 17 82 18 11 19 12 20 13 21 18 22 14 23 16 24
REMARK SMILES IDX 15 25 17 26 23 27 24 28 25 29 26 30 27 32 28 33 29 34 81 35
REMARK SMILES IDX 30 36 80 37 31 38 32 39 33 40 74 41 34 42 79 43 73 44 75 45
REMARK SMILES IDX 35 46 78 47 72 48 71 49 36 51 62 52 45 53 61 54 46 55 49 56
REMARK SMILES IDX 60 57 76 58 47 59 48 60 59 62 77 63 50 64 37 65 38 66 43 67
REMARK SMILES IDX 39 68 40 69 42 70 44 71 41 72 63 73 64 74 69 75 65 76 66 77
REMARK SMILES IDX 68 78 70 79 67 80 51 81 52 82 57 83 53 84 54 85 56 86 58 87
REMARK SMILES IDX 55 88
REMARK H PARENT 21 5 9 8 25 31 75 50 49 61
REMARK Flexibility Score: inf
ROOT
ATOM      1  C   UNL A   1      31.691  29.666  25.365  1.00  0.00     0.117 C 
ENDROOT
BRANCH   1   2
ATOM      2  N   UNL A   1      32.787  29.710  24.407  1.00  0.00    -0.355 N 
ATOM      3  C   UNL A   1      33.422  28.671  23.791  1.00  0.00     0.238 C 
ATOM      4  O   UNL A   1      34.339  28.928  23.005  1.00  0.00    -0.273 OA
ATOM      5  H   UNL A   1      33.113  30.609  24.172  1.00  0.00     0.163 HD
BRANCH   3   6
ATOM      6  C   UNL A   1      33.083  27.207  24.147  1.00  0.00     0.163 C 
BRANCH   6   7
ATOM      7  N   UNL A   1      33.527  26.503  22.915  1.00  0.00    -0.198 NA
ATOM      8  H   UNL A   1      33.774  27.247  22.262  1.00  0.00     0.142 HD
BRANCH   7   9
ATOM      9  S   UNL A   1      32.653  25.421  22.018  1.00  0.00     0.241 S 
ATOM     10  O   UNL A   1      33.277  25.340  20.707  1.00  0.00    -0.207 OA
ATOM     11  O   UNL A   1      31.280  25.811  22.178  1.00  0.00    -0.207 OA
BRANCH   9  12
ATOM     12  C   UNL A   1      32.845  23.844  22.792  1.00  0.00     0.082 A 
ATOM     13  C   UNL A   1      33.096  19.839  24.310  1.00  0.00     0.044 C 
ATOM     14  C   UNL A   1      33.019  21.252  23.814  1.00  0.00    -0.051 A 
ATOM     15  C   UNL A   1      31.771  21.872  23.675  1.00  0.00     0.005 A 
ATOM     16  C   UNL A   1      34.182  21.969  23.501  1.00  0.00     0.005 A 
ATOM     17  C   UNL A   1      31.681  23.161  23.155  1.00  0.00     0.022 A 
ATOM     18  C   UNL A   1      34.100  23.271  23.006  1.00  0.00     0.022 A 
ENDBRANCH   9  12
ENDBRANCH   7   9
ENDBRANCH   6   7
BRANCH   6  19
ATOM     19  C   UNL A   1      33.653  26.652  25.470  1.00  0.00     0.065 C 
BRANCH  19  20
ATOM     20  C   UNL A   1      33.224  25.296  26.012  1.00  0.00    -0.043 A 
ATOM     21  C   UNL A   1      34.234  24.359  26.306  1.00  0.00     0.004 A 
ATOM     22  C   UNL A   1      31.897  24.915  26.251  1.00  0.00     0.043 A 
ATOM     23  C   UNL A   1      33.936  23.124  26.893  1.00  0.00     0.003 A 
ATOM     24  C   UNL A   1      31.613  23.700  26.876  1.00  0.00     0.123 A 
ATOM     25  C   UNL A   1      32.620  22.805  27.205  1.00  0.00     0.039 A 
ATOM     26  F   UNL A   1      30.344  23.402  27.183  1.00  0.00    -0.207 F 
ENDBRANCH  19  20
ENDBRANCH   6  19
ENDBRANCH   3   6
ENDBRANCH   1   2
BRANCH   1  27
ATOM     27  C   UNL A   1      31.954  30.539  26.577  1.00  0.00     0.042 C 
BRANCH  27  28
ATOM     28  C   UNL A   1      33.271  30.199  27.239  1.00  0.00     0.118 C 
BRANCH  28  29
ATOM     29  N   UNL A   1      33.997  31.340  27.778  1.00  0.00    -0.352 N 
ATOM     30  C   UNL A   1      35.149  31.383  28.545  1.00  0.00     0.251 C 
ATOM     31  H   UNL A   1      33.608  32.218  27.564  1.00  0.00     0.163 HD
ATOM     32  O   UNL A   1      35.521  32.465  28.997  1.00  0.00    -0.269 OA
BRANCH  30  33
ATOM     33  C   UNL A   1      36.033  30.193  28.671  1.00  0.00     0.039 A 
ATOM     34  C   UNL A   1      36.284  29.697  29.961  1.00  0.00     0.014 A 
ATOM     35  C   UNL A   1      36.832  29.777  27.620  1.00  0.00     0.014 A 
ATOM     36  C   UNL A   1      37.492  29.059  30.229  1.00  0.00     0.010 A 
ATOM     37  C   UNL A   1      38.096  29.335  27.906  1.00  0.00     0.010 A 
ATOM     38  C   UNL A   1      38.443  29.020  29.220  1.00  0.00    -0.014 A 
BRANCH  38  39
ATOM     39  C   UNL A   1      39.832  28.631  29.364  1.00  0.00     0.031 A 
ATOM     40  C   UNL A   1      40.220  27.280  28.919  1.00  0.00     0.074 A 
ATOM     41  C   UNL A   1      40.749  29.596  29.586  1.00  0.00     0.049 A 
ATOM     42  N   UNL A   1      41.396  26.777  29.048  1.00  0.00    -0.248 NA
ATOM     43  C   UNL A   1      39.272  26.364  28.296  1.00  0.00     0.031 C 
ATOM     44  C   UNL A   1      42.176  29.558  29.283  1.00  0.00     0.029 A 
ATOM     45  N   UNL A   1      40.587  30.770  30.332  1.00  0.00    -0.354 N 
ATOM     46  C   UNL A   1      41.444  25.616  28.310  1.00  0.00     0.074 A 
ATOM     47  C   UNL A   1      40.078  25.368  27.924  1.00  0.00     0.031 C 
ATOM     48  C   UNL A   1      42.806  30.458  30.056  1.00  0.00     0.029 A 
ATOM     49  C   UNL A   1      41.825  30.963  30.999  1.00  0.00     0.049 A 
ATOM     50  H   UNL A   1      39.786  31.341  30.383  1.00  0.00     0.167 HD
ATOM     51  C   UNL A   1      42.667  25.078  28.039  1.00  0.00     0.037 A 
ATOM     52  C   UNL A   1      41.902  30.812  32.357  1.00  0.00     0.037 A 
ATOM     53  C   UNL A   1      43.709  25.796  28.780  1.00  0.00     0.049 A 
ATOM     54  C   UNL A   1      42.796  29.677  32.820  1.00  0.00     0.074 A 
ATOM     55  C   UNL A   1      44.603  26.809  28.479  1.00  0.00     0.029 A 
ATOM     56  N   UNL A   1      43.703  25.692  30.157  1.00  0.00    -0.354 N 
ATOM     57  N   UNL A   1      43.356  28.809  32.023  1.00  0.00    -0.248 NA
ATOM     58  C   UNL A   1      43.057  29.380  34.229  1.00  0.00     0.031 C 
ATOM     59  C   UNL A   1      45.093  27.342  29.709  1.00  0.00     0.029 A 
ATOM     60  C   UNL A   1      44.512  26.637  30.749  1.00  0.00     0.049 A 
ATOM     61  H   UNL A   1      43.184  25.022  30.656  1.00  0.00     0.167 HD
ATOM     62  C   UNL A   1      43.957  27.829  32.764  1.00  0.00     0.074 A 
ATOM     63  C   UNL A   1      43.757  28.236  34.142  1.00  0.00     0.031 C 
ATOM     64  C   UNL A   1      44.527  26.726  32.201  1.00  0.00     0.037 A 
BRANCH  51  65
ATOM     65  C   UNL A   1      42.985  24.025  27.001  1.00  0.00     0.057 A 
ATOM     66  C   UNL A   1      43.027  22.665  27.375  1.00  0.00     0.134 A 
ATOM     67  C   UNL A   1      43.307  24.249  25.650  1.00  0.00     0.134 A 
ATOM     68  F   UNL A   1      42.677  22.260  28.603  1.00  0.00    -0.206 F 
ATOM     69  C   UNL A   1      43.434  21.641  26.508  1.00  0.00     0.040 A 
ATOM     70  C   UNL A   1      43.738  23.238  24.778  1.00  0.00     0.040 A 
ATOM     71  F   UNL A   1      43.186  25.441  25.067  1.00  0.00    -0.206 F 
ATOM     72  C   UNL A   1      43.815  21.927  25.209  1.00  0.00     0.006 A 
ENDBRANCH  51  65
BRANCH  52  73
ATOM     73  C   UNL A   1      40.637  31.226  33.029  1.00  0.00     0.057 A 
ATOM     74  C   UNL A   1      39.756  30.219  33.464  1.00  0.00     0.134 A 
ATOM     75  C   UNL A   1      40.529  32.479  33.641  1.00  0.00     0.134 A 
ATOM     76  F   UNL A   1      39.800  28.998  32.907  1.00  0.00    -0.206 F 
ATOM     77  C   UNL A   1      38.922  30.401  34.569  1.00  0.00     0.040 A 
ATOM     78  C   UNL A   1      39.677  32.678  34.733  1.00  0.00     0.040 A 
ATOM     79  F   UNL A   1      41.342  33.484  33.288  1.00  0.00    -0.206 F 
ATOM     80  C   UNL A   1      38.915  31.624  35.234  1.00  0.00     0.006 A 
ENDBRANCH  52  73
BRANCH  64  81
ATOM     81  C   UNL A   1      45.137  25.616  33.003  1.00  0.00     0.057 A 
ATOM     82  C   UNL A   1      44.370  24.782  33.824  1.00  0.00     0.134 A 
ATOM     83  C   UNL A   1      46.533  25.438  33.075  1.00  0.00     0.134 A 
ATOM     84  F   UNL A   1      43.034  24.887  33.854  1.00  0.00    -0.206 F 
ATOM     85  C   UNL A   1      44.957  23.822  34.658  1.00  0.00     0.040 A 
ATOM     86  C   UNL A   1      47.132  24.524  33.944  1.00  0.00     0.040 A 
ATOM     87  F   UNL A   1      47.371  26.129  32.289  1.00  0.00    -0.206 F 
ATOM     88  C   UNL A   1      46.341  23.705  34.736  1.00  0.00     0.006 A 
ENDBRANCH  64  81
ENDBRANCH  38  39
ENDBRANCH  30  33
ENDBRANCH  28  29
ENDBRANCH  27  28
ENDBRANCH   1  27
TORSDOF 15
ENDMDL
MODEL 3
REMARK VINA RESULT:     -12.2      3.588      8.483
REMARK SMILES Cc1ccc(S(=O)(=O)N[C@@H](Cc2cccc(F)c2)C(=O)NCCCNC(=O)c2ccc(-c3c4nc(c(-c5c(F)cccc5F)c5ccc([nH]5)c(-c5c(F)cccc5F)c5nc(c(-c6c(F)cccc6F)c6ccc3[nH]6)C=C5)C=C4)cc2)cc1
REMARK SMILES IDX 22 1 21 2 19 3 20 4 10 6 9 7 6 9 7 10 8 11 5 12 1 13 2 14
REMARK SMILES IDX 3 15 83 16 4 17 82 18 11 19 12 20 13 21 18 22 14 23 16 24
REMARK SMILES IDX 15 25 17 26 23 27 24 28 25 29 26 30 27 32 28 33 29 34 81 35
REMARK SMILES IDX 30 36 80 37 31 38 32 39 33 40 74 41 34 42 79 43 73 44 75 45
REMARK SMILES IDX 35 46 78 47 72 48 71 49 36 51 62 52 45 53 61 54 46 55 49 56
REMARK SMILES IDX 60 57 76 58 47 59 48 60 59 62 77 63 50 64 37 65 38 66 43 67
REMARK SMILES IDX 39 68 40 69 42 70 44 71 41 72 63 73 64 74 69 75 65 76 66 77
REMARK SMILES IDX 68 78 70 79 67 80 51 81 52 82 57 83 53 84 54 85 56 86 58 87
REMARK SMILES IDX 55 88
REMARK H PARENT 21 5 9 8 25 31 75 50 49 61
REMARK Flexibility Score: inf
ROOT
ATOM      1  C   UNL A   1      33.074  29.347  26.005  1.00  0.00     0.117 C 
ENDROOT
BRANCH   1   2
ATOM      2  N   UNL A   1      33.171  29.395  24.553  1.00  0.00    -0.355 N 
ATOM      3  C   UNL A   1      33.064  28.370  23.657  1.00  0.00     0.238 C 
ATOM      4  O   UNL A   1      33.182  28.628  22.456  1.00  0.00    -0.273 OA
ATOM      5  H   UNL A   1      33.335  30.285  24.165  1.00  0.00     0.163 HD
BRANCH   3   6
ATOM      6  C   UNL A   1      32.912  26.910  24.134  1.00  0.00     0.163 C 
BRANCH   6   7
ATOM      7  N   UNL A   1      31.436  26.813  24.291  1.00  0.00    -0.198 NA
ATOM      8  H   UNL A   1      31.107  27.778  24.278  1.00  0.00     0.142 HD
BRANCH   7   9
ATOM      9  S   UNL A   1      30.612  26.097  25.535  1.00  0.00     0.241 S 
ATOM     10  O   UNL A   1      29.224  25.972  25.120  1.00  0.00    -0.207 OA
ATOM     11  O   UNL A   1      30.986  26.830  26.712  1.00  0.00    -0.207 OA
BRANCH   9  12
ATOM     12  C   UNL A   1      31.263  24.463  25.704  1.00  0.00     0.082 A 
ATOM     13  C   UNL A   1      33.095  20.584  25.741  1.00  0.00     0.044 C 
ATOM     14  C   UNL A   1      32.429  21.927  25.754  1.00  0.00    -0.051 A 
ATOM     15  C   UNL A   1      31.581  22.292  24.701  1.00  0.00     0.005 A 
ATOM     16  C   UNL A   1      32.631  22.819  26.815  1.00  0.00     0.005 A 
ATOM     17  C   UNL A   1      31.007  23.560  24.668  1.00  0.00     0.022 A 
ATOM     18  C   UNL A   1      32.036  24.082  26.802  1.00  0.00     0.022 A 
ENDBRANCH   9  12
ENDBRANCH   7   9
ENDBRANCH   6   7
BRANCH   6  19
ATOM     19  C   UNL A   1      33.561  25.812  23.265  1.00  0.00     0.065 C 
BRANCH  19  20
ATOM     20  C   UNL A   1      34.439  24.729  23.878  1.00  0.00    -0.043 A 
ATOM     21  C   UNL A   1      34.604  23.532  23.154  1.00  0.00     0.004 A 
ATOM     22  C   UNL A   1      35.104  24.841  25.106  1.00  0.00     0.043 A 
ATOM     23  C   UNL A   1      35.465  22.523  23.599  1.00  0.00     0.003 A 
ATOM     24  C   UNL A   1      35.994  23.849  25.520  1.00  0.00     0.123 A 
ATOM     25  C   UNL A   1      36.185  22.695  24.775  1.00  0.00     0.039 A 
ATOM     26  F   UNL A   1      36.692  24.024  26.649  1.00  0.00    -0.207 F 
ENDBRANCH  19  20
ENDBRANCH   6  19
ENDBRANCH   3   6
ENDBRANCH   1   2
BRANCH   1  27
ATOM     27  C   UNL A   1      34.407  29.617  26.678  1.00  0.00     0.042 C 
BRANCH  27  28
ATOM     28  C   UNL A   1      34.247  30.478  27.911  1.00  0.00     0.118 C 
BRANCH  28  29
ATOM     29  N   UNL A   1      35.274  31.497  28.081  1.00  0.00    -0.352 N 
ATOM     30  C   UNL A   1      36.593  31.376  28.481  1.00  0.00     0.251 C 
ATOM     31  H   UNL A   1      34.984  32.416  27.880  1.00  0.00     0.163 HD
ATOM     32  O   UNL A   1      37.251  32.397  28.676  1.00  0.00    -0.269 OA
BRANCH  30  33
ATOM     33  C   UNL A   1      37.273  30.052  28.498  1.00  0.00     0.039 A 
ATOM     34  C   UNL A   1      37.265  29.326  29.700  1.00  0.00     0.014 A 
ATOM     35  C   UNL A   1      38.147  29.681  27.490  1.00  0.00     0.014 A 
ATOM     36  C   UNL A   1      38.320  28.465  29.990  1.00  0.00     0.010 A 
ATOM     37  C   UNL A   1      39.282  28.999  27.839  1.00  0.00     0.010 A 
ATOM     38  C   UNL A   1      39.389  28.429  29.108  1.00  0.00    -0.014 A 
BRANCH  38  39
ATOM     39  C   UNL A   1      40.675  27.801  29.342  1.00  0.00     0.031 A 
ATOM     40  C   UNL A   1      40.842  26.396  28.926  1.00  0.00     0.074 A 
ATOM     41  C   UNL A   1      41.734  28.590  29.621  1.00  0.00     0.049 A 
ATOM     42  N   UNL A   1      41.898  25.694  29.131  1.00  0.00    -0.248 NA
ATOM     43  C   UNL A   1      39.786  25.656  28.245  1.00  0.00     0.031 C 
ATOM     44  C   UNL A   1      43.147  28.293  29.411  1.00  0.00     0.029 A 
ATOM     45  N   UNL A   1      41.738  29.784  30.352  1.00  0.00    -0.354 N 
ATOM     46  C   UNL A   1      41.785  24.533  28.401  1.00  0.00     0.074 A 
ATOM     47  C   UNL A   1      40.423  24.527  27.928  1.00  0.00     0.031 C 
ATOM     48  C   UNL A   1      43.878  29.077  30.220  1.00  0.00     0.029 A 
ATOM     49  C   UNL A   1      42.945  29.762  31.097  1.00  0.00     0.049 A 
ATOM     50  H   UNL A   1      41.050  30.489  30.350  1.00  0.00     0.167 HD
ATOM     51  C   UNL A   1      42.907  23.781  28.211  1.00  0.00     0.037 A 
ATOM     52  C   UNL A   1      42.908  29.619  32.458  1.00  0.00     0.037 A 
ATOM     53  C   UNL A   1      44.011  24.312  29.016  1.00  0.00     0.049 A 
ATOM     54  C   UNL A   1      43.555  28.349  32.979  1.00  0.00     0.074 A 
ATOM     55  C   UNL A   1      45.089  25.145  28.770  1.00  0.00     0.029 A 
ATOM     56  N   UNL A   1      43.900  24.230  30.389  1.00  0.00    -0.354 N 
ATOM     57  N   UNL A   1      43.999  27.384  32.223  1.00  0.00    -0.248 NA
ATOM     58  C   UNL A   1      43.669  28.029  34.404  1.00  0.00     0.031 C 
ATOM     59  C   UNL A   1      45.588  25.599  30.029  1.00  0.00     0.029 A 
ATOM     60  C   UNL A   1      44.826  25.023  31.030  1.00  0.00     0.049 A 
ATOM     61  H   UNL A   1      43.238  23.670  30.856  1.00  0.00     0.167 HD
ATOM     62  C   UNL A   1      44.367  26.322  33.003  1.00  0.00     0.074 A 
ATOM     63  C   UNL A   1      44.157  26.778  34.364  1.00  0.00     0.031 C 
ATOM     64  C   UNL A   1      44.765  25.128  32.480  1.00  0.00     0.037 A 
BRANCH  51  65
ATOM     65  C   UNL A   1      43.095  22.674  27.197  1.00  0.00     0.057 A 
ATOM     66  C   UNL A   1      42.322  21.498  27.295  1.00  0.00     0.134 A 
ATOM     67  C   UNL A   1      44.028  22.650  26.144  1.00  0.00     0.134 A 
ATOM     68  F   UNL A   1      41.334  21.376  28.191  1.00  0.00    -0.206 F 
ATOM     69  C   UNL A   1      42.519  20.377  26.477  1.00  0.00     0.040 A 
ATOM     70  C   UNL A   1      44.253  21.528  25.334  1.00  0.00     0.040 A 
ATOM     71  F   UNL A   1      44.751  23.714  25.797  1.00  0.00    -0.206 F 
ATOM     72  C   UNL A   1      43.505  20.379  25.505  1.00  0.00     0.006 A 
ENDBRANCH  51  65
BRANCH  52  73
ATOM     73  C   UNL A   1      41.698  30.260  33.046  1.00  0.00     0.057 A 
ATOM     74  C   UNL A   1      41.672  31.663  33.145  1.00  0.00     0.134 A 
ATOM     75  C   UNL A   1      40.468  29.595  33.051  1.00  0.00     0.134 A 
ATOM     76  F   UNL A   1      42.820  32.360  33.157  1.00  0.00    -0.206 F 
ATOM     77  C   UNL A   1      40.475  32.380  33.083  1.00  0.00     0.040 A 
ATOM     78  C   UNL A   1      39.262  30.305  33.016  1.00  0.00     0.040 A 
ATOM     79  F   UNL A   1      40.412  28.260  32.949  1.00  0.00    -0.206 F 
ATOM     80  C   UNL A   1      39.267  31.699  32.974  1.00  0.00     0.006 A 
ENDBRANCH  52  73
BRANCH  64  81
ATOM     81  C   UNL A   1      45.114  23.937  33.322  1.00  0.00     0.057 A 
ATOM     82  C   UNL A   1      44.174  22.953  33.648  1.00  0.00     0.134 A 
ATOM     83  C   UNL A   1      46.374  23.816  33.941  1.00  0.00     0.134 A 
ATOM     84  F   UNL A   1      42.935  22.991  33.137  1.00  0.00    -0.206 F 
ATOM     85  C   UNL A   1      44.474  21.906  34.527  1.00  0.00     0.040 A 
ATOM     86  C   UNL A   1      46.667  22.809  34.863  1.00  0.00     0.040 A 
ATOM     87  F   UNL A   1      47.380  24.657  33.659  1.00  0.00    -0.206 F 
ATOM     88  C   UNL A   1      45.715  21.843  35.153  1.00  0.00     0.006 A 
ENDBRANCH  64  81
ENDBRANCH  38  39
ENDBRANCH  30  33
ENDBRANCH  28  29
ENDBRANCH  27  28
ENDBRANCH   1  27
TORSDOF 15
ENDMDL
