MODEL 1
REMARK VINA RESULT:     -10.8      0.000      0.000
REMARK SMILES Cc1nsc(NC(=O)CC[C@H](C)CC[NH3+])c1C(=O)NCCCNC(=O)c1ccc(-c2c3nc(c(-c4c(F)cccc4F)c4ccc([nH]4)c(-c4c(F)cccc4F)c4nc(c(-c5c(F)cccc5F)c5ccc2[nH]5)C=C4)C=C3)cc1
REMARK SMILES IDX 1 1 2 2 3 3 4 4 5 5 16 6 17 7 18 8 19 9 20 11 21 12 22 13
REMARK SMILES IDX 23 14 24 15 25 17 26 18 27 19 79 20 28 21 78 22 29 23 30 24
REMARK SMILES IDX 31 25 72 26 32 27 77 28 71 29 73 30 33 31 76 32 70 33 69 34
REMARK SMILES IDX 34 36 60 37 43 38 59 39 44 40 47 41 58 42 74 43 45 44 46 45
REMARK SMILES IDX 57 47 75 48 48 49 35 50 36 51 41 52 37 53 38 54 40 55 42 56
REMARK SMILES IDX 39 57 61 58 62 59 67 60 63 61 64 62 66 63 68 64 65 65 49 66
REMARK SMILES IDX 50 67 55 68 51 69 52 70 54 71 56 72 53 73 6 74 7 75 8 77
REMARK SMILES IDX 9 78 10 79 11 80 12 81 13 82 14 83 15 84
REMARK H PARENT 19 10 23 16 73 35 47 46 6 76 15 85 15 86 15 87
REMARK Flexibility Score: inf
ROOT
ATOM      1  C   UNL A   1      35.113  24.532  24.787  1.00  0.00     0.069 C 
ATOM      2  C   UNL A   1      33.671  24.252  24.520  1.00  0.00     0.066 A 
ATOM      3  N   UNL A   1      33.505  23.445  23.467  1.00  0.00    -0.195 NA
ATOM      4  S   UNL A   1      31.910  23.297  23.132  1.00  0.00    -0.017 S 
ATOM      5  C   UNL A   1      31.419  24.513  24.210  1.00  0.00     0.129 A 
ATOM      6  C   UNL A   1      32.432  24.716  25.163  1.00  0.00     0.097 A 
ENDROOT
BRANCH   6   7
ATOM      7  C   UNL A   1      32.061  25.360  26.442  1.00  0.00     0.256 C 
ATOM      8  O   UNL A   1      31.242  24.809  27.188  1.00  0.00    -0.269 OA
ATOM      9  N   UNL A   1      32.560  26.539  26.938  1.00  0.00    -0.352 N 
ATOM     10  H   UNL A   1      32.295  26.739  27.864  1.00  0.00     0.163 HD
BRANCH   9  11
ATOM     11  C   UNL A   1      33.404  27.530  26.331  1.00  0.00     0.118 C 
BRANCH  11  12
ATOM     12  C   UNL A   1      33.646  28.801  27.131  1.00  0.00     0.042 C 
BRANCH  12  13
ATOM     13  C   UNL A   1      35.102  29.161  27.324  1.00  0.00     0.118 C 
BRANCH  13  14
ATOM     14  N   UNL A   1      35.352  29.963  28.520  1.00  0.00    -0.352 N 
ATOM     15  C   UNL A   1      36.421  29.844  29.396  1.00  0.00     0.251 C 
ATOM     16  H   UNL A   1      34.692  30.663  28.725  1.00  0.00     0.163 HD
ATOM     17  O   UNL A   1      36.369  30.284  30.525  1.00  0.00    -0.269 OA
BRANCH  15  18
ATOM     18  C   UNL A   1      37.619  29.132  28.911  1.00  0.00     0.039 A 
ATOM     19  C   UNL A   1      38.280  29.560  27.762  1.00  0.00     0.014 A 
ATOM     20  C   UNL A   1      38.142  28.116  29.710  1.00  0.00     0.014 A 
ATOM     21  C   UNL A   1      39.541  29.037  27.494  1.00  0.00     0.010 A 
ATOM     22  C   UNL A   1      39.446  27.721  29.529  1.00  0.00     0.010 A 
ATOM     23  C   UNL A   1      40.149  28.159  28.412  1.00  0.00    -0.014 A 
BRANCH  23  24
ATOM     24  C   UNL A   1      41.576  27.851  28.282  1.00  0.00     0.031 A 
ATOM     25  C   UNL A   1      41.849  26.609  27.508  1.00  0.00     0.074 A 
ATOM     26  C   UNL A   1      42.588  28.659  28.665  1.00  0.00     0.049 A 
ATOM     27  N   UNL A   1      42.225  25.470  27.987  1.00  0.00    -0.248 NA
ATOM     28  C   UNL A   1      41.501  26.564  26.078  1.00  0.00     0.031 C 
ATOM     29  C   UNL A   1      42.512  30.036  29.162  1.00  0.00     0.029 A 
ATOM     30  N   UNL A   1      43.936  28.441  28.606  1.00  0.00    -0.354 N 
ATOM     31  C   UNL A   1      42.407  24.637  26.890  1.00  0.00     0.074 A 
ATOM     32  C   UNL A   1      41.752  25.285  25.784  1.00  0.00     0.031 C 
ATOM     33  C   UNL A   1      43.738  30.601  29.138  1.00  0.00     0.029 A 
ATOM     34  C   UNL A   1      44.713  29.579  28.803  1.00  0.00     0.049 A 
ATOM     35  H   UNL A   1      44.325  27.553  28.439  1.00  0.00     0.167 HD
ATOM     36  C   UNL A   1      43.343  23.649  26.934  1.00  0.00     0.037 A 
ATOM     37  C   UNL A   1      46.061  29.686  28.705  1.00  0.00     0.037 A 
ATOM     38  C   UNL A   1      43.736  23.382  28.301  1.00  0.00     0.049 A 
ATOM     39  C   UNL A   1      46.619  28.325  28.862  1.00  0.00     0.074 A 
ATOM     40  C   UNL A   1      43.088  23.014  29.463  1.00  0.00     0.029 A 
ATOM     41  N   UNL A   1      44.955  23.878  28.691  1.00  0.00    -0.354 N 
ATOM     42  N   UNL A   1      46.608  27.658  29.980  1.00  0.00    -0.248 NA
ATOM     43  C   UNL A   1      46.848  27.536  27.664  1.00  0.00     0.031 C 
ATOM     44  C   UNL A   1      43.764  23.715  30.508  1.00  0.00     0.029 A 
ATOM     45  C   UNL A   1      44.834  24.411  29.943  1.00  0.00     0.049 A 
ATOM     46  H   UNL A   1      45.780  23.854  28.157  1.00  0.00     0.167 HD
ATOM     47  C   UNL A   1      46.348  26.354  29.597  1.00  0.00     0.074 A 
ATOM     48  C   UNL A   1      46.656  26.315  28.169  1.00  0.00     0.031 C 
ATOM     49  C   UNL A   1      45.629  25.524  30.409  1.00  0.00     0.037 A 
BRANCH  36  50
ATOM     50  C   UNL A   1      44.252  23.288  25.772  1.00  0.00     0.057 A 
ATOM     51  C   UNL A   1      44.464  21.924  25.484  1.00  0.00     0.134 A 
ATOM     52  C   UNL A   1      45.174  24.169  25.170  1.00  0.00     0.134 A 
ATOM     53  F   UNL A   1      43.658  20.980  25.993  1.00  0.00    -0.206 F 
ATOM     54  C   UNL A   1      45.575  21.470  24.762  1.00  0.00     0.040 A 
ATOM     55  C   UNL A   1      46.258  23.727  24.404  1.00  0.00     0.040 A 
ATOM     56  F   UNL A   1      45.150  25.490  25.363  1.00  0.00    -0.206 F 
ATOM     57  C   UNL A   1      46.485  22.373  24.231  1.00  0.00     0.006 A 
ENDBRANCH  36  50
BRANCH  37  58
ATOM     58  C   UNL A   1      46.906  30.828  28.288  1.00  0.00     0.057 A 
ATOM     59  C   UNL A   1      46.835  31.340  26.982  1.00  0.00     0.134 A 
ATOM     60  C   UNL A   1      47.571  31.632  29.228  1.00  0.00     0.134 A 
ATOM     61  F   UNL A   1      46.196  30.663  26.016  1.00  0.00    -0.206 F 
ATOM     62  C   UNL A   1      47.350  32.598  26.643  1.00  0.00     0.040 A 
ATOM     63  C   UNL A   1      48.096  32.888  28.902  1.00  0.00     0.040 A 
ATOM     64  F   UNL A   1      47.648  31.269  30.516  1.00  0.00    -0.206 F 
ATOM     65  C   UNL A   1      47.968  33.384  27.610  1.00  0.00     0.006 A 
ENDBRANCH  37  58
BRANCH  49  66
ATOM     66  C   UNL A   1      45.489  25.909  31.856  1.00  0.00     0.057 A 
ATOM     67  C   UNL A   1      46.459  25.697  32.848  1.00  0.00     0.134 A 
ATOM     68  C   UNL A   1      44.345  26.623  32.235  1.00  0.00     0.134 A 
ATOM     69  F   UNL A   1      47.629  25.108  32.568  1.00  0.00    -0.206 F 
ATOM     70  C   UNL A   1      46.269  26.130  34.166  1.00  0.00     0.040 A 
ATOM     71  C   UNL A   1      44.163  27.095  33.535  1.00  0.00     0.040 A 
ATOM     72  F   UNL A   1      43.394  26.905  31.330  1.00  0.00    -0.206 F 
ATOM     73  C   UNL A   1      45.121  26.837  34.511  1.00  0.00     0.006 A 
ENDBRANCH  49  66
ENDBRANCH  23  24
ENDBRANCH  15  18
ENDBRANCH  13  14
ENDBRANCH  12  13
ENDBRANCH  11  12
ENDBRANCH   9  11
ENDBRANCH   6   7
BRANCH   5  74
ATOM     74  N   UNL A   1      30.134  25.010  24.177  1.00  0.00    -0.316 N 
ATOM     75  C   UNL A   1      29.648  26.173  23.643  1.00  0.00     0.225 C 
ATOM     76  H   UNL A   1      29.456  24.439  24.606  1.00  0.00     0.170 HD
ATOM     77  O   UNL A   1      28.426  26.354  23.681  1.00  0.00    -0.275 OA
BRANCH  75  78
ATOM     78  C   UNL A   1      30.540  27.294  23.117  1.00  0.00     0.101 C 
BRANCH  78  79
ATOM     79  C   UNL A   1      30.403  28.619  23.886  1.00  0.00     0.013 C 
BRANCH  79  80
ATOM     80  C   UNL A   1      29.947  29.858  23.080  1.00  0.00    -0.008 C 
ATOM     81  C   UNL A   1      29.573  30.992  24.042  1.00  0.00     0.008 C 
BRANCH  80  82
ATOM     82  C   UNL A   1      28.758  29.571  22.143  1.00  0.00     0.064 C 
BRANCH  82  83
ATOM     83  C   UNL A   1      27.360  29.776  22.748  1.00  0.00     0.259 C 
BRANCH  83  84
ATOM     84  N   UNL A   1      26.662  28.531  23.045  1.00  0.00    -0.358 N 
ATOM     85  H   UNL A   1      27.327  27.757  23.032  1.00  0.00     0.344 HD
ATOM     86  H   UNL A   1      25.940  28.371  22.344  1.00  0.00     0.344 HD
ATOM     87  H   UNL A   1      26.232  28.594  23.968  1.00  0.00     0.344 HD
ENDBRANCH  83  84
ENDBRANCH  82  83
ENDBRANCH  80  82
ENDBRANCH  79  80
ENDBRANCH  78  79
ENDBRANCH  75  78
ENDBRANCH   5  74
TORSDOF 17
ENDMDL
MODEL 2
REMARK VINA RESULT:     -10.7      1.143      3.318
REMARK SMILES Cc1nsc(NC(=O)CC[C@H](C)CC[NH3+])c1C(=O)NCCCNC(=O)c1ccc(-c2c3nc(c(-c4c(F)cccc4F)c4ccc([nH]4)c(-c4c(F)cccc4F)c4nc(c(-c5c(F)cccc5F)c5ccc2[nH]5)C=C4)C=C3)cc1
REMARK SMILES IDX 1 1 2 2 3 3 4 4 5 5 16 6 17 7 18 8 19 9 20 11 21 12 22 13
REMARK SMILES IDX 23 14 24 15 25 17 26 18 27 19 79 20 28 21 78 22 29 23 30 24
REMARK SMILES IDX 31 25 72 26 32 27 77 28 71 29 73 30 33 31 76 32 70 33 69 34
REMARK SMILES IDX 34 36 60 37 43 38 59 39 44 40 47 41 58 42 74 43 45 44 46 45
REMARK SMILES IDX 57 47 75 48 48 49 35 50 36 51 41 52 37 53 38 54 40 55 42 56
REMARK SMILES IDX 39 57 61 58 62 59 67 60 63 61 64 62 66 63 68 64 65 65 49 66
REMARK SMILES IDX 50 67 55 68 51 69 52 70 54 71 56 72 53 73 6 74 7 75 8 77
REMARK SMILES IDX 9 78 10 79 11 80 12 81 13 82 14 83 15 84
REMARK H PARENT 19 10 23 16 73 35 47 46 6 76 15 85 15 86 15 87
REMARK Flexibility Score: inf
ROOT
ATOM      1  C   UNL A   1      30.044  28.940  23.499  1.00  0.00     0.069 C 
ATOM      2  C   UNL A   1      30.809  27.666  23.351  1.00  0.00     0.066 A 
ATOM      3  N   UNL A   1      31.040  27.367  22.068  1.00  0.00    -0.195 NA
ATOM      4  S   UNL A   1      31.744  25.894  21.964  1.00  0.00    -0.017 S 
ATOM      5  C   UNL A   1      31.515  25.503  23.599  1.00  0.00     0.129 A 
ATOM      6  C   UNL A   1      31.311  26.688  24.328  1.00  0.00     0.097 A 
ENDROOT
BRANCH   6   7
ATOM      7  C   UNL A   1      31.554  26.654  25.788  1.00  0.00     0.256 C 
ATOM      8  O   UNL A   1      30.906  25.872  26.496  1.00  0.00    -0.269 OA
ATOM      9  N   UNL A   1      32.473  27.403  26.480  1.00  0.00    -0.352 N 
ATOM     10  H   UNL A   1      32.582  27.146  27.424  1.00  0.00     0.163 HD
BRANCH   9  11
ATOM     11  C   UNL A   1      33.300  28.497  26.059  1.00  0.00     0.118 C 
BRANCH  11  12
ATOM     12  C   UNL A   1      33.735  29.477  27.139  1.00  0.00     0.042 C 
BRANCH  12  13
ATOM     13  C   UNL A   1      35.164  29.312  27.606  1.00  0.00     0.118 C 
BRANCH  13  14
ATOM     14  N   UNL A   1      35.500  30.140  28.763  1.00  0.00    -0.352 N 
ATOM     15  C   UNL A   1      36.616  30.021  29.579  1.00  0.00     0.251 C 
ATOM     16  H   UNL A   1      34.866  30.859  28.987  1.00  0.00     0.163 HD
ATOM     17  O   UNL A   1      36.639  30.491  30.697  1.00  0.00    -0.269 OA
BRANCH  15  18
ATOM     18  C   UNL A   1      37.769  29.272  29.044  1.00  0.00     0.039 A 
ATOM     19  C   UNL A   1      38.428  29.710  27.897  1.00  0.00     0.014 A 
ATOM     20  C   UNL A   1      38.258  28.204  29.795  1.00  0.00     0.014 A 
ATOM     21  C   UNL A   1      39.657  29.139  27.585  1.00  0.00     0.010 A 
ATOM     22  C   UNL A   1      39.538  27.755  29.574  1.00  0.00     0.010 A 
ATOM     23  C   UNL A   1      40.240  28.200  28.459  1.00  0.00    -0.014 A 
BRANCH  23  24
ATOM     24  C   UNL A   1      41.647  27.830  28.288  1.00  0.00     0.031 A 
ATOM     25  C   UNL A   1      41.843  26.557  27.541  1.00  0.00     0.074 A 
ATOM     26  C   UNL A   1      42.705  28.606  28.613  1.00  0.00     0.049 A 
ATOM     27  N   UNL A   1      42.190  25.418  28.038  1.00  0.00    -0.248 NA
ATOM     28  C   UNL A   1      41.442  26.488  26.126  1.00  0.00     0.031 C 
ATOM     29  C   UNL A   1      42.701  29.998  29.074  1.00  0.00     0.029 A 
ATOM     30  N   UNL A   1      44.039  28.331  28.514  1.00  0.00    -0.354 N 
ATOM     31  C   UNL A   1      42.299  24.548  26.960  1.00  0.00     0.074 A 
ATOM     32  C   UNL A   1      41.631  25.193  25.860  1.00  0.00     0.031 C 
ATOM     33  C   UNL A   1      43.948  30.511  28.991  1.00  0.00     0.029 A 
ATOM     34  C   UNL A   1      44.868  29.442  28.652  1.00  0.00     0.049 A 
ATOM     35  H   UNL A   1      44.386  27.423  28.359  1.00  0.00     0.167 HD
ATOM     36  C   UNL A   1      43.196  23.525  27.000  1.00  0.00     0.037 A 
ATOM     37  C   UNL A   1      46.214  29.490  28.505  1.00  0.00     0.037 A 
ATOM     38  C   UNL A   1      43.626  23.279  28.360  1.00  0.00     0.049 A 
ATOM     39  C   UNL A   1      46.723  28.112  28.680  1.00  0.00     0.074 A 
ATOM     40  C   UNL A   1      43.005  22.969  29.553  1.00  0.00     0.029 A 
ATOM     41  N   UNL A   1      44.877  23.734  28.693  1.00  0.00    -0.354 N 
ATOM     42  N   UNL A   1      46.725  27.476  29.816  1.00  0.00    -0.248 NA
ATOM     43  C   UNL A   1      46.878  27.282  27.498  1.00  0.00     0.031 C 
ATOM     44  C   UNL A   1      43.746  23.669  30.554  1.00  0.00     0.029 A 
ATOM     45  C   UNL A   1      44.822  24.305  29.933  1.00  0.00     0.049 A 
ATOM     46  H   UNL A   1      45.681  23.662  28.132  1.00  0.00     0.167 HD
ATOM     47  C   UNL A   1      46.400  26.174  29.480  1.00  0.00     0.074 A 
ATOM     48  C   UNL A   1      46.654  26.084  28.044  1.00  0.00     0.031 C 
ATOM     49  C   UNL A   1      45.677  25.397  30.340  1.00  0.00     0.037 A 
BRANCH  36  50
ATOM     50  C   UNL A   1      44.048  23.095  25.818  1.00  0.00     0.057 A 
ATOM     51  C   UNL A   1      44.207  21.716  25.571  1.00  0.00     0.134 A 
ATOM     52  C   UNL A   1      44.972  23.925  25.150  1.00  0.00     0.134 A 
ATOM     53  F   UNL A   1      43.393  20.815  26.144  1.00  0.00    -0.206 F 
ATOM     54  C   UNL A   1      45.275  21.202  24.824  1.00  0.00     0.040 A 
ATOM     55  C   UNL A   1      46.011  23.423  24.360  1.00  0.00     0.040 A 
ATOM     56  F   UNL A   1      44.995  25.253  25.297  1.00  0.00    -0.206 F 
ATOM     57  C   UNL A   1      46.190  22.058  24.227  1.00  0.00     0.006 A 
ENDBRANCH  36  50
BRANCH  37  58
ATOM     58  C   UNL A   1      47.089  30.585  28.026  1.00  0.00     0.057 A 
ATOM     59  C   UNL A   1      46.748  31.341  26.893  1.00  0.00     0.134 A 
ATOM     60  C   UNL A   1      48.112  31.113  28.831  1.00  0.00     0.134 A 
ATOM     61  F   UNL A   1      45.763  30.937  26.075  1.00  0.00    -0.206 F 
ATOM     62  C   UNL A   1      47.350  32.572  26.605  1.00  0.00     0.040 A 
ATOM     63  C   UNL A   1      48.728  32.338  28.551  1.00  0.00     0.040 A 
ATOM     64  F   UNL A   1      48.480  30.505  29.968  1.00  0.00    -0.206 F 
ATOM     65  C   UNL A   1      48.333  33.082  27.446  1.00  0.00     0.006 A 
ENDBRANCH  37  58
BRANCH  49  66
ATOM     66  C   UNL A   1      45.604  25.826  31.779  1.00  0.00     0.057 A 
ATOM     67  C   UNL A   1      46.604  25.612  32.739  1.00  0.00     0.134 A 
ATOM     68  C   UNL A   1      44.497  26.585  32.180  1.00  0.00     0.134 A 
ATOM     69  F   UNL A   1      47.745  24.980  32.433  1.00  0.00    -0.206 F 
ATOM     70  C   UNL A   1      46.479  26.087  34.050  1.00  0.00     0.040 A 
ATOM     71  C   UNL A   1      44.379  27.099  33.471  1.00  0.00     0.040 A 
ATOM     72  F   UNL A   1      43.521  26.871  31.303  1.00  0.00    -0.206 F 
ATOM     73  C   UNL A   1      45.366  26.838  34.418  1.00  0.00     0.006 A 
ENDBRANCH  49  66
ENDBRANCH  23  24
ENDBRANCH  15  18
ENDBRANCH  13  14
ENDBRANCH  12  13
ENDBRANCH  11  12
ENDBRANCH   9  11
ENDBRANCH   6   7
BRANCH   5  74
ATOM     74  N   UNL A   1      31.713  24.217  24.054  1.00  0.00    -0.316 N 
ATOM     75  C   UNL A   1      32.869  23.562  24.381  1.00  0.00     0.225 C 
ATOM     76  H   UNL A   1      30.893  23.683  24.160  1.00  0.00     0.170 HD
ATOM     77  O   UNL A   1      32.769  22.419  24.841  1.00  0.00    -0.275 OA
BRANCH  75  78
ATOM     78  C   UNL A   1      34.261  24.122  24.101  1.00  0.00     0.101 C 
BRANCH  78  79
ATOM     79  C   UNL A   1      35.093  24.397  25.365  1.00  0.00     0.013 C 
BRANCH  79  80
ATOM     80  C   UNL A   1      36.147  23.337  25.760  1.00  0.00    -0.008 C 
ATOM     81  C   UNL A   1      37.504  24.016  25.986  1.00  0.00     0.008 C 
BRANCH  80  82
ATOM     82  C   UNL A   1      36.306  22.217  24.714  1.00  0.00     0.064 C 
BRANCH  82  83
ATOM     83  C   UNL A   1      36.170  20.780  25.240  1.00  0.00     0.259 C 
BRANCH  83  84
ATOM     84  N   UNL A   1      34.855  20.193  25.009  1.00  0.00    -0.358 N 
ATOM     85  H   UNL A   1      34.910  19.181  25.126  1.00  0.00     0.344 HD
ATOM     86  H   UNL A   1      34.549  20.410  24.061  1.00  0.00     0.344 HD
ATOM     87  H   UNL A   1      34.189  20.578  25.678  1.00  0.00     0.344 HD
ENDBRANCH  83  84
ENDBRANCH  82  83
ENDBRANCH  80  82
ENDBRANCH  79  80
ENDBRANCH  78  79
ENDBRANCH  75  78
ENDBRANCH   5  74
TORSDOF 17
ENDMDL
MODEL 3
REMARK VINA RESULT:     -10.4      4.230      8.692
REMARK SMILES Cc1nsc(NC(=O)CC[C@H](C)CC[NH3+])c1C(=O)NCCCNC(=O)c1ccc(-c2c3nc(c(-c4c(F)cccc4F)c4ccc([nH]4)c(-c4c(F)cccc4F)c4nc(c(-c5c(F)cccc5F)c5ccc2[nH]5)C=C4)C=C3)cc1
REMARK SMILES IDX 1 1 2 2 3 3 4 4 5 5 16 6 17 7 18 8 19 9 20 11 21 12 22 13
REMARK SMILES IDX 23 14 24 15 25 17 26 18 27 19 79 20 28 21 78 22 29 23 30 24
REMARK SMILES IDX 31 25 72 26 32 27 77 28 71 29 73 30 33 31 76 32 70 33 69 34
REMARK SMILES IDX 34 36 60 37 43 38 59 39 44 40 47 41 58 42 74 43 45 44 46 45
REMARK SMILES IDX 57 47 75 48 48 49 35 50 36 51 41 52 37 53 38 54 40 55 42 56
REMARK SMILES IDX 39 57 61 58 62 59 67 60 63 61 64 62 66 63 68 64 65 65 49 66
REMARK SMILES IDX 50 67 55 68 51 69 52 70 54 71 56 72 53 73 6 74 7 75 8 77
REMARK SMILES IDX 9 78 10 79 11 80 12 81 13 82 14 83 15 84
REMARK H PARENT 19 10 23 16 73 35 47 46 6 76 15 85 15 86 15 87
REMARK Flexibility Score: inf
ROOT
ATOM      1  C   UNL A   1      33.292  19.958  25.641  1.00  0.00     0.069 C 
ATOM      2  C   UNL A   1      32.982  20.983  24.600  1.00  0.00     0.066 A 
ATOM      3  N   UNL A   1      32.317  20.460  23.565  1.00  0.00    -0.195 NA
ATOM      4  S   UNL A   1      32.140  21.591  22.396  1.00  0.00    -0.017 S 
ATOM      5  C   UNL A   1      33.175  22.721  23.124  1.00  0.00     0.129 A 
ATOM      6  C   UNL A   1      33.296  22.416  24.491  1.00  0.00     0.097 A 
ENDROOT
BRANCH   6   7
ATOM      7  C   UNL A   1      33.745  23.491  25.404  1.00  0.00     0.256 C 
ATOM      8  O   UNL A   1      32.986  24.436  25.654  1.00  0.00    -0.269 OA
ATOM      9  N   UNL A   1      34.949  23.556  26.059  1.00  0.00    -0.352 N 
ATOM     10  H   UNL A   1      35.014  24.275  26.727  1.00  0.00     0.163 HD
BRANCH   9  11
ATOM     11  C   UNL A   1      36.131  22.750  25.934  1.00  0.00     0.118 C 
BRANCH  11  12
ATOM     12  C   UNL A   1      37.373  23.442  25.391  1.00  0.00     0.042 C 
BRANCH  12  13
ATOM     13  C   UNL A   1      38.208  24.153  26.432  1.00  0.00     0.118 C 
BRANCH  13  14
ATOM     14  N   UNL A   1      39.621  24.259  26.074  1.00  0.00    -0.352 N 
ATOM     15  C   UNL A   1      40.451  25.354  26.269  1.00  0.00     0.251 C 
ATOM     16  H   UNL A   1      40.027  23.470  25.649  1.00  0.00     0.163 HD
ATOM     17  O   UNL A   1      41.476  25.495  25.636  1.00  0.00    -0.269 OA
BRANCH  15  18
ATOM     18  C   UNL A   1      40.023  26.360  27.259  1.00  0.00     0.039 A 
ATOM     19  C   UNL A   1      39.654  25.976  28.547  1.00  0.00     0.014 A 
ATOM     20  C   UNL A   1      40.134  27.706  26.911  1.00  0.00     0.014 A 
ATOM     21  C   UNL A   1      39.519  26.963  29.517  1.00  0.00     0.010 A 
ATOM     22  C   UNL A   1      40.155  28.658  27.902  1.00  0.00     0.010 A 
ATOM     23  C   UNL A   1      39.829  28.302  29.206  1.00  0.00    -0.014 A 
BRANCH  23  24
ATOM     24  C   UNL A   1      39.977  29.279  30.288  1.00  0.00     0.031 A 
ATOM     25  C   UNL A   1      38.746  30.076  30.544  1.00  0.00     0.074 A 
ATOM     26  C   UNL A   1      41.045  29.380  31.109  1.00  0.00     0.049 A 
ATOM     27  N   UNL A   1      38.545  31.309  30.220  1.00  0.00    -0.248 NA
ATOM     28  C   UNL A   1      37.543  29.394  31.051  1.00  0.00     0.031 C 
ATOM     29  C   UNL A   1      42.208  28.492  31.199  1.00  0.00     0.029 A 
ATOM     30  N   UNL A   1      41.277  30.272  32.118  1.00  0.00    -0.354 N 
ATOM     31  C   UNL A   1      37.286  31.633  30.711  1.00  0.00     0.074 A 
ATOM     32  C   UNL A   1      36.644  30.381  31.014  1.00  0.00     0.031 C 
ATOM     33  C   UNL A   1      42.891  28.745  32.336  1.00  0.00     0.029 A 
ATOM     34  C   UNL A   1      42.329  29.928  32.961  1.00  0.00     0.049 A 
ATOM     35  H   UNL A   1      40.744  31.091  32.238  1.00  0.00     0.167 HD
ATOM     36  C   UNL A   1      37.017  32.907  31.107  1.00  0.00     0.037 A 
ATOM     37  C   UNL A   1      42.723  30.564  34.092  1.00  0.00     0.037 A 
ATOM     38  C   UNL A   1      38.002  33.824  30.573  1.00  0.00     0.049 A 
ATOM     39  C   UNL A   1      42.205  31.947  34.018  1.00  0.00     0.074 A 
ATOM     40  C   UNL A   1      38.461  34.161  29.315  1.00  0.00     0.029 A 
ATOM     41  N   UNL A   1      38.952  34.275  31.454  1.00  0.00    -0.354 N 
ATOM     42  N   UNL A   1      42.645  32.846  33.186  1.00  0.00    -0.248 NA
ATOM     43  C   UNL A   1      40.910  32.227  34.615  1.00  0.00     0.031 C 
ATOM     44  C   UNL A   1      39.860  34.396  29.477  1.00  0.00     0.029 A 
ATOM     45  C   UNL A   1      40.169  34.267  30.832  1.00  0.00     0.049 A 
ATOM     46  H   UNL A   1      38.785  34.558  32.381  1.00  0.00     0.167 HD
ATOM     47  C   UNL A   1      41.510  33.535  32.795  1.00  0.00     0.074 A 
ATOM     48  C   UNL A   1      40.510  33.215  33.810  1.00  0.00     0.031 C 
ATOM     49  C   UNL A   1      41.414  34.049  31.533  1.00  0.00     0.037 A 
BRANCH  36  50
ATOM     50  C   UNL A   1      36.205  33.260  32.341  1.00  0.00     0.057 A 
ATOM     51  C   UNL A   1      35.243  34.285  32.242  1.00  0.00     0.134 A 
ATOM     52  C   UNL A   1      36.554  32.902  33.660  1.00  0.00     0.134 A 
ATOM     53  F   UNL A   1      34.822  34.721  31.045  1.00  0.00    -0.206 F 
ATOM     54  C   UNL A   1      34.765  34.981  33.360  1.00  0.00     0.040 A 
ATOM     55  C   UNL A   1      36.043  33.557  34.785  1.00  0.00     0.040 A 
ATOM     56  F   UNL A   1      37.477  31.979  33.943  1.00  0.00    -0.206 F 
ATOM     57  C   UNL A   1      35.177  34.627  34.637  1.00  0.00     0.006 A 
ENDBRANCH  36  50
BRANCH  37  58
ATOM     58  C   UNL A   1      43.338  30.030  35.329  1.00  0.00     0.057 A 
ATOM     59  C   UNL A   1      42.788  28.920  35.989  1.00  0.00     0.134 A 
ATOM     60  C   UNL A   1      44.636  30.397  35.721  1.00  0.00     0.134 A 
ATOM     61  F   UNL A   1      41.565  28.471  35.667  1.00  0.00    -0.206 F 
ATOM     62  C   UNL A   1      43.503  28.187  36.945  1.00  0.00     0.040 A 
ATOM     63  C   UNL A   1      45.360  29.679  36.680  1.00  0.00     0.040 A 
ATOM     64  F   UNL A   1      45.281  31.406  35.118  1.00  0.00    -0.206 F 
ATOM     65  C   UNL A   1      44.801  28.557  37.280  1.00  0.00     0.006 A 
ENDBRANCH  37  58
BRANCH  49  66
ATOM     66  C   UNL A   1      42.683  34.212  30.744  1.00  0.00     0.057 A 
ATOM     67  C   UNL A   1      43.174  33.296  29.801  1.00  0.00     0.134 A 
ATOM     68  C   UNL A   1      43.389  35.414  30.882  1.00  0.00     0.134 A 
ATOM     69  F   UNL A   1      42.522  32.158  29.525  1.00  0.00    -0.206 F 
ATOM     70  C   UNL A   1      44.342  33.546  29.072  1.00  0.00     0.040 A 
ATOM     71  C   UNL A   1      44.532  35.693  30.132  1.00  0.00     0.040 A 
ATOM     72  F   UNL A   1      42.954  36.359  31.731  1.00  0.00    -0.206 F 
ATOM     73  C   UNL A   1      45.022  34.750  29.233  1.00  0.00     0.006 A 
ENDBRANCH  49  66
ENDBRANCH  23  24
ENDBRANCH  15  18
ENDBRANCH  13  14
ENDBRANCH  12  13
ENDBRANCH  11  12
ENDBRANCH   9  11
ENDBRANCH   6   7
BRANCH   5  74
ATOM     74  N   UNL A   1      33.611  23.830  22.431  1.00  0.00    -0.316 N 
ATOM     75  C   UNL A   1      33.006  25.040  22.226  1.00  0.00     0.225 C 
ATOM     76  H   UNL A   1      34.499  23.738  22.016  1.00  0.00     0.170 HD
ATOM     77  O   UNL A   1      33.649  25.907  21.622  1.00  0.00    -0.275 OA
BRANCH  75  78
ATOM     78  C   UNL A   1      31.555  25.329  22.599  1.00  0.00     0.101 C 
BRANCH  78  79
ATOM     79  C   UNL A   1      31.152  26.807  22.456  1.00  0.00     0.013 C 
BRANCH  79  80
ATOM     80  C   UNL A   1      30.299  27.417  23.592  1.00  0.00    -0.008 C 
ATOM     81  C   UNL A   1      29.830  26.307  24.541  1.00  0.00     0.008 C 
BRANCH  80  82
ATOM     82  C   UNL A   1      29.075  28.200  23.081  1.00  0.00     0.064 C 
BRANCH  82  83
ATOM     83  C   UNL A   1      29.227  29.727  23.024  1.00  0.00     0.259 C 
BRANCH  83  84
ATOM     84  N   UNL A   1      30.284  30.243  23.887  1.00  0.00    -0.358 N 
ATOM     85  H   UNL A   1      30.892  29.476  24.175  1.00  0.00     0.344 HD
ATOM     86  H   UNL A   1      29.869  30.676  24.711  1.00  0.00     0.344 HD
ATOM     87  H   UNL A   1      30.831  30.936  23.377  1.00  0.00     0.344 HD
ENDBRANCH  83  84
ENDBRANCH  82  83
ENDBRANCH  80  82
ENDBRANCH  79  80
ENDBRANCH  78  79
ENDBRANCH  75  78
ENDBRANCH   5  74
TORSDOF 17
ENDMDL
