MODEL 1
REMARK VINA RESULT:     -12.3      0.000      0.000
REMARK SMILES CCc1cc(C)c2c(c1)C=C(C(=O)NCCCNC(=O)c1ccc(-c3c4nc(c(-c5c(F)cccc5F)c5ccc([nH]5)c(-c5c(F)cccc5F)c5nc(c(-c6c(F)cccc6F)c6ccc3[nH]6)C=C5)C=C4)cc1)[C@@H](C(F)(F)F)O2
REMARK SMILES IDX 16 1 15 2 14 3 12 4 13 5 11 7 3 8 4 9 9 10 5 11 8 12 6 13
REMARK SMILES IDX 7 14 10 15 80 16 75 17 2 18 1 19 76 20 77 21 78 22 79 23
REMARK SMILES IDX 17 24 18 25 19 26 20 28 21 29 22 30 74 31 23 32 73 33 24 34
REMARK SMILES IDX 25 35 26 36 67 37 27 38 72 39 66 40 68 41 28 42 71 43 65 44
REMARK SMILES IDX 64 45 29 47 55 48 38 49 54 50 39 51 42 52 53 53 69 54 40 55
REMARK SMILES IDX 41 56 52 58 70 59 43 60 30 61 31 62 36 63 32 64 33 65 35 66
REMARK SMILES IDX 37 67 34 68 56 69 57 70 62 71 58 72 59 73 61 74 63 75 60 76
REMARK SMILES IDX 44 77 45 78 50 79 46 80 47 81 49 82 51 83 48 84
REMARK H PARENT 14 6 18 27 68 46 42 57
REMARK Flexibility Score: inf
ROOT
ATOM      1  C   UNL A   1      37.810  19.535  24.991  1.00  0.00     0.042 C 
ENDROOT
BRANCH   1   2
ATOM      2  C   UNL A   1      36.772  20.601  24.673  1.00  0.00     0.118 C 
BRANCH   2   3
ATOM      3  N   UNL A   1      35.768  20.707  25.723  1.00  0.00    -0.352 N 
ATOM      4  C   UNL A   1      34.725  21.515  26.024  1.00  0.00     0.251 C 
ATOM      5  O   UNL A   1      34.134  21.234  27.070  1.00  0.00    -0.270 OA
ATOM      6  H   UNL A   1      35.879  19.998  26.397  1.00  0.00     0.163 HD
BRANCH   4   7
ATOM      7  C   UNL A   1      34.271  22.673  25.203  1.00  0.00     0.067 C 
ATOM      8  C   UNL A   1      33.574  27.456  24.868  1.00  0.00    -0.047 A 
ATOM      9  C   UNL A   1      33.244  27.300  23.512  1.00  0.00     0.011 A 
ATOM     10  C   UNL A   1      33.959  26.327  25.608  1.00  0.00     0.015 A 
ATOM     11  C   UNL A   1      33.275  26.041  22.900  1.00  0.00    -0.008 A 
ATOM     12  C   UNL A   1      34.001  25.064  25.009  1.00  0.00     0.018 A 
ATOM     13  C   UNL A   1      32.902  25.886  21.455  1.00  0.00     0.048 C 
ATOM     14  C   UNL A   1      33.654  24.931  23.663  1.00  0.00     0.130 A 
ATOM     15  C   UNL A   1      34.440  23.889  25.754  1.00  0.00     0.025 C 
ATOM     16  O   UNL A   1      33.722  23.728  23.016  1.00  0.00    -0.475 OA
ATOM     17  C   UNL A   1      33.628  22.547  23.852  1.00  0.00     0.314 C 
BRANCH   8  18
ATOM     18  C   UNL A   1      33.565  28.823  25.509  1.00  0.00     0.032 C 
ATOM     19  C   UNL A   1      34.232  28.853  26.877  1.00  0.00     0.009 C 
ENDBRANCH   8  18
BRANCH  17  20
ATOM     20  C   UNL A   1      32.159  22.091  23.929  1.00  0.00     0.429 C 
ATOM     21  F   UNL A   1      32.091  20.741  24.059  1.00  0.00    -0.167 F 
ATOM     22  F   UNL A   1      31.510  22.609  25.000  1.00  0.00    -0.167 F 
ATOM     23  F   UNL A   1      31.443  22.429  22.836  1.00  0.00    -0.167 F 
ENDBRANCH  17  20
ENDBRANCH   4   7
ENDBRANCH   2   3
ENDBRANCH   1   2
BRANCH   1  24
ATOM     24  C   UNL A   1      38.999  20.111  25.751  1.00  0.00     0.118 C 
BRANCH  24  25
ATOM     25  N   UNL A   1      40.077  19.132  25.873  1.00  0.00    -0.352 N 
ATOM     26  C   UNL A   1      41.430  19.335  25.985  1.00  0.00     0.251 C 
ATOM     27  H   UNL A   1      39.792  18.190  25.874  1.00  0.00     0.163 HD
ATOM     28  O   UNL A   1      42.214  18.413  25.777  1.00  0.00    -0.269 OA
BRANCH  26  29
ATOM     29  C   UNL A   1      41.935  20.666  26.363  1.00  0.00     0.039 A 
ATOM     30  C   UNL A   1      42.138  20.971  27.712  1.00  0.00     0.014 A 
ATOM     31  C   UNL A   1      42.179  21.623  25.375  1.00  0.00     0.014 A 
ATOM     32  C   UNL A   1      42.639  22.226  28.064  1.00  0.00     0.010 A 
ATOM     33  C   UNL A   1      42.751  22.839  25.717  1.00  0.00     0.010 A 
ATOM     34  C   UNL A   1      42.966  23.157  27.066  1.00  0.00    -0.014 A 
BRANCH  34  35
ATOM     35  C   UNL A   1      43.479  24.503  27.404  1.00  0.00     0.031 A 
ATOM     36  C   UNL A   1      42.511  25.570  27.832  1.00  0.00     0.074 A 
ATOM     37  C   UNL A   1      44.788  24.778  27.263  1.00  0.00     0.049 A 
ATOM     38  N   UNL A   1      42.735  26.831  28.103  1.00  0.00    -0.248 NA
ATOM     39  C   UNL A   1      41.098  25.173  27.939  1.00  0.00     0.031 C 
ATOM     40  C   UNL A   1      45.810  23.832  26.815  1.00  0.00     0.029 A 
ATOM     41  N   UNL A   1      45.477  25.944  27.470  1.00  0.00    -0.354 N 
ATOM     42  C   UNL A   1      41.494  27.374  28.408  1.00  0.00     0.074 A 
ATOM     43  C   UNL A   1      40.513  26.327  28.220  1.00  0.00     0.031 C 
ATOM     44  C   UNL A   1      47.003  24.451  26.799  1.00  0.00     0.029 A 
ATOM     45  C   UNL A   1      46.822  25.841  27.206  1.00  0.00     0.049 A 
ATOM     46  H   UNL A   1      45.051  26.776  27.777  1.00  0.00     0.167 HD
ATOM     47  C   UNL A   1      41.199  28.623  28.835  1.00  0.00     0.037 A 
ATOM     48  C   UNL A   1      47.791  26.769  27.284  1.00  0.00     0.037 A 
ATOM     49  C   UNL A   1      42.180  29.657  29.029  1.00  0.00     0.049 A 
ATOM     50  C   UNL A   1      47.435  28.161  27.732  1.00  0.00     0.074 A 
ATOM     51  C   UNL A   1      41.999  30.945  29.500  1.00  0.00     0.029 A 
ATOM     52  N   UNL A   1      43.533  29.515  28.756  1.00  0.00    -0.354 N 
ATOM     53  N   UNL A   1      46.267  28.645  28.082  1.00  0.00    -0.248 NA
ATOM     54  C   UNL A   1      48.535  29.132  27.802  1.00  0.00     0.031 C 
ATOM     55  C   UNL A   1      43.239  31.594  29.477  1.00  0.00     0.029 A 
ATOM     56  C   UNL A   1      44.198  30.698  29.031  1.00  0.00     0.049 A 
ATOM     57  H   UNL A   1      43.958  28.694  28.419  1.00  0.00     0.167 HD
ATOM     58  C   UNL A   1      46.496  29.968  28.441  1.00  0.00     0.074 A 
ATOM     59  C   UNL A   1      47.917  30.202  28.280  1.00  0.00     0.031 C 
ATOM     60  C   UNL A   1      45.613  30.904  28.865  1.00  0.00     0.037 A 
BRANCH  47  61
ATOM     61  C   UNL A   1      39.757  28.924  29.120  1.00  0.00     0.057 A 
ATOM     62  C   UNL A   1      38.900  29.366  28.107  1.00  0.00     0.134 A 
ATOM     63  C   UNL A   1      39.213  28.762  30.402  1.00  0.00     0.134 A 
ATOM     64  F   UNL A   1      39.355  29.544  26.857  1.00  0.00    -0.206 F 
ATOM     65  C   UNL A   1      37.551  29.629  28.356  1.00  0.00     0.040 A 
ATOM     66  C   UNL A   1      37.861  28.994  30.657  1.00  0.00     0.040 A 
ATOM     67  F   UNL A   1      39.977  28.323  31.414  1.00  0.00    -0.206 F 
ATOM     68  C   UNL A   1      37.026  29.433  29.632  1.00  0.00     0.006 A 
ENDBRANCH  47  61
BRANCH  48  69
ATOM     69  C   UNL A   1      49.196  26.416  26.965  1.00  0.00     0.057 A 
ATOM     70  C   UNL A   1      50.080  25.955  27.948  1.00  0.00     0.134 A 
ATOM     71  C   UNL A   1      49.678  26.506  25.654  1.00  0.00     0.134 A 
ATOM     72  F   UNL A   1      49.680  25.853  29.224  1.00  0.00    -0.206 F 
ATOM     73  C   UNL A   1      51.391  25.593  27.638  1.00  0.00     0.040 A 
ATOM     74  C   UNL A   1      50.980  26.126  25.325  1.00  0.00     0.040 A 
ATOM     75  F   UNL A   1      48.873  26.923  24.667  1.00  0.00    -0.206 F 
ATOM     76  C   UNL A   1      51.842  25.669  26.321  1.00  0.00     0.006 A 
ENDBRANCH  48  69
BRANCH  60  77
ATOM     77  C   UNL A   1      46.171  32.253  29.212  1.00  0.00     0.057 A 
ATOM     78  C   UNL A   1      46.619  32.525  30.511  1.00  0.00     0.134 A 
ATOM     79  C   UNL A   1      46.251  33.285  28.268  1.00  0.00     0.134 A 
ATOM     80  F   UNL A   1      46.563  31.582  31.463  1.00  0.00    -0.206 F 
ATOM     81  C   UNL A   1      47.126  33.777  30.858  1.00  0.00     0.040 A 
ATOM     82  C   UNL A   1      46.781  34.532  28.597  1.00  0.00     0.040 A 
ATOM     83  F   UNL A   1      45.853  33.081  27.003  1.00  0.00    -0.206 F 
ATOM     84  C   UNL A   1      47.216  34.783  29.899  1.00  0.00     0.006 A 
ENDBRANCH  60  77
ENDBRANCH  34  35
ENDBRANCH  26  29
ENDBRANCH  24  25
ENDBRANCH   1  24
TORSDOF 12
ENDMDL
MODEL 2
REMARK VINA RESULT:     -12.2      1.581      6.383
REMARK SMILES CCc1cc(C)c2c(c1)C=C(C(=O)NCCCNC(=O)c1ccc(-c3c4nc(c(-c5c(F)cccc5F)c5ccc([nH]5)c(-c5c(F)cccc5F)c5nc(c(-c6c(F)cccc6F)c6ccc3[nH]6)C=C5)C=C4)cc1)[C@@H](C(F)(F)F)O2
REMARK SMILES IDX 16 1 15 2 14 3 12 4 13 5 11 7 3 8 4 9 9 10 5 11 8 12 6 13
REMARK SMILES IDX 7 14 10 15 80 16 75 17 2 18 1 19 76 20 77 21 78 22 79 23
REMARK SMILES IDX 17 24 18 25 19 26 20 28 21 29 22 30 74 31 23 32 73 33 24 34
REMARK SMILES IDX 25 35 26 36 67 37 27 38 72 39 66 40 68 41 28 42 71 43 65 44
REMARK SMILES IDX 64 45 29 47 55 48 38 49 54 50 39 51 42 52 53 53 69 54 40 55
REMARK SMILES IDX 41 56 52 58 70 59 43 60 30 61 31 62 36 63 32 64 33 65 35 66
REMARK SMILES IDX 37 67 34 68 56 69 57 70 62 71 58 72 59 73 61 74 63 75 60 76
REMARK SMILES IDX 44 77 45 78 50 79 46 80 47 81 49 82 51 83 48 84
REMARK H PARENT 14 6 18 27 68 46 42 57
REMARK Flexibility Score: inf
ROOT
ATOM      1  C   UNL A   1      37.596  19.372  25.007  1.00  0.00     0.042 C 
ENDROOT
BRANCH   1   2
ATOM      2  C   UNL A   1      36.456  20.314  24.647  1.00  0.00     0.118 C 
BRANCH   2   3
ATOM      3  N   UNL A   1      35.559  20.530  25.773  1.00  0.00    -0.352 N 
ATOM      4  C   UNL A   1      34.633  21.444  26.145  1.00  0.00     0.251 C 
ATOM      5  O   UNL A   1      34.103  21.232  27.241  1.00  0.00    -0.270 OA
ATOM      6  H   UNL A   1      35.650  19.817  26.446  1.00  0.00     0.163 HD
BRANCH   4   7
ATOM      7  C   UNL A   1      34.235  22.639  25.348  1.00  0.00     0.067 C 
ATOM      8  C   UNL A   1      33.615  27.440  25.161  1.00  0.00    -0.047 A 
ATOM      9  C   UNL A   1      33.353  27.340  23.786  1.00  0.00     0.011 A 
ATOM     10  C   UNL A   1      33.948  26.279  25.876  1.00  0.00     0.015 A 
ATOM     11  C   UNL A   1      33.400  26.105  23.129  1.00  0.00    -0.008 A 
ATOM     12  C   UNL A   1      34.005  25.039  25.232  1.00  0.00     0.018 A 
ATOM     13  C   UNL A   1      33.098  26.009  21.661  1.00  0.00     0.048 C 
ATOM     14  C   UNL A   1      33.726  24.961  23.866  1.00  0.00     0.130 A 
ATOM     15  C   UNL A   1      34.391  23.830  25.953  1.00  0.00     0.025 C 
ATOM     16  O   UNL A   1      33.812  23.782  23.178  1.00  0.00    -0.475 OA
ATOM     17  C   UNL A   1      33.661  22.572  23.963  1.00  0.00     0.314 C 
BRANCH   8  18
ATOM     18  C   UNL A   1      33.590  28.782  25.853  1.00  0.00     0.032 C 
ATOM     19  C   UNL A   1      32.865  28.758  27.192  1.00  0.00     0.009 C 
ENDBRANCH   8  18
BRANCH  17  20
ATOM     20  C   UNL A   1      32.184  22.135  23.948  1.00  0.00     0.429 C 
ATOM     21  F   UNL A   1      32.095  20.783  23.861  1.00  0.00    -0.167 F 
ATOM     22  F   UNL A   1      31.527  22.487  25.079  1.00  0.00    -0.167 F 
ATOM     23  F   UNL A   1      31.489  22.654  22.913  1.00  0.00    -0.167 F 
ENDBRANCH  17  20
ENDBRANCH   4   7
ENDBRANCH   2   3
ENDBRANCH   1   2
BRANCH   1  24
ATOM     24  C   UNL A   1      38.871  20.132  25.355  1.00  0.00     0.118 C 
BRANCH  24  25
ATOM     25  N   UNL A   1      39.960  19.219  25.692  1.00  0.00    -0.352 N 
ATOM     26  C   UNL A   1      41.242  19.500  26.092  1.00  0.00     0.251 C 
ATOM     27  H   UNL A   1      39.743  18.261  25.622  1.00  0.00     0.163 HD
ATOM     28  O   UNL A   1      42.111  18.634  26.045  1.00  0.00    -0.269 OA
BRANCH  26  29
ATOM     29  C   UNL A   1      41.569  20.850  26.584  1.00  0.00     0.039 A 
ATOM     30  C   UNL A   1      42.120  21.789  25.709  1.00  0.00     0.014 A 
ATOM     31  C   UNL A   1      41.355  21.171  27.927  1.00  0.00     0.014 A 
ATOM     32  C   UNL A   1      42.407  23.074  26.173  1.00  0.00     0.010 A 
ATOM     33  C   UNL A   1      41.565  22.468  28.368  1.00  0.00     0.010 A 
ATOM     34  C   UNL A   1      42.111  23.425  27.499  1.00  0.00    -0.014 A 
BRANCH  34  35
ATOM     35  C   UNL A   1      42.422  24.770  28.031  1.00  0.00     0.031 A 
ATOM     36  C   UNL A   1      43.830  25.087  28.449  1.00  0.00     0.074 A 
ATOM     37  C   UNL A   1      41.436  25.670  28.197  1.00  0.00     0.049 A 
ATOM     38  N   UNL A   1      44.305  26.172  29.004  1.00  0.00    -0.248 NA
ATOM     39  C   UNL A   1      44.832  24.028  28.242  1.00  0.00     0.031 C 
ATOM     40  C   UNL A   1      40.027  25.456  27.865  1.00  0.00     0.029 A 
ATOM     41  N   UNL A   1      41.472  26.943  28.702  1.00  0.00    -0.354 N 
ATOM     42  C   UNL A   1      45.655  25.925  29.215  1.00  0.00     0.074 A 
ATOM     43  C   UNL A   1      45.909  24.564  28.795  1.00  0.00     0.031 C 
ATOM     44  C   UNL A   1      39.334  26.570  28.159  1.00  0.00     0.029 A 
ATOM     45  C   UNL A   1      40.245  27.560  28.725  1.00  0.00     0.049 A 
ATOM     46  H   UNL A   1      42.298  27.375  29.020  1.00  0.00     0.167 HD
ATOM     47  C   UNL A   1      46.605  26.764  29.689  1.00  0.00     0.037 A 
ATOM     48  C   UNL A   1      39.902  28.786  29.158  1.00  0.00     0.037 A 
ATOM     49  C   UNL A   1      46.347  28.119  30.096  1.00  0.00     0.049 A 
ATOM     50  C   UNL A   1      40.970  29.691  29.709  1.00  0.00     0.074 A 
ATOM     51  C   UNL A   1      47.242  29.071  30.549  1.00  0.00     0.029 A 
ATOM     52  N   UNL A   1      45.093  28.712  30.100  1.00  0.00    -0.354 N 
ATOM     53  N   UNL A   1      42.257  29.470  29.842  1.00  0.00    -0.248 NA
ATOM     54  C   UNL A   1      40.538  31.020  30.163  1.00  0.00     0.031 C 
ATOM     55  C   UNL A   1      46.522  30.230  30.862  1.00  0.00     0.029 A 
ATOM     56  C   UNL A   1      45.186  30.012  30.566  1.00  0.00     0.049 A 
ATOM     57  H   UNL A   1      44.260  28.272  29.813  1.00  0.00     0.167 HD
ATOM     58  C   UNL A   1      42.791  30.639  30.367  1.00  0.00     0.074 A 
ATOM     59  C   UNL A   1      41.692  31.571  30.513  1.00  0.00     0.031 C 
ATOM     60  C   UNL A   1      44.075  30.919  30.699  1.00  0.00     0.037 A 
BRANCH  47  61
ATOM     61  C   UNL A   1      48.003  26.227  29.781  1.00  0.00     0.057 A 
ATOM     62  C   UNL A   1      48.858  26.252  28.674  1.00  0.00     0.134 A 
ATOM     63  C   UNL A   1      48.508  25.694  30.976  1.00  0.00     0.134 A 
ATOM     64  F   UNL A   1      48.439  26.746  27.499  1.00  0.00    -0.206 F 
ATOM     65  C   UNL A   1      50.168  25.775  28.753  1.00  0.00     0.040 A 
ATOM     66  C   UNL A   1      49.824  25.240  31.075  1.00  0.00     0.040 A 
ATOM     67  F   UNL A   1      47.745  25.658  32.079  1.00  0.00    -0.206 F 
ATOM     68  C   UNL A   1      50.657  25.276  29.959  1.00  0.00     0.006 A 
ENDBRANCH  47  61
BRANCH  48  69
ATOM     69  C   UNL A   1      38.497  29.250  29.062  1.00  0.00     0.057 A 
ATOM     70  C   UNL A   1      37.646  29.252  30.174  1.00  0.00     0.134 A 
ATOM     71  C   UNL A   1      37.981  29.732  27.853  1.00  0.00     0.134 A 
ATOM     72  F   UNL A   1      38.078  28.797  31.358  1.00  0.00    -0.206 F 
ATOM     73  C   UNL A   1      36.334  29.720  30.088  1.00  0.00     0.040 A 
ATOM     74  C   UNL A   1      36.679  30.224  27.758  1.00  0.00     0.040 A 
ATOM     75  F   UNL A   1      38.754  29.772  26.759  1.00  0.00    -0.206 F 
ATOM     76  C   UNL A   1      35.850  30.216  28.878  1.00  0.00     0.006 A 
ENDBRANCH  48  69
BRANCH  60  77
ATOM     77  C   UNL A   1      44.355  32.298  31.221  1.00  0.00     0.057 A 
ATOM     78  C   UNL A   1      44.663  33.343  30.341  1.00  0.00     0.134 A 
ATOM     79  C   UNL A   1      44.334  32.587  32.591  1.00  0.00     0.134 A 
ATOM     80  F   UNL A   1      44.707  33.130  29.018  1.00  0.00    -0.206 F 
ATOM     81  C   UNL A   1      44.942  34.628  30.807  1.00  0.00     0.040 A 
ATOM     82  C   UNL A   1      44.584  33.875  33.067  1.00  0.00     0.040 A 
ATOM     83  F   UNL A   1      44.028  31.632  33.483  1.00  0.00    -0.206 F 
ATOM     84  C   UNL A   1      44.895  34.899  32.173  1.00  0.00     0.006 A 
ENDBRANCH  60  77
ENDBRANCH  34  35
ENDBRANCH  26  29
ENDBRANCH  24  25
ENDBRANCH   1  24
TORSDOF 12
ENDMDL
MODEL 3
REMARK VINA RESULT:     -12.2      2.867      7.049
REMARK SMILES CCc1cc(C)c2c(c1)C=C(C(=O)NCCCNC(=O)c1ccc(-c3c4nc(c(-c5c(F)cccc5F)c5ccc([nH]5)c(-c5c(F)cccc5F)c5nc(c(-c6c(F)cccc6F)c6ccc3[nH]6)C=C5)C=C4)cc1)[C@@H](C(F)(F)F)O2
REMARK SMILES IDX 16 1 15 2 14 3 12 4 13 5 11 7 3 8 4 9 9 10 5 11 8 12 6 13
REMARK SMILES IDX 7 14 10 15 80 16 75 17 2 18 1 19 76 20 77 21 78 22 79 23
REMARK SMILES IDX 17 24 18 25 19 26 20 28 21 29 22 30 74 31 23 32 73 33 24 34
REMARK SMILES IDX 25 35 26 36 67 37 27 38 72 39 66 40 68 41 28 42 71 43 65 44
REMARK SMILES IDX 64 45 29 47 55 48 38 49 54 50 39 51 42 52 53 53 69 54 40 55
REMARK SMILES IDX 41 56 52 58 70 59 43 60 30 61 31 62 36 63 32 64 33 65 35 66
REMARK SMILES IDX 37 67 34 68 56 69 57 70 62 71 58 72 59 73 61 74 63 75 60 76
REMARK SMILES IDX 44 77 45 78 50 79 46 80 47 81 49 82 51 83 48 84
REMARK H PARENT 14 6 18 27 68 46 42 57
REMARK Flexibility Score: inf
ROOT
ATOM      1  C   UNL A   1      34.014  28.440  25.070  1.00  0.00     0.042 C 
ENDROOT
BRANCH   1   2
ATOM      2  C   UNL A   1      33.218  27.250  24.555  1.00  0.00     0.118 C 
BRANCH   2   3
ATOM      3  N   UNL A   1      32.299  26.738  25.562  1.00  0.00    -0.352 N 
ATOM      4  C   UNL A   1      31.971  25.536  26.090  1.00  0.00     0.251 C 
ATOM      5  O   UNL A   1      31.084  25.569  26.948  1.00  0.00    -0.270 OA
ATOM      6  H   UNL A   1      31.774  27.465  25.970  1.00  0.00     0.163 HD
BRANCH   4   7
ATOM      7  C   UNL A   1      32.589  24.234  25.712  1.00  0.00     0.067 C 
ATOM      8  C   UNL A   1      36.599  21.543  25.322  1.00  0.00    -0.047 A 
ATOM      9  C   UNL A   1      35.807  20.434  24.987  1.00  0.00     0.011 A 
ATOM     10  C   UNL A   1      35.970  22.759  25.632  1.00  0.00     0.015 A 
ATOM     11  C   UNL A   1      34.411  20.530  24.939  1.00  0.00    -0.008 A 
ATOM     12  C   UNL A   1      34.577  22.868  25.595  1.00  0.00     0.018 A 
ATOM     13  C   UNL A   1      33.576  19.340  24.561  1.00  0.00     0.048 C 
ATOM     14  C   UNL A   1      33.809  21.755  25.245  1.00  0.00     0.130 A 
ATOM     15  C   UNL A   1      33.907  24.113  25.957  1.00  0.00     0.025 C 
ATOM     16  O   UNL A   1      32.442  21.795  25.238  1.00  0.00    -0.475 OA
ATOM     17  C   UNL A   1      31.842  23.103  25.067  1.00  0.00     0.314 C 
BRANCH   8  18
ATOM     18  C   UNL A   1      38.102  21.420  25.398  1.00  0.00     0.032 C 
ATOM     19  C   UNL A   1      38.767  22.574  26.136  1.00  0.00     0.009 C 
ENDBRANCH   8  18
BRANCH  17  20
ATOM     20  C   UNL A   1      31.564  23.346  23.571  1.00  0.00     0.429 C 
ATOM     21  F   UNL A   1      31.684  22.186  22.876  1.00  0.00    -0.167 F 
ATOM     22  F   UNL A   1      30.306  23.798  23.343  1.00  0.00    -0.167 F 
ATOM     23  F   UNL A   1      32.408  24.241  23.016  1.00  0.00    -0.167 F 
ENDBRANCH  17  20
ENDBRANCH   4   7
ENDBRANCH   2   3
ENDBRANCH   1   2
BRANCH   1  24
ATOM     24  C   UNL A   1      34.084  28.459  26.592  1.00  0.00     0.118 C 
BRANCH  24  25
ATOM     25  N   UNL A   1      33.877  29.806  27.118  1.00  0.00    -0.352 N 
ATOM     26  C   UNL A   1      34.631  30.517  28.017  1.00  0.00     0.251 C 
ATOM     27  H   UNL A   1      33.079  30.273  26.777  1.00  0.00     0.163 HD
ATOM     28  O   UNL A   1      34.162  31.506  28.576  1.00  0.00    -0.269 OA
BRANCH  26  29
ATOM     29  C   UNL A   1      36.011  30.089  28.306  1.00  0.00     0.039 A 
ATOM     30  C   UNL A   1      36.322  29.560  29.561  1.00  0.00     0.014 A 
ATOM     31  C   UNL A   1      37.003  30.244  27.335  1.00  0.00     0.014 A 
ATOM     32  C   UNL A   1      37.625  29.135  29.822  1.00  0.00     0.010 A 
ATOM     33  C   UNL A   1      38.278  29.748  27.566  1.00  0.00     0.010 A 
ATOM     34  C   UNL A   1      38.603  29.208  28.819  1.00  0.00    -0.014 A 
BRANCH  34  35
ATOM     35  C   UNL A   1      40.000  28.786  29.068  1.00  0.00     0.031 A 
ATOM     36  C   UNL A   1      40.950  29.746  29.726  1.00  0.00     0.074 A 
ATOM     37  C   UNL A   1      40.422  27.581  28.646  1.00  0.00     0.049 A 
ATOM     38  N   UNL A   1      42.227  29.609  29.972  1.00  0.00    -0.248 NA
ATOM     39  C   UNL A   1      40.394  31.047  30.135  1.00  0.00     0.031 C 
ATOM     40  C   UNL A   1      39.598  26.586  27.959  1.00  0.00     0.029 A 
ATOM     41  N   UNL A   1      41.658  26.997  28.724  1.00  0.00    -0.354 N 
ATOM     42  C   UNL A   1      42.626  30.804  30.558  1.00  0.00     0.074 A 
ATOM     43  C   UNL A   1      41.473  31.678  30.567  1.00  0.00     0.031 C 
ATOM     44  C   UNL A   1      40.349  25.503  27.694  1.00  0.00     0.029 A 
ATOM     45  C   UNL A   1      41.709  25.742  28.165  1.00  0.00     0.049 A 
ATOM     46  H   UNL A   1      42.437  27.433  29.139  1.00  0.00     0.167 HD
ATOM     47  C   UNL A   1      43.834  31.133  31.070  1.00  0.00     0.037 A 
ATOM     48  C   UNL A   1      42.743  24.889  28.050  1.00  0.00     0.037 A 
ATOM     49  C   UNL A   1      44.973  30.254  31.067  1.00  0.00     0.049 A 
ATOM     50  C   UNL A   1      44.084  25.289  28.599  1.00  0.00     0.074 A 
ATOM     51  C   UNL A   1      46.232  30.468  31.598  1.00  0.00     0.029 A 
ATOM     52  N   UNL A   1      44.986  28.989  30.498  1.00  0.00    -0.354 N 
ATOM     53  N   UNL A   1      44.433  26.396  29.212  1.00  0.00    -0.248 NA
ATOM     54  C   UNL A   1      45.175  24.316  28.448  1.00  0.00     0.031 C 
ATOM     55  C   UNL A   1      47.019  29.345  31.318  1.00  0.00     0.029 A 
ATOM     56  C   UNL A   1      46.237  28.416  30.648  1.00  0.00     0.049 A 
ATOM     57  H   UNL A   1      44.218  28.562  30.054  1.00  0.00     0.167 HD
ATOM     58  C   UNL A   1      45.773  26.241  29.544  1.00  0.00     0.074 A 
ATOM     59  C   UNL A   1      46.168  24.928  29.077  1.00  0.00     0.031 C 
ATOM     60  C   UNL A   1      46.603  27.105  30.176  1.00  0.00     0.037 A 
BRANCH  47  61
ATOM     61  C   UNL A   1      43.968  32.499  31.676  1.00  0.00     0.057 A 
ATOM     62  C   UNL A   1      44.369  33.593  30.902  1.00  0.00     0.134 A 
ATOM     63  C   UNL A   1      43.686  32.734  33.030  1.00  0.00     0.134 A 
ATOM     64  F   UNL A   1      44.657  33.439  29.600  1.00  0.00    -0.206 F 
ATOM     65  C   UNL A   1      44.478  34.873  31.450  1.00  0.00     0.040 A 
ATOM     66  C   UNL A   1      43.763  34.013  33.582  1.00  0.00     0.040 A 
ATOM     67  F   UNL A   1      43.278  31.731  33.822  1.00  0.00    -0.206 F 
ATOM     68  C   UNL A   1      44.165  35.087  32.791  1.00  0.00     0.006 A 
ENDBRANCH  47  61
BRANCH  48  69
ATOM     69  C   UNL A   1      42.552  23.561  27.418  1.00  0.00     0.057 A 
ATOM     70  C   UNL A   1      42.215  22.430  28.171  1.00  0.00     0.134 A 
ATOM     71  C   UNL A   1      42.675  23.401  26.032  1.00  0.00     0.134 A 
ATOM     72  F   UNL A   1      42.089  22.516  29.503  1.00  0.00    -0.206 F 
ATOM     73  C   UNL A   1      42.004  21.189  27.569  1.00  0.00     0.040 A 
ATOM     74  C   UNL A   1      42.445  22.171  25.415  1.00  0.00     0.040 A 
ATOM     75  F   UNL A   1      42.977  24.452  25.257  1.00  0.00    -0.206 F 
ATOM     76  C   UNL A   1      42.110  21.059  26.185  1.00  0.00     0.006 A 
ENDBRANCH  48  69
BRANCH  60  77
ATOM     77  C   UNL A   1      48.007  26.638  30.425  1.00  0.00     0.057 A 
ATOM     78  C   UNL A   1      48.324  25.921  31.585  1.00  0.00     0.134 A 
ATOM     79  C   UNL A   1      49.046  26.909  29.525  1.00  0.00     0.134 A 
ATOM     80  F   UNL A   1      47.376  25.635  32.490  1.00  0.00    -0.206 F 
ATOM     81  C   UNL A   1      49.625  25.491  31.842  1.00  0.00     0.040 A 
ATOM     82  C   UNL A   1      50.346  26.461  29.759  1.00  0.00     0.040 A 
ATOM     83  F   UNL A   1      48.803  27.578  28.387  1.00  0.00    -0.206 F 
ATOM     84  C   UNL A   1      50.640  25.754  30.924  1.00  0.00     0.006 A 
ENDBRANCH  60  77
ENDBRANCH  34  35
ENDBRANCH  26  29
ENDBRANCH  24  25
ENDBRANCH   1  24
TORSDOF 12
ENDMDL
