MODEL 1
REMARK VINA RESULT:     -11.9      0.000      0.000
REMARK SMILES O=C(NCCCNC(=O)[C@H]1CSCN1C(=O)c1occc1-c1ccccc1)c1ccc(-c2c3nc(c(-c4c(F)cccc4F)c4ccc([nH]4)c(-c4c(F)cccc4F)c4nc(c(-c5c(F)cccc5F)c5ccc2[nH]5)C=C4)C=C3)cc1
REMARK SMILES IDX 5 1 4 2 3 3 1 4 2 5 28 7 29 8 81 9 30 10 80 11 31 12 32 13
REMARK SMILES IDX 33 14 74 15 34 16 79 17 73 18 75 19 35 20 78 21 72 22 71 23
REMARK SMILES IDX 36 25 62 26 45 27 61 28 46 29 49 30 60 31 76 32 47 33 48 34
REMARK SMILES IDX 59 36 77 37 50 38 37 39 38 40 43 41 39 42 40 43 42 44 44 45
REMARK SMILES IDX 41 46 63 47 64 48 69 49 65 50 66 51 68 52 70 53 67 54 51 55
REMARK SMILES IDX 52 56 57 57 53 58 54 59 56 60 58 61 55 62 6 63 7 64 8 65
REMARK SMILES IDX 9 67 10 68 11 69 14 70 12 71 13 72 15 73 16 74 17 75 18 76
REMARK SMILES IDX 21 77 19 78 20 79 22 80 23 81 27 82 24 83 26 84 25 85
REMARK H PARENT 3 6 75 24 49 35 7 66
REMARK Flexibility Score: inf
ROOT
ATOM      1  C   UNL A   1      31.427  31.878  26.572  1.00  0.00     0.042 C 
ENDROOT
BRANCH   1   2
ATOM      2  C   UNL A   1      32.727  32.481  27.091  1.00  0.00     0.118 C 
BRANCH   2   3
ATOM      3  N   UNL A   1      32.545  33.817  27.643  1.00  0.00    -0.352 N 
ATOM      4  O   UNL A   1      32.742  35.516  29.097  1.00  0.00    -0.269 OA
ATOM      5  C   UNL A   1      33.184  34.449  28.680  1.00  0.00     0.251 C 
ATOM      6  H   UNL A   1      31.849  34.354  27.200  1.00  0.00     0.163 HD
BRANCH   5   7
ATOM      7  C   UNL A   1      34.392  33.864  29.303  1.00  0.00     0.039 A 
ATOM      8  C   UNL A   1      34.296  32.858  30.267  1.00  0.00     0.014 A 
ATOM      9  C   UNL A   1      35.652  34.278  28.852  1.00  0.00     0.014 A 
ATOM     10  C   UNL A   1      35.448  32.350  30.859  1.00  0.00     0.010 A 
ATOM     11  C   UNL A   1      36.809  33.713  29.393  1.00  0.00     0.010 A 
ATOM     12  C   UNL A   1      36.716  32.754  30.412  1.00  0.00    -0.014 A 
BRANCH  12  13
ATOM     13  C   UNL A   1      37.922  32.084  30.953  1.00  0.00     0.031 A 
ATOM     14  C   UNL A   1      38.507  32.477  32.278  1.00  0.00     0.074 A 
ATOM     15  C   UNL A   1      38.483  31.095  30.231  1.00  0.00     0.049 A 
ATOM     16  N   UNL A   1      39.544  31.974  32.899  1.00  0.00    -0.248 NA
ATOM     17  C   UNL A   1      37.853  33.580  33.000  1.00  0.00     0.031 C 
ATOM     18  C   UNL A   1      38.018  30.648  28.914  1.00  0.00     0.029 A 
ATOM     19  N   UNL A   1      39.553  30.282  30.497  1.00  0.00    -0.354 N 
ATOM     20  C   UNL A   1      39.679  32.705  34.072  1.00  0.00     0.074 A 
ATOM     21  C   UNL A   1      38.626  33.700  34.072  1.00  0.00     0.031 C 
ATOM     22  C   UNL A   1      38.775  29.618  28.506  1.00  0.00     0.029 A 
ATOM     23  C   UNL A   1      39.806  29.365  29.507  1.00  0.00     0.049 A 
ATOM     24  H   UNL A   1      40.089  30.348  31.321  1.00  0.00     0.167 HD
ATOM     25  C   UNL A   1      40.593  32.553  35.058  1.00  0.00     0.037 A 
ATOM     26  C   UNL A   1      40.770  28.433  29.405  1.00  0.00     0.037 A 
ATOM     27  C   UNL A   1      41.620  31.542  35.068  1.00  0.00     0.049 A 
ATOM     28  C   UNL A   1      41.769  28.291  30.514  1.00  0.00     0.074 A 
ATOM     29  C   UNL A   1      42.546  31.265  36.059  1.00  0.00     0.029 A 
ATOM     30  N   UNL A   1      41.860  30.649  34.035  1.00  0.00    -0.354 N 
ATOM     31  N   UNL A   1      41.847  28.955  31.641  1.00  0.00    -0.248 NA
ATOM     32  C   UNL A   1      42.818  27.279  30.333  1.00  0.00     0.031 C 
ATOM     33  C   UNL A   1      43.371  30.227  35.609  1.00  0.00     0.029 A 
ATOM     34  C   UNL A   1      42.938  29.839  34.354  1.00  0.00     0.049 A 
ATOM     35  H   UNL A   1      41.341  30.598  33.200  1.00  0.00     0.167 HD
ATOM     36  C   UNL A   1      42.951  28.441  32.306  1.00  0.00     0.074 A 
ATOM     37  C   UNL A   1      43.495  27.392  31.467  1.00  0.00     0.031 C 
ATOM     38  C   UNL A   1      43.472  28.810  33.500  1.00  0.00     0.037 A 
BRANCH  25  39
ATOM     39  C   UNL A   1      40.538  33.499  36.219  1.00  0.00     0.057 A 
ATOM     40  C   UNL A   1      41.280  34.686  36.237  1.00  0.00     0.134 A 
ATOM     41  C   UNL A   1      39.670  33.259  37.291  1.00  0.00     0.134 A 
ATOM     42  F   UNL A   1      42.135  34.969  35.242  1.00  0.00    -0.206 F 
ATOM     43  C   UNL A   1      41.162  35.601  37.286  1.00  0.00     0.040 A 
ATOM     44  C   UNL A   1      39.532  34.173  38.337  1.00  0.00     0.040 A 
ATOM     45  F   UNL A   1      38.928  32.142  37.329  1.00  0.00    -0.206 F 
ATOM     46  C   UNL A   1      40.281  35.350  38.335  1.00  0.00     0.006 A 
ENDBRANCH  25  39
BRANCH  26  47
ATOM     47  C   UNL A   1      40.841  27.575  28.199  1.00  0.00     0.057 A 
ATOM     48  C   UNL A   1      40.185  26.342  28.147  1.00  0.00     0.134 A 
ATOM     49  C   UNL A   1      41.565  27.973  27.067  1.00  0.00     0.134 A 
ATOM     50  F   UNL A   1      39.491  25.901  29.206  1.00  0.00    -0.206 F 
ATOM     51  C   UNL A   1      40.253  25.527  27.015  1.00  0.00     0.040 A 
ATOM     52  C   UNL A   1      41.622  27.179  25.923  1.00  0.00     0.040 A 
ATOM     53  F   UNL A   1      42.210  29.148  27.056  1.00  0.00    -0.206 F 
ATOM     54  C   UNL A   1      40.969  25.948  25.897  1.00  0.00     0.006 A 
ENDBRANCH  26  47
BRANCH  38  55
ATOM     55  C   UNL A   1      44.691  28.074  33.959  1.00  0.00     0.057 A 
ATOM     56  C   UNL A   1      45.979  28.552  33.684  1.00  0.00     0.134 A 
ATOM     57  C   UNL A   1      44.581  26.889  34.696  1.00  0.00     0.134 A 
ATOM     58  F   UNL A   1      46.148  29.674  32.968  1.00  0.00    -0.206 F 
ATOM     59  C   UNL A   1      47.116  27.865  34.109  1.00  0.00     0.040 A 
ATOM     60  C   UNL A   1      45.711  26.204  35.143  1.00  0.00     0.040 A 
ATOM     61  F   UNL A   1      43.375  26.382  34.994  1.00  0.00    -0.206 F 
ATOM     62  C   UNL A   1      46.982  26.690  34.845  1.00  0.00     0.006 A 
ENDBRANCH  38  55
ENDBRANCH  12  13
ENDBRANCH   5   7
ENDBRANCH   2   3
ENDBRANCH   1   2
BRANCH   1  63
ATOM     63  C   UNL A   1      31.619  30.636  25.712  1.00  0.00     0.117 C 
BRANCH  63  64
ATOM     64  N   UNL A   1      31.305  29.407  26.416  1.00  0.00    -0.354 N 
ATOM     65  C   UNL A   1      31.764  28.135  26.199  1.00  0.00     0.243 C 
ATOM     66  H   UNL A   1      30.666  29.501  27.160  1.00  0.00     0.163 HD
ATOM     67  O   UNL A   1      31.387  27.256  26.975  1.00  0.00    -0.273 OA
BRANCH  65  68
ATOM     68  C   UNL A   1      32.764  27.886  25.047  1.00  0.00     0.185 C 
ATOM     69  C   UNL A   1      33.799  26.856  25.523  1.00  0.00     0.106 C 
ATOM     70  N   UNL A   1      32.123  27.406  23.820  1.00  0.00    -0.314 N 
ATOM     71  S   UNL A   1      33.833  25.500  24.333  1.00  0.00    -0.138 SA
ATOM     72  C   UNL A   1      32.860  26.386  23.119  1.00  0.00     0.191 C 
BRANCH  70  73
ATOM     73  C   UNL A   1      31.180  28.212  23.181  1.00  0.00     0.291 C 
ATOM     74  O   UNL A   1      31.556  29.150  22.472  1.00  0.00    -0.265 OA
BRANCH  73  75
ATOM     75  C   UNL A   1      29.774  27.891  23.365  1.00  0.00     0.199 A 
ATOM     76  O   UNL A   1      29.470  26.619  23.780  1.00  0.00    -0.459 OA
ATOM     77  C   UNL A   1      28.591  28.607  23.197  1.00  0.00     0.033 A 
ATOM     78  C   UNL A   1      28.123  26.538  23.909  1.00  0.00     0.196 A 
ATOM     79  C   UNL A   1      27.536  27.733  23.578  1.00  0.00     0.051 A 
BRANCH  77  80
ATOM     80  C   UNL A   1      28.500  29.980  22.731  1.00  0.00    -0.014 A 
ATOM     81  C   UNL A   1      28.698  31.036  23.632  1.00  0.00     0.009 A 
ATOM     82  C   UNL A   1      28.241  30.267  21.389  1.00  0.00     0.009 A 
ATOM     83  C   UNL A   1      28.679  32.359  23.183  1.00  0.00     0.001 A 
ATOM     84  C   UNL A   1      28.212  31.590  20.944  1.00  0.00     0.001 A 
ATOM     85  C   UNL A   1      28.438  32.635  21.838  1.00  0.00     0.000 A 
ENDBRANCH  77  80
ENDBRANCH  73  75
ENDBRANCH  70  73
ENDBRANCH  65  68
ENDBRANCH  63  64
ENDBRANCH   1  63
TORSDOF 13
ENDMDL
MODEL 2
REMARK VINA RESULT:     -11.9      4.623      8.837
REMARK SMILES O=C(NCCCNC(=O)[C@H]1CSCN1C(=O)c1occc1-c1ccccc1)c1ccc(-c2c3nc(c(-c4c(F)cccc4F)c4ccc([nH]4)c(-c4c(F)cccc4F)c4nc(c(-c5c(F)cccc5F)c5ccc2[nH]5)C=C4)C=C3)cc1
REMARK SMILES IDX 5 1 4 2 3 3 1 4 2 5 28 7 29 8 81 9 30 10 80 11 31 12 32 13
REMARK SMILES IDX 33 14 74 15 34 16 79 17 73 18 75 19 35 20 78 21 72 22 71 23
REMARK SMILES IDX 36 25 62 26 45 27 61 28 46 29 49 30 60 31 76 32 47 33 48 34
REMARK SMILES IDX 59 36 77 37 50 38 37 39 38 40 43 41 39 42 40 43 42 44 44 45
REMARK SMILES IDX 41 46 63 47 64 48 69 49 65 50 66 51 68 52 70 53 67 54 51 55
REMARK SMILES IDX 52 56 57 57 53 58 54 59 56 60 58 61 55 62 6 63 7 64 8 65
REMARK SMILES IDX 9 67 10 68 11 69 14 70 12 71 13 72 15 73 16 74 17 75 18 76
REMARK SMILES IDX 21 77 19 78 20 79 22 80 23 81 27 82 24 83 26 84 25 85
REMARK H PARENT 3 6 75 24 49 35 7 66
REMARK Flexibility Score: inf
ROOT
ATOM      1  C   UNL A   1      37.475  19.618  25.010  1.00  0.00     0.042 C 
ENDROOT
BRANCH   1   2
ATOM      2  C   UNL A   1      38.749  20.280  25.524  1.00  0.00     0.118 C 
BRANCH   2   3
ATOM      3  N   UNL A   1      39.844  19.334  25.694  1.00  0.00    -0.352 N 
ATOM      4  O   UNL A   1      41.952  18.612  25.964  1.00  0.00    -0.269 OA
ATOM      5  C   UNL A   1      41.150  19.537  26.062  1.00  0.00     0.251 C 
ATOM      6  H   UNL A   1      39.607  18.395  25.515  1.00  0.00     0.163 HD
BRANCH   5   7
ATOM      7  C   UNL A   1      41.604  20.849  26.571  1.00  0.00     0.039 A 
ATOM      8  C   UNL A   1      42.043  21.851  25.703  1.00  0.00     0.014 A 
ATOM      9  C   UNL A   1      41.516  21.108  27.945  1.00  0.00     0.014 A 
ATOM     10  C   UNL A   1      42.495  23.064  26.213  1.00  0.00     0.010 A 
ATOM     11  C   UNL A   1      41.899  22.353  28.449  1.00  0.00     0.010 A 
ATOM     12  C   UNL A   1      42.406  23.336  27.588  1.00  0.00    -0.014 A 
BRANCH  12  13
ATOM     13  C   UNL A   1      42.752  24.691  28.081  1.00  0.00     0.031 A 
ATOM     14  C   UNL A   1      41.696  25.730  28.315  1.00  0.00     0.074 A 
ATOM     15  C   UNL A   1      44.046  24.970  28.329  1.00  0.00     0.049 A 
ATOM     16  N   UNL A   1      41.833  26.953  28.764  1.00  0.00    -0.248 NA
ATOM     17  C   UNL A   1      40.307  25.359  28.001  1.00  0.00     0.031 C 
ATOM     18  C   UNL A   1      45.163  24.047  28.109  1.00  0.00     0.029 A 
ATOM     19  N   UNL A   1      44.643  26.099  28.827  1.00  0.00    -0.354 N 
ATOM     20  C   UNL A   1      40.558  27.502  28.772  1.00  0.00     0.074 A 
ATOM     21  C   UNL A   1      39.658  26.486  28.267  1.00  0.00     0.031 C 
ATOM     22  C   UNL A   1      46.303  24.633  28.504  1.00  0.00     0.029 A 
ATOM     23  C   UNL A   1      46.006  25.987  28.958  1.00  0.00     0.049 A 
ATOM     24  H   UNL A   1      44.143  26.913  29.068  1.00  0.00     0.167 HD
ATOM     25  C   UNL A   1      40.176  28.739  29.170  1.00  0.00     0.037 A 
ATOM     26  C   UNL A   1      46.918  26.878  29.382  1.00  0.00     0.037 A 
ATOM     27  C   UNL A   1      41.071  29.736  29.699  1.00  0.00     0.049 A 
ATOM     28  C   UNL A   1      46.464  28.240  29.814  1.00  0.00     0.074 A 
ATOM     29  C   UNL A   1      40.764  30.991  30.196  1.00  0.00     0.029 A 
ATOM     30  N   UNL A   1      42.447  29.594  29.794  1.00  0.00    -0.354 N 
ATOM     31  N   UNL A   1      45.246  28.723  29.867  1.00  0.00    -0.248 NA
ATOM     32  C   UNL A   1      47.507  29.182  30.237  1.00  0.00     0.031 C 
ATOM     33  C   UNL A   1      41.960  31.623  30.557  1.00  0.00     0.029 A 
ATOM     34  C   UNL A   1      43.006  30.750  30.314  1.00  0.00     0.049 A 
ATOM     35  H   UNL A   1      42.951  28.791  29.530  1.00  0.00     0.167 HD
ATOM     36  C   UNL A   1      45.377  30.024  30.329  1.00  0.00     0.074 A 
ATOM     37  C   UNL A   1      46.789  30.246  30.568  1.00  0.00     0.031 C 
ATOM     38  C   UNL A   1      44.413  30.955  30.531  1.00  0.00     0.037 A 
BRANCH  25  39
ATOM     39  C   UNL A   1      38.726  29.098  29.051  1.00  0.00     0.057 A 
ATOM     40  C   UNL A   1      37.855  29.015  30.144  1.00  0.00     0.134 A 
ATOM     41  C   UNL A   1      38.217  29.609  27.852  1.00  0.00     0.134 A 
ATOM     42  F   UNL A   1      38.282  28.526  31.318  1.00  0.00    -0.206 F 
ATOM     43  C   UNL A   1      36.524  29.426  30.046  1.00  0.00     0.040 A 
ATOM     44  C   UNL A   1      36.893  30.038  27.746  1.00  0.00     0.040 A 
ATOM     45  F   UNL A   1      39.002  29.719  26.770  1.00  0.00    -0.206 F 
ATOM     46  C   UNL A   1      36.042  29.947  28.846  1.00  0.00     0.006 A 
ENDBRANCH  25  39
BRANCH  26  47
ATOM     47  C   UNL A   1      48.354  26.511  29.402  1.00  0.00     0.057 A 
ATOM     48  C   UNL A   1      49.194  26.811  28.326  1.00  0.00     0.134 A 
ATOM     49  C   UNL A   1      48.920  25.856  30.504  1.00  0.00     0.134 A 
ATOM     50  F   UNL A   1      48.704  27.423  27.237  1.00  0.00    -0.206 F 
ATOM     51  C   UNL A   1      50.546  26.463  28.336  1.00  0.00     0.040 A 
ATOM     52  C   UNL A   1      50.273  25.523  30.537  1.00  0.00     0.040 A 
ATOM     53  F   UNL A   1      48.165  25.548  31.568  1.00  0.00    -0.206 F 
ATOM     54  C   UNL A   1      51.090  25.822  29.448  1.00  0.00     0.006 A 
ENDBRANCH  26  47
BRANCH  38  55
ATOM     55  C   UNL A   1      44.864  32.293  31.029  1.00  0.00     0.057 A 
ATOM     56  C   UNL A   1      45.180  33.331  30.145  1.00  0.00     0.134 A 
ATOM     57  C   UNL A   1      44.966  32.552  32.401  1.00  0.00     0.134 A 
ATOM     58  F   UNL A   1      45.117  33.138  28.819  1.00  0.00    -0.206 F 
ATOM     59  C   UNL A   1      45.602  34.577  30.608  1.00  0.00     0.040 A 
ATOM     60  C   UNL A   1      45.369  33.800  32.876  1.00  0.00     0.040 A 
ATOM     61  F   UNL A   1      44.673  31.598  33.298  1.00  0.00    -0.206 F 
ATOM     62  C   UNL A   1      45.692  34.815  31.978  1.00  0.00     0.006 A 
ENDBRANCH  38  55
ENDBRANCH  12  13
ENDBRANCH   5   7
ENDBRANCH   2   3
ENDBRANCH   1   2
BRANCH   1  63
ATOM     63  C   UNL A   1      36.312  20.581  24.814  1.00  0.00     0.117 C 
BRANCH  63  64
ATOM     64  N   UNL A   1      35.911  21.239  26.044  1.00  0.00    -0.354 N 
ATOM     65  C   UNL A   1      34.756  21.916  26.335  1.00  0.00     0.243 C 
ATOM     66  H   UNL A   1      36.565  21.193  26.778  1.00  0.00     0.163 HD
ATOM     67  O   UNL A   1      34.624  22.344  27.482  1.00  0.00    -0.273 OA
BRANCH  65  68
ATOM     68  C   UNL A   1      33.670  22.048  25.242  1.00  0.00     0.185 C 
ATOM     69  C   UNL A   1      32.451  21.221  25.674  1.00  0.00     0.106 C 
ATOM     70  N   UNL A   1      33.261  23.435  25.001  1.00  0.00    -0.314 N 
ATOM     71  S   UNL A   1      31.002  22.296  25.650  1.00  0.00    -0.138 SA
ATOM     72  C   UNL A   1      31.849  23.612  24.780  1.00  0.00     0.191 C 
BRANCH  70  73
ATOM     73  C   UNL A   1      34.205  24.356  24.547  1.00  0.00     0.291 C 
ATOM     74  O   UNL A   1      35.388  24.234  24.877  1.00  0.00    -0.265 OA
BRANCH  73  75
ATOM     75  C   UNL A   1      33.747  25.427  23.676  1.00  0.00     0.199 A 
ATOM     76  O   UNL A   1      33.926  25.257  22.326  1.00  0.00    -0.459 OA
ATOM     77  C   UNL A   1      33.148  26.664  23.901  1.00  0.00     0.033 A 
ATOM     78  C   UNL A   1      33.418  26.348  21.703  1.00  0.00     0.196 A 
ATOM     79  C   UNL A   1      32.914  27.235  22.619  1.00  0.00     0.051 A 
BRANCH  77  80
ATOM     80  C   UNL A   1      32.831  27.218  25.206  1.00  0.00    -0.014 A 
ATOM     81  C   UNL A   1      33.813  27.913  25.926  1.00  0.00     0.009 A 
ATOM     82  C   UNL A   1      31.549  27.090  25.748  1.00  0.00     0.009 A 
ATOM     83  C   UNL A   1      33.501  28.507  27.151  1.00  0.00     0.001 A 
ATOM     84  C   UNL A   1      31.243  27.676  26.978  1.00  0.00     0.001 A 
ATOM     85  C   UNL A   1      32.215  28.390  27.675  1.00  0.00     0.000 A 
ENDBRANCH  77  80
ENDBRANCH  73  75
ENDBRANCH  70  73
ENDBRANCH  65  68
ENDBRANCH  63  64
ENDBRANCH   1  63
TORSDOF 13
ENDMDL
MODEL 3
REMARK VINA RESULT:     -11.9      5.383     10.075
REMARK SMILES O=C(NCCCNC(=O)[C@H]1CSCN1C(=O)c1occc1-c1ccccc1)c1ccc(-c2c3nc(c(-c4c(F)cccc4F)c4ccc([nH]4)c(-c4c(F)cccc4F)c4nc(c(-c5c(F)cccc5F)c5ccc2[nH]5)C=C4)C=C3)cc1
REMARK SMILES IDX 5 1 4 2 3 3 1 4 2 5 28 7 29 8 81 9 30 10 80 11 31 12 32 13
REMARK SMILES IDX 33 14 74 15 34 16 79 17 73 18 75 19 35 20 78 21 72 22 71 23
REMARK SMILES IDX 36 25 62 26 45 27 61 28 46 29 49 30 60 31 76 32 47 33 48 34
REMARK SMILES IDX 59 36 77 37 50 38 37 39 38 40 43 41 39 42 40 43 42 44 44 45
REMARK SMILES IDX 41 46 63 47 64 48 69 49 65 50 66 51 68 52 70 53 67 54 51 55
REMARK SMILES IDX 52 56 57 57 53 58 54 59 56 60 58 61 55 62 6 63 7 64 8 65
REMARK SMILES IDX 9 67 10 68 11 69 14 70 12 71 13 72 15 73 16 74 17 75 18 76
REMARK SMILES IDX 21 77 19 78 20 79 22 80 23 81 27 82 24 83 26 84 25 85
REMARK H PARENT 3 6 75 24 49 35 7 66
REMARK Flexibility Score: inf
ROOT
ATOM      1  C   UNL A   1      38.119  19.971  24.850  1.00  0.00     0.042 C 
ENDROOT
BRANCH   1   2
ATOM      2  C   UNL A   1      39.090  20.128  26.015  1.00  0.00     0.118 C 
BRANCH   2   3
ATOM      3  N   UNL A   1      40.297  19.328  25.852  1.00  0.00    -0.352 N 
ATOM      4  O   UNL A   1      42.482  18.879  25.606  1.00  0.00    -0.269 OA
ATOM      5  C   UNL A   1      41.619  19.674  25.968  1.00  0.00     0.251 C 
ATOM      6  H   UNL A   1      40.137  18.385  25.620  1.00  0.00     0.163 HD
BRANCH   5   7
ATOM      7  C   UNL A   1      42.019  20.988  26.519  1.00  0.00     0.039 A 
ATOM      8  C   UNL A   1      42.356  22.053  25.681  1.00  0.00     0.014 A 
ATOM      9  C   UNL A   1      41.981  21.178  27.906  1.00  0.00     0.014 A 
ATOM     10  C   UNL A   1      42.759  23.267  26.228  1.00  0.00     0.010 A 
ATOM     11  C   UNL A   1      42.314  22.421  28.452  1.00  0.00     0.010 A 
ATOM     12  C   UNL A   1      42.720  23.471  27.617  1.00  0.00    -0.014 A 
BRANCH  12  13
ATOM     13  C   UNL A   1      43.008  24.820  28.159  1.00  0.00     0.031 A 
ATOM     14  C   UNL A   1      44.405  25.237  28.516  1.00  0.00     0.074 A 
ATOM     15  C   UNL A   1      41.982  25.679  28.316  1.00  0.00     0.049 A 
ATOM     16  N   UNL A   1      44.824  26.388  28.980  1.00  0.00    -0.248 NA
ATOM     17  C   UNL A   1      45.470  24.238  28.338  1.00  0.00     0.031 C 
ATOM     18  C   UNL A   1      40.578  25.372  28.030  1.00  0.00     0.029 A 
ATOM     19  N   UNL A   1      41.957  26.981  28.741  1.00  0.00    -0.354 N 
ATOM     20  C   UNL A   1      46.193  26.249  29.166  1.00  0.00     0.074 A 
ATOM     21  C   UNL A   1      46.535  24.896  28.779  1.00  0.00     0.031 C 
ATOM     22  C   UNL A   1      39.834  26.466  28.254  1.00  0.00     0.029 A 
ATOM     23  C   UNL A   1      40.699  27.533  28.743  1.00  0.00     0.049 A 
ATOM     24  H   UNL A   1      42.763  27.474  29.019  1.00  0.00     0.167 HD
ATOM     25  C   UNL A   1      47.080  27.170  29.611  1.00  0.00     0.037 A 
ATOM     26  C   UNL A   1      40.283  28.758  29.112  1.00  0.00     0.037 A 
ATOM     27  C   UNL A   1      46.739  28.523  29.967  1.00  0.00     0.049 A 
ATOM     28  C   UNL A   1      41.290  29.754  29.603  1.00  0.00     0.074 A 
ATOM     29  C   UNL A   1      47.582  29.549  30.359  1.00  0.00     0.029 A 
ATOM     30  N   UNL A   1      45.451  29.038  29.979  1.00  0.00    -0.354 N 
ATOM     31  N   UNL A   1      42.589  29.622  29.720  1.00  0.00    -0.248 NA
ATOM     32  C   UNL A   1      40.775  31.063  30.022  1.00  0.00     0.031 C 
ATOM     33  C   UNL A   1      46.800  30.674  30.645  1.00  0.00     0.029 A 
ATOM     34  C   UNL A   1      45.475  30.357  30.400  1.00  0.00     0.049 A 
ATOM     35  H   UNL A   1      44.642  28.538  29.726  1.00  0.00     0.167 HD
ATOM     36  C   UNL A   1      43.047  30.831  30.223  1.00  0.00     0.074 A 
ATOM     37  C   UNL A   1      41.890  31.692  30.365  1.00  0.00     0.031 C 
ATOM     38  C   UNL A   1      44.312  31.192  30.547  1.00  0.00     0.037 A 
BRANCH  25  39
ATOM     39  C   UNL A   1      48.514  26.754  29.748  1.00  0.00     0.057 A 
ATOM     40  C   UNL A   1      49.001  26.163  30.919  1.00  0.00     0.134 A 
ATOM     41  C   UNL A   1      49.394  26.873  28.666  1.00  0.00     0.134 A 
ATOM     42  F   UNL A   1      48.208  26.028  31.994  1.00  0.00    -0.206 F 
ATOM     43  C   UNL A   1      50.317  25.707  31.010  1.00  0.00     0.040 A 
ATOM     44  C   UNL A   1      50.707  26.407  28.739  1.00  0.00     0.040 A 
ATOM     45  F   UNL A   1      48.986  27.426  27.514  1.00  0.00    -0.206 F 
ATOM     46  C   UNL A   1      51.172  25.820  29.916  1.00  0.00     0.006 A 
ENDBRANCH  25  39
BRANCH  26  47
ATOM     47  C   UNL A   1      38.843  29.099  29.043  1.00  0.00     0.057 A 
ATOM     48  C   UNL A   1      38.255  29.525  27.849  1.00  0.00     0.134 A 
ATOM     49  C   UNL A   1      38.020  29.000  30.173  1.00  0.00     0.134 A 
ATOM     50  F   UNL A   1      38.997  29.655  26.739  1.00  0.00    -0.206 F 
ATOM     51  C   UNL A   1      36.900  29.853  27.780  1.00  0.00     0.040 A 
ATOM     52  C   UNL A   1      36.661  29.303  30.112  1.00  0.00     0.040 A 
ATOM     53  F   UNL A   1      38.526  28.591  31.345  1.00  0.00    -0.206 F 
ATOM     54  C   UNL A   1      36.097  29.737  28.913  1.00  0.00     0.006 A 
ENDBRANCH  26  47
BRANCH  38  55
ATOM     55  C   UNL A   1      44.499  32.575  31.088  1.00  0.00     0.057 A 
ATOM     56  C   UNL A   1      44.715  33.667  30.238  1.00  0.00     0.134 A 
ATOM     57  C   UNL A   1      44.447  32.822  32.465  1.00  0.00     0.134 A 
ATOM     58  F   UNL A   1      44.791  33.490  28.910  1.00  0.00    -0.206 F 
ATOM     59  C   UNL A   1      44.892  34.956  30.741  1.00  0.00     0.040 A 
ATOM     60  C   UNL A   1      44.604  34.110  32.978  1.00  0.00     0.040 A 
ATOM     61  F   UNL A   1      44.240  31.817  33.330  1.00  0.00    -0.206 F 
ATOM     62  C   UNL A   1      44.832  35.179  32.116  1.00  0.00     0.006 A 
ENDBRANCH  38  55
ENDBRANCH  12  13
ENDBRANCH   5   7
ENDBRANCH   2   3
ENDBRANCH   1   2
BRANCH   1  63
ATOM     63  C   UNL A   1      36.775  20.653  25.067  1.00  0.00     0.117 C 
BRANCH  63  64
ATOM     64  N   UNL A   1      36.440  21.588  24.009  1.00  0.00    -0.354 N 
ATOM     65  C   UNL A   1      35.661  22.714  24.053  1.00  0.00     0.243 C 
ATOM     66  H   UNL A   1      36.829  21.382  23.128  1.00  0.00     0.163 HD
ATOM     67  O   UNL A   1      35.570  23.381  23.022  1.00  0.00    -0.273 OA
BRANCH  65  68
ATOM     68  C   UNL A   1      35.001  23.115  25.392  1.00  0.00     0.185 C 
ATOM     69  C   UNL A   1      35.089  24.641  25.534  1.00  0.00     0.106 C 
ATOM     70  N   UNL A   1      33.601  22.693  25.494  1.00  0.00    -0.314 N 
ATOM     71  S   UNL A   1      33.427  25.279  25.824  1.00  0.00    -0.138 SA
ATOM     72  C   UNL A   1      32.729  23.655  26.119  1.00  0.00     0.191 C 
BRANCH  70  73
ATOM     73  C   UNL A   1      33.290  21.334  25.443  1.00  0.00     0.291 C 
ATOM     74  O   UNL A   1      33.422  20.638  26.453  1.00  0.00    -0.265 OA
BRANCH  73  75
ATOM     75  C   UNL A   1      32.798  20.794  24.185  1.00  0.00     0.199 A 
ATOM     76  O   UNL A   1      32.242  21.681  23.298  1.00  0.00    -0.459 OA
ATOM     77  C   UNL A   1      32.741  19.514  23.642  1.00  0.00     0.033 A 
ATOM     78  C   UNL A   1      31.871  20.984  22.196  1.00  0.00     0.196 A 
ATOM     79  C   UNL A   1      32.168  19.653  22.347  1.00  0.00     0.051 A 
BRANCH  77  80
ATOM     80  C   UNL A   1      33.199  18.302  24.299  1.00  0.00    -0.014 A 
ATOM     81  C   UNL A   1      32.309  17.555  25.083  1.00  0.00     0.009 A 
ATOM     82  C   UNL A   1      34.513  17.854  24.142  1.00  0.00     0.009 A 
ATOM     83  C   UNL A   1      32.720  16.353  25.665  1.00  0.00     0.001 A 
ATOM     84  C   UNL A   1      34.925  16.658  24.734  1.00  0.00     0.001 A 
ATOM     85  C   UNL A   1      34.027  15.904  25.488  1.00  0.00     0.000 A 
ENDBRANCH  77  80
ENDBRANCH  73  75
ENDBRANCH  70  73
ENDBRANCH  65  68
ENDBRANCH  63  64
ENDBRANCH   1  63
TORSDOF 13
ENDMDL
