MODEL 1
REMARK VINA RESULT:     -11.4      0.000      0.000
REMARK SMILES Cc1nc(S(=O)(=O)N[C@H]2C=C[C@H](C(=O)NCCCNC(=O)c3ccc(-c4c5nc(c(-c6c(F)cccc6F)c6ccc([nH]6)c(-c6c(F)cccc6F)c6nc(c(-c7c(F)cccc7F)c7ccc4[nH]7)C=C6)C=C5)cc3)C2)cn1C
REMARK SMILES IDX 16 1 15 2 13 3 14 4 12 6 9 7 10 8 76 9 11 10 8 11 5 13 6 14
REMARK SMILES IDX 7 15 4 16 1 17 2 18 3 19 78 20 77 21 79 22 17 23 18 24 19 25
REMARK SMILES IDX 20 26 21 28 22 29 23 30 75 31 24 32 74 33 25 34 26 35 27 36
REMARK SMILES IDX 68 37 28 38 73 39 67 40 69 41 29 42 72 43 66 44 65 45 30 47
REMARK SMILES IDX 56 48 39 49 55 50 40 51 43 52 54 53 70 54 41 55 42 56 53 58
REMARK SMILES IDX 71 59 44 60 31 61 32 62 37 63 33 64 34 65 36 66 38 67 35 68
REMARK SMILES IDX 57 69 58 70 63 71 59 72 60 73 62 74 64 75 61 76 45 77 46 78
REMARK SMILES IDX 51 79 47 80 48 81 50 82 52 83 49 84
REMARK H PARENT 15 5 8 12 19 27 69 46 43 57
REMARK Flexibility Score: inf
ROOT
ATOM      1  C   UNL A   1      36.937  20.669  24.542  1.00  0.00     0.117 C 
ENDROOT
BRANCH   1   2
ATOM      2  N   UNL A   1      37.326  21.993  25.000  1.00  0.00    -0.356 N 
ATOM      3  C   UNL A   1      36.549  23.084  25.277  1.00  0.00     0.226 C 
ATOM      4  O   UNL A   1      37.112  24.111  25.654  1.00  0.00    -0.274 OA
ATOM      5  H   UNL A   1      38.293  22.122  25.132  1.00  0.00     0.163 HD
BRANCH   3   6
ATOM      6  C   UNL A   1      35.034  22.978  25.077  1.00  0.00     0.103 C 
ATOM      7  C   UNL A   1      34.068  24.769  23.700  1.00  0.00     0.093 C 
ATOM      8  C   UNL A   1      33.703  24.920  25.135  1.00  0.00    -0.011 C 
ATOM      9  C   UNL A   1      34.646  23.345  23.641  1.00  0.00     0.042 C 
ATOM     10  C   UNL A   1      34.250  23.963  25.891  1.00  0.00    -0.016 C 
BRANCH   7  11
ATOM     11  N   UNL A   1      32.880  24.818  22.854  1.00  0.00    -0.203 NA
ATOM     12  H   UNL A   1      32.864  23.961  22.300  1.00  0.00     0.142 HD
BRANCH  11  13
ATOM     13  S   UNL A   1      32.739  26.117  21.781  1.00  0.00     0.260 S 
ATOM     14  O   UNL A   1      31.955  25.664  20.654  1.00  0.00    -0.205 OA
ATOM     15  O   UNL A   1      34.073  26.654  21.634  1.00  0.00    -0.205 OA
BRANCH  13  16
ATOM     16  C   UNL A   1      31.808  27.394  22.522  1.00  0.00     0.188 A 
ATOM     17  C   UNL A   1      28.794  29.334  22.918  1.00  0.00     0.088 C 
ATOM     18  C   UNL A   1      30.126  28.679  22.957  1.00  0.00     0.106 A 
ATOM     19  N   UNL A   1      30.503  27.690  22.172  1.00  0.00    -0.221 NA
ATOM     20  N   UNL A   1      31.142  29.019  23.822  1.00  0.00    -0.337 N 
ATOM     21  C   UNL A   1      32.228  28.239  23.530  1.00  0.00     0.129 A 
ATOM     22  C   UNL A   1      31.081  30.002  24.876  1.00  0.00     0.151 C 
ENDBRANCH  13  16
ENDBRANCH  11  13
ENDBRANCH   7  11
ENDBRANCH   3   6
ENDBRANCH   1   2
BRANCH   1  23
ATOM     23  C   UNL A   1      37.945  19.595  24.943  1.00  0.00     0.042 C 
BRANCH  23  24
ATOM     24  C   UNL A   1      39.059  20.078  25.869  1.00  0.00     0.118 C 
BRANCH  24  25
ATOM     25  N   UNL A   1      40.245  19.238  25.819  1.00  0.00    -0.352 N 
ATOM     26  C   UNL A   1      41.563  19.542  26.059  1.00  0.00     0.251 C 
ATOM     27  H   UNL A   1      40.076  18.299  25.573  1.00  0.00     0.163 HD
ATOM     28  O   UNL A   1      42.429  18.707  25.811  1.00  0.00    -0.269 OA
BRANCH  26  29
ATOM     29  C   UNL A   1      41.957  20.868  26.587  1.00  0.00     0.039 A 
ATOM     30  C   UNL A   1      42.368  21.852  25.681  1.00  0.00     0.014 A 
ATOM     31  C   UNL A   1      41.961  21.140  27.957  1.00  0.00     0.014 A 
ATOM     32  C   UNL A   1      42.714  23.126  26.142  1.00  0.00     0.010 A 
ATOM     33  C   UNL A   1      42.242  22.429  28.410  1.00  0.00     0.010 A 
ATOM     34  C   UNL A   1      42.617  23.435  27.508  1.00  0.00    -0.014 A 
BRANCH  34  35
ATOM     35  C   UNL A   1      42.888  24.808  28.007  1.00  0.00     0.031 A 
ATOM     36  C   UNL A   1      44.279  25.212  28.408  1.00  0.00     0.074 A 
ATOM     37  C   UNL A   1      41.867  25.672  28.167  1.00  0.00     0.049 A 
ATOM     38  N   UNL A   1      44.692  26.330  28.951  1.00  0.00    -0.248 NA
ATOM     39  C   UNL A   1      45.343  24.220  28.193  1.00  0.00     0.031 C 
ATOM     40  C   UNL A   1      40.464  25.392  27.854  1.00  0.00     0.029 A 
ATOM     41  N   UNL A   1      41.849  26.958  28.648  1.00  0.00    -0.354 N 
ATOM     42  C   UNL A   1      46.055  26.170  29.158  1.00  0.00     0.074 A 
ATOM     43  C   UNL A   1      46.394  24.832  28.722  1.00  0.00     0.031 C 
ATOM     44  C   UNL A   1      39.726  26.479  28.134  1.00  0.00     0.029 A 
ATOM     45  C   UNL A   1      40.595  27.517  28.679  1.00  0.00     0.049 A 
ATOM     46  H   UNL A   1      42.659  27.434  28.942  1.00  0.00     0.167 HD
ATOM     47  C   UNL A   1      46.949  27.062  29.650  1.00  0.00     0.037 A 
ATOM     48  C   UNL A   1      40.188  28.727  29.107  1.00  0.00     0.037 A 
ATOM     49  C   UNL A   1      46.620  28.403  30.054  1.00  0.00     0.049 A 
ATOM     50  C   UNL A   1      41.198  29.699  29.648  1.00  0.00     0.074 A 
ATOM     51  C   UNL A   1      47.468  29.399  30.509  1.00  0.00     0.029 A 
ATOM     52  N   UNL A   1      45.341  28.938  30.051  1.00  0.00    -0.354 N 
ATOM     53  N   UNL A   1      42.492  29.550  29.790  1.00  0.00    -0.248 NA
ATOM     54  C   UNL A   1      40.691  31.008  30.084  1.00  0.00     0.031 C 
ATOM     55  C   UNL A   1      46.697  30.526  30.813  1.00  0.00     0.029 A 
ATOM     56  C   UNL A   1      45.374  30.245  30.512  1.00  0.00     0.049 A 
ATOM     57  H   UNL A   1      44.529  28.462  29.764  1.00  0.00     0.167 HD
ATOM     58  C   UNL A   1      42.957  30.752  30.307  1.00  0.00     0.074 A 
ATOM     59  C   UNL A   1      41.809  31.622  30.445  1.00  0.00     0.031 C 
ATOM     60  C   UNL A   1      44.224  31.102  30.637  1.00  0.00     0.037 A 
BRANCH  47  61
ATOM     61  C   UNL A   1      48.375  26.614  29.774  1.00  0.00     0.057 A 
ATOM     62  C   UNL A   1      48.840  25.944  30.913  1.00  0.00     0.134 A 
ATOM     63  C   UNL A   1      49.284  26.820  28.728  1.00  0.00     0.134 A 
ATOM     64  F   UNL A   1      48.023  25.726  31.954  1.00  0.00    -0.206 F 
ATOM     65  C   UNL A   1      50.165  25.517  31.017  1.00  0.00     0.040 A 
ATOM     66  C   UNL A   1      50.604  26.376  28.811  1.00  0.00     0.040 A 
ATOM     67  F   UNL A   1      48.900  27.450  27.607  1.00  0.00    -0.206 F 
ATOM     68  C   UNL A   1      51.050  25.728  29.962  1.00  0.00     0.006 A 
ENDBRANCH  47  61
BRANCH  48  69
ATOM     69  C   UNL A   1      38.753  29.097  29.024  1.00  0.00     0.057 A 
ATOM     70  C   UNL A   1      38.203  29.573  27.828  1.00  0.00     0.134 A 
ATOM     71  C   UNL A   1      37.904  28.990  30.131  1.00  0.00     0.134 A 
ATOM     72  F   UNL A   1      38.973  29.714  26.740  1.00  0.00    -0.206 F 
ATOM     73  C   UNL A   1      36.861  29.945  27.740  1.00  0.00     0.040 A 
ATOM     74  C   UNL A   1      36.555  29.338  30.051  1.00  0.00     0.040 A 
ATOM     75  F   UNL A   1      38.372  28.533  31.302  1.00  0.00    -0.206 F 
ATOM     76  C   UNL A   1      36.031  29.823  28.853  1.00  0.00     0.006 A 
ENDBRANCH  48  69
BRANCH  60  77
ATOM     77  C   UNL A   1      44.439  32.494  31.151  1.00  0.00     0.057 A 
ATOM     78  C   UNL A   1      44.433  32.784  32.521  1.00  0.00     0.134 A 
ATOM     79  C   UNL A   1      44.689  33.550  30.265  1.00  0.00     0.134 A 
ATOM     80  F   UNL A   1      44.184  31.818  33.419  1.00  0.00    -0.206 F 
ATOM     81  C   UNL A   1      44.651  34.080  32.992  1.00  0.00     0.040 A 
ATOM     82  C   UNL A   1      44.932  34.844  30.725  1.00  0.00     0.040 A 
ATOM     83  F   UNL A   1      44.715  33.337  28.941  1.00  0.00    -0.206 F 
ATOM     84  C   UNL A   1      44.908  35.113  32.093  1.00  0.00     0.006 A 
ENDBRANCH  60  77
ENDBRANCH  34  35
ENDBRANCH  26  29
ENDBRANCH  24  25
ENDBRANCH  23  24
ENDBRANCH   1  23
TORSDOF 13
ENDMDL
MODEL 2
REMARK VINA RESULT:     -11.3      0.479      1.683
REMARK SMILES Cc1nc(S(=O)(=O)N[C@H]2C=C[C@H](C(=O)NCCCNC(=O)c3ccc(-c4c5nc(c(-c6c(F)cccc6F)c6ccc([nH]6)c(-c6c(F)cccc6F)c6nc(c(-c7c(F)cccc7F)c7ccc4[nH]7)C=C6)C=C5)cc3)C2)cn1C
REMARK SMILES IDX 16 1 15 2 13 3 14 4 12 6 9 7 10 8 76 9 11 10 8 11 5 13 6 14
REMARK SMILES IDX 7 15 4 16 1 17 2 18 3 19 78 20 77 21 79 22 17 23 18 24 19 25
REMARK SMILES IDX 20 26 21 28 22 29 23 30 75 31 24 32 74 33 25 34 26 35 27 36
REMARK SMILES IDX 68 37 28 38 73 39 67 40 69 41 29 42 72 43 66 44 65 45 30 47
REMARK SMILES IDX 56 48 39 49 55 50 40 51 43 52 54 53 70 54 41 55 42 56 53 58
REMARK SMILES IDX 71 59 44 60 31 61 32 62 37 63 33 64 34 65 36 66 38 67 35 68
REMARK SMILES IDX 57 69 58 70 63 71 59 72 60 73 62 74 64 75 61 76 45 77 46 78
REMARK SMILES IDX 51 79 47 80 48 81 50 82 52 83 49 84
REMARK H PARENT 15 5 8 12 19 27 69 46 43 57
REMARK Flexibility Score: inf
ROOT
ATOM      1  C   UNL A   1      36.411  20.218  24.993  1.00  0.00     0.117 C 
ENDROOT
BRANCH   1   2
ATOM      2  N   UNL A   1      36.413  21.567  25.533  1.00  0.00    -0.356 N 
ATOM      3  C   UNL A   1      35.465  22.548  25.433  1.00  0.00     0.226 C 
ATOM      4  O   UNL A   1      35.693  23.626  25.980  1.00  0.00    -0.274 OA
ATOM      5  H   UNL A   1      37.215  21.810  26.048  1.00  0.00     0.163 HD
BRANCH   3   6
ATOM      6  C   UNL A   1      34.193  22.264  24.629  1.00  0.00     0.103 C 
ATOM      7  C   UNL A   1      33.141  24.261  23.660  1.00  0.00     0.093 C 
ATOM      8  C   UNL A   1      32.348  23.718  24.796  1.00  0.00    -0.011 C 
ATOM      9  C   UNL A   1      34.140  23.129  23.366  1.00  0.00     0.042 C 
ATOM     10  C   UNL A   1      32.932  22.648  25.344  1.00  0.00    -0.016 C 
BRANCH   7  11
ATOM     11  N   UNL A   1      32.300  24.448  22.482  1.00  0.00    -0.203 NA
ATOM     12  H   UNL A   1      32.488  23.673  21.846  1.00  0.00     0.142 HD
BRANCH  11  13
ATOM     13  S   UNL A   1      32.493  25.881  21.604  1.00  0.00     0.260 S 
ATOM     14  O   UNL A   1      31.764  25.730  20.365  1.00  0.00    -0.205 OA
ATOM     15  O   UNL A   1      33.908  26.179  21.642  1.00  0.00    -0.205 OA
BRANCH  13  16
ATOM     16  C   UNL A   1      31.722  27.198  22.450  1.00  0.00     0.188 A 
ATOM     17  C   UNL A   1      28.993  29.496  22.974  1.00  0.00     0.088 C 
ATOM     18  C   UNL A   1      30.220  28.659  22.976  1.00  0.00     0.106 A 
ATOM     19  N   UNL A   1      30.484  27.708  22.103  1.00  0.00    -0.221 NA
ATOM     20  N   UNL A   1      31.241  28.767  23.892  1.00  0.00    -0.337 N 
ATOM     21  C   UNL A   1      32.219  27.874  23.547  1.00  0.00     0.129 A 
ATOM     22  C   UNL A   1      31.280  29.642  25.038  1.00  0.00     0.151 C 
ENDBRANCH  13  16
ENDBRANCH  11  13
ENDBRANCH   7  11
ENDBRANCH   3   6
ENDBRANCH   1   2
BRANCH   1  23
ATOM     23  C   UNL A   1      37.820  19.694  24.730  1.00  0.00     0.042 C 
BRANCH  23  24
ATOM     24  C   UNL A   1      38.870  20.150  25.741  1.00  0.00     0.118 C 
BRANCH  24  25
ATOM     25  N   UNL A   1      40.007  19.248  25.826  1.00  0.00    -0.352 N 
ATOM     26  C   UNL A   1      41.316  19.494  26.165  1.00  0.00     0.251 C 
ATOM     27  H   UNL A   1      39.808  18.309  25.604  1.00  0.00     0.163 HD
ATOM     28  O   UNL A   1      42.151  18.604  26.026  1.00  0.00    -0.269 OA
BRANCH  26  29
ATOM     29  C   UNL A   1      41.738  20.819  26.672  1.00  0.00     0.039 A 
ATOM     30  C   UNL A   1      42.233  21.757  25.758  1.00  0.00     0.014 A 
ATOM     31  C   UNL A   1      41.686  21.135  28.031  1.00  0.00     0.014 A 
ATOM     32  C   UNL A   1      42.607  23.030  26.196  1.00  0.00     0.010 A 
ATOM     33  C   UNL A   1      41.997  22.426  28.458  1.00  0.00     0.010 A 
ATOM     34  C   UNL A   1      42.456  23.387  27.545  1.00  0.00    -0.014 A 
BRANCH  34  35
ATOM     35  C   UNL A   1      42.759  24.764  28.015  1.00  0.00     0.031 A 
ATOM     36  C   UNL A   1      44.163  25.152  28.383  1.00  0.00     0.074 A 
ATOM     37  C   UNL A   1      41.755  25.647  28.179  1.00  0.00     0.049 A 
ATOM     38  N   UNL A   1      44.604  26.272  28.899  1.00  0.00    -0.248 NA
ATOM     39  C   UNL A   1      45.207  24.139  28.166  1.00  0.00     0.031 C 
ATOM     40  C   UNL A   1      40.342  25.385  27.896  1.00  0.00     0.029 A 
ATOM     41  N   UNL A   1      41.767  26.941  28.637  1.00  0.00    -0.354 N 
ATOM     42  C   UNL A   1      45.969  26.093  29.083  1.00  0.00     0.074 A 
ATOM     43  C   UNL A   1      46.277  24.742  28.665  1.00  0.00     0.031 C 
ATOM     44  C   UNL A   1      39.628  26.488  28.170  1.00  0.00     0.029 A 
ATOM     45  C   UNL A   1      40.523  27.522  28.682  1.00  0.00     0.049 A 
ATOM     46  H   UNL A   1      42.590  27.409  28.907  1.00  0.00     0.167 HD
ATOM     47  C   UNL A   1      46.886  26.979  29.543  1.00  0.00     0.037 A 
ATOM     48  C   UNL A   1      40.143  28.745  29.096  1.00  0.00     0.037 A 
ATOM     49  C   UNL A   1      46.586  28.332  29.930  1.00  0.00     0.049 A 
ATOM     50  C   UNL A   1      41.179  29.710  29.601  1.00  0.00     0.074 A 
ATOM     51  C   UNL A   1      47.458  29.322  30.351  1.00  0.00     0.029 A 
ATOM     52  N   UNL A   1      45.316  28.888  29.941  1.00  0.00    -0.354 N 
ATOM     53  N   UNL A   1      42.472  29.542  29.721  1.00  0.00    -0.248 NA
ATOM     54  C   UNL A   1      40.701  31.034  30.023  1.00  0.00     0.031 C 
ATOM     55  C   UNL A   1      46.711  30.467  30.649  1.00  0.00     0.029 A 
ATOM     56  C   UNL A   1      45.378  30.202  30.378  1.00  0.00     0.049 A 
ATOM     57  H   UNL A   1      44.491  28.420  29.677  1.00  0.00     0.167 HD
ATOM     58  C   UNL A   1      42.967  30.744  30.209  1.00  0.00     0.074 A 
ATOM     59  C   UNL A   1      41.835  31.636  30.352  1.00  0.00     0.031 C 
ATOM     60  C   UNL A   1      44.245  31.080  30.509  1.00  0.00     0.037 A 
BRANCH  47  61
ATOM     61  C   UNL A   1      48.306  26.510  29.649  1.00  0.00     0.057 A 
ATOM     62  C   UNL A   1      49.250  26.788  28.652  1.00  0.00     0.134 A 
ATOM     63  C   UNL A   1      48.745  25.804  30.777  1.00  0.00     0.134 A 
ATOM     64  F   UNL A   1      48.890  27.449  27.542  1.00  0.00    -0.206 F 
ATOM     65  C   UNL A   1      50.574  26.360  28.762  1.00  0.00     0.040 A 
ATOM     66  C   UNL A   1      50.072  25.392  30.909  1.00  0.00     0.040 A 
ATOM     67  F   UNL A   1      47.893  25.510  31.770  1.00  0.00    -0.206 F 
ATOM     68  C   UNL A   1      50.990  25.665  29.896  1.00  0.00     0.006 A 
ENDBRANCH  47  61
BRANCH  48  69
ATOM     69  C   UNL A   1      38.713  29.137  29.032  1.00  0.00     0.057 A 
ATOM     70  C   UNL A   1      37.889  29.034  30.158  1.00  0.00     0.134 A 
ATOM     71  C   UNL A   1      38.139  29.618  27.851  1.00  0.00     0.134 A 
ATOM     72  F   UNL A   1      38.381  28.562  31.313  1.00  0.00    -0.206 F 
ATOM     73  C   UNL A   1      36.538  29.379  30.108  1.00  0.00     0.040 A 
ATOM     74  C   UNL A   1      36.794  29.988  27.792  1.00  0.00     0.040 A 
ATOM     75  F   UNL A   1      38.879  29.747  26.740  1.00  0.00    -0.206 F 
ATOM     76  C   UNL A   1      35.988  29.863  28.922  1.00  0.00     0.006 A 
ENDBRANCH  48  69
BRANCH  60  77
ATOM     77  C   UNL A   1      44.491  32.476  30.994  1.00  0.00     0.057 A 
ATOM     78  C   UNL A   1      44.734  33.533  30.108  1.00  0.00     0.134 A 
ATOM     79  C   UNL A   1      44.449  32.774  32.363  1.00  0.00     0.134 A 
ATOM     80  F   UNL A   1      44.801  33.310  28.786  1.00  0.00    -0.206 F 
ATOM     81  C   UNL A   1      44.945  34.834  30.567  1.00  0.00     0.040 A 
ATOM     82  C   UNL A   1      44.636  34.074  32.831  1.00  0.00     0.040 A 
ATOM     83  F   UNL A   1      44.214  31.807  33.263  1.00  0.00    -0.206 F 
ATOM     84  C   UNL A   1      44.890  35.109  31.932  1.00  0.00     0.006 A 
ENDBRANCH  60  77
ENDBRANCH  34  35
ENDBRANCH  26  29
ENDBRANCH  24  25
ENDBRANCH  23  24
ENDBRANCH   1  23
TORSDOF 13
ENDMDL
MODEL 3
REMARK VINA RESULT:     -11.3      4.517      9.537
REMARK SMILES Cc1nc(S(=O)(=O)N[C@H]2C=C[C@H](C(=O)NCCCNC(=O)c3ccc(-c4c5nc(c(-c6c(F)cccc6F)c6ccc([nH]6)c(-c6c(F)cccc6F)c6nc(c(-c7c(F)cccc7F)c7ccc4[nH]7)C=C6)C=C5)cc3)C2)cn1C
REMARK SMILES IDX 16 1 15 2 13 3 14 4 12 6 9 7 10 8 76 9 11 10 8 11 5 13 6 14
REMARK SMILES IDX 7 15 4 16 1 17 2 18 3 19 78 20 77 21 79 22 17 23 18 24 19 25
REMARK SMILES IDX 20 26 21 28 22 29 23 30 75 31 24 32 74 33 25 34 26 35 27 36
REMARK SMILES IDX 68 37 28 38 73 39 67 40 69 41 29 42 72 43 66 44 65 45 30 47
REMARK SMILES IDX 56 48 39 49 55 50 40 51 43 52 54 53 70 54 41 55 42 56 53 58
REMARK SMILES IDX 71 59 44 60 31 61 32 62 37 63 33 64 34 65 36 66 38 67 35 68
REMARK SMILES IDX 57 69 58 70 63 71 59 72 60 73 62 74 64 75 61 76 45 77 46 78
REMARK SMILES IDX 51 79 47 80 48 81 50 82 52 83 49 84
REMARK H PARENT 15 5 8 12 19 27 69 46 43 57
REMARK Flexibility Score: inf
ROOT
ATOM      1  C   UNL A   1      31.462  30.736  26.130  1.00  0.00     0.117 C 
ENDROOT
BRANCH   1   2
ATOM      2  N   UNL A   1      32.553  30.095  26.845  1.00  0.00    -0.356 N 
ATOM      3  C   UNL A   1      33.155  28.887  26.617  1.00  0.00     0.226 C 
ATOM      4  O   UNL A   1      34.071  28.550  27.367  1.00  0.00    -0.274 OA
ATOM      5  H   UNL A   1      32.913  30.605  27.606  1.00  0.00     0.163 HD
BRANCH   3   6
ATOM      6  C   UNL A   1      32.643  28.016  25.467  1.00  0.00     0.103 C 
ATOM      7  C   UNL A   1      32.528  25.618  25.989  1.00  0.00     0.093 C 
ATOM      8  C   UNL A   1      33.638  25.923  25.046  1.00  0.00    -0.011 C 
ATOM      9  C   UNL A   1      31.708  26.918  25.987  1.00  0.00     0.042 C 
ATOM     10  C   UNL A   1      33.721  27.231  24.782  1.00  0.00    -0.016 C 
BRANCH   7  11
ATOM     11  N   UNL A   1      31.686  24.544  25.470  1.00  0.00    -0.203 NA
ATOM     12  H   UNL A   1      30.741  24.916  25.375  1.00  0.00     0.142 HD
BRANCH  11  13
ATOM     13  S   UNL A   1      31.581  23.124  26.384  1.00  0.00     0.260 S 
ATOM     14  O   UNL A   1      30.271  22.558  26.153  1.00  0.00    -0.205 OA
ATOM     15  O   UNL A   1      32.058  23.469  27.705  1.00  0.00    -0.205 OA
BRANCH  13  16
ATOM     16  C   UNL A   1      32.719  21.948  25.776  1.00  0.00     0.188 A 
ATOM     17  C   UNL A   1      36.069  20.806  25.083  1.00  0.00     0.088 C 
ATOM     18  C   UNL A   1      34.615  21.038  25.282  1.00  0.00     0.106 A 
ATOM     19  N   UNL A   1      34.090  22.137  25.783  1.00  0.00    -0.221 NA
ATOM     20  N   UNL A   1      33.627  20.132  24.970  1.00  0.00    -0.337 N 
ATOM     21  C   UNL A   1      32.417  20.712  25.241  1.00  0.00     0.129 A 
ATOM     22  C   UNL A   1      33.814  18.792  24.470  1.00  0.00     0.151 C 
ENDBRANCH  13  16
ENDBRANCH  11  13
ENDBRANCH   7  11
ENDBRANCH   3   6
ENDBRANCH   1   2
BRANCH   1  23
ATOM     23  C   UNL A   1      31.311  32.209  26.500  1.00  0.00     0.042 C 
BRANCH  23  24
ATOM     24  C   UNL A   1      32.498  32.803  27.256  1.00  0.00     0.118 C 
BRANCH  24  25
ATOM     25  N   UNL A   1      32.294  34.193  27.633  1.00  0.00    -0.352 N 
ATOM     26  C   UNL A   1      32.951  34.971  28.556  1.00  0.00     0.251 C 
ATOM     27  H   UNL A   1      31.569  34.651  27.149  1.00  0.00     0.163 HD
ATOM     28  O   UNL A   1      32.513  36.088  28.822  1.00  0.00    -0.269 OA
BRANCH  26  29
ATOM     29  C   UNL A   1      34.160  34.476  29.251  1.00  0.00     0.039 A 
ATOM     30  C   UNL A   1      34.019  33.935  30.534  1.00  0.00     0.014 A 
ATOM     31  C   UNL A   1      35.428  34.570  28.673  1.00  0.00     0.014 A 
ATOM     32  C   UNL A   1      35.135  33.426  31.205  1.00  0.00     0.010 A 
ATOM     33  C   UNL A   1      36.530  34.003  29.314  1.00  0.00     0.010 A 
ATOM     34  C   UNL A   1      36.394  33.422  30.584  1.00  0.00    -0.014 A 
BRANCH  34  35
ATOM     35  C   UNL A   1      37.573  32.800  31.240  1.00  0.00     0.031 A 
ATOM     36  C   UNL A   1      38.232  31.592  30.636  1.00  0.00     0.074 A 
ATOM     37  C   UNL A   1      38.009  33.282  32.420  1.00  0.00     0.049 A 
ATOM     38  N   UNL A   1      39.208  30.858  31.109  1.00  0.00    -0.248 NA
ATOM     39  C   UNL A   1      37.708  31.132  29.341  1.00  0.00     0.031 C 
ATOM     40  C   UNL A   1      37.434  34.424  33.133  1.00  0.00     0.029 A 
ATOM     41  N   UNL A   1      39.030  32.861  33.236  1.00  0.00    -0.354 N 
ATOM     42  C   UNL A   1      39.403  29.844  30.182  1.00  0.00     0.074 A 
ATOM     43  C   UNL A   1      38.417  30.029  29.139  1.00  0.00     0.031 C 
ATOM     44  C   UNL A   1      38.121  34.623  34.269  1.00  0.00     0.029 A 
ATOM     45  C   UNL A   1      39.158  33.603  34.385  1.00  0.00     0.049 A 
ATOM     46  H   UNL A   1      39.614  32.099  33.018  1.00  0.00     0.167 HD
ATOM     47  C   UNL A   1      40.332  28.856  30.188  1.00  0.00     0.037 A 
ATOM     48  C   UNL A   1      40.010  33.473  35.419  1.00  0.00     0.037 A 
ATOM     49  C   UNL A   1      41.333  28.689  31.207  1.00  0.00     0.049 A 
ATOM     50  C   UNL A   1      41.032  32.371  35.402  1.00  0.00     0.074 A 
ATOM     51  C   UNL A   1      42.354  27.754  31.269  1.00  0.00     0.029 A 
ATOM     52  N   UNL A   1      41.443  29.475  32.344  1.00  0.00    -0.354 N 
ATOM     53  N   UNL A   1      41.236  31.450  34.493  1.00  0.00    -0.248 NA
ATOM     54  C   UNL A   1      41.942  32.293  36.553  1.00  0.00     0.031 C 
ATOM     55  C   UNL A   1      43.060  27.954  32.459  1.00  0.00     0.029 A 
ATOM     56  C   UNL A   1      42.503  29.037  33.121  1.00  0.00     0.049 A 
ATOM     57  H   UNL A   1      40.856  30.233  32.567  1.00  0.00     0.167 HD
ATOM     58  C   UNL A   1      42.312  30.700  34.948  1.00  0.00     0.074 A 
ATOM     59  C   UNL A   1      42.723  31.279  36.210  1.00  0.00     0.031 C 
ATOM     60  C   UNL A   1      42.906  29.627  34.372  1.00  0.00     0.037 A 
BRANCH  47  61
ATOM     61  C   UNL A   1      40.309  27.880  29.050  1.00  0.00     0.057 A 
ATOM     62  C   UNL A   1      41.056  28.090  27.884  1.00  0.00     0.134 A 
ATOM     63  C   UNL A   1      39.560  26.698  29.136  1.00  0.00     0.134 A 
ATOM     64  F   UNL A   1      41.783  29.207  27.735  1.00  0.00    -0.206 F 
ATOM     65  C   UNL A   1      41.041  27.170  26.833  1.00  0.00     0.040 A 
ATOM     66  C   UNL A   1      39.557  25.761  28.102  1.00  0.00     0.040 A 
ATOM     67  F   UNL A   1      38.827  26.434  30.228  1.00  0.00    -0.206 F 
ATOM     68  C   UNL A   1      40.295  25.999  26.943  1.00  0.00     0.006 A 
ENDBRANCH  47  61
BRANCH  48  69
ATOM     69  C   UNL A   1      39.949  34.428  36.553  1.00  0.00     0.057 A 
ATOM     70  C   UNL A   1      39.206  34.131  37.701  1.00  0.00     0.134 A 
ATOM     71  C   UNL A   1      40.622  35.653  36.516  1.00  0.00     0.134 A 
ATOM     72  F   UNL A   1      38.525  32.979  37.786  1.00  0.00    -0.206 F 
ATOM     73  C   UNL A   1      39.122  35.028  38.768  1.00  0.00     0.040 A 
ATOM     74  C   UNL A   1      40.564  36.550  37.584  1.00  0.00     0.040 A 
ATOM     75  F   UNL A   1      41.357  35.991  35.445  1.00  0.00    -0.206 F 
ATOM     76  C   UNL A   1      39.807  36.240  38.712  1.00  0.00     0.006 A 
ENDBRANCH  48  69
BRANCH  60  77
ATOM     77  C   UNL A   1      44.081  29.029  35.084  1.00  0.00     0.057 A 
ATOM     78  C   UNL A   1      43.929  28.016  36.038  1.00  0.00     0.134 A 
ATOM     79  C   UNL A   1      45.385  29.448  34.786  1.00  0.00     0.134 A 
ATOM     80  F   UNL A   1      42.705  27.581  36.378  1.00  0.00    -0.206 F 
ATOM     81  C   UNL A   1      45.030  27.452  36.684  1.00  0.00     0.040 A 
ATOM     82  C   UNL A   1      46.494  28.876  35.408  1.00  0.00     0.040 A 
ATOM     83  F   UNL A   1      45.599  30.411  33.876  1.00  0.00    -0.206 F 
ATOM     84  C   UNL A   1      46.318  27.878  36.364  1.00  0.00     0.006 A 
ENDBRANCH  60  77
ENDBRANCH  34  35
ENDBRANCH  26  29
ENDBRANCH  24  25
ENDBRANCH  23  24
ENDBRANCH   1  23
TORSDOF 13
ENDMDL
