MODEL 1
REMARK VINA RESULT:     -11.0      0.000      0.000
REMARK SMILES O=C(NCCCNC(=O)c1nc2c(F)cccc2s1)c1ccc(-c2c3nc(c(-c4c(F)cccc4F)c4ccc([nH]4)c(-c4c(F)cccc4F)c4nc(c(-c5c(F)cccc5F)c5ccc2[nH]5)C=C4)C=C3)cc1
REMARK SMILES IDX 4 1 3 2 1 3 2 4 20 6 21 7 73 8 22 9 72 10 23 11 24 12 25 13
REMARK SMILES IDX 66 14 26 15 71 16 65 17 67 18 27 19 70 20 64 21 63 22 28 24
REMARK SMILES IDX 54 25 37 26 53 27 38 28 41 29 52 30 68 31 39 32 40 33 51 35
REMARK SMILES IDX 69 36 42 37 29 38 30 39 35 40 31 41 32 42 34 43 36 44 33 45
REMARK SMILES IDX 55 46 56 47 61 48 57 49 58 50 60 51 62 52 59 53 43 54 44 55
REMARK SMILES IDX 49 56 45 57 46 58 48 59 50 60 47 61 5 62 6 63 7 64 8 65 9 67
REMARK SMILES IDX 10 68 11 69 19 70 12 71 18 72 13 73 17 74 14 75 15 76 16 77
REMARK H PARENT 3 5 67 23 41 34 7 66
REMARK Flexibility Score: inf
ROOT
ATOM      1  C   UNL A   1      34.746  34.366  29.447  1.00  0.00     0.118 C 
ENDROOT
BRANCH   1   2
ATOM      2  N   UNL A   1      34.214  33.378  28.526  1.00  0.00    -0.352 N 
ATOM      3  O   UNL A   1      33.729  31.462  27.521  1.00  0.00    -0.269 OA
ATOM      4  C   UNL A   1      34.527  32.077  28.232  1.00  0.00     0.251 C 
ATOM      5  H   UNL A   1      33.457  33.719  27.996  1.00  0.00     0.163 HD
BRANCH   4   6
ATOM      6  C   UNL A   1      35.791  31.407  28.628  1.00  0.00     0.039 A 
ATOM      7  C   UNL A   1      36.934  32.061  29.083  1.00  0.00     0.014 A 
ATOM      8  C   UNL A   1      35.825  30.006  28.489  1.00  0.00     0.014 A 
ATOM      9  C   UNL A   1      38.122  31.361  29.251  1.00  0.00     0.010 A 
ATOM     10  C   UNL A   1      37.001  29.292  28.697  1.00  0.00     0.010 A 
ATOM     11  C   UNL A   1      38.161  29.981  29.031  1.00  0.00    -0.014 A 
BRANCH  11  12
ATOM     12  C   UNL A   1      39.433  29.307  29.266  1.00  0.00     0.031 A 
ATOM     13  C   UNL A   1      39.783  29.062  30.694  1.00  0.00     0.074 A 
ATOM     14  C   UNL A   1      40.224  28.829  28.287  1.00  0.00     0.049 A 
ATOM     15  N   UNL A   1      40.811  29.489  31.356  1.00  0.00    -0.248 NA
ATOM     16  C   UNL A   1      38.827  28.287  31.497  1.00  0.00     0.031 C 
ATOM     17  C   UNL A   1      39.923  28.694  26.861  1.00  0.00     0.029 A 
ATOM     18  N   UNL A   1      41.462  28.272  28.402  1.00  0.00    -0.354 N 
ATOM     19  C   UNL A   1      40.720  28.907  32.619  1.00  0.00     0.074 A 
ATOM     20  C   UNL A   1      39.433  28.262  32.683  1.00  0.00     0.031 C 
ATOM     21  C   UNL A   1      40.867  27.916  26.284  1.00  0.00     0.029 A 
ATOM     22  C   UNL A   1      41.894  27.609  27.265  1.00  0.00     0.049 A 
ATOM     23  H   UNL A   1      42.004  28.336  29.222  1.00  0.00     0.167 HD
ATOM     24  C   UNL A   1      41.779  28.841  33.473  1.00  0.00     0.037 A 
ATOM     25  C   UNL A   1      42.985  26.814  27.158  1.00  0.00     0.037 A 
ATOM     26  C   UNL A   1      42.804  29.791  33.143  1.00  0.00     0.049 A 
ATOM     27  C   UNL A   1      43.898  27.123  28.285  1.00  0.00     0.074 A 
ATOM     28  C   UNL A   1      42.869  31.168  33.054  1.00  0.00     0.029 A 
ATOM     29  N   UNL A   1      43.952  29.335  32.547  1.00  0.00    -0.354 N 
ATOM     30  N   UNL A   1      44.587  28.222  28.395  1.00  0.00    -0.248 NA
ATOM     31  C   UNL A   1      43.762  26.348  29.509  1.00  0.00     0.031 C 
ATOM     32  C   UNL A   1      43.780  31.428  31.989  1.00  0.00     0.029 A 
ATOM     33  C   UNL A   1      44.222  30.194  31.514  1.00  0.00     0.049 A 
ATOM     34  H   UNL A   1      44.479  28.545  32.809  1.00  0.00     0.167 HD
ATOM     35  C   UNL A   1      44.613  28.490  29.755  1.00  0.00     0.074 A 
ATOM     36  C   UNL A   1      44.190  27.249  30.395  1.00  0.00     0.031 C 
ATOM     37  C   UNL A   1      44.707  29.770  30.223  1.00  0.00     0.037 A 
BRANCH  24  38
ATOM     38  C   UNL A   1      42.016  27.700  34.427  1.00  0.00     0.057 A 
ATOM     39  C   UNL A   1      42.751  26.545  34.087  1.00  0.00     0.134 A 
ATOM     40  C   UNL A   1      41.762  27.868  35.800  1.00  0.00     0.134 A 
ATOM     41  F   UNL A   1      43.156  26.304  32.834  1.00  0.00    -0.206 F 
ATOM     42  C   UNL A   1      43.198  25.626  35.039  1.00  0.00     0.040 A 
ATOM     43  C   UNL A   1      42.251  26.980  36.767  1.00  0.00     0.040 A 
ATOM     44  F   UNL A   1      41.099  28.943  36.251  1.00  0.00    -0.206 F 
ATOM     45  C   UNL A   1      42.974  25.856  36.387  1.00  0.00     0.006 A 
ENDBRANCH  24  38
BRANCH  25  46
ATOM     46  C   UNL A   1      43.181  25.637  26.287  1.00  0.00     0.057 A 
ATOM     47  C   UNL A   1      42.472  24.442  26.506  1.00  0.00     0.134 A 
ATOM     48  C   UNL A   1      44.247  25.565  25.381  1.00  0.00     0.134 A 
ATOM     49  F   UNL A   1      41.490  24.376  27.417  1.00  0.00    -0.206 F 
ATOM     50  C   UNL A   1      42.804  23.246  25.865  1.00  0.00     0.040 A 
ATOM     51  C   UNL A   1      44.596  24.371  24.739  1.00  0.00     0.040 A 
ATOM     52  F   UNL A   1      45.010  26.641  25.141  1.00  0.00    -0.206 F 
ATOM     53  C   UNL A   1      43.878  23.205  24.986  1.00  0.00     0.006 A 
ENDBRANCH  25  46
BRANCH  37  54
ATOM     54  C   UNL A   1      45.060  30.845  29.237  1.00  0.00     0.057 A 
ATOM     55  C   UNL A   1      46.370  31.334  29.201  1.00  0.00     0.134 A 
ATOM     56  C   UNL A   1      44.118  31.492  28.423  1.00  0.00     0.134 A 
ATOM     57  F   UNL A   1      47.312  30.808  30.000  1.00  0.00    -0.206 F 
ATOM     58  C   UNL A   1      46.736  32.398  28.373  1.00  0.00     0.040 A 
ATOM     59  C   UNL A   1      44.478  32.535  27.565  1.00  0.00     0.040 A 
ATOM     60  F   UNL A   1      42.819  31.169  28.474  1.00  0.00    -0.206 F 
ATOM     61  C   UNL A   1      45.792  32.993  27.541  1.00  0.00     0.006 A 
ENDBRANCH  37  54
ENDBRANCH  11  12
ENDBRANCH   4   6
ENDBRANCH   1   2
BRANCH   1  62
ATOM     62  C   UNL A   1      33.916  35.638  29.618  1.00  0.00     0.042 C 
BRANCH  62  63
ATOM     63  C   UNL A   1      32.865  35.589  30.722  1.00  0.00     0.118 C 
BRANCH  63  64
ATOM     64  N   UNL A   1      33.183  36.457  31.843  1.00  0.00    -0.350 N 
ATOM     65  C   UNL A   1      34.080  36.299  32.876  1.00  0.00     0.280 C 
ATOM     66  H   UNL A   1      32.672  37.298  31.869  1.00  0.00     0.163 HD
ATOM     67  O   UNL A   1      34.017  37.154  33.774  1.00  0.00    -0.267 OA
BRANCH  65  68
ATOM     68  C   UNL A   1      35.021  35.188  32.899  1.00  0.00     0.182 A 
ATOM     69  N   UNL A   1      36.291  35.325  32.573  1.00  0.00    -0.228 NA
ATOM     70  S   UNL A   1      34.508  33.579  33.203  1.00  0.00    -0.109 S 
ATOM     71  C   UNL A   1      36.943  34.101  32.665  1.00  0.00     0.118 A 
ATOM     72  C   UNL A   1      36.133  33.031  33.053  1.00  0.00     0.058 A 
ATOM     73  C   UNL A   1      38.308  33.841  32.423  1.00  0.00     0.150 A 
ATOM     74  C   UNL A   1      36.648  31.738  33.251  1.00  0.00     0.021 A 
ATOM     75  F   UNL A   1      39.130  34.822  32.022  1.00  0.00    -0.205 F 
ATOM     76  C   UNL A   1      38.834  32.561  32.607  1.00  0.00     0.041 A 
ATOM     77  C   UNL A   1      38.012  31.523  33.030  1.00  0.00     0.005 A 
ENDBRANCH  65  68
ENDBRANCH  63  64
ENDBRANCH  62  63
ENDBRANCH   1  62
TORSDOF 10
ENDMDL
MODEL 2
REMARK VINA RESULT:     -10.8      4.158     10.815
REMARK SMILES O=C(NCCCNC(=O)c1nc2c(F)cccc2s1)c1ccc(-c2c3nc(c(-c4c(F)cccc4F)c4ccc([nH]4)c(-c4c(F)cccc4F)c4nc(c(-c5c(F)cccc5F)c5ccc2[nH]5)C=C4)C=C3)cc1
REMARK SMILES IDX 4 1 3 2 1 3 2 4 20 6 21 7 73 8 22 9 72 10 23 11 24 12 25 13
REMARK SMILES IDX 66 14 26 15 71 16 65 17 67 18 27 19 70 20 64 21 63 22 28 24
REMARK SMILES IDX 54 25 37 26 53 27 38 28 41 29 52 30 68 31 39 32 40 33 51 35
REMARK SMILES IDX 69 36 42 37 29 38 30 39 35 40 31 41 32 42 34 43 36 44 33 45
REMARK SMILES IDX 55 46 56 47 61 48 57 49 58 50 60 51 62 52 59 53 43 54 44 55
REMARK SMILES IDX 49 56 45 57 46 58 48 59 50 60 47 61 5 62 6 63 7 64 8 65 9 67
REMARK SMILES IDX 10 68 11 69 19 70 12 71 18 72 13 73 17 74 14 75 15 76 16 77
REMARK H PARENT 3 5 67 23 41 34 7 66
REMARK Flexibility Score: inf
ROOT
ATOM      1  C   UNL A   1      42.277  20.826  26.745  1.00  0.00     0.118 C 
ENDROOT
BRANCH   1   2
ATOM      2  N   UNL A   1      40.847  20.974  26.547  1.00  0.00    -0.352 N 
ATOM      3  O   UNL A   1      38.842  21.822  26.125  1.00  0.00    -0.269 OA
ATOM      4  C   UNL A   1      39.990  22.042  26.518  1.00  0.00     0.251 C 
ATOM      5  H   UNL A   1      40.390  20.114  26.401  1.00  0.00     0.163 HD
BRANCH   4   6
ATOM      6  C   UNL A   1      40.325  23.402  27.011  1.00  0.00     0.039 A 
ATOM      7  C   UNL A   1      41.420  23.713  27.815  1.00  0.00     0.014 A 
ATOM      8  C   UNL A   1      39.432  24.432  26.659  1.00  0.00     0.014 A 
ATOM      9  C   UNL A   1      41.542  24.979  28.375  1.00  0.00     0.010 A 
ATOM     10  C   UNL A   1      39.572  25.714  27.182  1.00  0.00     0.010 A 
ATOM     11  C   UNL A   1      40.602  25.970  28.080  1.00  0.00    -0.014 A 
BRANCH  11  12
ATOM     12  C   UNL A   1      40.817  27.285  28.672  1.00  0.00     0.031 A 
ATOM     13  C   UNL A   1      41.983  28.050  28.147  1.00  0.00     0.074 A 
ATOM     14  C   UNL A   1      39.984  27.854  29.563  1.00  0.00     0.049 A 
ATOM     15  N   UNL A   1      43.019  28.484  28.793  1.00  0.00    -0.248 NA
ATOM     16  C   UNL A   1      42.021  28.311  26.701  1.00  0.00     0.031 C 
ATOM     17  C   UNL A   1      38.649  27.413  29.970  1.00  0.00     0.029 A 
ATOM     18  N   UNL A   1      40.146  29.029  30.236  1.00  0.00    -0.354 N 
ATOM     19  C   UNL A   1      43.766  29.214  27.870  1.00  0.00     0.074 A 
ATOM     20  C   UNL A   1      43.161  28.990  26.581  1.00  0.00     0.031 C 
ATOM     21  C   UNL A   1      38.048  28.408  30.661  1.00  0.00     0.029 A 
ATOM     22  C   UNL A   1      38.996  29.494  30.852  1.00  0.00     0.049 A 
ATOM     23  H   UNL A   1      41.007  29.506  30.281  1.00  0.00     0.167 HD
ATOM     24  C   UNL A   1      44.732  30.097  28.245  1.00  0.00     0.037 A 
ATOM     25  C   UNL A   1      38.818  30.710  31.421  1.00  0.00     0.037 A 
ATOM     26  C   UNL A   1      45.192  29.865  29.585  1.00  0.00     0.049 A 
ATOM     27  C   UNL A   1      40.152  31.290  31.704  1.00  0.00     0.074 A 
ATOM     28  C   UNL A   1      45.799  28.812  30.241  1.00  0.00     0.029 A 
ATOM     29  N   UNL A   1      44.786  30.722  30.575  1.00  0.00    -0.354 N 
ATOM     30  N   UNL A   1      40.961  30.864  32.631  1.00  0.00    -0.248 NA
ATOM     31  C   UNL A   1      40.762  32.132  30.686  1.00  0.00     0.031 C 
ATOM     32  C   UNL A   1      45.283  28.855  31.570  1.00  0.00     0.029 A 
ATOM     33  C   UNL A   1      44.412  29.942  31.637  1.00  0.00     0.049 A 
ATOM     34  H   UNL A   1      44.766  31.706  30.532  1.00  0.00     0.167 HD
ATOM     35  C   UNL A   1      42.230  31.027  32.098  1.00  0.00     0.074 A 
ATOM     36  C   UNL A   1      42.051  31.913  30.954  1.00  0.00     0.031 C 
ATOM     37  C   UNL A   1      43.262  30.211  32.467  1.00  0.00     0.037 A 
BRANCH  24  38
ATOM     38  C   UNL A   1      45.042  31.368  27.497  1.00  0.00     0.057 A 
ATOM     39  C   UNL A   1      44.238  32.524  27.568  1.00  0.00     0.134 A 
ATOM     40  C   UNL A   1      46.312  31.553  26.923  1.00  0.00     0.134 A 
ATOM     41  F   UNL A   1      43.047  32.525  28.180  1.00  0.00    -0.206 F 
ATOM     42  C   UNL A   1      44.663  33.770  27.102  1.00  0.00     0.040 A 
ATOM     43  C   UNL A   1      46.767  32.808  26.500  1.00  0.00     0.040 A 
ATOM     44  F   UNL A   1      47.180  30.535  26.827  1.00  0.00    -0.206 F 
ATOM     45  C   UNL A   1      45.942  33.923  26.592  1.00  0.00     0.006 A 
ENDBRANCH  24  38
BRANCH  25  46
ATOM     46  C   UNL A   1      37.578  31.507  31.515  1.00  0.00     0.057 A 
ATOM     47  C   UNL A   1      36.934  31.712  32.749  1.00  0.00     0.134 A 
ATOM     48  C   UNL A   1      36.854  31.872  30.373  1.00  0.00     0.134 A 
ATOM     49  F   UNL A   1      37.501  31.318  33.899  1.00  0.00    -0.206 F 
ATOM     50  C   UNL A   1      35.647  32.246  32.842  1.00  0.00     0.040 A 
ATOM     51  C   UNL A   1      35.559  32.399  30.452  1.00  0.00     0.040 A 
ATOM     52  F   UNL A   1      37.364  31.672  29.150  1.00  0.00    -0.206 F 
ATOM     53  C   UNL A   1      34.949  32.580  31.690  1.00  0.00     0.006 A 
ENDBRANCH  25  46
BRANCH  37  54
ATOM     54  C   UNL A   1      43.055  29.323  33.659  1.00  0.00     0.057 A 
ATOM     55  C   UNL A   1      42.432  28.082  33.486  1.00  0.00     0.134 A 
ATOM     56  C   UNL A   1      43.335  29.715  34.977  1.00  0.00     0.134 A 
ATOM     57  F   UNL A   1      42.075  27.670  32.259  1.00  0.00    -0.206 F 
ATOM     58  C   UNL A   1      42.126  27.255  34.569  1.00  0.00     0.040 A 
ATOM     59  C   UNL A   1      43.066  28.881  36.066  1.00  0.00     0.040 A 
ATOM     60  F   UNL A   1      43.826  30.931  35.249  1.00  0.00    -0.206 F 
ATOM     61  C   UNL A   1      42.456  27.647  35.864  1.00  0.00     0.006 A 
ENDBRANCH  37  54
ENDBRANCH  11  12
ENDBRANCH   4   6
ENDBRANCH   1   2
BRANCH   1  62
ATOM     62  C   UNL A   1      42.856  19.443  26.443  1.00  0.00     0.042 C 
BRANCH  62  63
ATOM     63  C   UNL A   1      43.368  19.246  25.020  1.00  0.00     0.118 C 
BRANCH  63  64
ATOM     64  N   UNL A   1      44.811  19.083  24.958  1.00  0.00    -0.350 N 
ATOM     65  C   UNL A   1      45.823  20.017  24.999  1.00  0.00     0.280 C 
ATOM     66  H   UNL A   1      45.115  18.152  24.872  1.00  0.00     0.163 HD
ATOM     67  O   UNL A   1      46.962  19.579  24.771  1.00  0.00    -0.267 OA
BRANCH  65  68
ATOM     68  C   UNL A   1      45.550  21.419  25.280  1.00  0.00     0.182 A 
ATOM     69  N   UNL A   1      45.651  21.934  26.489  1.00  0.00    -0.228 NA
ATOM     70  S   UNL A   1      44.923  22.472  24.081  1.00  0.00    -0.109 S 
ATOM     71  C   UNL A   1      45.312  23.281  26.465  1.00  0.00     0.118 A 
ATOM     72  C   UNL A   1      44.937  23.770  25.211  1.00  0.00     0.058 A 
ATOM     73  C   UNL A   1      45.320  24.183  27.549  1.00  0.00     0.150 A 
ATOM     74  C   UNL A   1      44.622  25.124  25.001  1.00  0.00     0.021 A 
ATOM     75  F   UNL A   1      45.645  23.767  28.782  1.00  0.00    -0.205 F 
ATOM     76  C   UNL A   1      45.002  25.529  27.360  1.00  0.00     0.041 A 
ATOM     77  C   UNL A   1      44.669  25.997  26.094  1.00  0.00     0.005 A 
ENDBRANCH  65  68
ENDBRANCH  63  64
ENDBRANCH  62  63
ENDBRANCH   1  62
TORSDOF 10
ENDMDL
MODEL 3
REMARK VINA RESULT:     -10.7      5.122     10.625
REMARK SMILES O=C(NCCCNC(=O)c1nc2c(F)cccc2s1)c1ccc(-c2c3nc(c(-c4c(F)cccc4F)c4ccc([nH]4)c(-c4c(F)cccc4F)c4nc(c(-c5c(F)cccc5F)c5ccc2[nH]5)C=C4)C=C3)cc1
REMARK SMILES IDX 4 1 3 2 1 3 2 4 20 6 21 7 73 8 22 9 72 10 23 11 24 12 25 13
REMARK SMILES IDX 66 14 26 15 71 16 65 17 67 18 27 19 70 20 64 21 63 22 28 24
REMARK SMILES IDX 54 25 37 26 53 27 38 28 41 29 52 30 68 31 39 32 40 33 51 35
REMARK SMILES IDX 69 36 42 37 29 38 30 39 35 40 31 41 32 42 34 43 36 44 33 45
REMARK SMILES IDX 55 46 56 47 61 48 57 49 58 50 60 51 62 52 59 53 43 54 44 55
REMARK SMILES IDX 49 56 45 57 46 58 48 59 50 60 47 61 5 62 6 63 7 64 8 65 9 67
REMARK SMILES IDX 10 68 11 69 19 70 12 71 18 72 13 73 17 74 14 75 15 76 16 77
REMARK H PARENT 3 5 67 23 41 34 7 66
REMARK Flexibility Score: inf
ROOT
ATOM      1  C   UNL A   1      39.045  22.211  26.423  1.00  0.00     0.118 C 
ENDROOT
BRANCH   1   2
ATOM      2  N   UNL A   1      40.402  22.124  25.913  1.00  0.00    -0.352 N 
ATOM      3  O   UNL A   1      42.590  22.378  25.656  1.00  0.00    -0.269 OA
ATOM      4  C   UNL A   1      41.544  22.856  26.103  1.00  0.00     0.251 C 
ATOM      5  H   UNL A   1      40.530  21.370  25.294  1.00  0.00     0.163 HD
BRANCH   4   6
ATOM      6  C   UNL A   1      41.585  24.207  26.717  1.00  0.00     0.039 A 
ATOM      7  C   UNL A   1      42.144  24.505  27.958  1.00  0.00     0.014 A 
ATOM      8  C   UNL A   1      40.971  25.243  25.986  1.00  0.00     0.014 A 
ATOM      9  C   UNL A   1      41.967  25.762  28.523  1.00  0.00     0.010 A 
ATOM     10  C   UNL A   1      40.828  26.517  26.529  1.00  0.00     0.010 A 
ATOM     11  C   UNL A   1      41.284  26.758  27.820  1.00  0.00    -0.014 A 
BRANCH  11  12
ATOM     12  C   UNL A   1      41.171  28.064  28.459  1.00  0.00     0.031 A 
ATOM     13  C   UNL A   1      42.279  29.021  28.179  1.00  0.00     0.074 A 
ATOM     14  C   UNL A   1      40.106  28.459  29.181  1.00  0.00     0.049 A 
ATOM     15  N   UNL A   1      43.092  29.580  29.017  1.00  0.00    -0.248 NA
ATOM     16  C   UNL A   1      42.545  29.347  26.770  1.00  0.00     0.031 C 
ATOM     17  C   UNL A   1      38.806  27.801  29.318  1.00  0.00     0.029 A 
ATOM     18  N   UNL A   1      39.950  29.614  29.888  1.00  0.00    -0.354 N 
ATOM     19  C   UNL A   1      43.874  30.456  28.265  1.00  0.00     0.074 A 
ATOM     20  C   UNL A   1      43.565  30.197  26.881  1.00  0.00     0.031 C 
ATOM     21  C   UNL A   1      37.935  28.660  29.893  1.00  0.00     0.029 A 
ATOM     22  C   UNL A   1      38.645  29.870  30.277  1.00  0.00     0.049 A 
ATOM     23  H   UNL A   1      40.699  30.215  30.104  1.00  0.00     0.167 HD
ATOM     24  C   UNL A   1      44.599  31.460  28.830  1.00  0.00     0.037 A 
ATOM     25  C   UNL A   1      38.173  31.018  30.817  1.00  0.00     0.037 A 
ATOM     26  C   UNL A   1      44.830  31.243  30.231  1.00  0.00     0.049 A 
ATOM     27  C   UNL A   1      39.320  31.784  31.359  1.00  0.00     0.074 A 
ATOM     28  C   UNL A   1      45.463  30.268  30.978  1.00  0.00     0.029 A 
ATOM     29  N   UNL A   1      44.113  31.984  31.136  1.00  0.00    -0.354 N 
ATOM     30  N   UNL A   1      39.997  31.447  32.419  1.00  0.00    -0.248 NA
ATOM     31  C   UNL A   1      39.969  32.753  30.489  1.00  0.00     0.031 C 
ATOM     32  C   UNL A   1      44.705  30.174  32.182  1.00  0.00     0.029 A 
ATOM     33  C   UNL A   1      43.676  31.110  32.096  1.00  0.00     0.049 A 
ATOM     34  H   UNL A   1      43.946  32.954  31.102  1.00  0.00     0.167 HD
ATOM     35  C   UNL A   1      41.302  31.826  32.142  1.00  0.00     0.074 A 
ATOM     36  C   UNL A   1      41.203  32.723  30.997  1.00  0.00     0.031 C 
ATOM     37  C   UNL A   1      42.363  31.164  32.692  1.00  0.00     0.037 A 
BRANCH  24  38
ATOM     38  C   UNL A   1      44.838  32.794  28.173  1.00  0.00     0.057 A 
ATOM     39  C   UNL A   1      45.979  33.082  27.397  1.00  0.00     0.134 A 
ATOM     40  C   UNL A   1      43.786  33.720  28.062  1.00  0.00     0.134 A 
ATOM     41  F   UNL A   1      47.018  32.240  27.322  1.00  0.00    -0.206 F 
ATOM     42  C   UNL A   1      46.070  34.207  26.574  1.00  0.00     0.040 A 
ATOM     43  C   UNL A   1      43.847  34.823  27.200  1.00  0.00     0.040 A 
ATOM     44  F   UNL A   1      42.636  33.539  28.727  1.00  0.00    -0.206 F 
ATOM     45  C   UNL A   1      44.991  35.067  26.450  1.00  0.00     0.006 A 
ENDBRANCH  24  38
BRANCH  25  46
ATOM     46  C   UNL A   1      36.826  31.610  30.681  1.00  0.00     0.057 A 
ATOM     47  C   UNL A   1      36.433  32.264  29.500  1.00  0.00     0.134 A 
ATOM     48  C   UNL A   1      35.983  31.775  31.787  1.00  0.00     0.134 A 
ATOM     49  F   UNL A   1      37.209  32.245  28.406  1.00  0.00    -0.206 F 
ATOM     50  C   UNL A   1      35.273  33.039  29.422  1.00  0.00     0.040 A 
ATOM     51  C   UNL A   1      34.823  32.556  31.727  1.00  0.00     0.040 A 
ATOM     52  F   UNL A   1      36.297  31.228  32.970  1.00  0.00    -0.206 F 
ATOM     53  C   UNL A   1      34.469  33.197  30.543  1.00  0.00     0.006 A 
ENDBRANCH  25  46
BRANCH  37  54
ATOM     54  C   UNL A   1      42.079  30.203  33.810  1.00  0.00     0.057 A 
ATOM     55  C   UNL A   1      42.297  30.609  35.131  1.00  0.00     0.134 A 
ATOM     56  C   UNL A   1      41.723  28.861  33.608  1.00  0.00     0.134 A 
ATOM     57  F   UNL A   1      42.703  31.861  35.396  1.00  0.00    -0.206 F 
ATOM     58  C   UNL A   1      42.142  29.731  36.206  1.00  0.00     0.040 A 
ATOM     59  C   UNL A   1      41.531  27.982  34.678  1.00  0.00     0.040 A 
ATOM     60  F   UNL A   1      41.603  28.353  32.375  1.00  0.00    -0.206 F 
ATOM     61  C   UNL A   1      41.744  28.416  35.983  1.00  0.00     0.006 A 
ENDBRANCH  37  54
ENDBRANCH  11  12
ENDBRANCH   4   6
ENDBRANCH   1   2
BRANCH   1  62
ATOM     62  C   UNL A   1      37.938  21.801  25.452  1.00  0.00     0.042 C 
BRANCH  62  63
ATOM     63  C   UNL A   1      36.827  22.828  25.258  1.00  0.00     0.118 C 
BRANCH  63  64
ATOM     64  N   UNL A   1      35.915  22.893  26.388  1.00  0.00    -0.350 N 
ATOM     65  C   UNL A   1      34.711  22.263  26.609  1.00  0.00     0.280 C 
ATOM     66  H   UNL A   1      36.208  23.486  27.117  1.00  0.00     0.163 HD
ATOM     67  O   UNL A   1      34.088  22.640  27.614  1.00  0.00    -0.267 OA
BRANCH  65  68
ATOM     68  C   UNL A   1      34.215  21.238  25.702  1.00  0.00     0.182 A 
ATOM     69  N   UNL A   1      34.797  20.063  25.572  1.00  0.00    -0.228 NA
ATOM     70  S   UNL A   1      32.922  21.543  24.617  1.00  0.00    -0.109 S 
ATOM     71  C   UNL A   1      34.125  19.298  24.627  1.00  0.00     0.118 A 
ATOM     72  C   UNL A   1      33.029  19.927  24.033  1.00  0.00     0.058 A 
ATOM     73  C   UNL A   1      34.423  17.979  24.227  1.00  0.00     0.150 A 
ATOM     74  C   UNL A   1      32.205  19.272  23.101  1.00  0.00     0.021 A 
ATOM     75  F   UNL A   1      35.480  17.331  24.742  1.00  0.00    -0.205 F 
ATOM     76  C   UNL A   1      33.622  17.316  23.297  1.00  0.00     0.041 A 
ATOM     77  C   UNL A   1      32.514  17.954  22.749  1.00  0.00     0.005 A 
ENDBRANCH  65  68
ENDBRANCH  63  64
ENDBRANCH  62  63
ENDBRANCH   1  62
TORSDOF 10
ENDMDL
