MODEL 1
REMARK VINA RESULT:     -12.1      0.000      0.000
REMARK SMILES Cc1ccc(S(=O)(=O)Nc2cc3c(cc2C(=O)NCCCNC(=O)c2ccc(-c4c5nc(c(-c6c(F)cccc6F)c6ccc([nH]6)c(-c6c(F)cccc6F)c6nc(c(-c7c(F)cccc7F)c7ccc4[nH]7)C=C6)C=C5)cc2)OCCO3)s1
REMARK SMILES IDX 19 1 18 2 16 3 17 4 15 6 10 7 11 8 12 9 14 10 13 11 82 12
REMARK SMILES IDX 79 13 81 14 80 15 9 16 6 18 7 19 8 20 5 21 1 22 2 23 3 24
REMARK SMILES IDX 83 25 4 26 20 27 21 28 22 29 23 30 24 32 25 33 26 34 78 35
REMARK SMILES IDX 27 36 77 37 28 38 29 39 30 40 71 41 31 42 76 43 70 44 72 45
REMARK SMILES IDX 32 46 75 47 69 48 68 49 33 51 59 52 42 53 58 54 43 55 46 56
REMARK SMILES IDX 57 57 73 58 44 59 45 60 56 62 74 63 47 64 34 65 35 66 40 67
REMARK SMILES IDX 36 68 37 69 39 70 41 71 38 72 60 73 61 74 66 75 62 76 63 77
REMARK SMILES IDX 65 78 67 79 64 80 48 81 49 82 54 83 50 84 51 85 53 86 55 87
REMARK SMILES IDX 52 88
REMARK H PARENT 18 5 9 17 22 31 72 50 46 61
REMARK Flexibility Score: inf
ROOT
ATOM      1  C   UNL A   1      37.720  22.219  25.367  1.00  0.00     0.118 C 
ENDROOT
BRANCH   1   2
ATOM      2  N   UNL A   1      36.586  22.054  26.264  1.00  0.00    -0.352 N 
ATOM      3  C   UNL A   1      35.255  22.395  26.230  1.00  0.00     0.253 C 
ATOM      4  O   UNL A   1      34.573  22.005  27.177  1.00  0.00    -0.269 OA
ATOM      5  H   UNL A   1      36.830  21.588  27.096  1.00  0.00     0.163 HD
BRANCH   3   6
ATOM      6  C   UNL A   1      34.627  23.199  25.141  1.00  0.00     0.067 A 
ATOM      7  C   UNL A   1      34.033  22.565  24.021  1.00  0.00     0.066 A 
ATOM      8  C   UNL A   1      33.430  23.330  23.011  1.00  0.00     0.078 A 
ATOM      9  C   UNL A   1      33.400  24.718  23.112  1.00  0.00     0.163 A 
ATOM     10  C   UNL A   1      34.673  24.596  25.163  1.00  0.00     0.066 A 
ATOM     11  C   UNL A   1      34.002  25.346  24.202  1.00  0.00     0.162 A 
ATOM     12  O   UNL A   1      32.765  25.407  22.111  1.00  0.00    -0.486 OA
ATOM     13  O   UNL A   1      33.974  26.703  24.399  1.00  0.00    -0.486 OA
ATOM     14  C   UNL A   1      33.041  26.814  22.173  1.00  0.00     0.271 C 
ATOM     15  C   UNL A   1      32.949  27.313  23.604  1.00  0.00     0.271 C 
BRANCH   7  16
ATOM     16  N   UNL A   1      34.039  21.138  23.886  1.00  0.00    -0.278 N 
ATOM     17  H   UNL A   1      34.887  20.644  23.817  1.00  0.00     0.180 HD
BRANCH  16  18
ATOM     18  S   UNL A   1      32.562  20.323  23.850  1.00  0.00     0.271 S 
ATOM     19  O   UNL A   1      31.929  20.619  22.590  1.00  0.00    -0.200 OA
ATOM     20  O   UNL A   1      31.888  20.621  25.104  1.00  0.00    -0.200 OA
BRANCH  18  21
ATOM     21  C   UNL A   1      32.867  18.569  23.931  1.00  0.00     0.140 A 
ATOM     22  C   UNL A   1      33.130  15.062  25.665  1.00  0.00     0.056 C 
ATOM     23  C   UNL A   1      33.095  16.266  24.789  1.00  0.00     0.003 A 
ATOM     24  C   UNL A   1      33.549  16.383  23.491  1.00  0.00     0.016 A 
ATOM     25  S   UNL A   1      32.465  17.748  25.372  1.00  0.00    -0.127 S 
ATOM     26  C   UNL A   1      33.417  17.710  22.998  1.00  0.00     0.034 A 
ENDBRANCH  18  21
ENDBRANCH  16  18
ENDBRANCH   7  16
ENDBRANCH   3   6
ENDBRANCH   1   2
BRANCH   1  27
ATOM     27  C   UNL A   1      38.371  20.912  24.935  1.00  0.00     0.042 C 
BRANCH  27  28
ATOM     28  C   UNL A   1      38.697  19.949  26.068  1.00  0.00     0.118 C 
BRANCH  28  29
ATOM     29  N   UNL A   1      39.951  19.237  25.858  1.00  0.00    -0.352 N 
ATOM     30  C   UNL A   1      41.258  19.647  25.940  1.00  0.00     0.251 C 
ATOM     31  H   UNL A   1      39.839  18.290  25.612  1.00  0.00     0.163 HD
ATOM     32  O   UNL A   1      42.139  18.921  25.486  1.00  0.00    -0.269 OA
BRANCH  30  33
ATOM     33  C   UNL A   1      41.633  20.943  26.551  1.00  0.00     0.039 A 
ATOM     34  C   UNL A   1      41.962  22.013  25.709  1.00  0.00     0.014 A 
ATOM     35  C   UNL A   1      41.748  21.097  27.933  1.00  0.00     0.014 A 
ATOM     36  C   UNL A   1      42.348  23.242  26.252  1.00  0.00     0.010 A 
ATOM     37  C   UNL A   1      42.049  22.344  28.475  1.00  0.00     0.010 A 
ATOM     38  C   UNL A   1      42.366  23.426  27.642  1.00  0.00    -0.014 A 
BRANCH  38  39
ATOM     39  C   UNL A   1      42.736  24.729  28.250  1.00  0.00     0.031 A 
ATOM     40  C   UNL A   1      41.686  25.782  28.479  1.00  0.00     0.074 A 
ATOM     41  C   UNL A   1      44.028  25.004  28.508  1.00  0.00     0.049 A 
ATOM     42  N   UNL A   1      41.827  27.021  28.878  1.00  0.00    -0.248 NA
ATOM     43  C   UNL A   1      40.297  25.401  28.181  1.00  0.00     0.031 C 
ATOM     44  C   UNL A   1      45.151  24.094  28.277  1.00  0.00     0.029 A 
ATOM     45  N   UNL A   1      44.618  26.141  29.001  1.00  0.00    -0.354 N 
ATOM     46  C   UNL A   1      40.553  27.575  28.844  1.00  0.00     0.074 A 
ATOM     47  C   UNL A   1      39.660  26.551  28.348  1.00  0.00     0.031 C 
ATOM     48  C   UNL A   1      46.292  24.705  28.630  1.00  0.00     0.029 A 
ATOM     49  C   UNL A   1      45.986  26.058  29.084  1.00  0.00     0.049 A 
ATOM     50  H   UNL A   1      44.109  26.941  29.268  1.00  0.00     0.167 HD
ATOM     51  C   UNL A   1      40.159  28.818  29.212  1.00  0.00     0.037 A 
ATOM     52  C   UNL A   1      46.895  26.972  29.473  1.00  0.00     0.037 A 
ATOM     53  C   UNL A   1      41.040  29.820  29.752  1.00  0.00     0.049 A 
ATOM     54  C   UNL A   1      46.433  28.327  29.926  1.00  0.00     0.074 A 
ATOM     55  C   UNL A   1      40.725  31.076  30.239  1.00  0.00     0.029 A 
ATOM     56  N   UNL A   1      42.414  29.676  29.877  1.00  0.00    -0.354 N 
ATOM     57  N   UNL A   1      45.216  28.815  29.955  1.00  0.00    -0.248 NA
ATOM     58  C   UNL A   1      47.466  29.254  30.407  1.00  0.00     0.031 C 
ATOM     59  C   UNL A   1      41.912  31.706  30.630  1.00  0.00     0.029 A 
ATOM     60  C   UNL A   1      42.963  30.826  30.419  1.00  0.00     0.049 A 
ATOM     61  H   UNL A   1      42.923  28.875  29.619  1.00  0.00     0.167 HD
ATOM     62  C   UNL A   1      45.335  30.099  30.471  1.00  0.00     0.074 A 
ATOM     63  C   UNL A   1      46.740  30.308  30.754  1.00  0.00     0.031 C 
ATOM     64  C   UNL A   1      44.365  31.021  30.688  1.00  0.00     0.037 A 
BRANCH  51  65
ATOM     65  C   UNL A   1      38.708  29.156  29.038  1.00  0.00     0.057 A 
ATOM     66  C   UNL A   1      38.185  29.566  27.804  1.00  0.00     0.134 A 
ATOM     67  C   UNL A   1      37.821  29.072  30.119  1.00  0.00     0.134 A 
ATOM     68  F   UNL A   1      38.983  29.680  26.732  1.00  0.00    -0.206 F 
ATOM     69  C   UNL A   1      36.841  29.914  27.659  1.00  0.00     0.040 A 
ATOM     70  C   UNL A   1      36.469  29.392  29.980  1.00  0.00     0.040 A 
ATOM     71  F   UNL A   1      38.253  28.680  31.327  1.00  0.00    -0.206 F 
ATOM     72  C   UNL A   1      35.978  29.826  28.750  1.00  0.00     0.006 A 
ENDBRANCH  51  65
BRANCH  52  73
ATOM     73  C   UNL A   1      48.334  26.615  29.470  1.00  0.00     0.057 A 
ATOM     74  C   UNL A   1      48.909  25.937  30.549  1.00  0.00     0.134 A 
ATOM     75  C   UNL A   1      49.155  26.907  28.375  1.00  0.00     0.134 A 
ATOM     76  F   UNL A   1      48.173  25.645  31.632  1.00  0.00    -0.206 F 
ATOM     77  C   UNL A   1      50.254  25.566  30.545  1.00  0.00     0.040 A 
ATOM     78  C   UNL A   1      50.497  26.525  28.348  1.00  0.00     0.040 A 
ATOM     79  F   UNL A   1      48.657  27.546  27.306  1.00  0.00    -0.206 F 
ATOM     80  C   UNL A   1      51.050  25.854  29.437  1.00  0.00     0.006 A 
ENDBRANCH  52  73
BRANCH  64  81
ATOM     81  C   UNL A   1      44.790  32.334  31.273  1.00  0.00     0.057 A 
ATOM     82  C   UNL A   1      45.133  33.422  30.461  1.00  0.00     0.134 A 
ATOM     83  C   UNL A   1      44.821  32.523  32.660  1.00  0.00     0.134 A 
ATOM     84  F   UNL A   1      45.136  33.299  29.125  1.00  0.00    -0.206 F 
ATOM     85  C   UNL A   1      45.505  34.650  31.010  1.00  0.00     0.040 A 
ATOM     86  C   UNL A   1      45.171  33.751  33.220  1.00  0.00     0.040 A 
ATOM     87  F   UNL A   1      44.498  31.520  33.491  1.00  0.00    -0.206 F 
ATOM     88  C   UNL A   1      45.519  34.819  32.393  1.00  0.00     0.006 A 
ENDBRANCH  64  81
ENDBRANCH  38  39
ENDBRANCH  30  33
ENDBRANCH  28  29
ENDBRANCH  27  28
ENDBRANCH   1  27
TORSDOF 13
ENDMDL
MODEL 2
REMARK VINA RESULT:     -12.0      3.590      8.194
REMARK SMILES Cc1ccc(S(=O)(=O)Nc2cc3c(cc2C(=O)NCCCNC(=O)c2ccc(-c4c5nc(c(-c6c(F)cccc6F)c6ccc([nH]6)c(-c6c(F)cccc6F)c6nc(c(-c7c(F)cccc7F)c7ccc4[nH]7)C=C6)C=C5)cc2)OCCO3)s1
REMARK SMILES IDX 19 1 18 2 16 3 17 4 15 6 10 7 11 8 12 9 14 10 13 11 82 12
REMARK SMILES IDX 79 13 81 14 80 15 9 16 6 18 7 19 8 20 5 21 1 22 2 23 3 24
REMARK SMILES IDX 83 25 4 26 20 27 21 28 22 29 23 30 24 32 25 33 26 34 78 35
REMARK SMILES IDX 27 36 77 37 28 38 29 39 30 40 71 41 31 42 76 43 70 44 72 45
REMARK SMILES IDX 32 46 75 47 69 48 68 49 33 51 59 52 42 53 58 54 43 55 46 56
REMARK SMILES IDX 57 57 73 58 44 59 45 60 56 62 74 63 47 64 34 65 35 66 40 67
REMARK SMILES IDX 36 68 37 69 39 70 41 71 38 72 60 73 61 74 66 75 62 76 63 77
REMARK SMILES IDX 65 78 67 79 64 80 48 81 49 82 54 83 50 84 51 85 53 86 55 87
REMARK SMILES IDX 52 88
REMARK H PARENT 18 5 9 17 22 31 72 50 46 61
REMARK Flexibility Score: inf
ROOT
ATOM      1  C   UNL A   1      33.511  28.892  26.243  1.00  0.00     0.118 C 
ENDROOT
BRANCH   1   2
ATOM      2  N   UNL A   1      32.398  28.020  26.589  1.00  0.00    -0.352 N 
ATOM      3  C   UNL A   1      32.064  26.712  26.332  1.00  0.00     0.253 C 
ATOM      4  O   UNL A   1      31.043  26.298  26.879  1.00  0.00    -0.269 OA
ATOM      5  H   UNL A   1      31.721  28.477  27.138  1.00  0.00     0.163 HD
BRANCH   3   6
ATOM      6  C   UNL A   1      32.851  25.810  25.442  1.00  0.00     0.067 A 
ATOM      7  C   UNL A   1      32.386  25.485  24.143  1.00  0.00     0.066 A 
ATOM      8  C   UNL A   1      33.143  24.649  23.308  1.00  0.00     0.078 A 
ATOM      9  C   UNL A   1      34.365  24.147  23.746  1.00  0.00     0.163 A 
ATOM     10  C   UNL A   1      34.029  25.207  25.893  1.00  0.00     0.066 A 
ATOM     11  C   UNL A   1      34.815  24.447  25.031  1.00  0.00     0.162 A 
ATOM     12  O   UNL A   1      35.073  23.365  22.871  1.00  0.00    -0.486 OA
ATOM     13  O   UNL A   1      36.027  24.031  25.521  1.00  0.00    -0.486 OA
ATOM     14  C   UNL A   1      36.156  22.683  23.520  1.00  0.00     0.271 C 
ATOM     15  C   UNL A   1      36.895  23.623  24.455  1.00  0.00     0.271 C 
BRANCH   7  16
ATOM     16  N   UNL A   1      31.137  25.990  23.655  1.00  0.00    -0.278 N 
ATOM     17  H   UNL A   1      30.285  25.604  23.961  1.00  0.00     0.180 HD
BRANCH  16  18
ATOM     18  S   UNL A   1      31.156  27.260  22.544  1.00  0.00     0.271 S 
ATOM     19  O   UNL A   1      31.119  26.687  21.222  1.00  0.00    -0.200 OA
ATOM     20  O   UNL A   1      32.243  28.143  22.936  1.00  0.00    -0.200 OA
BRANCH  18  21
ATOM     21  C   UNL A   1      29.693  28.250  22.771  1.00  0.00     0.140 A 
ATOM     22  C   UNL A   1      27.647  31.576  23.134  1.00  0.00     0.056 C 
ATOM     23  C   UNL A   1      28.193  30.195  23.020  1.00  0.00     0.003 A 
ATOM     24  C   UNL A   1      27.542  29.003  23.268  1.00  0.00     0.016 A 
ATOM     25  S   UNL A   1      29.823  29.939  22.562  1.00  0.00    -0.127 S 
ATOM     26  C   UNL A   1      28.407  27.884  23.124  1.00  0.00     0.034 A 
ENDBRANCH  18  21
ENDBRANCH  16  18
ENDBRANCH   7  16
ENDBRANCH   3   6
ENDBRANCH   1   2
BRANCH   1  27
ATOM     27  C   UNL A   1      34.644  28.893  27.261  1.00  0.00     0.042 C 
BRANCH  27  28
ATOM     28  C   UNL A   1      35.134  30.273  27.676  1.00  0.00     0.118 C 
BRANCH  28  29
ATOM     29  N   UNL A   1      35.210  30.430  29.124  1.00  0.00    -0.352 N 
ATOM     30  C   UNL A   1      36.195  30.110  30.026  1.00  0.00     0.251 C 
ATOM     31  H   UNL A   1      34.411  30.840  29.527  1.00  0.00     0.163 HD
ATOM     32  O   UNL A   1      35.929  30.123  31.225  1.00  0.00    -0.269 OA
BRANCH  30  33
ATOM     33  C   UNL A   1      37.561  29.740  29.591  1.00  0.00     0.039 A 
ATOM     34  C   UNL A   1      38.457  29.239  30.545  1.00  0.00     0.014 A 
ATOM     35  C   UNL A   1      38.000  29.959  28.285  1.00  0.00     0.014 A 
ATOM     36  C   UNL A   1      39.764  28.907  30.175  1.00  0.00     0.010 A 
ATOM     37  C   UNL A   1      39.274  29.549  27.897  1.00  0.00     0.010 A 
ATOM     38  C   UNL A   1      40.174  29.032  28.840  1.00  0.00    -0.014 A 
BRANCH  38  39
ATOM     39  C   UNL A   1      41.543  28.654  28.407  1.00  0.00     0.031 A 
ATOM     40  C   UNL A   1      41.845  27.236  28.007  1.00  0.00     0.074 A 
ATOM     41  C   UNL A   1      42.537  29.561  28.465  1.00  0.00     0.049 A 
ATOM     42  N   UNL A   1      42.997  26.682  27.722  1.00  0.00    -0.248 NA
ATOM     43  C   UNL A   1      40.704  26.309  27.960  1.00  0.00     0.031 C 
ATOM     44  C   UNL A   1      42.390  30.953  28.892  1.00  0.00     0.029 A 
ATOM     45  N   UNL A   1      43.875  29.437  28.185  1.00  0.00    -0.354 N 
ATOM     46  C   UNL A   1      42.724  25.338  27.498  1.00  0.00     0.074 A 
ATOM     47  C   UNL A   1      41.306  25.153  27.720  1.00  0.00     0.031 C 
ATOM     48  C   UNL A   1      43.588  31.556  28.843  1.00  0.00     0.029 A 
ATOM     49  C   UNL A   1      44.591  30.587  28.409  1.00  0.00     0.049 A 
ATOM     50  H   UNL A   1      44.283  28.604  27.855  1.00  0.00     0.167 HD
ATOM     51  C   UNL A   1      43.573  24.351  27.123  1.00  0.00     0.037 A 
ATOM     52  C   UNL A   1      45.909  30.834  28.290  1.00  0.00     0.037 A 
ATOM     53  C   UNL A   1      44.973  24.546  26.856  1.00  0.00     0.049 A 
ATOM     54  C   UNL A   1      46.825  29.739  27.823  1.00  0.00     0.074 A 
ATOM     55  C   UNL A   1      45.898  23.632  26.383  1.00  0.00     0.029 A 
ATOM     56  N   UNL A   1      45.650  25.743  27.037  1.00  0.00    -0.354 N 
ATOM     57  N   UNL A   1      46.542  28.490  27.546  1.00  0.00    -0.248 NA
ATOM     58  C   UNL A   1      48.240  30.091  27.642  1.00  0.00     0.031 C 
ATOM     59  C   UNL A   1      47.143  24.267  26.307  1.00  0.00     0.029 A 
ATOM     60  C   UNL A   1      46.985  25.587  26.700  1.00  0.00     0.049 A 
ATOM     61  H   UNL A   1      45.243  26.579  27.357  1.00  0.00     0.167 HD
ATOM     62  C   UNL A   1      47.738  27.909  27.146  1.00  0.00     0.074 A 
ATOM     63  C   UNL A   1      48.746  28.947  27.201  1.00  0.00     0.031 C 
ATOM     64  C   UNL A   1      47.977  26.630  26.768  1.00  0.00     0.037 A 
BRANCH  51  65
ATOM     65  C   UNL A   1      43.000  22.971  26.982  1.00  0.00     0.057 A 
ATOM     66  C   UNL A   1      42.738  22.402  25.729  1.00  0.00     0.134 A 
ATOM     67  C   UNL A   1      42.707  22.202  28.115  1.00  0.00     0.134 A 
ATOM     68  F   UNL A   1      42.984  23.091  24.605  1.00  0.00    -0.206 F 
ATOM     69  C   UNL A   1      42.170  21.132  25.607  1.00  0.00     0.040 A 
ATOM     70  C   UNL A   1      42.163  20.919  28.005  1.00  0.00     0.040 A 
ATOM     71  F   UNL A   1      42.939  22.682  29.345  1.00  0.00    -0.206 F 
ATOM     72  C   UNL A   1      41.883  20.386  26.749  1.00  0.00     0.006 A 
ENDBRANCH  51  65
BRANCH  52  73
ATOM     73  C   UNL A   1      46.428  32.188  28.598  1.00  0.00     0.057 A 
ATOM     74  C   UNL A   1      46.919  32.497  29.871  1.00  0.00     0.134 A 
ATOM     75  C   UNL A   1      46.481  33.188  27.621  1.00  0.00     0.134 A 
ATOM     76  F   UNL A   1      46.878  31.582  30.850  1.00  0.00    -0.206 F 
ATOM     77  C   UNL A   1      47.440  33.758  30.164  1.00  0.00     0.040 A 
ATOM     78  C   UNL A   1      47.017  34.446  27.895  1.00  0.00     0.040 A 
ATOM     79  F   UNL A   1      46.035  32.947  26.380  1.00  0.00    -0.206 F 
ATOM     80  C   UNL A   1      47.497  34.734  29.172  1.00  0.00     0.006 A 
ENDBRANCH  52  73
BRANCH  64  81
ATOM     81  C   UNL A   1      49.381  26.286  26.371  1.00  0.00     0.057 A 
ATOM     82  C   UNL A   1      50.255  25.639  27.252  1.00  0.00     0.134 A 
ATOM     83  C   UNL A   1      49.851  26.572  25.083  1.00  0.00     0.134 A 
ATOM     84  F   UNL A   1      49.869  25.351  28.504  1.00  0.00    -0.206 F 
ATOM     85  C   UNL A   1      51.555  25.300  26.871  1.00  0.00     0.040 A 
ATOM     86  C   UNL A   1      51.140  26.220  24.683  1.00  0.00     0.040 A 
ATOM     87  F   UNL A   1      49.060  27.186  24.191  1.00  0.00    -0.206 F 
ATOM     88  C   UNL A   1      51.997  25.585  25.581  1.00  0.00     0.006 A 
ENDBRANCH  64  81
ENDBRANCH  38  39
ENDBRANCH  30  33
ENDBRANCH  28  29
ENDBRANCH  27  28
ENDBRANCH   1  27
TORSDOF 13
ENDMDL
MODEL 3
REMARK VINA RESULT:     -11.9      5.022      9.966
REMARK SMILES Cc1ccc(S(=O)(=O)Nc2cc3c(cc2C(=O)NCCCNC(=O)c2ccc(-c4c5nc(c(-c6c(F)cccc6F)c6ccc([nH]6)c(-c6c(F)cccc6F)c6nc(c(-c7c(F)cccc7F)c7ccc4[nH]7)C=C6)C=C5)cc2)OCCO3)s1
REMARK SMILES IDX 19 1 18 2 16 3 17 4 15 6 10 7 11 8 12 9 14 10 13 11 82 12
REMARK SMILES IDX 79 13 81 14 80 15 9 16 6 18 7 19 8 20 5 21 1 22 2 23 3 24
REMARK SMILES IDX 83 25 4 26 20 27 21 28 22 29 23 30 24 32 25 33 26 34 78 35
REMARK SMILES IDX 27 36 77 37 28 38 29 39 30 40 71 41 31 42 76 43 70 44 72 45
REMARK SMILES IDX 32 46 75 47 69 48 68 49 33 51 59 52 42 53 58 54 43 55 46 56
REMARK SMILES IDX 57 57 73 58 44 59 45 60 56 62 74 63 47 64 34 65 35 66 40 67
REMARK SMILES IDX 36 68 37 69 39 70 41 71 38 72 60 73 61 74 66 75 62 76 63 77
REMARK SMILES IDX 65 78 67 79 64 80 48 81 49 82 54 83 50 84 51 85 53 86 55 87
REMARK SMILES IDX 52 88
REMARK H PARENT 18 5 9 17 22 31 72 50 46 61
REMARK Flexibility Score: inf
ROOT
ATOM      1  C   UNL A   1      33.281  30.097  26.634  1.00  0.00     0.118 C 
ENDROOT
BRANCH   1   2
ATOM      2  N   UNL A   1      33.653  29.687  25.288  1.00  0.00    -0.352 N 
ATOM      3  C   UNL A   1      33.409  28.589  24.498  1.00  0.00     0.253 C 
ATOM      4  O   UNL A   1      33.846  28.642  23.350  1.00  0.00    -0.269 OA
ATOM      5  H   UNL A   1      34.215  30.355  24.834  1.00  0.00     0.163 HD
BRANCH   3   6
ATOM      6  C   UNL A   1      32.675  27.375  24.961  1.00  0.00     0.067 A 
ATOM      7  C   UNL A   1      31.259  27.353  25.000  1.00  0.00     0.066 A 
ATOM      8  C   UNL A   1      30.579  26.200  25.420  1.00  0.00     0.078 A 
ATOM      9  C   UNL A   1      31.294  25.064  25.786  1.00  0.00     0.163 A 
ATOM     10  C   UNL A   1      33.367  26.256  25.434  1.00  0.00     0.066 A 
ATOM     11  C   UNL A   1      32.688  25.088  25.769  1.00  0.00     0.162 A 
ATOM     12  O   UNL A   1      30.571  23.958  26.153  1.00  0.00    -0.486 OA
ATOM     13  O   UNL A   1      33.464  23.998  26.071  1.00  0.00    -0.486 OA
ATOM     14  C   UNL A   1      31.397  22.962  26.774  1.00  0.00     0.271 C 
ATOM     15  C   UNL A   1      32.695  22.790  26.004  1.00  0.00     0.271 C 
BRANCH   7  16
ATOM     16  N   UNL A   1      30.489  28.502  24.622  1.00  0.00    -0.278 N 
ATOM     17  H   UNL A   1      30.500  29.318  25.173  1.00  0.00     0.180 HD
BRANCH  16  18
ATOM     18  S   UNL A   1      29.563  28.428  23.214  1.00  0.00     0.271 S 
ATOM     19  O   UNL A   1      28.431  27.575  23.477  1.00  0.00    -0.200 OA
ATOM     20  O   UNL A   1      30.479  28.125  22.125  1.00  0.00    -0.200 OA
BRANCH  18  21
ATOM     21  C   UNL A   1      28.962  30.061  22.829  1.00  0.00     0.140 A 
ATOM     22  C   UNL A   1      27.653  32.933  20.502  1.00  0.00     0.056 C 
ATOM     23  C   UNL A   1      28.117  32.014  21.579  1.00  0.00     0.003 A 
ATOM     24  C   UNL A   1      28.409  32.325  22.891  1.00  0.00     0.016 A 
ATOM     25  S   UNL A   1      28.382  30.354  21.251  1.00  0.00    -0.127 S 
ATOM     26  C   UNL A   1      28.896  31.199  23.610  1.00  0.00     0.034 A 
ENDBRANCH  18  21
ENDBRANCH  16  18
ENDBRANCH   7  16
ENDBRANCH   3   6
ENDBRANCH   1   2
BRANCH   1  27
ATOM     27  C   UNL A   1      33.379  31.596  26.881  1.00  0.00     0.042 C 
BRANCH  27  28
ATOM     28  C   UNL A   1      32.067  32.274  27.252  1.00  0.00     0.118 C 
BRANCH  28  29
ATOM     29  N   UNL A   1      32.212  33.712  27.444  1.00  0.00    -0.352 N 
ATOM     30  C   UNL A   1      33.063  34.446  28.232  1.00  0.00     0.251 C 
ATOM     31  H   UNL A   1      31.587  34.254  26.911  1.00  0.00     0.163 HD
ATOM     32  O   UNL A   1      32.835  35.641  28.401  1.00  0.00    -0.269 OA
BRANCH  30  33
ATOM     33  C   UNL A   1      34.240  33.834  28.891  1.00  0.00     0.039 A 
ATOM     34  C   UNL A   1      34.027  32.923  29.934  1.00  0.00     0.014 A 
ATOM     35  C   UNL A   1      35.543  34.204  28.558  1.00  0.00     0.014 A 
ATOM     36  C   UNL A   1      35.116  32.349  30.598  1.00  0.00     0.010 A 
ATOM     37  C   UNL A   1      36.627  33.569  29.160  1.00  0.00     0.010 A 
ATOM     38  C   UNL A   1      36.426  32.645  30.196  1.00  0.00    -0.014 A 
BRANCH  38  39
ATOM     39  C   UNL A   1      37.603  32.024  30.855  1.00  0.00     0.031 A 
ATOM     40  C   UNL A   1      38.397  30.963  30.142  1.00  0.00     0.074 A 
ATOM     41  C   UNL A   1      37.901  32.343  32.128  1.00  0.00     0.049 A 
ATOM     42  N   UNL A   1      39.373  30.215  30.592  1.00  0.00    -0.248 NA
ATOM     43  C   UNL A   1      38.014  30.679  28.751  1.00  0.00     0.031 C 
ATOM     44  C   UNL A   1      37.176  33.311  32.952  1.00  0.00     0.029 A 
ATOM     45  N   UNL A   1      38.882  31.866  32.961  1.00  0.00    -0.354 N 
ATOM     46  C   UNL A   1      39.694  29.351  29.553  1.00  0.00     0.074 A 
ATOM     47  C   UNL A   1      38.784  29.639  28.466  1.00  0.00     0.031 C 
ATOM     48  C   UNL A   1      37.738  33.360  34.170  1.00  0.00     0.029 A 
ATOM     49  C   UNL A   1      38.843  32.407  34.222  1.00  0.00     0.049 A 
ATOM     50  H   UNL A   1      39.550  31.199  32.682  1.00  0.00     0.167 HD
ATOM     51  C   UNL A   1      40.672  28.414  29.501  1.00  0.00     0.037 A 
ATOM     52  C   UNL A   1      39.603  32.158  35.305  1.00  0.00     0.037 A 
ATOM     53  C   UNL A   1      41.609  28.162  30.564  1.00  0.00     0.049 A 
ATOM     54  C   UNL A   1      40.715  31.153  35.211  1.00  0.00     0.074 A 
ATOM     55  C   UNL A   1      42.692  27.301  30.575  1.00  0.00     0.029 A 
ATOM     56  N   UNL A   1      41.573  28.776  31.807  1.00  0.00    -0.354 N 
ATOM     57  N   UNL A   1      41.054  30.392  34.199  1.00  0.00    -0.248 NA
ATOM     58  C   UNL A   1      41.555  30.980  36.403  1.00  0.00     0.031 C 
ATOM     59  C   UNL A   1      43.293  27.369  31.837  1.00  0.00     0.029 A 
ATOM     60  C   UNL A   1      42.605  28.300  32.600  1.00  0.00     0.049 A 
ATOM     61  H   UNL A   1      40.912  29.449  32.085  1.00  0.00     0.167 HD
ATOM     62  C   UNL A   1      42.154  29.660  34.626  1.00  0.00     0.074 A 
ATOM     63  C   UNL A   1      42.434  30.080  35.983  1.00  0.00     0.031 C 
ATOM     64  C   UNL A   1      42.866  28.724  33.952  1.00  0.00     0.037 A 
BRANCH  51  65
ATOM     65  C   UNL A   1      40.771  27.596  28.247  1.00  0.00     0.057 A 
ATOM     66  C   UNL A   1      41.546  28.007  27.153  1.00  0.00     0.134 A 
ATOM     67  C   UNL A   1      40.084  26.381  28.132  1.00  0.00     0.134 A 
ATOM     68  F   UNL A   1      42.218  29.167  27.195  1.00  0.00    -0.206 F 
ATOM     69  C   UNL A   1      41.603  27.259  25.976  1.00  0.00     0.040 A 
ATOM     70  C   UNL A   1      40.155  25.611  26.969  1.00  0.00     0.040 A 
ATOM     71  F   UNL A   1      39.331  25.925  29.143  1.00  0.00    -0.206 F 
ATOM     72  C   UNL A   1      40.907  26.055  25.882  1.00  0.00     0.006 A 
ENDBRANCH  51  65
BRANCH  52  73
ATOM     73  C   UNL A   1      39.344  32.898  36.563  1.00  0.00     0.057 A 
ATOM     74  C   UNL A   1      38.453  32.401  37.519  1.00  0.00     0.134 A 
ATOM     75  C   UNL A   1      40.008  34.094  36.855  1.00  0.00     0.134 A 
ATOM     76  F   UNL A   1      37.777  31.266  37.287  1.00  0.00    -0.206 F 
ATOM     77  C   UNL A   1      38.225  33.070  38.722  1.00  0.00     0.040 A 
ATOM     78  C   UNL A   1      39.805  34.765  38.061  1.00  0.00     0.040 A 
ATOM     79  F   UNL A   1      40.882  34.615  35.981  1.00  0.00    -0.206 F 
ATOM     80  C   UNL A   1      38.909  34.253  38.999  1.00  0.00     0.006 A 
ENDBRANCH  52  73
BRANCH  64  81
ATOM     81  C   UNL A   1      44.024  28.100  34.669  1.00  0.00     0.057 A 
ATOM     82  C   UNL A   1      43.872  26.945  35.444  1.00  0.00     0.134 A 
ATOM     83  C   UNL A   1      45.312  28.640  34.553  1.00  0.00     0.134 A 
ATOM     84  F   UNL A   1      42.662  26.389  35.606  1.00  0.00    -0.206 F 
ATOM     85  C   UNL A   1      44.959  26.354  36.092  1.00  0.00     0.040 A 
ATOM     86  C   UNL A   1      46.409  28.047  35.178  1.00  0.00     0.040 A 
ATOM     87  F   UNL A   1      45.524  29.743  33.820  1.00  0.00    -0.206 F 
ATOM     88  C   UNL A   1      46.232  26.902  35.954  1.00  0.00     0.006 A 
ENDBRANCH  64  81
ENDBRANCH  38  39
ENDBRANCH  30  33
ENDBRANCH  28  29
ENDBRANCH  27  28
ENDBRANCH   1  27
TORSDOF 13
ENDMDL
