MODEL 1
REMARK VINA RESULT:     -10.9      0.000      0.000
REMARK SMILES CC(C)CN(C)S(=O)(=O)c1ccc(C(=O)NCCCNC(=O)c2ccc(-c3c4nc(c(-c5c(F)cccc5F)c5ccc([nH]5)c(-c5c(F)cccc5F)c5nc(c(-c6c(F)cccc6F)c6ccc3[nH]6)C=C5)C=C4)cc2)cc1
REMARK SMILES IDX 17 1 16 2 14 3 15 4 13 6 10 7 11 8 78 9 12 10 77 11 7 12
REMARK SMILES IDX 8 13 9 14 5 15 6 16 4 17 2 18 1 19 3 20 18 21 19 22 20 23
REMARK SMILES IDX 21 24 22 26 23 27 24 28 76 29 25 30 75 31 26 32 27 33 28 34
REMARK SMILES IDX 69 35 29 36 74 37 68 38 70 39 30 40 73 41 67 42 66 43 31 45
REMARK SMILES IDX 57 46 40 47 56 48 41 49 44 50 55 51 71 52 42 53 43 54 54 56
REMARK SMILES IDX 72 57 45 58 32 59 33 60 38 61 34 62 35 63 37 64 39 65 36 66
REMARK SMILES IDX 58 67 59 68 64 69 60 70 61 71 63 72 65 73 62 74 46 75 47 76
REMARK SMILES IDX 52 77 48 78 49 79 51 80 53 81 50 82
REMARK H PARENT 16 5 20 25 70 44 44 55
REMARK Flexibility Score: inf
ROOT
ATOM      1  C   UNL A   1      37.134  20.659  24.611  1.00  0.00     0.118 C 
ENDROOT
BRANCH   1   2
ATOM      2  N   UNL A   1      35.893  20.456  25.337  1.00  0.00    -0.352 N 
ATOM      3  C   UNL A   1      34.744  21.203  25.421  1.00  0.00     0.251 C 
ATOM      4  O   UNL A   1      33.806  20.738  26.070  1.00  0.00    -0.269 OA
ATOM      5  H   UNL A   1      35.872  19.629  25.870  1.00  0.00     0.163 HD
BRANCH   3   6
ATOM      6  C   UNL A   1      34.562  22.504  24.717  1.00  0.00     0.039 A 
ATOM      7  C   UNL A   1      34.053  25.048  23.608  1.00  0.00     0.082 A 
ATOM      8  C   UNL A   1      34.551  24.942  24.905  1.00  0.00     0.022 A 
ATOM      9  C   UNL A   1      33.921  23.890  22.833  1.00  0.00     0.022 A 
ATOM     10  C   UNL A   1      34.790  23.674  25.457  1.00  0.00     0.015 A 
ATOM     11  C   UNL A   1      34.197  22.632  23.377  1.00  0.00     0.015 A 
BRANCH   7  12
ATOM     12  S   UNL A   1      33.431  26.570  22.898  1.00  0.00     0.242 S 
ATOM     13  O   UNL A   1      33.750  26.528  21.482  1.00  0.00    -0.207 OA
ATOM     14  O   UNL A   1      33.952  27.627  23.729  1.00  0.00    -0.207 OA
BRANCH  12  15
ATOM     15  N   UNL A   1      31.709  26.579  23.042  1.00  0.00    -0.201 NA
ATOM     16  C   UNL A   1      31.094  27.862  22.567  1.00  0.00     0.124 C 
BRANCH  15  17
ATOM     17  C   UNL A   1      31.230  26.332  24.460  1.00  0.00     0.105 C 
BRANCH  17  18
ATOM     18  C   UNL A   1      30.425  25.031  24.640  1.00  0.00    -0.002 C 
ATOM     19  C   UNL A   1      30.452  24.126  23.406  1.00  0.00     0.009 C 
ATOM     20  C   UNL A   1      31.013  24.245  25.823  1.00  0.00     0.009 C 
ENDBRANCH  17  18
ENDBRANCH  15  17
ENDBRANCH  12  15
ENDBRANCH   7  12
ENDBRANCH   3   6
ENDBRANCH   1   2
BRANCH   1  21
ATOM     21  C   UNL A   1      38.130  19.533  24.889  1.00  0.00     0.042 C 
BRANCH  21  22
ATOM     22  C   UNL A   1      39.116  19.852  26.008  1.00  0.00     0.118 C 
BRANCH  22  23
ATOM     23  N   UNL A   1      40.374  19.141  25.846  1.00  0.00    -0.352 N 
ATOM     24  C   UNL A   1      41.663  19.598  25.960  1.00  0.00     0.251 C 
ATOM     25  H   UNL A   1      40.287  18.187  25.620  1.00  0.00     0.163 HD
ATOM     26  O   UNL A   1      42.590  18.886  25.582  1.00  0.00    -0.269 OA
BRANCH  24  27
ATOM     27  C   UNL A   1      41.950  20.937  26.520  1.00  0.00     0.039 A 
ATOM     28  C   UNL A   1      42.295  21.969  25.640  1.00  0.00     0.014 A 
ATOM     29  C   UNL A   1      41.944  21.171  27.898  1.00  0.00     0.014 A 
ATOM     30  C   UNL A   1      42.594  23.239  26.137  1.00  0.00     0.010 A 
ATOM     31  C   UNL A   1      42.182  22.454  28.389  1.00  0.00     0.010 A 
ATOM     32  C   UNL A   1      42.520  23.496  27.514  1.00  0.00    -0.014 A 
BRANCH  32  33
ATOM     33  C   UNL A   1      42.803  24.849  28.055  1.00  0.00     0.031 A 
ATOM     34  C   UNL A   1      44.192  25.214  28.497  1.00  0.00     0.074 A 
ATOM     35  C   UNL A   1      41.793  25.725  28.209  1.00  0.00     0.049 A 
ATOM     36  N   UNL A   1      44.619  26.322  29.048  1.00  0.00    -0.248 NA
ATOM     37  C   UNL A   1      45.233  24.190  28.322  1.00  0.00     0.031 C 
ATOM     38  C   UNL A   1      40.392  25.468  27.871  1.00  0.00     0.029 A 
ATOM     39  N   UNL A   1      41.788  27.005  28.705  1.00  0.00    -0.354 N 
ATOM     40  C   UNL A   1      45.969  26.119  29.307  1.00  0.00     0.074 A 
ATOM     41  C   UNL A   1      46.281  24.769  28.889  1.00  0.00     0.031 C 
ATOM     42  C   UNL A   1      39.664  26.558  28.162  1.00  0.00     0.029 A 
ATOM     43  C   UNL A   1      40.540  27.578  28.729  1.00  0.00     0.049 A 
ATOM     44  H   UNL A   1      42.600  27.467  29.013  1.00  0.00     0.167 HD
ATOM     45  C   UNL A   1      46.870  26.985  29.831  1.00  0.00     0.037 A 
ATOM     46  C   UNL A   1      40.146  28.788  29.166  1.00  0.00     0.037 A 
ATOM     47  C   UNL A   1      46.564  28.339  30.212  1.00  0.00     0.049 A 
ATOM     48  C   UNL A   1      41.168  29.745  29.708  1.00  0.00     0.074 A 
ATOM     49  C   UNL A   1      47.424  29.322  30.668  1.00  0.00     0.029 A 
ATOM     50  N   UNL A   1      45.296  28.898  30.184  1.00  0.00    -0.354 N 
ATOM     51  N   UNL A   1      42.457  29.569  29.871  1.00  0.00    -0.248 NA
ATOM     52  C   UNL A   1      40.685  31.071  30.118  1.00  0.00     0.031 C 
ATOM     53  C   UNL A   1      46.670  30.467  30.951  1.00  0.00     0.029 A 
ATOM     54  C   UNL A   1      45.346  30.207  30.635  1.00  0.00     0.049 A 
ATOM     55  H   UNL A   1      44.480  28.434  29.887  1.00  0.00     0.167 HD
ATOM     56  C   UNL A   1      42.942  30.764  30.386  1.00  0.00     0.074 A 
ATOM     57  C   UNL A   1      41.810  31.663  30.492  1.00  0.00     0.031 C 
ATOM     58  C   UNL A   1      44.210  31.087  30.739  1.00  0.00     0.037 A 
BRANCH  45  59
ATOM     59  C   UNL A   1      48.273  26.490  30.022  1.00  0.00     0.057 A 
ATOM     60  C   UNL A   1      49.249  26.628  29.026  1.00  0.00     0.134 A 
ATOM     61  C   UNL A   1      48.661  25.888  31.226  1.00  0.00     0.134 A 
ATOM     62  F   UNL A   1      48.940  27.183  27.844  1.00  0.00    -0.206 F 
ATOM     63  C   UNL A   1      50.552  26.159  29.210  1.00  0.00     0.040 A 
ATOM     64  C   UNL A   1      49.966  25.439  31.431  1.00  0.00     0.040 A 
ATOM     65  F   UNL A   1      47.778  25.732  32.224  1.00  0.00    -0.206 F 
ATOM     66  C   UNL A   1      50.914  25.567  30.418  1.00  0.00     0.006 A 
ENDBRANCH  45  59
BRANCH  46  67
ATOM     67  C   UNL A   1      38.714  29.167  29.082  1.00  0.00     0.057 A 
ATOM     68  C   UNL A   1      37.880  29.092  30.202  1.00  0.00     0.134 A 
ATOM     69  C   UNL A   1      38.153  29.633  27.888  1.00  0.00     0.134 A 
ATOM     70  F   UNL A   1      38.359  28.638  31.370  1.00  0.00    -0.206 F 
ATOM     71  C   UNL A   1      36.535  29.456  30.137  1.00  0.00     0.040 A 
ATOM     72  C   UNL A   1      36.814  30.021  27.812  1.00  0.00     0.040 A 
ATOM     73  F   UNL A   1      38.904  29.735  26.781  1.00  0.00    -0.206 F 
ATOM     74  C   UNL A   1      36.000  29.929  28.940  1.00  0.00     0.006 A 
ENDBRANCH  46  67
BRANCH  58  75
ATOM     75  C   UNL A   1      44.441  32.473  31.259  1.00  0.00     0.057 A 
ATOM     76  C   UNL A   1      44.384  32.764  32.628  1.00  0.00     0.134 A 
ATOM     77  C   UNL A   1      44.758  33.521  30.385  1.00  0.00     0.134 A 
ATOM     78  F   UNL A   1      44.072  31.807  33.514  1.00  0.00    -0.206 F 
ATOM     79  C   UNL A   1      44.615  34.054  33.108  1.00  0.00     0.040 A 
ATOM     80  C   UNL A   1      45.013  34.809  30.856  1.00  0.00     0.040 A 
ATOM     81  F   UNL A   1      44.834  33.306  29.063  1.00  0.00    -0.206 F 
ATOM     82  C   UNL A   1      44.937  35.080  32.220  1.00  0.00     0.006 A 
ENDBRANCH  58  75
ENDBRANCH  32  33
ENDBRANCH  24  27
ENDBRANCH  22  23
ENDBRANCH  21  22
ENDBRANCH   1  21
TORSDOF 14
ENDMDL
MODEL 2
REMARK VINA RESULT:     -10.9      4.298      9.030
REMARK SMILES CC(C)CN(C)S(=O)(=O)c1ccc(C(=O)NCCCNC(=O)c2ccc(-c3c4nc(c(-c5c(F)cccc5F)c5ccc([nH]5)c(-c5c(F)cccc5F)c5nc(c(-c6c(F)cccc6F)c6ccc3[nH]6)C=C5)C=C4)cc2)cc1
REMARK SMILES IDX 17 1 16 2 14 3 15 4 13 6 10 7 11 8 78 9 12 10 77 11 7 12
REMARK SMILES IDX 8 13 9 14 5 15 6 16 4 17 2 18 1 19 3 20 18 21 19 22 20 23
REMARK SMILES IDX 21 24 22 26 23 27 24 28 76 29 25 30 75 31 26 32 27 33 28 34
REMARK SMILES IDX 69 35 29 36 74 37 68 38 70 39 30 40 73 41 67 42 66 43 31 45
REMARK SMILES IDX 57 46 40 47 56 48 41 49 44 50 55 51 71 52 42 53 43 54 54 56
REMARK SMILES IDX 72 57 45 58 32 59 33 60 38 61 34 62 35 63 37 64 39 65 36 66
REMARK SMILES IDX 58 67 59 68 64 69 60 70 61 71 63 72 65 73 62 74 46 75 47 76
REMARK SMILES IDX 52 77 48 78 49 79 51 80 53 81 50 82
REMARK H PARENT 16 5 20 25 70 44 44 55
REMARK Flexibility Score: inf
ROOT
ATOM      1  C   UNL A   1      31.728  30.583  26.598  1.00  0.00     0.118 C 
ENDROOT
BRANCH   1   2
ATOM      2  N   UNL A   1      31.570  30.267  25.190  1.00  0.00    -0.352 N 
ATOM      3  C   UNL A   1      31.612  29.079  24.503  1.00  0.00     0.251 C 
ATOM      4  O   UNL A   1      31.365  29.106  23.297  1.00  0.00    -0.269 OA
ATOM      5  H   UNL A   1      31.402  31.051  24.620  1.00  0.00     0.163 HD
BRANCH   3   6
ATOM      6  C   UNL A   1      31.877  27.766  25.158  1.00  0.00     0.039 A 
ATOM      7  C   UNL A   1      32.544  25.218  26.170  1.00  0.00     0.082 A 
ATOM      8  C   UNL A   1      33.552  26.097  25.782  1.00  0.00     0.022 A 
ATOM      9  C   UNL A   1      31.215  25.657  26.158  1.00  0.00     0.022 A 
ATOM     10  C   UNL A   1      33.216  27.359  25.267  1.00  0.00     0.015 A 
ATOM     11  C   UNL A   1      30.889  26.930  25.678  1.00  0.00     0.015 A 
BRANCH   7  12
ATOM     12  S   UNL A   1      32.819  23.491  26.558  1.00  0.00     0.242 S 
ATOM     13  O   UNL A   1      31.916  23.162  27.647  1.00  0.00    -0.207 OA
ATOM     14  O   UNL A   1      34.245  23.354  26.730  1.00  0.00    -0.207 OA
BRANCH  12  15
ATOM     15  N   UNL A   1      32.353  22.541  25.192  1.00  0.00    -0.201 NA
ATOM     16  C   UNL A   1      32.540  21.070  25.418  1.00  0.00     0.124 C 
BRANCH  15  17
ATOM     17  C   UNL A   1      33.101  22.913  23.926  1.00  0.00     0.105 C 
BRANCH  17  18
ATOM     18  C   UNL A   1      32.214  23.509  22.817  1.00  0.00    -0.002 C 
ATOM     19  C   UNL A   1      30.758  23.703  23.245  1.00  0.00     0.009 C 
ATOM     20  C   UNL A   1      32.780  24.880  22.414  1.00  0.00     0.009 C 
ENDBRANCH  17  18
ENDBRANCH  15  17
ENDBRANCH  12  15
ENDBRANCH   7  12
ENDBRANCH   3   6
ENDBRANCH   1   2
BRANCH   1  21
ATOM     21  C   UNL A   1      31.464  32.065  26.867  1.00  0.00     0.042 C 
BRANCH  21  22
ATOM     22  C   UNL A   1      32.728  32.919  26.867  1.00  0.00     0.118 C 
BRANCH  22  23
ATOM     23  N   UNL A   1      32.521  34.196  27.532  1.00  0.00    -0.352 N 
ATOM     24  C   UNL A   1      33.094  34.696  28.675  1.00  0.00     0.251 C 
ATOM     25  H   UNL A   1      31.872  34.793  27.096  1.00  0.00     0.163 HD
ATOM     26  O   UNL A   1      32.634  35.713  29.185  1.00  0.00    -0.269 OA
BRANCH  24  27
ATOM     27  C   UNL A   1      34.251  34.020  29.304  1.00  0.00     0.039 A 
ATOM     28  C   UNL A   1      35.540  34.435  28.950  1.00  0.00     0.014 A 
ATOM     29  C   UNL A   1      34.083  32.948  30.185  1.00  0.00     0.014 A 
ATOM     30  C   UNL A   1      36.654  33.804  29.508  1.00  0.00     0.010 A 
ATOM     31  C   UNL A   1      35.193  32.360  30.788  1.00  0.00     0.010 A 
ATOM     32  C   UNL A   1      36.488  32.775  30.447  1.00  0.00    -0.014 A 
BRANCH  32  33
ATOM     33  C   UNL A   1      37.662  32.117  31.074  1.00  0.00     0.031 A 
ATOM     34  C   UNL A   1      38.399  31.028  30.347  1.00  0.00     0.074 A 
ATOM     35  C   UNL A   1      38.021  32.456  32.326  1.00  0.00     0.049 A 
ATOM     36  N   UNL A   1      39.406  30.297  30.753  1.00  0.00    -0.248 NA
ATOM     37  C   UNL A   1      37.924  30.697  28.994  1.00  0.00     0.031 C 
ATOM     38  C   UNL A   1      37.350  33.456  33.156  1.00  0.00     0.029 A 
ATOM     39  N   UNL A   1      39.032  31.983  33.124  1.00  0.00    -0.354 N 
ATOM     40  C   UNL A   1      39.669  29.406  29.720  1.00  0.00     0.074 A 
ATOM     41  C   UNL A   1      38.692  29.662  28.683  1.00  0.00     0.031 C 
ATOM     42  C   UNL A   1      37.971  33.529  34.344  1.00  0.00     0.029 A 
ATOM     43  C   UNL A   1      39.065  32.564  34.368  1.00  0.00     0.049 A 
ATOM     44  H   UNL A   1      39.672  31.294  32.833  1.00  0.00     0.167 HD
ATOM     45  C   UNL A   1      40.647  28.473  29.636  1.00  0.00     0.037 A 
ATOM     46  C   UNL A   1      39.883  32.339  35.413  1.00  0.00     0.037 A 
ATOM     47  C   UNL A   1      41.640  28.246  30.653  1.00  0.00     0.049 A 
ATOM     48  C   UNL A   1      40.983  31.324  35.284  1.00  0.00     0.074 A 
ATOM     49  C   UNL A   1      42.724  27.387  30.625  1.00  0.00     0.029 A 
ATOM     50  N   UNL A   1      41.666  28.883  31.884  1.00  0.00    -0.354 N 
ATOM     51  N   UNL A   1      41.270  30.546  34.269  1.00  0.00    -0.248 NA
ATOM     52  C   UNL A   1      41.876  31.163  36.439  1.00  0.00     0.031 C 
ATOM     53  C   UNL A   1      43.385  27.476  31.855  1.00  0.00     0.029 A 
ATOM     54  C   UNL A   1      42.735  28.420  32.634  1.00  0.00     0.049 A 
ATOM     55  H   UNL A   1      41.020  29.564  32.182  1.00  0.00     0.167 HD
ATOM     56  C   UNL A   1      42.386  29.815  34.655  1.00  0.00     0.074 A 
ATOM     57  C   UNL A   1      42.733  30.256  35.991  1.00  0.00     0.031 C 
ATOM     58  C   UNL A   1      43.063  28.865  33.964  1.00  0.00     0.037 A 
BRANCH  45  59
ATOM     59  C   UNL A   1      40.687  27.624  28.399  1.00  0.00     0.057 A 
ATOM     60  C   UNL A   1      39.993  26.410  28.311  1.00  0.00     0.134 A 
ATOM     61  C   UNL A   1      41.410  28.037  27.273  1.00  0.00     0.134 A 
ATOM     62  F   UNL A   1      39.292  25.951  29.359  1.00  0.00    -0.206 F 
ATOM     63  C   UNL A   1      40.041  25.623  27.159  1.00  0.00     0.040 A 
ATOM     64  C   UNL A   1      41.445  27.271  26.106  1.00  0.00     0.040 A 
ATOM     65  F   UNL A   1      42.091  29.193  27.287  1.00  0.00    -0.206 F 
ATOM     66  C   UNL A   1      40.764  26.057  26.050  1.00  0.00     0.006 A 
ENDBRANCH  45  59
BRANCH  46  67
ATOM     67  C   UNL A   1      39.701  33.111  36.666  1.00  0.00     0.057 A 
ATOM     68  C   UNL A   1      40.414  34.292  36.898  1.00  0.00     0.134 A 
ATOM     69  C   UNL A   1      38.794  32.700  37.650  1.00  0.00     0.134 A 
ATOM     70  F   UNL A   1      41.308  34.726  35.998  1.00  0.00    -0.206 F 
ATOM     71  C   UNL A   1      40.242  35.032  38.067  1.00  0.00     0.040 A 
ATOM     72  C   UNL A   1      38.595  33.441  38.816  1.00  0.00     0.040 A 
ATOM     73  F   UNL A   1      38.073  31.581  37.482  1.00  0.00    -0.206 F 
ATOM     74  C   UNL A   1      39.324  34.610  39.028  1.00  0.00     0.006 A 
ENDBRANCH  46  67
BRANCH  58  75
ATOM     75  C   UNL A   1      44.252  28.250  34.638  1.00  0.00     0.057 A 
ATOM     76  C   UNL A   1      44.144  27.072  35.387  1.00  0.00     0.134 A 
ATOM     77  C   UNL A   1      45.523  28.822  34.505  1.00  0.00     0.134 A 
ATOM     78  F   UNL A   1      42.951  26.484  35.562  1.00  0.00    -0.206 F 
ATOM     79  C   UNL A   1      45.258  26.495  35.999  1.00  0.00     0.040 A 
ATOM     80  C   UNL A   1      46.647  28.241  35.094  1.00  0.00     0.040 A 
ATOM     81  F   UNL A   1      45.694  29.947  33.795  1.00  0.00    -0.206 F 
ATOM     82  C   UNL A   1      46.515  27.077  35.847  1.00  0.00     0.006 A 
ENDBRANCH  58  75
ENDBRANCH  32  33
ENDBRANCH  24  27
ENDBRANCH  22  23
ENDBRANCH  21  22
ENDBRANCH   1  21
TORSDOF 14
ENDMDL
MODEL 3
REMARK VINA RESULT:     -10.9      2.087      6.728
REMARK SMILES CC(C)CN(C)S(=O)(=O)c1ccc(C(=O)NCCCNC(=O)c2ccc(-c3c4nc(c(-c5c(F)cccc5F)c5ccc([nH]5)c(-c5c(F)cccc5F)c5nc(c(-c6c(F)cccc6F)c6ccc3[nH]6)C=C5)C=C4)cc2)cc1
REMARK SMILES IDX 17 1 16 2 14 3 15 4 13 6 10 7 11 8 78 9 12 10 77 11 7 12
REMARK SMILES IDX 8 13 9 14 5 15 6 16 4 17 2 18 1 19 3 20 18 21 19 22 20 23
REMARK SMILES IDX 21 24 22 26 23 27 24 28 76 29 25 30 75 31 26 32 27 33 28 34
REMARK SMILES IDX 69 35 29 36 74 37 68 38 70 39 30 40 73 41 67 42 66 43 31 45
REMARK SMILES IDX 57 46 40 47 56 48 41 49 44 50 55 51 71 52 42 53 43 54 54 56
REMARK SMILES IDX 72 57 45 58 32 59 33 60 38 61 34 62 35 63 37 64 39 65 36 66
REMARK SMILES IDX 58 67 59 68 64 69 60 70 61 71 63 72 65 73 62 74 46 75 47 76
REMARK SMILES IDX 52 77 48 78 49 79 51 80 53 81 50 82
REMARK H PARENT 16 5 20 25 70 44 44 55
REMARK Flexibility Score: inf
ROOT
ATOM      1  C   UNL A   1      37.385  20.893  24.611  1.00  0.00     0.118 C 
ENDROOT
BRANCH   1   2
ATOM      2  N   UNL A   1      37.987  22.069  25.214  1.00  0.00    -0.352 N 
ATOM      3  C   UNL A   1      37.441  23.199  25.770  1.00  0.00     0.251 C 
ATOM      4  O   UNL A   1      38.210  24.015  26.281  1.00  0.00    -0.269 OA
ATOM      5  H   UNL A   1      38.971  22.054  25.225  1.00  0.00     0.163 HD
BRANCH   3   6
ATOM      6  C   UNL A   1      35.973  23.448  25.840  1.00  0.00     0.039 A 
ATOM      7  C   UNL A   1      33.258  24.199  26.003  1.00  0.00     0.082 A 
ATOM      8  C   UNL A   1      34.097  24.821  25.081  1.00  0.00     0.022 A 
ATOM      9  C   UNL A   1      33.751  23.128  26.758  1.00  0.00     0.022 A 
ATOM     10  C   UNL A   1      35.450  24.454  25.013  1.00  0.00     0.015 A 
ATOM     11  C   UNL A   1      35.091  22.742  26.657  1.00  0.00     0.015 A 
BRANCH   7  12
ATOM     12  S   UNL A   1      31.607  24.771  26.396  1.00  0.00     0.242 S 
ATOM     13  O   UNL A   1      31.743  26.135  26.874  1.00  0.00    -0.207 OA
ATOM     14  O   UNL A   1      31.039  23.756  27.250  1.00  0.00    -0.207 OA
BRANCH  12  15
ATOM     15  N   UNL A   1      30.681  24.820  24.938  1.00  0.00    -0.201 NA
ATOM     16  C   UNL A   1      30.868  23.597  24.091  1.00  0.00     0.124 C 
BRANCH  15  17
ATOM     17  C   UNL A   1      30.991  26.031  24.078  1.00  0.00     0.105 C 
BRANCH  17  18
ATOM     18  C   UNL A   1      29.862  27.078  24.027  1.00  0.00    -0.002 C 
ATOM     19  C   UNL A   1      29.950  28.004  22.812  1.00  0.00     0.009 C 
ATOM     20  C   UNL A   1      28.511  26.348  23.975  1.00  0.00     0.009 C 
ENDBRANCH  17  18
ENDBRANCH  15  17
ENDBRANCH  12  15
ENDBRANCH   7  12
ENDBRANCH   3   6
ENDBRANCH   1   2
BRANCH   1  21
ATOM     21  C   UNL A   1      38.192  19.633  24.926  1.00  0.00     0.042 C 
BRANCH  21  22
ATOM     22  C   UNL A   1      39.120  19.788  26.126  1.00  0.00     0.118 C 
BRANCH  22  23
ATOM     23  N   UNL A   1      40.270  18.902  26.042  1.00  0.00    -0.352 N 
ATOM     24  C   UNL A   1      41.610  19.198  26.037  1.00  0.00     0.251 C 
ATOM     25  H   UNL A   1      40.055  17.944  25.980  1.00  0.00     0.163 HD
ATOM     26  O   UNL A   1      42.421  18.321  25.752  1.00  0.00    -0.269 OA
BRANCH  24  27
ATOM     27  C   UNL A   1      42.090  20.562  26.358  1.00  0.00     0.039 A 
ATOM     28  C   UNL A   1      42.239  20.916  27.703  1.00  0.00     0.014 A 
ATOM     29  C   UNL A   1      42.332  21.507  25.358  1.00  0.00     0.014 A 
ATOM     30  C   UNL A   1      42.668  22.202  28.042  1.00  0.00     0.010 A 
ATOM     31  C   UNL A   1      42.819  22.769  25.694  1.00  0.00     0.010 A 
ATOM     32  C   UNL A   1      42.981  23.131  27.039  1.00  0.00    -0.014 A 
BRANCH  32  33
ATOM     33  C   UNL A   1      43.469  24.490  27.383  1.00  0.00     0.031 A 
ATOM     34  C   UNL A   1      42.504  25.553  27.826  1.00  0.00     0.074 A 
ATOM     35  C   UNL A   1      44.773  24.783  27.230  1.00  0.00     0.049 A 
ATOM     36  N   UNL A   1      42.733  26.811  28.111  1.00  0.00    -0.248 NA
ATOM     37  C   UNL A   1      41.091  25.160  27.939  1.00  0.00     0.031 C 
ATOM     38  C   UNL A   1      45.798  23.854  26.752  1.00  0.00     0.029 A 
ATOM     39  N   UNL A   1      45.458  25.953  27.447  1.00  0.00    -0.354 N 
ATOM     40  C   UNL A   1      41.493  27.362  28.411  1.00  0.00     0.074 A 
ATOM     41  C   UNL A   1      40.511  26.313  28.237  1.00  0.00     0.031 C 
ATOM     42  C   UNL A   1      46.982  24.486  26.718  1.00  0.00     0.029 A 
ATOM     43  C   UNL A   1      46.796  25.869  27.147  1.00  0.00     0.049 A 
ATOM     44  H   UNL A   1      45.031  26.773  27.784  1.00  0.00     0.167 HD
ATOM     45  C   UNL A   1      41.203  28.623  28.812  1.00  0.00     0.037 A 
ATOM     46  C   UNL A   1      47.762  26.804  27.206  1.00  0.00     0.037 A 
ATOM     47  C   UNL A   1      42.186  29.653  29.019  1.00  0.00     0.049 A 
ATOM     48  C   UNL A   1      47.423  28.185  27.688  1.00  0.00     0.074 A 
ATOM     49  C   UNL A   1      42.004  30.935  29.508  1.00  0.00     0.029 A 
ATOM     50  N   UNL A   1      43.539  29.519  28.744  1.00  0.00    -0.354 N 
ATOM     51  N   UNL A   1      46.259  28.669  28.048  1.00  0.00    -0.248 NA
ATOM     52  C   UNL A   1      48.531  29.145  27.782  1.00  0.00     0.031 C 
ATOM     53  C   UNL A   1      43.241  31.588  29.495  1.00  0.00     0.029 A 
ATOM     54  C   UNL A   1      44.200  30.701  29.033  1.00  0.00     0.049 A 
ATOM     55  H   UNL A   1      43.966  28.704  28.395  1.00  0.00     0.167 HD
ATOM     56  C   UNL A   1      46.496  29.985  28.426  1.00  0.00     0.074 A 
ATOM     57  C   UNL A   1      47.917  30.216  28.268  1.00  0.00     0.031 C 
ATOM     58  C   UNL A   1      45.614  30.916  28.865  1.00  0.00     0.037 A 
BRANCH  45  59
ATOM     59  C   UNL A   1      39.760  28.956  29.051  1.00  0.00     0.057 A 
ATOM     60  C   UNL A   1      38.913  29.368  28.012  1.00  0.00     0.134 A 
ATOM     61  C   UNL A   1      39.203  28.843  30.331  1.00  0.00     0.134 A 
ATOM     62  F   UNL A   1      39.387  29.509  26.765  1.00  0.00    -0.206 F 
ATOM     63  C   UNL A   1      37.573  29.682  28.245  1.00  0.00     0.040 A 
ATOM     64  C   UNL A   1      37.858  29.130  30.571  1.00  0.00     0.040 A 
ATOM     65  F   UNL A   1      39.956  28.447  31.368  1.00  0.00    -0.206 F 
ATOM     66  C   UNL A   1      37.041  29.558  29.526  1.00  0.00     0.006 A 
ENDBRANCH  45  59
BRANCH  46  67
ATOM     67  C   UNL A   1      49.148  26.450  26.816  1.00  0.00     0.057 A 
ATOM     68  C   UNL A   1      49.618  26.684  25.520  1.00  0.00     0.134 A 
ATOM     69  C   UNL A   1      50.042  25.890  27.737  1.00  0.00     0.134 A 
ATOM     70  F   UNL A   1      48.801  27.203  24.592  1.00  0.00    -0.206 F 
ATOM     71  C   UNL A   1      50.923  26.365  25.147  1.00  0.00     0.040 A 
ATOM     72  C   UNL A   1      51.358  25.584  27.384  1.00  0.00     0.040 A 
ATOM     73  F   UNL A   1      49.654  25.649  28.999  1.00  0.00    -0.206 F 
ATOM     74  C   UNL A   1      51.800  25.819  26.084  1.00  0.00     0.006 A 
ENDBRANCH  46  67
BRANCH  58  75
ATOM     75  C   UNL A   1      46.166  32.264  29.217  1.00  0.00     0.057 A 
ATOM     76  C   UNL A   1      46.225  33.303  28.279  1.00  0.00     0.134 A 
ATOM     77  C   UNL A   1      46.612  32.537  30.517  1.00  0.00     0.134 A 
ATOM     78  F   UNL A   1      45.826  33.100  27.015  1.00  0.00    -0.206 F 
ATOM     79  C   UNL A   1      46.725  34.561  28.618  1.00  0.00     0.040 A 
ATOM     80  C   UNL A   1      47.093  33.798  30.872  1.00  0.00     0.040 A 
ATOM     81  F   UNL A   1      46.576  31.586  31.463  1.00  0.00    -0.206 F 
ATOM     82  C   UNL A   1      47.155  34.812  29.919  1.00  0.00     0.006 A 
ENDBRANCH  58  75
ENDBRANCH  32  33
ENDBRANCH  24  27
ENDBRANCH  22  23
ENDBRANCH  21  22
ENDBRANCH   1  21
TORSDOF 14
ENDMDL
