MODEL 1
REMARK VINA RESULT:     -11.8      0.000      0.000
REMARK SMILES CC(C)=CC[C@@]1(C(=O)NCCCNC(=O)c2ccc(-c3c4nc(c(-c5c(F)cccc5F)c5ccc([nH]5)c(-c5c(F)cccc5F)c5nc(c(-c6c(F)cccc6F)c6ccc3[nH]6)C=C5)C=C4)cc2)CCC[C@H](C)C1
REMARK SMILES IDX 11 1 10 2 9 3 7 4 8 5 6 7 70 8 75 9 71 10 73 11 72 12 74 13
REMARK SMILES IDX 5 14 4 15 1 16 2 17 3 18 12 19 13 20 14 21 15 23 16 24 17 25
REMARK SMILES IDX 69 26 18 27 68 28 19 29 20 30 21 31 62 32 22 33 67 34 61 35
REMARK SMILES IDX 63 36 23 37 66 38 60 39 59 40 24 42 50 43 33 44 49 45 34 46
REMARK SMILES IDX 37 47 48 48 64 49 35 50 36 51 47 53 65 54 38 55 25 56 26 57
REMARK SMILES IDX 31 58 27 59 28 60 30 61 32 62 29 63 51 64 52 65 57 66 53 67
REMARK SMILES IDX 54 68 56 69 58 70 55 71 39 72 40 73 45 74 41 75 42 76 44 77
REMARK SMILES IDX 46 78 43 79
REMARK H PARENT 9 6 13 22 63 41 37 52
REMARK Flexibility Score: inf
ROOT
ATOM      1  C   UNL A   1      31.349  31.718  26.351  1.00  0.00     0.042 C 
ENDROOT
BRANCH   1   2
ATOM      2  C   UNL A   1      31.465  30.282  25.816  1.00  0.00     0.117 C 
BRANCH   2   3
ATOM      3  N   UNL A   1      32.557  29.918  24.913  1.00  0.00    -0.356 N 
ATOM      4  C   UNL A   1      32.673  29.102  23.810  1.00  0.00     0.226 C 
ATOM      5  O   UNL A   1      33.706  29.212  23.142  1.00  0.00    -0.274 OA
ATOM      6  H   UNL A   1      33.406  30.359  25.148  1.00  0.00     0.163 HD
BRANCH   4   7
ATOM      7  C   UNL A   1      31.543  28.165  23.366  1.00  0.00     0.053 C 
ATOM      8  C   UNL A   1      30.633  27.641  24.524  1.00  0.00     0.017 C 
ATOM      9  C   UNL A   1      32.344  26.924  22.861  1.00  0.00     0.020 C 
ATOM     10  C   UNL A   1      29.784  26.413  24.115  1.00  0.00     0.001 C 
ATOM     11  C   UNL A   1      31.601  25.626  22.551  1.00  0.00    -0.013 C 
ATOM     12  C   UNL A   1      30.649  25.238  23.677  1.00  0.00     0.003 C 
ATOM     13  C   UNL A   1      32.637  24.510  22.324  1.00  0.00     0.007 C 
BRANCH   7  14
ATOM     14  C   UNL A   1      30.621  28.912  22.370  1.00  0.00     0.044 C 
BRANCH  14  15
ATOM     15  C   UNL A   1      29.546  29.942  22.782  1.00  0.00    -0.027 C 
ATOM     16  C   UNL A   1      27.162  28.928  23.129  1.00  0.00     0.039 C 
ATOM     17  C   UNL A   1      28.227  29.998  23.101  1.00  0.00    -0.080 C 
ATOM     18  C   UNL A   1      27.641  31.315  23.582  1.00  0.00     0.039 C 
ENDBRANCH  14  15
ENDBRANCH   7  14
ENDBRANCH   4   7
ENDBRANCH   2   3
ENDBRANCH   1   2
BRANCH   1  19
ATOM     19  C   UNL A   1      32.582  32.429  26.886  1.00  0.00     0.118 C 
BRANCH  19  20
ATOM     20  N   UNL A   1      32.324  33.753  27.406  1.00  0.00    -0.352 N 
ATOM     21  C   UNL A   1      33.034  34.437  28.365  1.00  0.00     0.251 C 
ATOM     22  H   UNL A   1      31.547  34.223  27.027  1.00  0.00     0.163 HD
ATOM     23  O   UNL A   1      32.652  35.529  28.754  1.00  0.00    -0.269 OA
BRANCH  21  24
ATOM     24  C   UNL A   1      34.248  33.827  28.957  1.00  0.00     0.039 A 
ATOM     25  C   UNL A   1      34.082  32.784  29.871  1.00  0.00     0.014 A 
ATOM     26  C   UNL A   1      35.528  34.297  28.651  1.00  0.00     0.014 A 
ATOM     27  C   UNL A   1      35.201  32.191  30.459  1.00  0.00     0.010 A 
ATOM     28  C   UNL A   1      36.650  33.677  29.213  1.00  0.00     0.010 A 
ATOM     29  C   UNL A   1      36.498  32.618  30.124  1.00  0.00    -0.014 A 
BRANCH  29  30
ATOM     30  C   UNL A   1      37.683  31.929  30.704  1.00  0.00     0.031 A 
ATOM     31  C   UNL A   1      38.182  32.263  32.082  1.00  0.00     0.074 A 
ATOM     32  C   UNL A   1      38.327  30.998  29.973  1.00  0.00     0.049 A 
ATOM     33  N   UNL A   1      39.175  31.735  32.753  1.00  0.00    -0.248 NA
ATOM     34  C   UNL A   1      37.484  33.344  32.793  1.00  0.00     0.031 C 
ATOM     35  C   UNL A   1      37.972  30.609  28.607  1.00  0.00     0.029 A 
ATOM     36  N   UNL A   1      39.411  30.211  30.273  1.00  0.00    -0.354 N 
ATOM     37  C   UNL A   1      39.223  32.416  33.964  1.00  0.00     0.074 A 
ATOM     38  C   UNL A   1      38.190  33.431  33.912  1.00  0.00     0.031 C 
ATOM     39  C   UNL A   1      38.805  29.640  28.197  1.00  0.00     0.029 A 
ATOM     40  C   UNL A   1      39.772  29.361  29.255  1.00  0.00     0.049 A 
ATOM     41  H   UNL A   1      39.885  30.251  31.135  1.00  0.00     0.167 HD
ATOM     42  C   UNL A   1      40.039  32.204  35.027  1.00  0.00     0.037 A 
ATOM     43  C   UNL A   1      40.771  28.459  29.177  1.00  0.00     0.037 A 
ATOM     44  C   UNL A   1      41.068  31.195  35.074  1.00  0.00     0.049 A 
ATOM     45  C   UNL A   1      41.676  28.256  30.359  1.00  0.00     0.074 A 
ATOM     46  C   UNL A   1      41.908  30.869  36.126  1.00  0.00     0.029 A 
ATOM     47  N   UNL A   1      41.410  30.361  34.020  1.00  0.00    -0.354 N 
ATOM     48  N   UNL A   1      41.656  28.850  31.528  1.00  0.00    -0.248 NA
ATOM     49  C   UNL A   1      42.737  27.249  30.216  1.00  0.00     0.031 C 
ATOM     50  C   UNL A   1      42.797  29.881  35.687  1.00  0.00     0.029 A 
ATOM     51  C   UNL A   1      42.471  29.546  34.383  1.00  0.00     0.049 A 
ATOM     52  H   UNL A   1      40.966  30.351  33.142  1.00  0.00     0.167 HD
ATOM     53  C   UNL A   1      42.683  28.276  32.265  1.00  0.00     0.074 A 
ATOM     54  C   UNL A   1      43.295  27.273  31.418  1.00  0.00     0.031 C 
ATOM     55  C   UNL A   1      43.081  28.554  33.532  1.00  0.00     0.037 A 
BRANCH  42  56
ATOM     56  C   UNL A   1      39.858  33.096  36.224  1.00  0.00     0.057 A 
ATOM     57  C   UNL A   1      38.965  32.782  37.258  1.00  0.00     0.134 A 
ATOM     58  C   UNL A   1      40.604  34.276  36.359  1.00  0.00     0.134 A 
ATOM     59  F   UNL A   1      38.216  31.671  37.195  1.00  0.00    -0.206 F 
ATOM     60  C   UNL A   1      38.789  33.626  38.358  1.00  0.00     0.040 A 
ATOM     61  C   UNL A   1      40.461  35.111  37.468  1.00  0.00     0.040 A 
ATOM     62  F   UNL A   1      41.488  34.633  35.416  1.00  0.00    -0.206 F 
ATOM     63  C   UNL A   1      39.542  34.793  38.467  1.00  0.00     0.006 A 
ENDBRANCH  42  56
BRANCH  43  64
ATOM     64  C   UNL A   1      40.948  27.665  27.934  1.00  0.00     0.057 A 
ATOM     65  C   UNL A   1      41.735  28.138  26.878  1.00  0.00     0.134 A 
ATOM     66  C   UNL A   1      40.348  26.410  27.780  1.00  0.00     0.134 A 
ATOM     67  F   UNL A   1      42.321  29.341  26.958  1.00  0.00    -0.206 F 
ATOM     68  C   UNL A   1      41.911  27.396  25.708  1.00  0.00     0.040 A 
ATOM     69  C   UNL A   1      40.536  25.645  26.627  1.00  0.00     0.040 A 
ATOM     70  F   UNL A   1      39.588  25.897  28.759  1.00  0.00    -0.206 F 
ATOM     71  C   UNL A   1      41.315  26.141  25.584  1.00  0.00     0.006 A 
ENDBRANCH  43  64
BRANCH  55  72
ATOM     72  C   UNL A   1      44.220  27.748  34.089  1.00  0.00     0.057 A 
ATOM     73  C   UNL A   1      45.546  28.197  34.034  1.00  0.00     0.134 A 
ATOM     74  C   UNL A   1      43.983  26.518  34.717  1.00  0.00     0.134 A 
ATOM     75  F   UNL A   1      45.847  29.359  33.434  1.00  0.00    -0.206 F 
ATOM     76  C   UNL A   1      46.596  27.441  34.560  1.00  0.00     0.040 A 
ATOM     77  C   UNL A   1      45.020  25.768  35.275  1.00  0.00     0.040 A 
ATOM     78  F   UNL A   1      42.737  26.030  34.814  1.00  0.00    -0.206 F 
ATOM     79  C   UNL A   1      46.333  26.227  35.190  1.00  0.00     0.006 A 
ENDBRANCH  55  72
ENDBRANCH  29  30
ENDBRANCH  21  24
ENDBRANCH  19  20
ENDBRANCH   1  19
TORSDOF 12
ENDMDL
MODEL 2
REMARK VINA RESULT:     -11.7      5.213     10.033
REMARK SMILES CC(C)=CC[C@@]1(C(=O)NCCCNC(=O)c2ccc(-c3c4nc(c(-c5c(F)cccc5F)c5ccc([nH]5)c(-c5c(F)cccc5F)c5nc(c(-c6c(F)cccc6F)c6ccc3[nH]6)C=C5)C=C4)cc2)CCC[C@H](C)C1
REMARK SMILES IDX 11 1 10 2 9 3 7 4 8 5 6 7 70 8 75 9 71 10 73 11 72 12 74 13
REMARK SMILES IDX 5 14 4 15 1 16 2 17 3 18 12 19 13 20 14 21 15 23 16 24 17 25
REMARK SMILES IDX 69 26 18 27 68 28 19 29 20 30 21 31 62 32 22 33 67 34 61 35
REMARK SMILES IDX 63 36 23 37 66 38 60 39 59 40 24 42 50 43 33 44 49 45 34 46
REMARK SMILES IDX 37 47 48 48 64 49 35 50 36 51 47 53 65 54 38 55 25 56 26 57
REMARK SMILES IDX 31 58 27 59 28 60 30 61 32 62 29 63 51 64 52 65 57 66 53 67
REMARK SMILES IDX 54 68 56 69 58 70 55 71 39 72 40 73 45 74 41 75 42 76 44 77
REMARK SMILES IDX 46 78 43 79
REMARK H PARENT 9 6 13 22 63 41 37 52
REMARK Flexibility Score: inf
ROOT
ATOM      1  C   UNL A   1      37.531  19.743  24.960  1.00  0.00     0.042 C 
ENDROOT
BRANCH   1   2
ATOM      2  C   UNL A   1      36.310  20.670  24.838  1.00  0.00     0.117 C 
BRANCH   2   3
ATOM      3  N   UNL A   1      35.650  21.180  26.040  1.00  0.00    -0.356 N 
ATOM      4  C   UNL A   1      34.346  21.450  26.389  1.00  0.00     0.226 C 
ATOM      5  O   UNL A   1      34.121  21.655  27.586  1.00  0.00    -0.274 OA
ATOM      6  H   UNL A   1      36.284  21.374  26.768  1.00  0.00     0.163 HD
BRANCH   4   7
ATOM      7  C   UNL A   1      33.202  21.410  25.368  1.00  0.00     0.053 C 
ATOM      8  C   UNL A   1      33.627  21.721  23.896  1.00  0.00     0.017 C 
ATOM      9  C   UNL A   1      32.332  22.624  25.823  1.00  0.00     0.020 C 
ATOM     10  C   UNL A   1      32.427  22.069  22.983  1.00  0.00     0.001 C 
ATOM     11  C   UNL A   1      31.200  23.116  24.923  1.00  0.00    -0.013 C 
ATOM     12  C   UNL A   1      31.662  23.288  23.480  1.00  0.00     0.003 C 
ATOM     13  C   UNL A   1      30.680  24.455  25.477  1.00  0.00     0.007 C 
BRANCH   7  14
ATOM     14  C   UNL A   1      32.568  19.998  25.366  1.00  0.00     0.044 C 
BRANCH  14  15
ATOM     15  C   UNL A   1      33.217  18.751  24.725  1.00  0.00    -0.027 C 
ATOM     16  C   UNL A   1      32.304  18.166  22.346  1.00  0.00     0.039 C 
ATOM     17  C   UNL A   1      33.169  18.027  23.576  1.00  0.00    -0.080 C 
ATOM     18  C   UNL A   1      34.159  16.892  23.379  1.00  0.00     0.039 C 
ENDBRANCH  14  15
ENDBRANCH   7  14
ENDBRANCH   4   7
ENDBRANCH   2   3
ENDBRANCH   1   2
BRANCH   1  19
ATOM     19  C   UNL A   1      38.773  20.219  25.696  1.00  0.00     0.118 C 
BRANCH  19  20
ATOM     20  N   UNL A   1      39.871  19.279  25.677  1.00  0.00    -0.352 N 
ATOM     21  C   UNL A   1      41.175  19.496  26.056  1.00  0.00     0.251 C 
ATOM     22  H   UNL A   1      39.659  18.374  25.355  1.00  0.00     0.163 HD
ATOM     23  O   UNL A   1      42.012  18.617  25.917  1.00  0.00    -0.269 OA
BRANCH  21  24
ATOM     24  C   UNL A   1      41.574  20.815  26.599  1.00  0.00     0.039 A 
ATOM     25  C   UNL A   1      42.011  21.792  25.702  1.00  0.00     0.014 A 
ATOM     26  C   UNL A   1      41.559  21.078  27.972  1.00  0.00     0.014 A 
ATOM     27  C   UNL A   1      42.406  23.045  26.176  1.00  0.00     0.010 A 
ATOM     28  C   UNL A   1      41.920  22.346  28.442  1.00  0.00     0.010 A 
ATOM     29  C   UNL A   1      42.349  23.342  27.550  1.00  0.00    -0.014 A 
BRANCH  29  30
ATOM     30  C   UNL A   1      42.705  24.704  28.033  1.00  0.00     0.031 A 
ATOM     31  C   UNL A   1      44.137  25.097  28.270  1.00  0.00     0.074 A 
ATOM     32  C   UNL A   1      41.723  25.595  28.274  1.00  0.00     0.049 A 
ATOM     33  N   UNL A   1      44.625  26.251  28.654  1.00  0.00    -0.248 NA
ATOM     34  C   UNL A   1      45.151  24.053  28.065  1.00  0.00     0.031 C 
ATOM     35  C   UNL A   1      40.292  25.329  28.125  1.00  0.00     0.029 A 
ATOM     36  N   UNL A   1      41.778  26.901  28.694  1.00  0.00    -0.354 N 
ATOM     37  C   UNL A   1      46.001  26.074  28.736  1.00  0.00     0.074 A 
ATOM     38  C   UNL A   1      46.263  24.686  28.413  1.00  0.00     0.031 C 
ATOM     39  C   UNL A   1      39.606  26.443  28.422  1.00  0.00     0.029 A 
ATOM     40  C   UNL A   1      40.543  27.492  28.815  1.00  0.00     0.049 A 
ATOM     41  H   UNL A   1      42.621  27.370  28.890  1.00  0.00     0.167 HD
ATOM     42  C   UNL A   1      46.959  26.987  29.037  1.00  0.00     0.037 A 
ATOM     43  C   UNL A   1      40.199  28.737  29.200  1.00  0.00     0.037 A 
ATOM     44  C   UNL A   1      46.695  28.366  29.362  1.00  0.00     0.049 A 
ATOM     45  C   UNL A   1      41.276  29.725  29.549  1.00  0.00     0.074 A 
ATOM     46  C   UNL A   1      47.601  29.379  29.627  1.00  0.00     0.029 A 
ATOM     47  N   UNL A   1      45.431  28.924  29.485  1.00  0.00    -0.354 N 
ATOM     48  N   UNL A   1      42.577  29.567  29.543  1.00  0.00    -0.248 NA
ATOM     49  C   UNL A   1      40.838  31.070  29.950  1.00  0.00     0.031 C 
ATOM     50  C   UNL A   1      46.885  30.531  29.969  1.00  0.00     0.029 A 
ATOM     51  C   UNL A   1      45.532  30.256  29.856  1.00  0.00     0.049 A 
ATOM     52  H   UNL A   1      44.585  28.444  29.332  1.00  0.00     0.167 HD
ATOM     53  C   UNL A   1      43.113  30.793  29.915  1.00  0.00     0.074 A 
ATOM     54  C   UNL A   1      41.995  31.691  30.122  1.00  0.00     0.031 C 
ATOM     55  C   UNL A   1      44.414  31.143  30.068  1.00  0.00     0.037 A 
BRANCH  42  56
ATOM     56  C   UNL A   1      48.386  26.513  29.042  1.00  0.00     0.057 A 
ATOM     57  C   UNL A   1      48.989  25.982  30.191  1.00  0.00     0.134 A 
ATOM     58  C   UNL A   1      49.164  26.564  27.877  1.00  0.00     0.134 A 
ATOM     59  F   UNL A   1      48.306  25.905  31.343  1.00  0.00    -0.206 F 
ATOM     60  C   UNL A   1      50.322  25.561  30.193  1.00  0.00     0.040 A 
ATOM     61  C   UNL A   1      50.486  26.118  27.857  1.00  0.00     0.040 A 
ATOM     62  F   UNL A   1      48.649  27.046  26.736  1.00  0.00    -0.206 F 
ATOM     63  C   UNL A   1      51.073  25.625  29.021  1.00  0.00     0.006 A 
ENDBRANCH  42  56
BRANCH  43  64
ATOM     64  C   UNL A   1      38.765  29.119  29.254  1.00  0.00     0.057 A 
ATOM     65  C   UNL A   1      38.031  29.019  30.442  1.00  0.00     0.134 A 
ATOM     66  C   UNL A   1      38.099  29.609  28.124  1.00  0.00     0.134 A 
ATOM     67  F   UNL A   1      38.608  28.540  31.553  1.00  0.00    -0.206 F 
ATOM     68  C   UNL A   1      36.684  29.380  30.502  1.00  0.00     0.040 A 
ATOM     69  C   UNL A   1      36.760  30.000  28.175  1.00  0.00     0.040 A 
ATOM     70  F   UNL A   1      38.749  29.738  26.957  1.00  0.00    -0.206 F 
ATOM     71  C   UNL A   1      36.047  29.880  29.366  1.00  0.00     0.006 A 
ENDBRANCH  43  64
BRANCH  55  72
ATOM     72  C   UNL A   1      44.704  32.564  30.460  1.00  0.00     0.057 A 
ATOM     73  C   UNL A   1      44.793  32.963  31.800  1.00  0.00     0.134 A 
ATOM     74  C   UNL A   1      44.928  33.542  29.481  1.00  0.00     0.134 A 
ATOM     75  F   UNL A   1      44.577  32.082  32.788  1.00  0.00    -0.206 F 
ATOM     76  C   UNL A   1      45.069  34.286  32.152  1.00  0.00     0.040 A 
ATOM     77  C   UNL A   1      45.235  34.861  29.821  1.00  0.00     0.040 A 
ATOM     78  F   UNL A   1      44.866  33.230  28.178  1.00  0.00    -0.206 F 
ATOM     79  C   UNL A   1      45.298  35.238  31.161  1.00  0.00     0.006 A 
ENDBRANCH  55  72
ENDBRANCH  29  30
ENDBRANCH  21  24
ENDBRANCH  19  20
ENDBRANCH   1  19
TORSDOF 12
ENDMDL
MODEL 3
REMARK VINA RESULT:     -11.7      5.583      9.736
REMARK SMILES CC(C)=CC[C@@]1(C(=O)NCCCNC(=O)c2ccc(-c3c4nc(c(-c5c(F)cccc5F)c5ccc([nH]5)c(-c5c(F)cccc5F)c5nc(c(-c6c(F)cccc6F)c6ccc3[nH]6)C=C5)C=C4)cc2)CCC[C@H](C)C1
REMARK SMILES IDX 11 1 10 2 9 3 7 4 8 5 6 7 70 8 75 9 71 10 73 11 72 12 74 13
REMARK SMILES IDX 5 14 4 15 1 16 2 17 3 18 12 19 13 20 14 21 15 23 16 24 17 25
REMARK SMILES IDX 69 26 18 27 68 28 19 29 20 30 21 31 62 32 22 33 67 34 61 35
REMARK SMILES IDX 63 36 23 37 66 38 60 39 59 40 24 42 50 43 33 44 49 45 34 46
REMARK SMILES IDX 37 47 48 48 64 49 35 50 36 51 47 53 65 54 38 55 25 56 26 57
REMARK SMILES IDX 31 58 27 59 28 60 30 61 32 62 29 63 51 64 52 65 57 66 53 67
REMARK SMILES IDX 54 68 56 69 58 70 55 71 39 72 40 73 45 74 41 75 42 76 44 77
REMARK SMILES IDX 46 78 43 79
REMARK H PARENT 9 6 13 22 63 41 37 52
REMARK Flexibility Score: inf
ROOT
ATOM      1  C   UNL A   1      37.648  19.619  24.992  1.00  0.00     0.042 C 
ENDROOT
BRANCH   1   2
ATOM      2  C   UNL A   1      36.466  20.595  24.874  1.00  0.00     0.117 C 
BRANCH   2   3
ATOM      3  N   UNL A   1      35.821  21.119  26.078  1.00  0.00    -0.356 N 
ATOM      4  C   UNL A   1      34.520  21.376  26.448  1.00  0.00     0.226 C 
ATOM      5  O   UNL A   1      34.315  21.602  27.645  1.00  0.00    -0.274 OA
ATOM      6  H   UNL A   1      36.466  21.338  26.789  1.00  0.00     0.163 HD
BRANCH   4   7
ATOM      7  C   UNL A   1      33.357  21.296  25.450  1.00  0.00     0.053 C 
ATOM      8  C   UNL A   1      33.739  21.625  23.971  1.00  0.00     0.017 C 
ATOM      9  C   UNL A   1      32.453  22.476  25.927  1.00  0.00     0.020 C 
ATOM     10  C   UNL A   1      32.509  21.930  23.084  1.00  0.00     0.001 C 
ATOM     11  C   UNL A   1      31.285  22.928  25.052  1.00  0.00    -0.013 C 
ATOM     12  C   UNL A   1      31.710  23.120  23.600  1.00  0.00     0.003 C 
ATOM     13  C   UNL A   1      30.728  24.246  25.621  1.00  0.00     0.007 C 
BRANCH   7  14
ATOM     14  C   UNL A   1      32.775  19.861  25.458  1.00  0.00     0.044 C 
BRANCH  14  15
ATOM     15  C   UNL A   1      33.405  18.660  24.718  1.00  0.00    -0.027 C 
ATOM     16  C   UNL A   1      32.305  18.121  22.409  1.00  0.00     0.039 C 
ATOM     17  C   UNL A   1      33.279  17.974  23.553  1.00  0.00    -0.080 C 
ATOM     18  C   UNL A   1      34.285  16.882  23.229  1.00  0.00     0.039 C 
ENDBRANCH  14  15
ENDBRANCH   7  14
ENDBRANCH   4   7
ENDBRANCH   2   3
ENDBRANCH   1   2
BRANCH   1  19
ATOM     19  C   UNL A   1      38.892  20.025  25.767  1.00  0.00     0.118 C 
BRANCH  19  20
ATOM     20  N   UNL A   1      39.942  19.032  25.765  1.00  0.00    -0.352 N 
ATOM     21  C   UNL A   1      41.276  19.213  26.047  1.00  0.00     0.251 C 
ATOM     22  H   UNL A   1      39.670  18.114  25.535  1.00  0.00     0.163 HD
ATOM     23  O   UNL A   1      42.062  18.285  25.936  1.00  0.00    -0.269 OA
BRANCH  21  24
ATOM     24  C   UNL A   1      41.768  20.552  26.449  1.00  0.00     0.039 A 
ATOM     25  C   UNL A   1      42.149  21.443  25.444  1.00  0.00     0.014 A 
ATOM     26  C   UNL A   1      41.893  20.913  27.794  1.00  0.00     0.014 A 
ATOM     27  C   UNL A   1      42.628  22.710  25.784  1.00  0.00     0.010 A 
ATOM     28  C   UNL A   1      42.339  22.196  28.131  1.00  0.00     0.010 A 
ATOM     29  C   UNL A   1      42.712  23.108  27.130  1.00  0.00    -0.014 A 
BRANCH  29  30
ATOM     30  C   UNL A   1      43.157  24.485  27.474  1.00  0.00     0.031 A 
ATOM     31  C   UNL A   1      42.172  25.543  27.888  1.00  0.00     0.074 A 
ATOM     32  C   UNL A   1      44.468  24.792  27.400  1.00  0.00     0.049 A 
ATOM     33  N   UNL A   1      42.393  26.781  28.256  1.00  0.00    -0.248 NA
ATOM     34  C   UNL A   1      40.751  25.165  27.870  1.00  0.00     0.031 C 
ATOM     35  C   UNL A   1      45.522  23.872  26.973  1.00  0.00     0.029 A 
ATOM     36  N   UNL A   1      45.135  25.958  27.680  1.00  0.00    -0.354 N 
ATOM     37  C   UNL A   1      41.142  27.331  28.513  1.00  0.00     0.074 A 
ATOM     38  C   UNL A   1      40.165  26.305  28.209  1.00  0.00     0.031 C 
ATOM     39  C   UNL A   1      46.707  24.499  27.045  1.00  0.00     0.029 A 
ATOM     40  C   UNL A   1      46.494  25.873  27.489  1.00  0.00     0.049 A 
ATOM     41  H   UNL A   1      44.685  26.777  27.988  1.00  0.00     0.167 HD
ATOM     42  C   UNL A   1      40.837  28.569  28.977  1.00  0.00     0.037 A 
ATOM     43  C   UNL A   1      47.462  26.796  27.651  1.00  0.00     0.037 A 
ATOM     44  C   UNL A   1      41.812  29.588  29.276  1.00  0.00     0.049 A 
ATOM     45  C   UNL A   1      47.099  28.168  28.146  1.00  0.00     0.074 A 
ATOM     46  C   UNL A   1      41.604  30.853  29.800  1.00  0.00     0.029 A 
ATOM     47  N   UNL A   1      43.177  29.469  29.060  1.00  0.00    -0.354 N 
ATOM     48  N   UNL A   1      45.921  28.648  28.464  1.00  0.00    -0.248 NA
ATOM     49  C   UNL A   1      48.201  29.126  28.314  1.00  0.00     0.031 C 
ATOM     50  C   UNL A   1      42.835  31.518  29.844  1.00  0.00     0.029 A 
ATOM     51  C   UNL A   1      43.819  30.647  29.407  1.00  0.00     0.049 A 
ATOM     52  H   UNL A   1      43.624  28.664  28.709  1.00  0.00     0.167 HD
ATOM     53  C   UNL A   1      46.142  29.951  28.890  1.00  0.00     0.074 A 
ATOM     54  C   UNL A   1      47.569  30.181  28.806  1.00  0.00     0.031 C 
ATOM     55  C   UNL A   1      45.241  30.872  29.314  1.00  0.00     0.037 A 
BRANCH  42  56
ATOM     56  C   UNL A   1      39.382  28.892  29.175  1.00  0.00     0.057 A 
ATOM     57  C   UNL A   1      38.736  28.691  30.403  1.00  0.00     0.134 A 
ATOM     58  C   UNL A   1      38.620  29.435  28.131  1.00  0.00     0.134 A 
ATOM     59  F   UNL A   1      39.403  28.172  31.445  1.00  0.00    -0.206 F 
ATOM     60  C   UNL A   1      37.379  28.977  30.573  1.00  0.00     0.040 A 
ATOM     61  C   UNL A   1      37.271  29.754  28.299  1.00  0.00     0.040 A 
ATOM     62  F   UNL A   1      39.174  29.668  26.933  1.00  0.00    -0.206 F 
ATOM     63  C   UNL A   1      36.644  29.514  29.519  1.00  0.00     0.006 A 
ENDBRANCH  42  56
BRANCH  43  64
ATOM     64  C   UNL A   1      48.874  26.439  27.359  1.00  0.00     0.057 A 
ATOM     65  C   UNL A   1      49.705  25.898  28.347  1.00  0.00     0.134 A 
ATOM     66  C   UNL A   1      49.421  26.615  26.082  1.00  0.00     0.134 A 
ATOM     67  F   UNL A   1      49.245  25.723  29.594  1.00  0.00    -0.206 F 
ATOM     68  C   UNL A   1      51.032  25.556  28.080  1.00  0.00     0.040 A 
ATOM     69  C   UNL A   1      50.737  26.252  25.793  1.00  0.00     0.040 A 
ATOM     70  F   UNL A   1      48.674  27.121  25.089  1.00  0.00    -0.206 F 
ATOM     71  C   UNL A   1      51.549  25.727  26.796  1.00  0.00     0.006 A 
ENDBRANCH  43  64
BRANCH  55  72
ATOM     72  C   UNL A   1      45.775  32.210  29.742  1.00  0.00     0.057 A 
ATOM     73  C   UNL A   1      46.196  32.457  31.055  1.00  0.00     0.134 A 
ATOM     74  C   UNL A   1      45.897  33.258  28.819  1.00  0.00     0.134 A 
ATOM     75  F   UNL A   1      46.094  31.504  31.993  1.00  0.00    -0.206 F 
ATOM     76  C   UNL A   1      46.696  33.703  31.441  1.00  0.00     0.040 A 
ATOM     77  C   UNL A   1      46.424  34.498  29.185  1.00  0.00     0.040 A 
ATOM     78  F   UNL A   1      45.521  33.090  27.543  1.00  0.00    -0.206 F 
ATOM     79  C   UNL A   1      46.819  34.726  30.502  1.00  0.00     0.006 A 
ENDBRANCH  55  72
ENDBRANCH  29  30
ENDBRANCH  21  24
ENDBRANCH  19  20
ENDBRANCH   1  19
TORSDOF 12
ENDMDL
