MODEL 1
REMARK VINA RESULT:     -10.8      0.000      0.000
REMARK SMILES C[C@H]1N=c2ccc(C(=O)NCCCNC(=O)c3ccc(-c4c5nc(c(-c6c(F)cccc6F)c6ccc([nH]6)c(-c6c(F)cccc6F)c6nc(c(-c7c(F)cccc7F)c7ccc4[nH]7)C=C6)C=C5)cc3)cc2=N1
REMARK SMILES IDX 13 1 12 2 11 3 10 4 8 5 9 6 7 8 1 9 2 10 3 11 73 12 4 13
REMARK SMILES IDX 72 14 5 15 71 16 6 17 14 18 15 19 16 21 17 22 18 23 70 24
REMARK SMILES IDX 19 25 69 26 20 27 21 28 22 29 63 30 23 31 68 32 62 33 64 34
REMARK SMILES IDX 24 35 67 36 61 37 60 38 25 40 51 41 34 42 50 43 35 44 38 45
REMARK SMILES IDX 49 46 65 47 36 48 37 49 48 51 66 52 39 53 26 54 27 55 32 56
REMARK SMILES IDX 28 57 29 58 31 59 33 60 30 61 52 62 53 63 58 64 54 65 55 66
REMARK SMILES IDX 57 67 59 68 56 69 40 70 41 71 46 72 42 73 43 74 45 75 47 76
REMARK SMILES IDX 44 77
REMARK H PARENT 10 7 14 20 64 39 38 50
REMARK Flexibility Score: inf
ROOT
ATOM      1  C   UNL A   1      32.919  35.102  29.726  1.00  0.00     0.118 C 
ENDROOT
BRANCH   1   2
ATOM      2  C   UNL A   1      33.815  35.881  28.766  1.00  0.00     0.042 C 
BRANCH   2   3
ATOM      3  C   UNL A   1      34.584  34.977  27.805  1.00  0.00     0.118 C 
BRANCH   3   4
ATOM      4  N   UNL A   1      35.856  34.579  28.379  1.00  0.00    -0.352 N 
ATOM      5  C   UNL A   1      36.462  33.381  28.583  1.00  0.00     0.251 C 
ATOM      6  O   UNL A   1      37.559  33.418  29.147  1.00  0.00    -0.269 OA
ATOM      7  H   UNL A   1      36.396  35.343  28.687  1.00  0.00     0.163 HD
BRANCH   5   8
ATOM      8  C   UNL A   1      35.893  32.069  28.113  1.00  0.00     0.042 A 
ATOM      9  C   UNL A   1      32.202  28.883  25.585  1.00  0.00     0.059 C 
ATOM     10  C   UNL A   1      32.599  29.175  27.025  1.00  0.00     0.218 C 
ATOM     11  N   UNL A   1      33.934  28.565  27.256  1.00  0.00    -0.257 NA
ATOM     12  N   UNL A   1      32.654  30.645  27.240  1.00  0.00    -0.257 NA
ATOM     13  C   UNL A   1      34.670  29.594  27.488  1.00  0.00     0.085 A 
ATOM     14  C   UNL A   1      33.890  30.844  27.534  1.00  0.00     0.086 A 
ATOM     15  C   UNL A   1      36.122  29.657  27.625  1.00  0.00     0.031 A 
ATOM     16  C   UNL A   1      34.559  32.091  27.912  1.00  0.00     0.044 A 
ATOM     17  C   UNL A   1      36.666  30.862  27.845  1.00  0.00     0.016 A 
ENDBRANCH   5   8
ENDBRANCH   3   4
ENDBRANCH   2   3
ENDBRANCH   1   2
BRANCH   1  18
ATOM     18  N   UNL A   1      32.376  35.949  30.782  1.00  0.00    -0.352 N 
ATOM     19  C   UNL A   1      32.645  35.979  32.130  1.00  0.00     0.251 C 
ATOM     20  H   UNL A   1      31.708  36.607  30.480  1.00  0.00     0.163 HD
ATOM     21  O   UNL A   1      31.923  36.629  32.876  1.00  0.00    -0.269 OA
BRANCH  19  22
ATOM     22  C   UNL A   1      33.786  35.216  32.685  1.00  0.00     0.039 A 
ATOM     23  C   UNL A   1      35.062  35.774  32.737  1.00  0.00     0.014 A 
ATOM     24  C   UNL A   1      33.571  33.924  33.180  1.00  0.00     0.014 A 
ATOM     25  C   UNL A   1      36.145  34.984  33.099  1.00  0.00     0.010 A 
ATOM     26  C   UNL A   1      34.650  33.168  33.650  1.00  0.00     0.010 A 
ATOM     27  C   UNL A   1      35.956  33.672  33.564  1.00  0.00    -0.014 A 
BRANCH  27  28
ATOM     28  C   UNL A   1      37.149  32.873  33.950  1.00  0.00     0.031 A 
ATOM     29  C   UNL A   1      37.728  31.839  33.021  1.00  0.00     0.074 A 
ATOM     30  C   UNL A   1      37.766  33.146  35.117  1.00  0.00     0.049 A 
ATOM     31  N   UNL A   1      38.823  31.132  33.152  1.00  0.00    -0.248 NA
ATOM     32  C   UNL A   1      36.981  31.555  31.786  1.00  0.00     0.031 C 
ATOM     33  C   UNL A   1      37.297  34.116  36.112  1.00  0.00     0.029 A 
ATOM     34  N   UNL A   1      38.937  32.670  35.648  1.00  0.00    -0.354 N 
ATOM     35  C   UNL A   1      38.890  30.316  32.029  1.00  0.00     0.074 A 
ATOM     36  C   UNL A   1      37.703  30.584  31.246  1.00  0.00     0.031 C 
ATOM     37  C   UNL A   1      38.205  34.214  37.093  1.00  0.00     0.029 A 
ATOM     38  C   UNL A   1      39.284  33.270  36.835  1.00  0.00     0.049 A 
ATOM     39  H   UNL A   1      39.476  31.965  35.221  1.00  0.00     0.167 HD
ATOM     40  C   UNL A   1      39.857  29.434  31.674  1.00  0.00     0.037 A 
ATOM     41  C   UNL A   1      40.351  33.076  37.631  1.00  0.00     0.037 A 
ATOM     42  C   UNL A   1      41.042  29.172  32.452  1.00  0.00     0.049 A 
ATOM     43  C   UNL A   1      41.386  32.065  37.229  1.00  0.00     0.074 A 
ATOM     44  C   UNL A   1      42.093  28.317  32.165  1.00  0.00     0.029 A 
ATOM     45  N   UNL A   1      41.328  29.755  33.678  1.00  0.00    -0.354 N 
ATOM     46  N   UNL A   1      41.453  31.333  36.143  1.00  0.00    -0.248 NA
ATOM     47  C   UNL A   1      42.494  31.853  38.170  1.00  0.00     0.031 C 
ATOM     48  C   UNL A   1      42.986  28.342  33.242  1.00  0.00     0.029 A 
ATOM     49  C   UNL A   1      42.524  29.257  34.173  1.00  0.00     0.049 A 
ATOM     50  H   UNL A   1      40.764  30.423  34.131  1.00  0.00     0.167 HD
ATOM     51  C   UNL A   1      42.619  30.589  36.262  1.00  0.00     0.074 A 
ATOM     52  C   UNL A   1      43.244  30.987  37.507  1.00  0.00     0.031 C 
ATOM     53  C   UNL A   1      43.126  29.653  35.420  1.00  0.00     0.037 A 
BRANCH  40  54
ATOM     54  C   UNL A   1      39.661  28.669  30.394  1.00  0.00     0.057 A 
ATOM     55  C   UNL A   1      40.130  29.183  29.178  1.00  0.00     0.134 A 
ATOM     56  C   UNL A   1      38.991  27.439  30.357  1.00  0.00     0.134 A 
ATOM     57  F   UNL A   1      40.773  30.359  29.137  1.00  0.00    -0.206 F 
ATOM     58  C   UNL A   1      39.941  28.501  27.974  1.00  0.00     0.040 A 
ATOM     59  C   UNL A   1      38.822  26.733  29.163  1.00  0.00     0.040 A 
ATOM     60  F   UNL A   1      38.527  26.881  31.486  1.00  0.00    -0.206 F 
ATOM     61  C   UNL A   1      39.292  27.269  27.965  1.00  0.00     0.006 A 
ENDBRANCH  40  54
BRANCH  41  62
ATOM     62  C   UNL A   1      40.491  33.841  38.898  1.00  0.00     0.057 A 
ATOM     63  C   UNL A   1      41.245  35.020  38.955  1.00  0.00     0.134 A 
ATOM     64  C   UNL A   1      39.843  33.434  40.069  1.00  0.00     0.134 A 
ATOM     65  F   UNL A   1      41.897  35.461  37.868  1.00  0.00    -0.206 F 
ATOM     66  C   UNL A   1      41.351  35.766  40.128  1.00  0.00     0.040 A 
ATOM     67  C   UNL A   1      39.911  34.189  41.242  1.00  0.00     0.040 A 
ATOM     68  F   UNL A   1      39.091  32.324  40.075  1.00  0.00    -0.206 F 
ATOM     69  C   UNL A   1      40.670  35.357  41.273  1.00  0.00     0.006 A 
ENDBRANCH  41  62
BRANCH  53  70
ATOM     70  C   UNL A   1      44.433  29.028  35.820  1.00  0.00     0.057 A 
ATOM     71  C   UNL A   1      44.457  27.853  36.582  1.00  0.00     0.134 A 
ATOM     72  C   UNL A   1      45.666  29.569  35.429  1.00  0.00     0.134 A 
ATOM     73  F   UNL A   1      43.316  27.286  36.998  1.00  0.00    -0.206 F 
ATOM     74  C   UNL A   1      45.658  27.231  36.926  1.00  0.00     0.040 A 
ATOM     75  C   UNL A   1      46.872  28.938  35.738  1.00  0.00     0.040 A 
ATOM     76  F   UNL A   1      45.713  30.684  34.685  1.00  0.00    -0.206 F 
ATOM     77  C   UNL A   1      46.870  27.765  36.491  1.00  0.00     0.006 A 
ENDBRANCH  53  70
ENDBRANCH  27  28
ENDBRANCH  19  22
ENDBRANCH   1  18
TORSDOF 10
ENDMDL
MODEL 2
REMARK VINA RESULT:     -10.8      2.453      7.405
REMARK SMILES C[C@H]1N=c2ccc(C(=O)NCCCNC(=O)c3ccc(-c4c5nc(c(-c6c(F)cccc6F)c6ccc([nH]6)c(-c6c(F)cccc6F)c6nc(c(-c7c(F)cccc7F)c7ccc4[nH]7)C=C6)C=C5)cc3)cc2=N1
REMARK SMILES IDX 13 1 12 2 11 3 10 4 8 5 9 6 7 8 1 9 2 10 3 11 73 12 4 13
REMARK SMILES IDX 72 14 5 15 71 16 6 17 14 18 15 19 16 21 17 22 18 23 70 24
REMARK SMILES IDX 19 25 69 26 20 27 21 28 22 29 63 30 23 31 68 32 62 33 64 34
REMARK SMILES IDX 24 35 67 36 61 37 60 38 25 40 51 41 34 42 50 43 35 44 38 45
REMARK SMILES IDX 49 46 65 47 36 48 37 49 48 51 66 52 39 53 26 54 27 55 32 56
REMARK SMILES IDX 28 57 29 58 31 59 33 60 30 61 52 62 53 63 58 64 54 65 55 66
REMARK SMILES IDX 57 67 59 68 56 69 40 70 41 71 46 72 42 73 43 74 45 75 47 76
REMARK SMILES IDX 44 77
REMARK H PARENT 10 7 14 20 64 39 38 50
REMARK Flexibility Score: inf
ROOT
ATOM      1  C   UNL A   1      32.598  32.808  27.252  1.00  0.00     0.118 C 
ENDROOT
BRANCH   1   2
ATOM      2  C   UNL A   1      31.403  32.212  26.513  1.00  0.00     0.042 C 
BRANCH   2   3
ATOM      3  C   UNL A   1      31.556  30.717  26.240  1.00  0.00     0.118 C 
BRANCH   3   4
ATOM      4  N   UNL A   1      31.028  30.376  24.933  1.00  0.00    -0.352 N 
ATOM      5  C   UNL A   1      31.067  29.256  24.165  1.00  0.00     0.251 C 
ATOM      6  O   UNL A   1      30.525  29.338  23.059  1.00  0.00    -0.269 OA
ATOM      7  H   UNL A   1      30.535  31.117  24.510  1.00  0.00     0.163 HD
BRANCH   5   8
ATOM      8  C   UNL A   1      31.673  27.955  24.621  1.00  0.00     0.042 A 
ATOM      9  C   UNL A   1      31.525  22.695  26.193  1.00  0.00     0.059 C 
ATOM     10  C   UNL A   1      31.778  24.037  26.866  1.00  0.00     0.218 C 
ATOM     11  N   UNL A   1      33.095  24.537  26.392  1.00  0.00    -0.257 NA
ATOM     12  N   UNL A   1      30.697  24.990  26.500  1.00  0.00    -0.257 NA
ATOM     13  C   UNL A   1      32.770  25.607  25.757  1.00  0.00     0.085 A 
ATOM     14  C   UNL A   1      31.333  25.913  25.868  1.00  0.00     0.086 A 
ATOM     15  C   UNL A   1      33.615  26.457  24.923  1.00  0.00     0.031 A 
ATOM     16  C   UNL A   1      30.821  27.166  25.307  1.00  0.00     0.044 A 
ATOM     17  C   UNL A   1      33.035  27.517  24.342  1.00  0.00     0.016 A 
ENDBRANCH   5   8
ENDBRANCH   3   4
ENDBRANCH   2   3
ENDBRANCH   1   2
BRANCH   1  18
ATOM     18  N   UNL A   1      32.380  34.201  27.620  1.00  0.00    -0.352 N 
ATOM     19  C   UNL A   1      32.976  34.974  28.590  1.00  0.00     0.251 C 
ATOM     20  H   UNL A   1      31.695  34.666  27.087  1.00  0.00     0.163 HD
ATOM     21  O   UNL A   1      32.498  36.065  28.872  1.00  0.00    -0.269 OA
BRANCH  19  22
ATOM     22  C   UNL A   1      34.176  34.485  29.307  1.00  0.00     0.039 A 
ATOM     23  C   UNL A   1      35.446  34.621  28.750  1.00  0.00     0.014 A 
ATOM     24  C   UNL A   1      34.028  33.895  30.567  1.00  0.00     0.014 A 
ATOM     25  C   UNL A   1      36.533  34.005  29.355  1.00  0.00     0.010 A 
ATOM     26  C   UNL A   1      35.145  33.373  31.229  1.00  0.00     0.010 A 
ATOM     27  C   UNL A   1      36.401  33.375  30.604  1.00  0.00    -0.014 A 
BRANCH  27  28
ATOM     28  C   UNL A   1      37.600  32.741  31.214  1.00  0.00     0.031 A 
ATOM     29  C   UNL A   1      38.110  33.177  32.562  1.00  0.00     0.074 A 
ATOM     30  C   UNL A   1      38.180  31.703  30.581  1.00  0.00     0.049 A 
ATOM     31  N   UNL A   1      39.072  32.661  33.287  1.00  0.00    -0.248 NA
ATOM     32  C   UNL A   1      37.463  34.346  33.178  1.00  0.00     0.031 C 
ATOM     33  C   UNL A   1      37.788  31.193  29.263  1.00  0.00     0.029 A 
ATOM     34  N   UNL A   1      39.192  30.863  30.972  1.00  0.00    -0.354 N 
ATOM     35  C   UNL A   1      39.153  33.446  34.431  1.00  0.00     0.074 A 
ATOM     36  C   UNL A   1      38.171  34.499  34.287  1.00  0.00     0.031 C 
ATOM     37  C   UNL A   1      38.499  30.090  28.989  1.00  0.00     0.029 A 
ATOM     38  C   UNL A   1      39.441  29.852  30.075  1.00  0.00     0.049 A 
ATOM     39  H   UNL A   1      39.691  30.975  31.813  1.00  0.00     0.167 HD
ATOM     40  C   UNL A   1      39.961  33.297  35.510  1.00  0.00     0.037 A 
ATOM     41  C   UNL A   1      40.335  28.848  30.119  1.00  0.00     0.037 A 
ATOM     42  C   UNL A   1      40.936  32.244  35.655  1.00  0.00     0.049 A 
ATOM     43  C   UNL A   1      41.241  28.731  31.311  1.00  0.00     0.074 A 
ATOM     44  C   UNL A   1      41.782  31.991  36.720  1.00  0.00     0.029 A 
ATOM     45  N   UNL A   1      41.200  31.274  34.698  1.00  0.00    -0.354 N 
ATOM     46  N   UNL A   1      41.275  29.456  32.402  1.00  0.00    -0.248 NA
ATOM     47  C   UNL A   1      42.237  27.652  31.272  1.00  0.00     0.031 C 
ATOM     48  C   UNL A   1      42.597  30.903  36.386  1.00  0.00     0.029 A 
ATOM     49  C   UNL A   1      42.217  30.440  35.137  1.00  0.00     0.049 A 
ATOM     50  H   UNL A   1      40.736  31.192  33.834  1.00  0.00     0.167 HD
ATOM     51  C   UNL A   1      42.281  28.911  33.187  1.00  0.00     0.074 A 
ATOM     52  C   UNL A   1      42.806  27.772  32.461  1.00  0.00     0.031 C 
ATOM     53  C   UNL A   1      42.738  29.318  34.398  1.00  0.00     0.037 A 
BRANCH  40  54
ATOM     54  C   UNL A   1      39.839  34.312  36.612  1.00  0.00     0.057 A 
ATOM     55  C   UNL A   1      40.573  35.505  36.567  1.00  0.00     0.134 A 
ATOM     56  C   UNL A   1      39.018  34.104  37.729  1.00  0.00     0.134 A 
ATOM     57  F   UNL A   1      41.385  35.767  35.533  1.00  0.00    -0.206 F 
ATOM     58  C   UNL A   1      40.492  36.452  37.590  1.00  0.00     0.040 A 
ATOM     59  C   UNL A   1      38.907  35.058  38.744  1.00  0.00     0.040 A 
ATOM     60  F   UNL A   1      38.277  32.990  37.831  1.00  0.00    -0.206 F 
ATOM     61  C   UNL A   1      39.652  36.234  38.678  1.00  0.00     0.006 A 
ENDBRANCH  40  54
BRANCH  41  62
ATOM     62  C   UNL A   1      40.432  27.879  28.996  1.00  0.00     0.057 A 
ATOM     63  C   UNL A   1      39.689  26.692  28.993  1.00  0.00     0.134 A 
ATOM     64  C   UNL A   1      41.237  28.137  27.881  1.00  0.00     0.134 A 
ATOM     65  F   UNL A   1      38.903  26.382  30.036  1.00  0.00    -0.206 F 
ATOM     66  C   UNL A   1      39.744  25.796  27.926  1.00  0.00     0.040 A 
ATOM     67  C   UNL A   1      41.276  27.266  26.790  1.00  0.00     0.040 A 
ATOM     68  F   UNL A   1      41.959  29.266  27.814  1.00  0.00    -0.206 F 
ATOM     69  C   UNL A   1      40.529  26.090  26.813  1.00  0.00     0.006 A 
ENDBRANCH  41  62
BRANCH  53  70
ATOM     70  C   UNL A   1      43.840  28.500  35.010  1.00  0.00     0.057 A 
ATOM     71  C   UNL A   1      45.181  28.836  34.793  1.00  0.00     0.134 A 
ATOM     72  C   UNL A   1      43.576  27.399  35.837  1.00  0.00     0.134 A 
ATOM     73  F   UNL A   1      45.507  29.871  34.005  1.00  0.00    -0.206 F 
ATOM     74  C   UNL A   1      46.219  28.117  35.388  1.00  0.00     0.040 A 
ATOM     75  C   UNL A   1      44.604  26.694  36.465  1.00  0.00     0.040 A 
ATOM     76  F   UNL A   1      42.312  27.033  36.099  1.00  0.00    -0.206 F 
ATOM     77  C   UNL A   1      45.931  27.052  36.239  1.00  0.00     0.006 A 
ENDBRANCH  53  70
ENDBRANCH  27  28
ENDBRANCH  19  22
ENDBRANCH   1  18
TORSDOF 10
ENDMDL
MODEL 3
REMARK VINA RESULT:     -10.8      3.130      8.073
REMARK SMILES C[C@H]1N=c2ccc(C(=O)NCCCNC(=O)c3ccc(-c4c5nc(c(-c6c(F)cccc6F)c6ccc([nH]6)c(-c6c(F)cccc6F)c6nc(c(-c7c(F)cccc7F)c7ccc4[nH]7)C=C6)C=C5)cc3)cc2=N1
REMARK SMILES IDX 13 1 12 2 11 3 10 4 8 5 9 6 7 8 1 9 2 10 3 11 73 12 4 13
REMARK SMILES IDX 72 14 5 15 71 16 6 17 14 18 15 19 16 21 17 22 18 23 70 24
REMARK SMILES IDX 19 25 69 26 20 27 21 28 22 29 63 30 23 31 68 32 62 33 64 34
REMARK SMILES IDX 24 35 67 36 61 37 60 38 25 40 51 41 34 42 50 43 35 44 38 45
REMARK SMILES IDX 49 46 65 47 36 48 37 49 48 51 66 52 39 53 26 54 27 55 32 56
REMARK SMILES IDX 28 57 29 58 31 59 33 60 30 61 52 62 53 63 58 64 54 65 55 66
REMARK SMILES IDX 57 67 59 68 56 69 40 70 41 71 46 72 42 73 43 74 45 75 47 76
REMARK SMILES IDX 44 77
REMARK H PARENT 10 7 14 20 64 39 38 50
REMARK Flexibility Score: inf
ROOT
ATOM      1  C   UNL A   1      32.044  31.600  26.833  1.00  0.00     0.118 C 
ENDROOT
BRANCH   1   2
ATOM      2  C   UNL A   1      31.022  31.274  25.749  1.00  0.00     0.042 C 
BRANCH   2   3
ATOM      3  C   UNL A   1      31.329  29.972  25.013  1.00  0.00     0.118 C 
BRANCH   3   4
ATOM      4  N   UNL A   1      30.631  29.921  23.742  1.00  0.00    -0.352 N 
ATOM      5  C   UNL A   1      30.401  28.938  22.833  1.00  0.00     0.251 C 
ATOM      6  O   UNL A   1      29.782  29.272  21.819  1.00  0.00    -0.269 OA
ATOM      7  H   UNL A   1      30.239  30.787  23.482  1.00  0.00     0.163 HD
BRANCH   5   8
ATOM      8  C   UNL A   1      30.807  27.503  23.038  1.00  0.00     0.042 A 
ATOM      9  C   UNL A   1      34.374  23.330  23.188  1.00  0.00     0.059 C 
ATOM     10  C   UNL A   1      33.239  23.773  22.276  1.00  0.00     0.218 C 
ATOM     11  N   UNL A   1      31.964  23.565  23.010  1.00  0.00    -0.257 NA
ATOM     12  N   UNL A   1      33.411  25.209  21.928  1.00  0.00    -0.257 NA
ATOM     13  C   UNL A   1      31.518  24.765  23.132  1.00  0.00     0.085 A 
ATOM     14  C   UNL A   1      32.360  25.752  22.432  1.00  0.00     0.086 A 
ATOM     15  C   UNL A   1      30.376  25.232  23.912  1.00  0.00     0.031 A 
ATOM     16  C   UNL A   1      31.923  27.149  22.369  1.00  0.00     0.044 A 
ATOM     17  C   UNL A   1      30.121  26.548  23.899  1.00  0.00     0.016 A 
ENDBRANCH   5   8
ENDBRANCH   3   4
ENDBRANCH   2   3
ENDBRANCH   1   2
BRANCH   1  18
ATOM     18  N   UNL A   1      32.080  33.024  27.147  1.00  0.00    -0.352 N 
ATOM     19  C   UNL A   1      32.963  33.748  27.915  1.00  0.00     0.251 C 
ATOM     20  H   UNL A   1      31.355  33.554  26.743  1.00  0.00     0.163 HD
ATOM     21  O   UNL A   1      32.692  34.903  28.219  1.00  0.00    -0.269 OA
BRANCH  19  22
ATOM     22  C   UNL A   1      34.223  33.134  28.390  1.00  0.00     0.039 A 
ATOM     23  C   UNL A   1      34.239  31.837  28.899  1.00  0.00     0.014 A 
ATOM     24  C   UNL A   1      35.415  33.864  28.307  1.00  0.00     0.014 A 
ATOM     25  C   UNL A   1      35.392  31.345  29.495  1.00  0.00     0.010 A 
ATOM     26  C   UNL A   1      36.602  33.320  28.809  1.00  0.00     0.010 A 
ATOM     27  C   UNL A   1      36.591  32.076  29.456  1.00  0.00    -0.014 A 
BRANCH  27  28
ATOM     28  C   UNL A   1      37.801  31.498  30.101  1.00  0.00     0.031 A 
ATOM     29  C   UNL A   1      38.136  31.799  31.538  1.00  0.00     0.074 A 
ATOM     30  C   UNL A   1      38.555  30.625  29.405  1.00  0.00     0.049 A 
ATOM     31  N   UNL A   1      39.088  31.297  32.285  1.00  0.00    -0.248 NA
ATOM     32  C   UNL A   1      37.303  32.796  32.226  1.00  0.00     0.031 C 
ATOM     33  C   UNL A   1      38.342  30.260  28.001  1.00  0.00     0.029 A 
ATOM     34  N   UNL A   1      39.623  29.854  29.787  1.00  0.00    -0.354 N 
ATOM     35  C   UNL A   1      38.974  31.922  33.522  1.00  0.00     0.074 A 
ATOM     36  C   UNL A   1      37.888  32.872  33.412  1.00  0.00     0.031 C 
ATOM     37  C   UNL A   1      39.202  29.288  27.663  1.00  0.00     0.029 A 
ATOM     38  C   UNL A   1      40.068  29.008  28.801  1.00  0.00     0.049 A 
ATOM     39  H   UNL A   1      40.030  29.904  30.682  1.00  0.00     0.167 HD
ATOM     40  C   UNL A   1      39.698  31.715  34.650  1.00  0.00     0.037 A 
ATOM     41  C   UNL A   1      41.070  28.110  28.809  1.00  0.00     0.037 A 
ATOM     42  C   UNL A   1      40.776  30.764  34.759  1.00  0.00     0.049 A 
ATOM     43  C   UNL A   1      41.877  27.931  30.062  1.00  0.00     0.074 A 
ATOM     44  C   UNL A   1      41.552  30.462  35.865  1.00  0.00     0.029 A 
ATOM     45  N   UNL A   1      41.238  29.969  33.721  1.00  0.00    -0.354 N 
ATOM     46  N   UNL A   1      41.729  28.500  31.233  1.00  0.00    -0.248 NA
ATOM     47  C   UNL A   1      42.996  26.982  29.989  1.00  0.00     0.031 C 
ATOM     48  C   UNL A   1      42.518  29.524  35.482  1.00  0.00     0.029 A 
ATOM     49  C   UNL A   1      42.306  29.197  34.152  1.00  0.00     0.049 A 
ATOM     50  H   UNL A   1      40.863  29.955  32.810  1.00  0.00     0.167 HD
ATOM     51  C   UNL A   1      42.722  27.965  32.042  1.00  0.00     0.074 A 
ATOM     52  C   UNL A   1      43.442  26.999  31.236  1.00  0.00     0.031 C 
ATOM     53  C   UNL A   1      43.020  28.250  33.335  1.00  0.00     0.037 A 
BRANCH  40  54
ATOM     54  C   UNL A   1      39.360  32.551  35.853  1.00  0.00     0.057 A 
ATOM     55  C   UNL A   1      38.450  32.087  36.811  1.00  0.00     0.134 A 
ATOM     56  C   UNL A   1      39.914  33.823  36.055  1.00  0.00     0.134 A 
ATOM     57  F   UNL A   1      37.875  30.883  36.678  1.00  0.00    -0.206 F 
ATOM     58  C   UNL A   1      38.105  32.855  37.926  1.00  0.00     0.040 A 
ATOM     59  C   UNL A   1      39.599  34.588  37.181  1.00  0.00     0.040 A 
ATOM     60  F   UNL A   1      40.803  34.325  35.184  1.00  0.00    -0.206 F 
ATOM     61  C   UNL A   1      38.686  34.106  38.117  1.00  0.00     0.006 A 
ENDBRANCH  40  54
BRANCH  41  62
ATOM     62  C   UNL A   1      41.380  27.320  27.589  1.00  0.00     0.057 A 
ATOM     63  C   UNL A   1      42.226  27.823  26.592  1.00  0.00     0.134 A 
ATOM     64  C   UNL A   1      40.872  26.029  27.410  1.00  0.00     0.134 A 
ATOM     65  F   UNL A   1      42.740  29.058  26.700  1.00  0.00    -0.206 F 
ATOM     66  C   UNL A   1      42.553  27.074  25.462  1.00  0.00     0.040 A 
ATOM     67  C   UNL A   1      41.219  25.254  26.301  1.00  0.00     0.040 A 
ATOM     68  F   UNL A   1      40.072  25.482  28.337  1.00  0.00    -0.206 F 
ATOM     69  C   UNL A   1      42.060  25.779  25.322  1.00  0.00     0.006 A 
ENDBRANCH  41  62
BRANCH  53  70
ATOM     70  C   UNL A   1      44.156  27.481  33.948  1.00  0.00     0.057 A 
ATOM     71  C   UNL A   1      45.460  27.989  33.918  1.00  0.00     0.134 A 
ATOM     72  C   UNL A   1      43.957  26.252  34.593  1.00  0.00     0.134 A 
ATOM     73  F   UNL A   1      45.724  29.155  33.310  1.00  0.00    -0.206 F 
ATOM     74  C   UNL A   1      46.522  27.313  34.521  1.00  0.00     0.040 A 
ATOM     75  C   UNL A   1      45.004  25.582  35.228  1.00  0.00     0.040 A 
ATOM     76  F   UNL A   1      42.730  25.715  34.671  1.00  0.00    -0.206 F 
ATOM     77  C   UNL A   1      46.293  26.113  35.192  1.00  0.00     0.006 A 
ENDBRANCH  53  70
ENDBRANCH  27  28
ENDBRANCH  19  22
ENDBRANCH   1  18
TORSDOF 10
ENDMDL
