MODEL 1
REMARK VINA RESULT:     -14.3      0.000      0.000
REMARK SMILES O=C(Cn1nc(C(=O)NCCCNC(=O)c2ccc(-c3c4nc(c(-c5c(F)cccc5F)c5ccc([nH]5)c(-c5c(F)cccc5F)c5nc(c(-c6c(F)cccc6F)c6ccc3[nH]6)C=C5)C=C4)cc2)c2ccccc2c1=O)Nc1ccc2c(c1)C(=O)c1ccccc1C2=O
REMARK SMILES IDX 10 1 9 2 7 3 8 4 6 6 4 7 5 8 76 9 75 10 77 11 70 12 74 13
REMARK SMILES IDX 71 14 73 15 72 16 3 17 2 18 1 19 78 20 79 22 80 23 84 24
REMARK SMILES IDX 81 25 83 26 82 27 85 28 93 29 86 30 87 31 92 32 94 33 88 34
REMARK SMILES IDX 91 35 89 36 90 37 11 38 12 39 13 40 14 41 15 43 16 44 17 45
REMARK SMILES IDX 69 46 18 47 68 48 19 49 20 50 21 51 62 52 22 53 67 54 61 55
REMARK SMILES IDX 63 56 23 57 66 58 60 59 59 60 24 62 50 63 33 64 49 65 34 66
REMARK SMILES IDX 37 67 48 68 64 69 35 70 36 71 47 73 65 74 38 75 25 76 26 77
REMARK SMILES IDX 31 78 27 79 28 80 30 81 32 82 29 83 51 84 52 85 57 86 53 87
REMARK SMILES IDX 54 88 56 89 58 90 55 91 39 92 40 93 45 94 41 95 42 96 44 97
REMARK SMILES IDX 46 98 43 99
REMARK H PARENT 9 5 78 21 13 42 63 61 37 72
REMARK Flexibility Score: inf
ROOT
ATOM      1  C   UNL A   1      46.138  21.979  36.330  1.00  0.00     0.118 C 
ENDROOT
BRANCH   1   2
ATOM      2  N   UNL A   1      45.609  20.641  36.148  1.00  0.00    -0.351 N 
ATOM      3  C   UNL A   1      45.857  19.460  36.805  1.00  0.00     0.272 C 
ATOM      4  O   UNL A   1      45.327  18.450  36.355  1.00  0.00    -0.267 OA
ATOM      5  H   UNL A   1      44.950  20.565  35.420  1.00  0.00     0.163 HD
BRANCH   3   6
ATOM      6  C   UNL A   1      46.802  19.375  38.025  1.00  0.00     0.156 A 
ATOM      7  N   UNL A   1      47.053  19.028  40.312  1.00  0.00    -0.219 N 
ATOM      8  N   UNL A   1      46.298  18.982  39.162  1.00  0.00    -0.163 NA
ATOM      9  C   UNL A   1      48.284  19.681  40.368  1.00  0.00     0.275 A 
ATOM     10  C   UNL A   1      48.948  19.929  39.077  1.00  0.00     0.051 A 
ATOM     11  O   UNL A   1      48.876  19.912  41.416  1.00  0.00    -0.267 OA
ATOM     12  C   UNL A   1      48.235  19.764  37.892  1.00  0.00     0.020 A 
ATOM     13  C   UNL A   1      50.317  20.250  39.057  1.00  0.00     0.014 A 
ATOM     14  C   UNL A   1      48.915  19.931  36.676  1.00  0.00     0.011 A 
ATOM     15  C   UNL A   1      50.976  20.424  37.842  1.00  0.00     0.001 A 
ATOM     16  C   UNL A   1      50.273  20.269  36.653  1.00  0.00     0.001 A 
BRANCH   7  17
ATOM     17  C   UNL A   1      46.384  18.599  41.566  1.00  0.00     0.248 C 
BRANCH  17  18
ATOM     18  C   UNL A   1      44.848  18.370  41.486  1.00  0.00     0.246 C 
ATOM     19  O   UNL A   1      44.036  19.203  41.879  1.00  0.00    -0.273 OA
ATOM     20  N   UNL A   1      44.529  17.121  41.019  1.00  0.00    -0.324 N 
ATOM     21  H   UNL A   1      45.221  16.674  40.480  1.00  0.00     0.169 HD
BRANCH  20  22
ATOM     22  C   UNL A   1      43.349  16.404  41.208  1.00  0.00     0.042 A 
ATOM     23  C   UNL A   1      42.629  15.827  40.163  1.00  0.00     0.027 A 
ATOM     24  C   UNL A   1      43.151  15.991  42.523  1.00  0.00     0.039 A 
ATOM     25  C   UNL A   1      41.853  14.685  40.428  1.00  0.00     0.015 A 
ATOM     26  C   UNL A   1      42.402  14.859  42.777  1.00  0.00     0.036 A 
ATOM     27  C   UNL A   1      41.825  14.154  41.728  1.00  0.00     0.034 A 
ATOM     28  C   UNL A   1      42.511  14.270  44.117  1.00  0.00     0.194 C 
ATOM     29  C   UNL A   1      41.442  12.743  41.968  1.00  0.00     0.194 C 
ATOM     30  O   UNL A   1      42.644  14.960  45.118  1.00  0.00    -0.289 OA
ATOM     31  C   UNL A   1      42.638  12.810  44.156  1.00  0.00     0.034 A 
ATOM     32  C   UNL A   1      42.127  12.056  43.099  1.00  0.00     0.034 A 
ATOM     33  O   UNL A   1      40.705  12.138  41.204  1.00  0.00    -0.289 OA
ATOM     34  C   UNL A   1      43.406  12.223  45.164  1.00  0.00     0.013 A 
ATOM     35  C   UNL A   1      42.388  10.687  43.047  1.00  0.00     0.013 A 
ATOM     36  C   UNL A   1      43.696  10.864  45.089  1.00  0.00     0.001 A 
ATOM     37  C   UNL A   1      43.188  10.099  44.034  1.00  0.00     0.001 A 
ENDBRANCH  20  22
ENDBRANCH  17  18
ENDBRANCH   7  17
ENDBRANCH   3   6
ENDBRANCH   1   2
BRANCH   1  38
ATOM     38  C   UNL A   1      46.667  22.589  35.033  1.00  0.00     0.042 C 
BRANCH  38  39
ATOM     39  C   UNL A   1      47.731  23.672  35.223  1.00  0.00     0.118 C 
BRANCH  39  40
ATOM     40  N   UNL A   1      47.632  24.356  36.505  1.00  0.00    -0.352 N 
ATOM     41  C   UNL A   1      46.930  25.478  36.873  1.00  0.00     0.251 C 
ATOM     42  H   UNL A   1      48.157  23.945  37.230  1.00  0.00     0.163 HD
ATOM     43  O   UNL A   1      47.113  25.962  37.987  1.00  0.00    -0.269 OA
BRANCH  41  44
ATOM     44  C   UNL A   1      45.980  26.127  35.944  1.00  0.00     0.039 A 
ATOM     45  C   UNL A   1      46.357  27.216  35.155  1.00  0.00     0.014 A 
ATOM     46  C   UNL A   1      44.690  25.597  35.829  1.00  0.00     0.014 A 
ATOM     47  C   UNL A   1      45.408  27.855  34.356  1.00  0.00     0.010 A 
ATOM     48  C   UNL A   1      43.753  26.208  34.991  1.00  0.00     0.010 A 
ATOM     49  C   UNL A   1      44.092  27.370  34.284  1.00  0.00    -0.014 A 
BRANCH  49  50
ATOM     50  C   UNL A   1      43.076  28.121  33.505  1.00  0.00     0.031 A 
ATOM     51  C   UNL A   1      42.836  27.789  32.058  1.00  0.00     0.074 A 
ATOM     52  C   UNL A   1      42.322  29.058  34.110  1.00  0.00     0.049 A 
ATOM     53  N   UNL A   1      41.940  28.275  31.236  1.00  0.00    -0.248 NA
ATOM     54  C   UNL A   1      43.717  26.776  31.455  1.00  0.00     0.031 C 
ATOM     55  C   UNL A   1      42.451  29.475  35.506  1.00  0.00     0.029 A 
ATOM     56  N   UNL A   1      41.277  29.805  33.631  1.00  0.00    -0.354 N 
ATOM     57  C   UNL A   1      42.157  27.640  30.021  1.00  0.00     0.074 A 
ATOM     58  C   UNL A   1      43.281  26.747  30.204  1.00  0.00     0.031 C 
ATOM     59  C   UNL A   1      41.484  30.363  35.787  1.00  0.00     0.029 A 
ATOM     60  C   UNL A   1      40.685  30.594  34.586  1.00  0.00     0.049 A 
ATOM     61  H   UNL A   1      40.979  29.777  32.693  1.00  0.00     0.167 HD
ATOM     62  C   UNL A   1      41.475  27.775  28.859  1.00  0.00     0.037 A 
ATOM     63  C   UNL A   1      39.611  31.400  34.506  1.00  0.00     0.037 A 
ATOM     64  C   UNL A   1      40.340  28.638  28.669  1.00  0.00     0.049 A 
ATOM     65  C   UNL A   1      38.877  31.539  33.205  1.00  0.00     0.074 A 
ATOM     66  C   UNL A   1      39.572  28.817  27.531  1.00  0.00     0.029 A 
ATOM     67  N   UNL A   1      39.807  29.461  29.647  1.00  0.00    -0.354 N 
ATOM     68  N   UNL A   1      39.090  30.926  32.067  1.00  0.00    -0.248 NA
ATOM     69  C   UNL A   1      37.758  32.493  33.178  1.00  0.00     0.031 C 
ATOM     70  C   UNL A   1      38.580  29.765  27.818  1.00  0.00     0.029 A 
ATOM     71  C   UNL A   1      38.726  30.160  29.138  1.00  0.00     0.049 A 
ATOM     72  H   UNL A   1      40.148  29.538  30.568  1.00  0.00     0.167 HD
ATOM     73  C   UNL A   1      38.134  31.416  31.189  1.00  0.00     0.074 A 
ATOM     74  C   UNL A   1      37.329  32.367  31.928  1.00  0.00     0.031 C 
ATOM     75  C   UNL A   1      37.944  31.108  29.884  1.00  0.00     0.037 A 
BRANCH  62  76
ATOM     76  C   UNL A   1      41.951  26.964  27.694  1.00  0.00     0.057 A 
ATOM     77  C   UNL A   1      41.512  25.648  27.512  1.00  0.00     0.134 A 
ATOM     78  C   UNL A   1      42.853  27.488  26.761  1.00  0.00     0.134 A 
ATOM     79  F   UNL A   1      40.645  25.094  28.372  1.00  0.00    -0.206 F 
ATOM     80  C   UNL A   1      41.956  24.877  26.437  1.00  0.00     0.040 A 
ATOM     81  C   UNL A   1      43.295  26.731  25.676  1.00  0.00     0.040 A 
ATOM     82  F   UNL A   1      43.294  28.750  26.875  1.00  0.00    -0.206 F 
ATOM     83  C   UNL A   1      42.849  25.420  25.513  1.00  0.00     0.006 A 
ENDBRANCH  62  76
BRANCH  63  84
ATOM     84  C   UNL A   1      39.141  32.117  35.712  1.00  0.00     0.057 A 
ATOM     85  C   UNL A   1      39.543  33.428  35.985  1.00  0.00     0.134 A 
ATOM     86  C   UNL A   1      38.279  31.496  36.621  1.00  0.00     0.134 A 
ATOM     87  F   UNL A   1      40.367  34.071  35.145  1.00  0.00    -0.206 F 
ATOM     88  C   UNL A   1      39.109  34.096  37.129  1.00  0.00     0.040 A 
ATOM     89  C   UNL A   1      37.829  32.156  37.764  1.00  0.00     0.040 A 
ATOM     90  F   UNL A   1      37.849  30.245  36.398  1.00  0.00    -0.206 F 
ATOM     91  C   UNL A   1      38.248  33.461  38.022  1.00  0.00     0.006 A 
ENDBRANCH  63  84
BRANCH  75  92
ATOM     92  C   UNL A   1      36.829  31.812  29.178  1.00  0.00     0.057 A 
ATOM     93  C   UNL A   1      35.622  31.158  28.907  1.00  0.00     0.134 A 
ATOM     94  C   UNL A   1      36.966  33.137  28.750  1.00  0.00     0.134 A 
ATOM     95  F   UNL A   1      35.434  29.888  29.295  1.00  0.00    -0.206 F 
ATOM     96  C   UNL A   1      34.586  31.801  28.230  1.00  0.00     0.040 A 
ATOM     97  C   UNL A   1      35.933  33.794  28.081  1.00  0.00     0.040 A 
ATOM     98  F   UNL A   1      38.096  33.818  28.995  1.00  0.00    -0.206 F 
ATOM     99  C   UNL A   1      34.739  33.124  27.816  1.00  0.00     0.006 A 
ENDBRANCH  75  92
ENDBRANCH  49  50
ENDBRANCH  41  44
ENDBRANCH  39  40
ENDBRANCH  38  39
ENDBRANCH   1  38
TORSDOF 13
ENDMDL
MODEL 2
REMARK VINA RESULT:     -14.2      8.657     16.451
REMARK SMILES O=C(Cn1nc(C(=O)NCCCNC(=O)c2ccc(-c3c4nc(c(-c5c(F)cccc5F)c5ccc([nH]5)c(-c5c(F)cccc5F)c5nc(c(-c6c(F)cccc6F)c6ccc3[nH]6)C=C5)C=C4)cc2)c2ccccc2c1=O)Nc1ccc2c(c1)C(=O)c1ccccc1C2=O
REMARK SMILES IDX 10 1 9 2 7 3 8 4 6 6 4 7 5 8 76 9 75 10 77 11 70 12 74 13
REMARK SMILES IDX 71 14 73 15 72 16 3 17 2 18 1 19 78 20 79 22 80 23 84 24
REMARK SMILES IDX 81 25 83 26 82 27 85 28 93 29 86 30 87 31 92 32 94 33 88 34
REMARK SMILES IDX 91 35 89 36 90 37 11 38 12 39 13 40 14 41 15 43 16 44 17 45
REMARK SMILES IDX 69 46 18 47 68 48 19 49 20 50 21 51 62 52 22 53 67 54 61 55
REMARK SMILES IDX 63 56 23 57 66 58 60 59 59 60 24 62 50 63 33 64 49 65 34 66
REMARK SMILES IDX 37 67 48 68 64 69 35 70 36 71 47 73 65 74 38 75 25 76 26 77
REMARK SMILES IDX 31 78 27 79 28 80 30 81 32 82 29 83 51 84 52 85 57 86 53 87
REMARK SMILES IDX 54 88 56 89 58 90 55 91 39 92 40 93 45 94 41 95 42 96 44 97
REMARK SMILES IDX 46 98 43 99
REMARK H PARENT 9 5 78 21 13 42 63 61 37 72
REMARK Flexibility Score: inf
ROOT
ATOM      1  C   UNL A   1      36.722  22.033  25.873  1.00  0.00     0.118 C 
ENDROOT
BRANCH   1   2
ATOM      2  N   UNL A   1      35.513  22.331  26.617  1.00  0.00    -0.351 N 
ATOM      3  C   UNL A   1      34.186  22.278  26.267  1.00  0.00     0.272 C 
ATOM      4  O   UNL A   1      33.377  22.695  27.089  1.00  0.00    -0.267 OA
ATOM      5  H   UNL A   1      35.674  22.626  27.543  1.00  0.00     0.163 HD
BRANCH   3   6
ATOM      6  C   UNL A   1      33.713  21.772  24.886  1.00  0.00     0.156 A 
ATOM      7  N   UNL A   1      33.221  22.254  22.664  1.00  0.00    -0.219 N 
ATOM      8  N   UNL A   1      33.764  22.601  23.880  1.00  0.00    -0.163 NA
ATOM      9  C   UNL A   1      32.417  21.127  22.502  1.00  0.00     0.275 A 
ATOM     10  C   UNL A   1      32.529  20.092  23.545  1.00  0.00     0.051 A 
ATOM     11  O   UNL A   1      31.759  20.908  21.491  1.00  0.00    -0.267 OA
ATOM     12  C   UNL A   1      33.189  20.384  24.736  1.00  0.00     0.020 A 
ATOM     13  C   UNL A   1      32.040  18.800  23.288  1.00  0.00     0.014 A 
ATOM     14  C   UNL A   1      33.350  19.356  25.678  1.00  0.00     0.011 A 
ATOM     15  C   UNL A   1      32.196  17.792  24.237  1.00  0.00     0.001 A 
ATOM     16  C   UNL A   1      32.847  18.073  25.433  1.00  0.00     0.001 A 
BRANCH   7  17
ATOM     17  C   UNL A   1      33.289  23.276  21.589  1.00  0.00     0.248 C 
BRANCH  17  18
ATOM     18  C   UNL A   1      32.904  24.728  21.990  1.00  0.00     0.246 C 
ATOM     19  O   UNL A   1      33.537  25.708  21.605  1.00  0.00    -0.273 OA
ATOM     20  N   UNL A   1      31.856  24.767  22.873  1.00  0.00    -0.324 N 
ATOM     21  H   UNL A   1      31.267  23.979  22.876  1.00  0.00     0.169 HD
BRANCH  20  22
ATOM     22  C   UNL A   1      31.517  25.781  23.768  1.00  0.00     0.042 A 
ATOM     23  C   UNL A   1      32.461  26.556  24.439  1.00  0.00     0.027 A 
ATOM     24  C   UNL A   1      30.195  26.205  23.655  1.00  0.00     0.039 A 
ATOM     25  C   UNL A   1      32.111  27.864  24.821  1.00  0.00     0.015 A 
ATOM     26  C   UNL A   1      29.861  27.496  24.016  1.00  0.00     0.036 A 
ATOM     27  C   UNL A   1      30.831  28.355  24.516  1.00  0.00     0.034 A 
ATOM     28  C   UNL A   1      28.561  28.003  23.558  1.00  0.00     0.194 C 
ATOM     29  C   UNL A   1      30.567  29.812  24.453  1.00  0.00     0.194 C 
ATOM     30  O   UNL A   1      27.576  27.283  23.483  1.00  0.00    -0.289 OA
ATOM     31  C   UNL A   1      28.569  29.369  23.026  1.00  0.00     0.034 A 
ATOM     32  C   UNL A   1      29.559  30.257  23.451  1.00  0.00     0.034 A 
ATOM     33  O   UNL A   1      31.231  30.613  25.092  1.00  0.00    -0.289 OA
ATOM     34  C   UNL A   1      27.692  29.698  21.990  1.00  0.00     0.013 A 
ATOM     35  C   UNL A   1      29.674  31.500  22.829  1.00  0.00     0.013 A 
ATOM     36  C   UNL A   1      27.834  30.924  21.347  1.00  0.00     0.001 A 
ATOM     37  C   UNL A   1      28.821  31.821  21.766  1.00  0.00     0.001 A 
ENDBRANCH  20  22
ENDBRANCH  17  18
ENDBRANCH   7  17
ENDBRANCH   3   6
ENDBRANCH   1   2
BRANCH   1  38
ATOM     38  C   UNL A   1      37.376  23.280  25.280  1.00  0.00     0.042 C 
BRANCH  38  39
ATOM     39  C   UNL A   1      38.240  24.076  26.261  1.00  0.00     0.118 C 
BRANCH  39  40
ATOM     40  N   UNL A   1      39.669  23.907  26.038  1.00  0.00    -0.352 N 
ATOM     41  C   UNL A   1      40.740  24.655  26.461  1.00  0.00     0.251 C 
ATOM     42  H   UNL A   1      39.907  23.124  25.490  1.00  0.00     0.163 HD
ATOM     43  O   UNL A   1      41.859  24.402  26.025  1.00  0.00    -0.269 OA
BRANCH  41  44
ATOM     44  C   UNL A   1      40.564  25.776  27.411  1.00  0.00     0.039 A 
ATOM     45  C   UNL A   1      41.173  27.015  27.201  1.00  0.00     0.014 A 
ATOM     46  C   UNL A   1      39.727  25.589  28.518  1.00  0.00     0.014 A 
ATOM     47  C   UNL A   1      41.054  28.018  28.165  1.00  0.00     0.010 A 
ATOM     48  C   UNL A   1      39.569  26.611  29.458  1.00  0.00     0.010 A 
ATOM     49  C   UNL A   1      40.270  27.816  29.312  1.00  0.00    -0.014 A 
BRANCH  49  50
ATOM     50  C   UNL A   1      40.236  28.859  30.368  1.00  0.00     0.031 A 
ATOM     51  C   UNL A   1      39.200  29.948  30.321  1.00  0.00     0.074 A 
ATOM     52  C   UNL A   1      41.092  28.794  31.404  1.00  0.00     0.049 A 
ATOM     53  N   UNL A   1      38.959  30.898  31.190  1.00  0.00    -0.248 NA
ATOM     54  C   UNL A   1      38.318  29.975  29.143  1.00  0.00     0.031 C 
ATOM     55  C   UNL A   1      42.142  27.790  31.572  1.00  0.00     0.029 A 
ATOM     56  N   UNL A   1      41.189  29.574  32.528  1.00  0.00    -0.354 N 
ATOM     57  C   UNL A   1      37.911  31.638  30.662  1.00  0.00     0.074 A 
ATOM     58  C   UNL A   1      37.572  31.044  29.387  1.00  0.00     0.031 C 
ATOM     59  C   UNL A   1      42.743  27.981  32.758  1.00  0.00     0.029 A 
ATOM     60  C   UNL A   1      42.135  29.133  33.420  1.00  0.00     0.049 A 
ATOM     61  H   UNL A   1      40.634  30.372  32.681  1.00  0.00     0.167 HD
ATOM     62  C   UNL A   1      37.276  32.710  31.193  1.00  0.00     0.037 A 
ATOM     63  C   UNL A   1      42.465  29.595  34.640  1.00  0.00     0.037 A 
ATOM     64  C   UNL A   1      37.582  33.296  32.470  1.00  0.00     0.049 A 
ATOM     65  C   UNL A   1      41.752  30.789  35.203  1.00  0.00     0.074 A 
ATOM     66  C   UNL A   1      36.972  34.367  33.099  1.00  0.00     0.029 A 
ATOM     67  N   UNL A   1      38.585  32.852  33.317  1.00  0.00    -0.354 N 
ATOM     68  N   UNL A   1      40.758  31.474  34.694  1.00  0.00    -0.248 NA
ATOM     69  C   UNL A   1      42.217  31.279  36.510  1.00  0.00     0.031 C 
ATOM     70  C   UNL A   1      37.618  34.582  34.323  1.00  0.00     0.029 A 
ATOM     71  C   UNL A   1      38.618  33.633  34.459  1.00  0.00     0.049 A 
ATOM     72  H   UNL A   1      39.184  32.093  33.133  1.00  0.00     0.167 HD
ATOM     73  C   UNL A   1      40.477  32.473  35.614  1.00  0.00     0.074 A 
ATOM     74  C   UNL A   1      41.393  32.297  36.722  1.00  0.00     0.031 C 
ATOM     75  C   UNL A   1      39.543  33.451  35.545  1.00  0.00     0.037 A 
BRANCH  62  76
ATOM     76  C   UNL A   1      36.179  33.321  30.379  1.00  0.00     0.057 A 
ATOM     77  C   UNL A   1      34.836  33.060  30.676  1.00  0.00     0.134 A 
ATOM     78  C   UNL A   1      36.457  34.160  29.293  1.00  0.00     0.134 A 
ATOM     79  F   UNL A   1      34.509  32.266  31.707  1.00  0.00    -0.206 F 
ATOM     80  C   UNL A   1      33.805  33.614  29.918  1.00  0.00     0.040 A 
ATOM     81  C   UNL A   1      35.433  34.730  28.536  1.00  0.00     0.040 A 
ATOM     82  F   UNL A   1      37.724  34.460  28.973  1.00  0.00    -0.206 F 
ATOM     83  C   UNL A   1      34.102  34.455  28.846  1.00  0.00     0.006 A 
ENDBRANCH  62  76
BRANCH  63  84
ATOM     84  C   UNL A   1      43.505  28.901  35.431  1.00  0.00     0.057 A 
ATOM     85  C   UNL A   1      44.848  29.283  35.365  1.00  0.00     0.134 A 
ATOM     86  C   UNL A   1      43.170  27.832  36.268  1.00  0.00     0.134 A 
ATOM     87  F   UNL A   1      45.223  30.304  34.580  1.00  0.00    -0.206 F 
ATOM     88  C   UNL A   1      45.828  28.619  36.101  1.00  0.00     0.040 A 
ATOM     89  C   UNL A   1      44.139  27.165  37.018  1.00  0.00     0.040 A 
ATOM     90  F   UNL A   1      41.894  27.436  36.381  1.00  0.00    -0.206 F 
ATOM     91  C   UNL A   1      45.474  27.557  36.932  1.00  0.00     0.006 A 
ENDBRANCH  63  84
BRANCH  75  92
ATOM     92  C   UNL A   1      39.477  34.406  36.695  1.00  0.00     0.057 A 
ATOM     93  C   UNL A   1      40.150  35.632  36.652  1.00  0.00     0.134 A 
ATOM     94  C   UNL A   1      38.758  34.094  37.854  1.00  0.00     0.134 A 
ATOM     95  F   UNL A   1      40.853  35.984  35.565  1.00  0.00    -0.206 F 
ATOM     96  C   UNL A   1      40.112  36.517  37.728  1.00  0.00     0.040 A 
ATOM     97  C   UNL A   1      38.704  34.977  38.933  1.00  0.00     0.040 A 
ATOM     98  F   UNL A   1      38.082  32.939  37.946  1.00  0.00    -0.206 F 
ATOM     99  C   UNL A   1      39.385  36.191  38.873  1.00  0.00     0.006 A 
ENDBRANCH  75  92
ENDBRANCH  49  50
ENDBRANCH  41  44
ENDBRANCH  39  40
ENDBRANCH  38  39
ENDBRANCH   1  38
TORSDOF 13
ENDMDL
MODEL 3
REMARK VINA RESULT:     -14.0     10.414     16.375
REMARK SMILES O=C(Cn1nc(C(=O)NCCCNC(=O)c2ccc(-c3c4nc(c(-c5c(F)cccc5F)c5ccc([nH]5)c(-c5c(F)cccc5F)c5nc(c(-c6c(F)cccc6F)c6ccc3[nH]6)C=C5)C=C4)cc2)c2ccccc2c1=O)Nc1ccc2c(c1)C(=O)c1ccccc1C2=O
REMARK SMILES IDX 10 1 9 2 7 3 8 4 6 6 4 7 5 8 76 9 75 10 77 11 70 12 74 13
REMARK SMILES IDX 71 14 73 15 72 16 3 17 2 18 1 19 78 20 79 22 80 23 84 24
REMARK SMILES IDX 81 25 83 26 82 27 85 28 93 29 86 30 87 31 92 32 94 33 88 34
REMARK SMILES IDX 91 35 89 36 90 37 11 38 12 39 13 40 14 41 15 43 16 44 17 45
REMARK SMILES IDX 69 46 18 47 68 48 19 49 20 50 21 51 62 52 22 53 67 54 61 55
REMARK SMILES IDX 63 56 23 57 66 58 60 59 59 60 24 62 50 63 33 64 49 65 34 66
REMARK SMILES IDX 37 67 48 68 64 69 35 70 36 71 47 73 65 74 38 75 25 76 26 77
REMARK SMILES IDX 31 78 27 79 28 80 30 81 32 82 29 83 51 84 52 85 57 86 53 87
REMARK SMILES IDX 54 88 56 89 58 90 55 91 39 92 40 93 45 94 41 95 42 96 44 97
REMARK SMILES IDX 46 98 43 99
REMARK H PARENT 9 5 78 21 13 42 63 61 37 72
REMARK Flexibility Score: inf
ROOT
ATOM      1  C   UNL A   1      33.097  30.041  25.762  1.00  0.00     0.118 C 
ENDROOT
BRANCH   1   2
ATOM      2  N   UNL A   1      33.493  29.335  24.559  1.00  0.00    -0.351 N 
ATOM      3  C   UNL A   1      32.824  28.441  23.758  1.00  0.00     0.272 C 
ATOM      4  O   UNL A   1      33.462  27.922  22.849  1.00  0.00    -0.267 OA
ATOM      5  H   UNL A   1      34.411  29.533  24.261  1.00  0.00     0.163 HD
BRANCH   3   6
ATOM      6  C   UNL A   1      31.350  28.051  24.006  1.00  0.00     0.156 A 
ATOM      7  N   UNL A   1      29.825  26.648  25.065  1.00  0.00    -0.219 N 
ATOM      8  N   UNL A   1      31.101  27.140  24.906  1.00  0.00    -0.163 NA
ATOM      9  C   UNL A   1      28.803  26.923  24.157  1.00  0.00     0.275 A 
ATOM     10  C   UNL A   1      29.005  28.094  23.286  1.00  0.00     0.051 A 
ATOM     11  O   UNL A   1      27.725  26.340  24.161  1.00  0.00    -0.267 OA
ATOM     12  C   UNL A   1      30.262  28.687  23.209  1.00  0.00     0.020 A 
ATOM     13  C   UNL A   1      27.903  28.645  22.609  1.00  0.00     0.014 A 
ATOM     14  C   UNL A   1      30.405  29.847  22.433  1.00  0.00     0.011 A 
ATOM     15  C   UNL A   1      28.062  29.791  21.832  1.00  0.00     0.001 A 
ATOM     16  C   UNL A   1      29.315  30.387  21.741  1.00  0.00     0.001 A 
BRANCH   7  17
ATOM     17  C   UNL A   1      29.644  25.584  26.085  1.00  0.00     0.248 C 
BRANCH  17  18
ATOM     18  C   UNL A   1      30.713  24.455  26.102  1.00  0.00     0.246 C 
ATOM     19  O   UNL A   1      31.179  24.005  27.146  1.00  0.00    -0.273 OA
ATOM     20  N   UNL A   1      31.120  24.099  24.843  1.00  0.00    -0.324 N 
ATOM     21  H   UNL A   1      30.491  24.305  24.114  1.00  0.00     0.169 HD
BRANCH  20  22
ATOM     22  C   UNL A   1      32.310  23.482  24.461  1.00  0.00     0.042 A 
ATOM     23  C   UNL A   1      33.520  23.679  25.123  1.00  0.00     0.027 A 
ATOM     24  C   UNL A   1      32.126  22.386  23.622  1.00  0.00     0.039 A 
ATOM     25  C   UNL A   1      34.479  22.651  25.096  1.00  0.00     0.015 A 
ATOM     26  C   UNL A   1      33.062  21.371  23.612  1.00  0.00     0.036 A 
ATOM     27  C   UNL A   1      34.195  21.458  24.412  1.00  0.00     0.034 A 
ATOM     28  C   UNL A   1      32.664  20.099  22.997  1.00  0.00     0.194 C 
ATOM     29  C   UNL A   1      34.916  20.203  24.732  1.00  0.00     0.194 C 
ATOM     30  O   UNL A   1      31.937  20.055  22.014  1.00  0.00    -0.289 OA
ATOM     31  C   UNL A   1      33.039  18.893  23.741  1.00  0.00     0.034 A 
ATOM     32  C   UNL A   1      34.135  18.942  24.604  1.00  0.00     0.034 A 
ATOM     33  O   UNL A   1      36.045  20.213  25.199  1.00  0.00    -0.289 OA
ATOM     34  C   UNL A   1      32.199  17.779  23.694  1.00  0.00     0.013 A 
ATOM     35  C   UNL A   1      34.398  17.855  25.437  1.00  0.00     0.013 A 
ATOM     36  C   UNL A   1      32.441  16.712  24.553  1.00  0.00     0.001 A 
ATOM     37  C   UNL A   1      33.538  16.750  25.421  1.00  0.00     0.001 A 
ENDBRANCH  20  22
ENDBRANCH  17  18
ENDBRANCH   7  17
ENDBRANCH   3   6
ENDBRANCH   1   2
BRANCH   1  38
ATOM     38  C   UNL A   1      33.337  29.227  27.033  1.00  0.00     0.042 C 
BRANCH  38  39
ATOM     39  C   UNL A   1      34.756  29.327  27.598  1.00  0.00     0.118 C 
BRANCH  39  40
ATOM     40  N   UNL A   1      34.893  30.347  28.628  1.00  0.00    -0.352 N 
ATOM     41  C   UNL A   1      35.960  30.679  29.427  1.00  0.00     0.251 C 
ATOM     42  H   UNL A   1      34.085  30.889  28.778  1.00  0.00     0.163 HD
ATOM     43  O   UNL A   1      35.799  31.488  30.337  1.00  0.00    -0.269 OA
BRANCH  41  44
ATOM     44  C   UNL A   1      37.290  30.062  29.227  1.00  0.00     0.039 A 
ATOM     45  C   UNL A   1      38.003  29.501  30.288  1.00  0.00     0.014 A 
ATOM     46  C   UNL A   1      37.811  30.005  27.929  1.00  0.00     0.014 A 
ATOM     47  C   UNL A   1      39.291  29.007  30.074  1.00  0.00     0.010 A 
ATOM     48  C   UNL A   1      39.082  29.466  27.707  1.00  0.00     0.010 A 
ATOM     49  C   UNL A   1      39.850  29.006  28.786  1.00  0.00    -0.014 A 
BRANCH  49  50
ATOM     50  C   UNL A   1      41.255  28.566  28.598  1.00  0.00     0.031 A 
ATOM     51  C   UNL A   1      41.557  27.140  28.226  1.00  0.00     0.074 A 
ATOM     52  C   UNL A   1      42.257  29.458  28.697  1.00  0.00     0.049 A 
ATOM     53  N   UNL A   1      42.709  26.587  27.940  1.00  0.00    -0.248 NA
ATOM     54  C   UNL A   1      40.415  26.214  28.165  1.00  0.00     0.031 C 
ATOM     55  C   UNL A   1      42.102  30.869  29.050  1.00  0.00     0.029 A 
ATOM     56  N   UNL A   1      43.603  29.313  28.479  1.00  0.00    -0.354 N 
ATOM     57  C   UNL A   1      42.434  25.252  27.679  1.00  0.00     0.074 A 
ATOM     58  C   UNL A   1      41.010  25.070  27.859  1.00  0.00     0.031 C 
ATOM     59  C   UNL A   1      43.299  31.474  28.969  1.00  0.00     0.029 A 
ATOM     60  C   UNL A   1      44.305  30.487  28.584  1.00  0.00     0.049 A 
ATOM     61  H   UNL A   1      44.026  28.448  28.266  1.00  0.00     0.167 HD
ATOM     62  C   UNL A   1      43.285  24.266  27.310  1.00  0.00     0.037 A 
ATOM     63  C   UNL A   1      45.610  30.744  28.377  1.00  0.00     0.037 A 
ATOM     64  C   UNL A   1      44.698  24.437  27.102  1.00  0.00     0.049 A 
ATOM     65  C   UNL A   1      46.535  29.633  27.976  1.00  0.00     0.074 A 
ATOM     66  C   UNL A   1      45.632  23.497  26.701  1.00  0.00     0.029 A 
ATOM     67  N   UNL A   1      45.378  25.631  27.272  1.00  0.00    -0.354 N 
ATOM     68  N   UNL A   1      46.258  28.377  27.726  1.00  0.00    -0.248 NA
ATOM     69  C   UNL A   1      47.958  29.977  27.839  1.00  0.00     0.031 C 
ATOM     70  C   UNL A   1      46.885  24.123  26.644  1.00  0.00     0.029 A 
ATOM     71  C   UNL A   1      46.722  25.453  26.996  1.00  0.00     0.049 A 
ATOM     72  H   UNL A   1      44.965  26.482  27.550  1.00  0.00     0.167 HD
ATOM     73  C   UNL A   1      47.467  27.780  27.402  1.00  0.00     0.074 A 
ATOM     74  C   UNL A   1      48.480  28.814  27.471  1.00  0.00     0.031 C 
ATOM     75  C   UNL A   1      47.716  26.489  27.079  1.00  0.00     0.037 A 
BRANCH  62  76
ATOM     76  C   UNL A   1      42.700  22.903  27.111  1.00  0.00     0.057 A 
ATOM     77  C   UNL A   1      42.452  22.411  25.825  1.00  0.00     0.134 A 
ATOM     78  C   UNL A   1      42.373  22.084  28.199  1.00  0.00     0.134 A 
ATOM     79  F   UNL A   1      42.748  23.150  24.745  1.00  0.00    -0.206 F 
ATOM     80  C   UNL A   1      41.897  21.147  25.626  1.00  0.00     0.040 A 
ATOM     81  C   UNL A   1      41.829  20.813  28.012  1.00  0.00     0.040 A 
ATOM     82  F   UNL A   1      42.606  22.496  29.454  1.00  0.00    -0.206 F 
ATOM     83  C   UNL A   1      41.586  20.342  26.722  1.00  0.00     0.006 A 
ENDBRANCH  62  76
BRANCH  63  84
ATOM     84  C   UNL A   1      46.116  32.128  28.513  1.00  0.00     0.057 A 
ATOM     85  C   UNL A   1      46.174  32.995  27.418  1.00  0.00     0.134 A 
ATOM     86  C   UNL A   1      46.559  32.607  29.750  1.00  0.00     0.134 A 
ATOM     87  F   UNL A   1      45.759  32.586  26.209  1.00  0.00    -0.206 F 
ATOM     88  C   UNL A   1      46.664  34.294  27.546  1.00  0.00     0.040 A 
ATOM     89  C   UNL A   1      47.042  33.908  29.895  1.00  0.00     0.040 A 
ATOM     90  F   UNL A   1      46.509  31.823  30.835  1.00  0.00    -0.206 F 
ATOM     91  C   UNL A   1      47.098  34.754  28.788  1.00  0.00     0.006 A 
ENDBRANCH  63  84
BRANCH  75  92
ATOM     92  C   UNL A   1      49.138  26.127  26.786  1.00  0.00     0.057 A 
ATOM     93  C   UNL A   1      49.988  25.671  27.799  1.00  0.00     0.134 A 
ATOM     94  C   UNL A   1      49.665  26.253  25.495  1.00  0.00     0.134 A 
ATOM     95  F   UNL A   1      49.536  25.529  29.054  1.00  0.00    -0.206 F 
ATOM     96  C   UNL A   1      51.320  25.352  27.537  1.00  0.00     0.040 A 
ATOM     97  C   UNL A   1      50.993  25.928  25.220  1.00  0.00     0.040 A 
ATOM     98  F   UNL A   1      48.892  26.673  24.482  1.00  0.00    -0.206 F 
ATOM     99  C   UNL A   1      51.826  25.479  26.244  1.00  0.00     0.006 A 
ENDBRANCH  75  92
ENDBRANCH  49  50
ENDBRANCH  41  44
ENDBRANCH  39  40
ENDBRANCH  38  39
ENDBRANCH   1  38
TORSDOF 13
ENDMDL
