MODEL 1
REMARK VINA RESULT:      -9.1      0.000      0.000
REMARK SMILES C/C=C/c1cncc(-c2ccc([C@@H](C)C(=O)NCCCNC(=O)c3ccc(-c4c5nc(c(-c6c(F)cccc6F)c6ccc([nH]6)c(-c6c(F)cccc6F)c6nc(c(-c7c(F)cccc7F)c7ccc4[nH]7)C=C6)C=C5)cc3)cc2)c1
REMARK SMILES IDX 18 1 17 2 15 3 16 4 13 6 14 7 12 8 9 9 10 10 79 11 11 12
REMARK SMILES IDX 78 13 8 14 4 15 5 16 80 17 6 18 7 19 3 20 1 21 2 22 19 23
REMARK SMILES IDX 20 24 21 25 22 26 23 28 24 29 25 30 77 31 26 32 76 33 27 34
REMARK SMILES IDX 28 35 29 36 70 37 30 38 75 39 69 40 71 41 31 42 74 43 68 44
REMARK SMILES IDX 67 45 32 47 58 48 41 49 57 50 42 51 45 52 56 53 72 54 43 55
REMARK SMILES IDX 44 56 55 58 73 59 46 60 33 61 34 62 39 63 35 64 36 65 38 66
REMARK SMILES IDX 40 67 37 68 59 69 60 70 65 71 61 72 62 73 64 74 66 75 63 76
REMARK SMILES IDX 47 77 48 78 53 79 49 80 50 81 52 82 54 83 51 84
REMARK H PARENT 17 5 21 27 71 46 45 57
REMARK Flexibility Score: inf
ROOT
ATOM      1  C   UNL A   1      44.887  20.195  24.475  1.00  0.00     0.117 C 
ENDROOT
BRANCH   1   2
ATOM      2  N   UNL A   1      45.269  20.948  25.653  1.00  0.00    -0.356 N 
ATOM      3  C   UNL A   1      45.747  22.212  25.809  1.00  0.00     0.227 C 
ATOM      4  O   UNL A   1      46.052  22.540  26.963  1.00  0.00    -0.274 OA
ATOM      5  H   UNL A   1      45.163  20.452  26.497  1.00  0.00     0.163 HD
BRANCH   3   6
ATOM      6  C   UNL A   1      45.921  23.214  24.658  1.00  0.00     0.105 C 
ATOM      7  C   UNL A   1      47.139  22.960  23.772  1.00  0.00     0.023 C 
BRANCH   6   8
ATOM      8  C   UNL A   1      45.688  24.656  25.082  1.00  0.00    -0.036 A 
ATOM      9  C   UNL A   1      45.130  27.290  26.046  1.00  0.00    -0.017 A 
ATOM     10  C   UNL A   1      46.440  26.784  25.996  1.00  0.00     0.009 A 
ATOM     11  C   UNL A   1      44.110  26.459  25.560  1.00  0.00     0.009 A 
ATOM     12  C   UNL A   1      46.716  25.504  25.499  1.00  0.00     0.005 A 
ATOM     13  C   UNL A   1      44.380  25.162  25.103  1.00  0.00     0.005 A 
BRANCH   9  14
ATOM     14  C   UNL A   1      44.846  28.630  26.604  1.00  0.00     0.001 A 
ATOM     15  C   UNL A   1      45.573  30.781  27.513  1.00  0.00    -0.007 A 
ATOM     16  C   UNL A   1      44.231  31.133  27.602  1.00  0.00     0.119 A 
ATOM     17  C   UNL A   1      45.867  29.507  27.009  1.00  0.00     0.020 A 
ATOM     18  N   UNL A   1      43.207  30.334  27.231  1.00  0.00    -0.263 NA
ATOM     19  C   UNL A   1      43.542  29.112  26.750  1.00  0.00     0.119 A 
BRANCH  15  20
ATOM     20  C   UNL A   1      46.604  31.704  27.998  1.00  0.00     0.005 C 
ATOM     21  C   UNL A   1      48.932  32.328  28.660  1.00  0.00     0.035 C 
ATOM     22  C   UNL A   1      47.890  31.370  28.178  1.00  0.00    -0.030 C 
ENDBRANCH  15  20
ENDBRANCH   9  14
ENDBRANCH   6   8
ENDBRANCH   3   6
ENDBRANCH   1   2
BRANCH   1  23
ATOM     23  C   UNL A   1      44.282  18.836  24.823  1.00  0.00     0.042 C 
BRANCH  23  24
ATOM     24  C   UNL A   1      43.410  18.845  26.073  1.00  0.00     0.118 C 
BRANCH  24  25
ATOM     25  N   UNL A   1      41.990  18.895  25.756  1.00  0.00    -0.352 N 
ATOM     26  C   UNL A   1      41.023  19.806  26.101  1.00  0.00     0.251 C 
ATOM     27  H   UNL A   1      41.669  18.150  25.201  1.00  0.00     0.163 HD
ATOM     28  O   UNL A   1      39.844  19.529  25.886  1.00  0.00    -0.269 OA
BRANCH  26  29
ATOM     29  C   UNL A   1      41.360  21.105  26.731  1.00  0.00     0.039 A 
ATOM     30  C   UNL A   1      41.771  22.160  25.907  1.00  0.00     0.014 A 
ATOM     31  C   UNL A   1      41.353  21.280  28.118  1.00  0.00     0.014 A 
ATOM     32  C   UNL A   1      42.125  23.392  26.465  1.00  0.00     0.010 A 
ATOM     33  C   UNL A   1      41.632  22.530  28.668  1.00  0.00     0.010 A 
ATOM     34  C   UNL A   1      42.033  23.596  27.850  1.00  0.00    -0.014 A 
BRANCH  34  35
ATOM     35  C   UNL A   1      42.377  24.908  28.459  1.00  0.00     0.031 A 
ATOM     36  C   UNL A   1      41.325  25.973  28.613  1.00  0.00     0.074 A 
ATOM     37  C   UNL A   1      43.647  25.162  28.826  1.00  0.00     0.049 A 
ATOM     38  N   UNL A   1      41.445  27.199  29.058  1.00  0.00    -0.248 NA
ATOM     39  C   UNL A   1      39.961  25.622  28.185  1.00  0.00     0.031 C 
ATOM     40  C   UNL A   1      44.771  24.234  28.688  1.00  0.00     0.029 A 
ATOM     41  N   UNL A   1      44.209  26.284  29.382  1.00  0.00    -0.354 N 
ATOM     42  C   UNL A   1      40.184  27.770  28.942  1.00  0.00     0.074 A 
ATOM     43  C   UNL A   1      39.322  26.773  28.344  1.00  0.00     0.031 C 
ATOM     44  C   UNL A   1      45.882  24.815  29.167  1.00  0.00     0.029 A 
ATOM     45  C   UNL A   1      45.558  26.166  29.615  1.00  0.00     0.049 A 
ATOM     46  H   UNL A   1      43.695  27.096  29.594  1.00  0.00     0.167 HD
ATOM     47  C   UNL A   1      39.775  29.006  29.318  1.00  0.00     0.037 A 
ATOM     48  C   UNL A   1      46.436  27.049  30.128  1.00  0.00     0.037 A 
ATOM     49  C   UNL A   1      40.622  29.985  29.946  1.00  0.00     0.049 A 
ATOM     50  C   UNL A   1      45.953  28.405  30.558  1.00  0.00     0.074 A 
ATOM     51  C   UNL A   1      40.284  31.241  30.419  1.00  0.00     0.029 A 
ATOM     52  N   UNL A   1      41.975  29.816  30.192  1.00  0.00    -0.354 N 
ATOM     53  N   UNL A   1      44.745  28.910  30.494  1.00  0.00    -0.248 NA
ATOM     54  C   UNL A   1      46.954  29.312  31.138  1.00  0.00     0.031 C 
ATOM     55  C   UNL A   1      41.441  31.845  30.924  1.00  0.00     0.029 A 
ATOM     56  C   UNL A   1      42.491  30.949  30.799  1.00  0.00     0.049 A 
ATOM     57  H   UNL A   1      42.494  29.009  29.969  1.00  0.00     0.167 HD
ATOM     58  C   UNL A   1      44.835  30.181  31.047  1.00  0.00     0.074 A 
ATOM     59  C   UNL A   1      46.213  30.365  31.452  1.00  0.00     0.031 C 
ATOM     60  C   UNL A   1      43.863  31.113  31.202  1.00  0.00     0.037 A 
BRANCH  47  61
ATOM     61  C   UNL A   1      38.340  29.364  29.064  1.00  0.00     0.057 A 
ATOM     62  C   UNL A   1      37.388  29.371  30.094  1.00  0.00     0.134 A 
ATOM     63  C   UNL A   1      37.909  29.734  27.785  1.00  0.00     0.134 A 
ATOM     64  F   UNL A   1      37.733  29.014  31.340  1.00  0.00    -0.206 F 
ATOM     65  C   UNL A   1      36.056  29.708  29.853  1.00  0.00     0.040 A 
ATOM     66  C   UNL A   1      36.584  30.097  27.536  1.00  0.00     0.040 A 
ATOM     67  F   UNL A   1      38.770  29.755  26.755  1.00  0.00    -0.206 F 
ATOM     68  C   UNL A   1      35.652  30.079  28.572  1.00  0.00     0.006 A 
ENDBRANCH  47  61
BRANCH  48  69
ATOM     69  C   UNL A   1      47.859  26.665  30.294  1.00  0.00     0.057 A 
ATOM     70  C   UNL A   1      48.822  27.048  29.352  1.00  0.00     0.134 A 
ATOM     71  C   UNL A   1      48.291  25.908  31.389  1.00  0.00     0.134 A 
ATOM     72  F   UNL A   1      48.464  27.757  28.272  1.00  0.00    -0.206 F 
ATOM     73  C   UNL A   1      50.162  26.681  29.487  1.00  0.00     0.040 A 
ATOM     74  C   UNL A   1      49.631  25.553  31.548  1.00  0.00     0.040 A 
ATOM     75  F   UNL A   1      47.416  25.514  32.326  1.00  0.00    -0.206 F 
ATOM     76  C   UNL A   1      50.570  25.935  30.592  1.00  0.00     0.006 A 
ENDBRANCH  48  69
BRANCH  60  77
ATOM     77  C   UNL A   1      44.252  32.400  31.865  1.00  0.00     0.057 A 
ATOM     78  C   UNL A   1      44.605  33.535  31.123  1.00  0.00     0.134 A 
ATOM     79  C   UNL A   1      44.243  32.514  33.261  1.00  0.00     0.134 A 
ATOM     80  F   UNL A   1      44.646  33.485  29.784  1.00  0.00    -0.206 F 
ATOM     81  C   UNL A   1      44.958  34.732  31.749  1.00  0.00     0.040 A 
ATOM     82  C   UNL A   1      44.571  33.712  33.896  1.00  0.00     0.040 A 
ATOM     83  F   UNL A   1      43.907  31.466  34.028  1.00  0.00    -0.206 F 
ATOM     84  C   UNL A   1      44.935  34.824  33.139  1.00  0.00     0.006 A 
ENDBRANCH  60  77
ENDBRANCH  34  35
ENDBRANCH  26  29
ENDBRANCH  24  25
ENDBRANCH  23  24
ENDBRANCH   1  23
TORSDOF 13
ENDMDL
MODEL 2
REMARK VINA RESULT:      -8.9      0.777      6.187
REMARK SMILES C/C=C/c1cncc(-c2ccc([C@@H](C)C(=O)NCCCNC(=O)c3ccc(-c4c5nc(c(-c6c(F)cccc6F)c6ccc([nH]6)c(-c6c(F)cccc6F)c6nc(c(-c7c(F)cccc7F)c7ccc4[nH]7)C=C6)C=C5)cc3)cc2)c1
REMARK SMILES IDX 18 1 17 2 15 3 16 4 13 6 14 7 12 8 9 9 10 10 79 11 11 12
REMARK SMILES IDX 78 13 8 14 4 15 5 16 80 17 6 18 7 19 3 20 1 21 2 22 19 23
REMARK SMILES IDX 20 24 21 25 22 26 23 28 24 29 25 30 77 31 26 32 76 33 27 34
REMARK SMILES IDX 28 35 29 36 70 37 30 38 75 39 69 40 71 41 31 42 74 43 68 44
REMARK SMILES IDX 67 45 32 47 58 48 41 49 57 50 42 51 45 52 56 53 72 54 43 55
REMARK SMILES IDX 44 56 55 58 73 59 46 60 33 61 34 62 39 63 35 64 36 65 38 66
REMARK SMILES IDX 40 67 37 68 59 69 60 70 65 71 61 72 62 73 64 74 66 75 63 76
REMARK SMILES IDX 47 77 48 78 53 79 49 80 50 81 52 82 54 83 51 84
REMARK H PARENT 17 5 21 27 71 46 45 57
REMARK Flexibility Score: inf
ROOT
ATOM      1  C   UNL A   1      45.423  19.634  23.832  1.00  0.00     0.117 C 
ENDROOT
BRANCH   1   2
ATOM      2  N   UNL A   1      44.791  20.829  23.309  1.00  0.00    -0.356 N 
ATOM      3  C   UNL A   1      44.928  22.144  23.629  1.00  0.00     0.227 C 
ATOM      4  O   UNL A   1      44.177  22.929  23.036  1.00  0.00    -0.274 OA
ATOM      5  H   UNL A   1      44.144  20.656  22.588  1.00  0.00     0.163 HD
BRANCH   3   6
ATOM      6  C   UNL A   1      45.934  22.679  24.659  1.00  0.00     0.105 C 
ATOM      7  C   UNL A   1      46.160  21.764  25.862  1.00  0.00     0.023 C 
BRANCH   6   8
ATOM      8  C   UNL A   1      45.747  24.157  24.964  1.00  0.00    -0.036 A 
ATOM      9  C   UNL A   1      45.268  26.876  25.708  1.00  0.00    -0.017 A 
ATOM     10  C   UNL A   1      46.559  26.323  25.724  1.00  0.00     0.009 A 
ATOM     11  C   UNL A   1      44.228  26.045  25.268  1.00  0.00     0.009 A 
ATOM     12  C   UNL A   1      46.798  24.999  25.334  1.00  0.00     0.005 A 
ATOM     13  C   UNL A   1      44.458  24.708  24.920  1.00  0.00     0.005 A 
BRANCH   9  14
ATOM     14  C   UNL A   1      45.023  28.265  26.154  1.00  0.00     0.001 A 
ATOM     15  C   UNL A   1      45.813  30.472  26.852  1.00  0.00    -0.007 A 
ATOM     16  C   UNL A   1      44.480  30.857  26.945  1.00  0.00     0.119 A 
ATOM     17  C   UNL A   1      46.071  29.153  26.453  1.00  0.00     0.020 A 
ATOM     18  N   UNL A   1      43.432  30.049  26.673  1.00  0.00    -0.263 NA
ATOM     19  C   UNL A   1      43.732  28.783  26.292  1.00  0.00     0.119 A 
BRANCH  15  20
ATOM     20  C   UNL A   1      46.873  31.414  27.226  1.00  0.00     0.005 C 
ATOM     21  C   UNL A   1      49.160  32.021  28.030  1.00  0.00     0.035 C 
ATOM     22  C   UNL A   1      48.086  31.047  27.665  1.00  0.00    -0.030 C 
ENDBRANCH  15  20
ENDBRANCH   9  14
ENDBRANCH   6   8
ENDBRANCH   3   6
ENDBRANCH   1   2
BRANCH   1  23
ATOM     23  C   UNL A   1      44.406  18.591  24.293  1.00  0.00     0.042 C 
BRANCH  23  24
ATOM     24  C   UNL A   1      43.766  18.901  25.641  1.00  0.00     0.118 C 
BRANCH  24  25
ATOM     25  N   UNL A   1      42.316  18.777  25.606  1.00  0.00    -0.352 N 
ATOM     26  C   UNL A   1      41.331  19.577  26.129  1.00  0.00     0.251 C 
ATOM     27  H   UNL A   1      41.985  17.985  25.124  1.00  0.00     0.163 HD
ATOM     28  O   UNL A   1      40.174  19.159  26.148  1.00  0.00    -0.269 OA
BRANCH  26  29
ATOM     29  C   UNL A   1      41.625  20.922  26.679  1.00  0.00     0.039 A 
ATOM     30  C   UNL A   1      41.802  21.985  25.785  1.00  0.00     0.014 A 
ATOM     31  C   UNL A   1      41.805  21.139  28.048  1.00  0.00     0.014 A 
ATOM     32  C   UNL A   1      42.109  23.263  26.262  1.00  0.00     0.010 A 
ATOM     33  C   UNL A   1      42.035  22.428  28.529  1.00  0.00     0.010 A 
ATOM     34  C   UNL A   1      42.203  23.501  27.642  1.00  0.00    -0.014 A 
BRANCH  34  35
ATOM     35  C   UNL A   1      42.498  24.858  28.170  1.00  0.00     0.031 A 
ATOM     36  C   UNL A   1      43.895  25.220  28.598  1.00  0.00     0.074 A 
ATOM     37  C   UNL A   1      41.500  25.751  28.315  1.00  0.00     0.049 A 
ATOM     38  N   UNL A   1      44.335  26.326  29.144  1.00  0.00    -0.248 NA
ATOM     39  C   UNL A   1      44.930  24.190  28.414  1.00  0.00     0.031 C 
ATOM     40  C   UNL A   1      40.095  25.512  27.982  1.00  0.00     0.029 A 
ATOM     41  N   UNL A   1      41.515  27.039  28.791  1.00  0.00    -0.354 N 
ATOM     42  C   UNL A   1      45.687  26.118  29.387  1.00  0.00     0.074 A 
ATOM     43  C   UNL A   1      45.987  24.765  28.972  1.00  0.00     0.031 C 
ATOM     44  C   UNL A   1      39.387  26.623  28.243  1.00  0.00     0.029 A 
ATOM     45  C   UNL A   1      40.280  27.639  28.790  1.00  0.00     0.049 A 
ATOM     46  H   UNL A   1      42.333  27.489  29.103  1.00  0.00     0.167 HD
ATOM     47  C   UNL A   1      46.601  26.982  29.892  1.00  0.00     0.037 A 
ATOM     48  C   UNL A   1      39.907  28.870  29.191  1.00  0.00     0.037 A 
ATOM     49  C   UNL A   1      46.311  28.339  30.270  1.00  0.00     0.049 A 
ATOM     50  C   UNL A   1      40.944  29.817  29.725  1.00  0.00     0.074 A 
ATOM     51  C   UNL A   1      47.182  29.311  30.733  1.00  0.00     0.029 A 
ATOM     52  N   UNL A   1      45.053  28.920  30.226  1.00  0.00    -0.354 N 
ATOM     53  N   UNL A   1      42.229  29.624  29.896  1.00  0.00    -0.248 NA
ATOM     54  C   UNL A   1      40.478  31.155  30.117  1.00  0.00     0.031 C 
ATOM     55  C   UNL A   1      46.445  30.470  30.999  1.00  0.00     0.029 A 
ATOM     56  C   UNL A   1      45.121  30.232  30.665  1.00  0.00     0.049 A 
ATOM     57  H   UNL A   1      44.231  28.467  29.927  1.00  0.00     0.167 HD
ATOM     58  C   UNL A   1      42.730  30.822  30.391  1.00  0.00     0.074 A 
ATOM     59  C   UNL A   1      41.612  31.739  30.480  1.00  0.00     0.031 C 
ATOM     60  C   UNL A   1      44.002  31.133  30.742  1.00  0.00     0.037 A 
BRANCH  47  61
ATOM     61  C   UNL A   1      48.006  26.481  30.055  1.00  0.00     0.057 A 
ATOM     62  C   UNL A   1      48.415  25.792  31.205  1.00  0.00     0.134 A 
ATOM     63  C   UNL A   1      48.953  26.664  29.041  1.00  0.00     0.134 A 
ATOM     64  F   UNL A   1      47.559  25.595  32.219  1.00  0.00    -0.206 F 
ATOM     65  C   UNL A   1      49.722  25.326  31.350  1.00  0.00     0.040 A 
ATOM     66  C   UNL A   1      50.257  26.180  29.163  1.00  0.00     0.040 A 
ATOM     67  F   UNL A   1      48.627  27.309  27.910  1.00  0.00    -0.206 F 
ATOM     68  C   UNL A   1      50.646  25.514  30.325  1.00  0.00     0.006 A 
ENDBRANCH  47  61
BRANCH  48  69
ATOM     69  C   UNL A   1      38.489  29.289  29.069  1.00  0.00     0.057 A 
ATOM     70  C   UNL A   1      37.972  29.730  27.845  1.00  0.00     0.134 A 
ATOM     71  C   UNL A   1      37.620  29.260  30.166  1.00  0.00     0.134 A 
ATOM     72  F   UNL A   1      38.762  29.799  26.765  1.00  0.00    -0.206 F 
ATOM     73  C   UNL A   1      36.645  30.142  27.719  1.00  0.00     0.040 A 
ATOM     74  C   UNL A   1      36.285  29.646  30.049  1.00  0.00     0.040 A 
ATOM     75  F   UNL A   1      38.057  28.843  31.364  1.00  0.00    -0.206 F 
ATOM     76  C   UNL A   1      35.795  30.095  28.824  1.00  0.00     0.006 A 
ENDBRANCH  48  69
BRANCH  60  77
ATOM     77  C   UNL A   1      44.254  32.530  31.223  1.00  0.00     0.057 A 
ATOM     78  C   UNL A   1      44.613  33.559  30.344  1.00  0.00     0.134 A 
ATOM     79  C   UNL A   1      44.107  32.855  32.578  1.00  0.00     0.134 A 
ATOM     80  F   UNL A   1      44.783  33.308  29.037  1.00  0.00    -0.206 F 
ATOM     81  C   UNL A   1      44.839  34.859  30.799  1.00  0.00     0.040 A 
ATOM     82  C   UNL A   1      44.307  34.156  33.040  1.00  0.00     0.040 A 
ATOM     83  F   UNL A   1      43.758  31.916  33.470  1.00  0.00    -0.206 F 
ATOM     84  C   UNL A   1      44.679  35.161  32.150  1.00  0.00     0.006 A 
ENDBRANCH  60  77
ENDBRANCH  34  35
ENDBRANCH  26  29
ENDBRANCH  24  25
ENDBRANCH  23  24
ENDBRANCH   1  23
TORSDOF 13
ENDMDL
MODEL 3
REMARK VINA RESULT:      -8.6      4.837     10.889
REMARK SMILES C/C=C/c1cncc(-c2ccc([C@@H](C)C(=O)NCCCNC(=O)c3ccc(-c4c5nc(c(-c6c(F)cccc6F)c6ccc([nH]6)c(-c6c(F)cccc6F)c6nc(c(-c7c(F)cccc7F)c7ccc4[nH]7)C=C6)C=C5)cc3)cc2)c1
REMARK SMILES IDX 18 1 17 2 15 3 16 4 13 6 14 7 12 8 9 9 10 10 79 11 11 12
REMARK SMILES IDX 78 13 8 14 4 15 5 16 80 17 6 18 7 19 3 20 1 21 2 22 19 23
REMARK SMILES IDX 20 24 21 25 22 26 23 28 24 29 25 30 77 31 26 32 76 33 27 34
REMARK SMILES IDX 28 35 29 36 70 37 30 38 75 39 69 40 71 41 31 42 74 43 68 44
REMARK SMILES IDX 67 45 32 47 58 48 41 49 57 50 42 51 45 52 56 53 72 54 43 55
REMARK SMILES IDX 44 56 55 58 73 59 46 60 33 61 34 62 39 63 35 64 36 65 38 66
REMARK SMILES IDX 40 67 37 68 59 69 60 70 65 71 61 72 62 73 64 74 66 75 63 76
REMARK SMILES IDX 47 77 48 78 53 79 49 80 50 81 52 82 54 83 51 84
REMARK H PARENT 17 5 21 27 71 46 45 57
REMARK Flexibility Score: inf
ROOT
ATOM      1  C   UNL A   1      33.282  37.469  29.519  1.00  0.00     0.117 C 
ENDROOT
BRANCH   1   2
ATOM      2  N   UNL A   1      33.623  37.868  30.870  1.00  0.00    -0.356 N 
ATOM      3  C   UNL A   1      33.449  37.253  32.071  1.00  0.00     0.227 C 
ATOM      4  O   UNL A   1      33.791  37.901  33.069  1.00  0.00    -0.274 OA
ATOM      5  H   UNL A   1      34.064  38.746  30.929  1.00  0.00     0.163 HD
BRANCH   3   6
ATOM      6  C   UNL A   1      32.865  35.842  32.239  1.00  0.00     0.105 C 
ATOM      7  C   UNL A   1      31.472  35.801  32.866  1.00  0.00     0.023 C 
BRANCH   6   8
ATOM      8  C   UNL A   1      33.874  34.839  32.778  1.00  0.00    -0.036 A 
ATOM      9  C   UNL A   1      35.895  32.999  33.617  1.00  0.00    -0.017 A 
ATOM     10  C   UNL A   1      35.554  34.123  34.388  1.00  0.00     0.009 A 
ATOM     11  C   UNL A   1      35.168  32.796  32.435  1.00  0.00     0.009 A 
ATOM     12  C   UNL A   1      34.546  35.010  33.991  1.00  0.00     0.005 A 
ATOM     13  C   UNL A   1      34.189  33.706  32.014  1.00  0.00     0.005 A 
BRANCH   9  14
ATOM     14  C   UNL A   1      36.984  32.087  34.029  1.00  0.00     0.001 A 
ATOM     15  C   UNL A   1      38.461  30.179  33.627  1.00  0.00    -0.007 A 
ATOM     16  C   UNL A   1      39.053  30.451  34.856  1.00  0.00     0.119 A 
ATOM     17  C   UNL A   1      37.411  31.015  33.225  1.00  0.00     0.020 A 
ATOM     18  N   UNL A   1      38.687  31.464  35.671  1.00  0.00    -0.263 NA
ATOM     19  C   UNL A   1      37.666  32.244  35.239  1.00  0.00     0.119 A 
BRANCH  15  20
ATOM     20  C   UNL A   1      38.900  29.018  32.846  1.00  0.00     0.005 C 
ATOM     21  C   UNL A   1      38.666  27.302  31.044  1.00  0.00     0.035 C 
ATOM     22  C   UNL A   1      38.197  28.478  31.840  1.00  0.00    -0.030 C 
ENDBRANCH  15  20
ENDBRANCH   9  14
ENDBRANCH   6   8
ENDBRANCH   3   6
ENDBRANCH   1   2
BRANCH   1  23
ATOM     23  C   UNL A   1      32.871  36.001  29.431  1.00  0.00     0.042 C 
BRANCH  23  24
ATOM     24  C   UNL A   1      33.809  35.141  28.593  1.00  0.00     0.118 C 
BRANCH  24  25
ATOM     25  N   UNL A   1      33.186  33.896  28.168  1.00  0.00    -0.352 N 
ATOM     26  C   UNL A   1      33.720  32.649  27.953  1.00  0.00     0.251 C 
ATOM     27  H   UNL A   1      32.217  33.958  28.007  1.00  0.00     0.163 HD
ATOM     28  O   UNL A   1      33.031  31.797  27.396  1.00  0.00    -0.269 OA
BRANCH  26  29
ATOM     29  C   UNL A   1      35.104  32.310  28.363  1.00  0.00     0.039 A 
ATOM     30  C   UNL A   1      35.302  31.193  29.184  1.00  0.00     0.014 A 
ATOM     31  C   UNL A   1      36.196  33.111  28.019  1.00  0.00     0.014 A 
ATOM     32  C   UNL A   1      36.587  30.856  29.616  1.00  0.00     0.010 A 
ATOM     33  C   UNL A   1      37.487  32.731  28.386  1.00  0.00     0.010 A 
ATOM     34  C   UNL A   1      37.696  31.608  29.199  1.00  0.00    -0.014 A 
BRANCH  34  35
ATOM     35  C   UNL A   1      39.074  31.248  29.623  1.00  0.00     0.031 A 
ATOM     36  C   UNL A   1      39.784  32.062  30.671  1.00  0.00     0.074 A 
ATOM     37  C   UNL A   1      39.709  30.220  29.027  1.00  0.00     0.049 A 
ATOM     38  N   UNL A   1      41.008  31.946  31.123  1.00  0.00    -0.248 NA
ATOM     39  C   UNL A   1      39.027  33.172  31.271  1.00  0.00     0.031 C 
ATOM     40  C   UNL A   1      39.152  29.381  27.966  1.00  0.00     0.029 A 
ATOM     41  N   UNL A   1      40.970  29.714  29.225  1.00  0.00    -0.354 N 
ATOM     42  C   UNL A   1      41.173  32.976  32.040  1.00  0.00     0.074 A 
ATOM     43  C   UNL A   1      39.942  33.735  32.049  1.00  0.00     0.031 C 
ATOM     44  C   UNL A   1      40.057  28.450  27.621  1.00  0.00     0.029 A 
ATOM     45  C   UNL A   1      41.267  28.647  28.412  1.00  0.00     0.049 A 
ATOM     46  H   UNL A   1      41.600  30.080  29.887  1.00  0.00     0.167 HD
ATOM     47  C   UNL A   1      42.246  33.253  32.820  1.00  0.00     0.037 A 
ATOM     48  C   UNL A   1      42.392  27.913  28.313  1.00  0.00     0.037 A 
ATOM     49  C   UNL A   1      43.457  32.477  32.839  1.00  0.00     0.049 A 
ATOM     50  C   UNL A   1      43.559  28.226  29.204  1.00  0.00     0.074 A 
ATOM     51  C   UNL A   1      44.576  32.641  33.639  1.00  0.00     0.029 A 
ATOM     52  N   UNL A   1      43.708  31.385  32.023  1.00  0.00    -0.354 N 
ATOM     53  N   UNL A   1      43.680  29.169  30.107  1.00  0.00    -0.248 NA
ATOM     54  C   UNL A   1      44.746  27.368  29.068  1.00  0.00     0.031 C 
ATOM     55  C   UNL A   1      45.515  31.668  33.284  1.00  0.00     0.029 A 
ATOM     56  C   UNL A   1      44.967  30.873  32.289  1.00  0.00     0.049 A 
ATOM     57  H   UNL A   1      43.084  31.026  31.351  1.00  0.00     0.167 HD
ATOM     58  C   UNL A   1      44.942  29.004  30.663  1.00  0.00     0.074 A 
ATOM     59  C   UNL A   1      45.543  27.862  30.005  1.00  0.00     0.031 C 
ATOM     60  C   UNL A   1      45.549  29.733  31.630  1.00  0.00     0.037 A 
BRANCH  47  61
ATOM     61  C   UNL A   1      42.151  34.446  33.725  1.00  0.00     0.057 A 
ATOM     62  C   UNL A   1      41.612  34.352  35.015  1.00  0.00     0.134 A 
ATOM     63  C   UNL A   1      42.629  35.696  33.315  1.00  0.00     0.134 A 
ATOM     64  F   UNL A   1      41.124  33.186  35.465  1.00  0.00    -0.206 F 
ATOM     65  C   UNL A   1      41.529  35.464  35.854  1.00  0.00     0.040 A 
ATOM     66  C   UNL A   1      42.575  36.811  34.154  1.00  0.00     0.040 A 
ATOM     67  F   UNL A   1      43.164  35.855  32.094  1.00  0.00    -0.206 F 
ATOM     68  C   UNL A   1      42.017  36.697  35.426  1.00  0.00     0.006 A 
ENDBRANCH  47  61
BRANCH  48  69
ATOM     69  C   UNL A   1      42.455  26.785  27.351  1.00  0.00     0.057 A 
ATOM     70  C   UNL A   1      43.019  26.953  26.081  1.00  0.00     0.134 A 
ATOM     71  C   UNL A   1      41.954  25.518  27.673  1.00  0.00     0.134 A 
ATOM     72  F   UNL A   1      43.497  28.149  25.708  1.00  0.00    -0.206 F 
ATOM     73  C   UNL A   1      43.072  25.906  25.160  1.00  0.00     0.040 A 
ATOM     74  C   UNL A   1      42.021  24.456  26.771  1.00  0.00     0.040 A 
ATOM     75  F   UNL A   1      41.404  25.294  28.876  1.00  0.00    -0.206 F 
ATOM     76  C   UNL A   1      42.576  24.650  25.508  1.00  0.00     0.006 A 
ENDBRANCH  48  69
BRANCH  60  77
ATOM     77  C   UNL A   1      46.919  29.299  32.055  1.00  0.00     0.057 A 
ATOM     78  C   UNL A   1      47.112  28.364  33.080  1.00  0.00     0.134 A 
ATOM     79  C   UNL A   1      48.057  29.799  31.409  1.00  0.00     0.134 A 
ATOM     80  F   UNL A   1      46.063  27.859  33.745  1.00  0.00    -0.206 F 
ATOM     81  C   UNL A   1      48.392  27.958  33.463  1.00  0.00     0.040 A 
ATOM     82  C   UNL A   1      49.340  29.383  31.768  1.00  0.00     0.040 A 
ATOM     83  F   UNL A   1      47.940  30.692  30.415  1.00  0.00    -0.206 F 
ATOM     84  C   UNL A   1      49.510  28.464  32.802  1.00  0.00     0.006 A 
ENDBRANCH  60  77
ENDBRANCH  34  35
ENDBRANCH  26  29
ENDBRANCH  24  25
ENDBRANCH  23  24
ENDBRANCH   1  23
TORSDOF 13
ENDMDL
