MODEL 1
REMARK VINA RESULT:     -12.1      0.000      0.000
REMARK SMILES Cc1cccc2c(C(=O)NCCCNC(=O)c3ccc(-c4c5nc(c(-c6c(F)cccc6F)c6ccc([nH]6)c(-c6c(F)cccc6F)c6nc(c(-c7c(F)cccc7F)c7ccc4[nH]7)C=C6)C=C5)cc3)cc(=O)[nH]c12
REMARK SMILES IDX 13 1 12 2 11 3 10 4 8 5 9 6 7 8 1 9 2 10 3 11 75 12 4 13
REMARK SMILES IDX 6 14 74 15 5 16 72 17 71 19 73 20 14 21 15 22 16 24 17 25
REMARK SMILES IDX 18 26 70 27 19 28 69 29 20 30 21 31 22 32 63 33 23 34 68 35
REMARK SMILES IDX 62 36 64 37 24 38 67 39 61 40 60 41 25 43 51 44 34 45 50 46
REMARK SMILES IDX 35 47 38 48 49 49 65 50 36 51 37 52 48 54 66 55 39 56 26 57
REMARK SMILES IDX 27 58 32 59 28 60 29 61 31 62 33 63 30 64 52 65 53 66 58 67
REMARK SMILES IDX 54 68 55 69 57 70 59 71 56 72 40 73 41 74 46 75 42 76 43 77
REMARK SMILES IDX 45 78 47 79 44 80
REMARK H PARENT 10 7 74 18 14 23 64 42 38 53
REMARK Flexibility Score: inf
ROOT
ATOM      1  C   UNL A   1      39.007  20.243  25.751  1.00  0.00     0.118 C 
ENDROOT
BRANCH   1   2
ATOM      2  C   UNL A   1      37.761  19.779  25.001  1.00  0.00     0.042 C 
BRANCH   2   3
ATOM      3  C   UNL A   1      36.772  20.914  24.736  1.00  0.00     0.118 C 
BRANCH   3   4
ATOM      4  N   UNL A   1      35.760  20.949  25.778  1.00  0.00    -0.352 N 
ATOM      5  C   UNL A   1      34.531  21.515  25.913  1.00  0.00     0.252 C 
ATOM      6  O   UNL A   1      34.071  21.453  27.055  1.00  0.00    -0.269 OA
ATOM      7  H   UNL A   1      36.029  20.441  26.578  1.00  0.00     0.163 HD
BRANCH   5   8
ATOM      8  C   UNL A   1      33.739  22.111  24.776  1.00  0.00     0.054 A 
ATOM      9  C   UNL A   1      31.464  25.989  22.405  1.00  0.00     0.046 C 
ATOM     10  C   UNL A   1      32.450  25.447  23.403  1.00  0.00    -0.027 A 
ATOM     11  C   UNL A   1      33.154  26.361  24.195  1.00  0.00     0.005 A 
ATOM     12  C   UNL A   1      32.667  24.067  23.609  1.00  0.00     0.052 A 
ATOM     13  C   UNL A   1      34.044  25.917  25.163  1.00  0.00     0.001 A 
ATOM     14  C   UNL A   1      33.545  23.589  24.609  1.00  0.00     0.011 A 
ATOM     15  N   UNL A   1      32.035  23.139  22.772  1.00  0.00    -0.322 N 
ATOM     16  C   UNL A   1      34.225  24.549  25.375  1.00  0.00     0.011 A 
ATOM     17  C   UNL A   1      32.298  21.806  22.784  1.00  0.00     0.249 A 
ATOM     18  H   UNL A   1      31.359  23.471  22.137  1.00  0.00     0.170 HD
ATOM     19  C   UNL A   1      33.231  21.322  23.816  1.00  0.00     0.086 A 
ATOM     20  O   UNL A   1      31.778  21.024  22.001  1.00  0.00    -0.270 OA
ENDBRANCH   5   8
ENDBRANCH   3   4
ENDBRANCH   2   3
ENDBRANCH   1   2
BRANCH   1  21
ATOM     21  N   UNL A   1      40.003  19.184  25.873  1.00  0.00    -0.352 N 
ATOM     22  C   UNL A   1      41.365  19.270  26.045  1.00  0.00     0.251 C 
ATOM     23  H   UNL A   1      39.647  18.268  25.825  1.00  0.00     0.163 HD
ATOM     24  O   UNL A   1      42.066  18.275  25.894  1.00  0.00    -0.269 OA
BRANCH  22  25
ATOM     25  C   UNL A   1      41.981  20.566  26.394  1.00  0.00     0.039 A 
ATOM     26  C   UNL A   1      42.165  20.920  27.731  1.00  0.00     0.014 A 
ATOM     27  C   UNL A   1      42.372  21.439  25.376  1.00  0.00     0.014 A 
ATOM     28  C   UNL A   1      42.562  22.210  28.052  1.00  0.00     0.010 A 
ATOM     29  C   UNL A   1      42.868  22.705  25.703  1.00  0.00     0.010 A 
ATOM     30  C   UNL A   1      42.916  23.120  27.043  1.00  0.00    -0.014 A 
BRANCH  30  31
ATOM     31  C   UNL A   1      43.316  24.501  27.419  1.00  0.00     0.031 A 
ATOM     32  C   UNL A   1      44.753  24.942  27.304  1.00  0.00     0.074 A 
ATOM     33  C   UNL A   1      42.369  25.379  27.804  1.00  0.00     0.049 A 
ATOM     34  N   UNL A   1      45.283  26.109  27.573  1.00  0.00    -0.248 NA
ATOM     35  C   UNL A   1      45.723  23.943  26.827  1.00  0.00     0.031 C 
ATOM     36  C   UNL A   1      40.940  25.079  27.934  1.00  0.00     0.029 A 
ATOM     37  N   UNL A   1      42.458  26.708  28.132  1.00  0.00    -0.354 N 
ATOM     38  C   UNL A   1      46.644  25.977  27.323  1.00  0.00     0.074 A 
ATOM     39  C   UNL A   1      46.866  24.610  26.907  1.00  0.00     0.031 C 
ATOM     40  C   UNL A   1      40.282  26.201  28.258  1.00  0.00     0.029 A 
ATOM     41  C   UNL A   1      41.245  27.280  28.435  1.00  0.00     0.049 A 
ATOM     42  H   UNL A   1      43.308  27.204  28.149  1.00  0.00     0.167 HD
ATOM     43  C   UNL A   1      47.619  26.913  27.424  1.00  0.00     0.037 A 
ATOM     44  C   UNL A   1      40.948  28.530  28.835  1.00  0.00     0.037 A 
ATOM     45  C   UNL A   1      47.390  28.281  27.817  1.00  0.00     0.049 A 
ATOM     46  C   UNL A   1      42.064  29.522  29.006  1.00  0.00     0.074 A 
ATOM     47  C   UNL A   1      48.305  29.314  27.916  1.00  0.00     0.029 A 
ATOM     48  N   UNL A   1      46.158  28.803  28.181  1.00  0.00    -0.354 N 
ATOM     49  N   UNL A   1      43.340  29.391  28.740  1.00  0.00    -0.248 NA
ATOM     50  C   UNL A   1      41.695  30.837  29.546  1.00  0.00     0.031 C 
ATOM     51  C   UNL A   1      47.640  30.446  28.397  1.00  0.00     0.029 A 
ATOM     52  C   UNL A   1      46.297  30.135  28.540  1.00  0.00     0.049 A 
ATOM     53  H   UNL A   1      45.311  28.302  28.186  1.00  0.00     0.167 HD
ATOM     54  C   UNL A   1      43.920  30.613  29.051  1.00  0.00     0.074 A 
ATOM     55  C   UNL A   1      42.851  31.480  29.501  1.00  0.00     0.031 C 
ATOM     56  C   UNL A   1      45.222  30.986  28.976  1.00  0.00     0.037 A 
BRANCH  43  57
ATOM     57  C   UNL A   1      49.030  26.490  27.131  1.00  0.00     0.057 A 
ATOM     58  C   UNL A   1      49.526  26.534  25.821  1.00  0.00     0.134 A 
ATOM     59  C   UNL A   1      49.883  25.994  28.125  1.00  0.00     0.134 A 
ATOM     60  F   UNL A   1      48.761  26.990  24.818  1.00  0.00    -0.206 F 
ATOM     61  C   UNL A   1      50.814  26.095  25.510  1.00  0.00     0.040 A 
ATOM     62  C   UNL A   1      51.184  25.578  27.832  1.00  0.00     0.040 A 
ATOM     63  F   UNL A   1      49.476  25.935  29.403  1.00  0.00    -0.206 F 
ATOM     64  C   UNL A   1      51.650  25.621  26.518  1.00  0.00     0.006 A 
ENDBRANCH  43  57
BRANCH  44  65
ATOM     65  C   UNL A   1      39.545  28.918  29.136  1.00  0.00     0.057 A 
ATOM     66  C   UNL A   1      38.699  29.427  28.143  1.00  0.00     0.134 A 
ATOM     67  C   UNL A   1      38.999  28.724  30.410  1.00  0.00     0.134 A 
ATOM     68  F   UNL A   1      39.160  29.642  26.902  1.00  0.00    -0.206 F 
ATOM     69  C   UNL A   1      37.361  29.725  28.404  1.00  0.00     0.040 A 
ATOM     70  C   UNL A   1      37.653  28.985  30.677  1.00  0.00     0.040 A 
ATOM     71  F   UNL A   1      39.752  28.221  31.399  1.00  0.00    -0.206 F 
ATOM     72  C   UNL A   1      36.832  29.488  29.670  1.00  0.00     0.006 A 
ENDBRANCH  44  65
BRANCH  56  73
ATOM     73  C   UNL A   1      45.543  32.406  29.345  1.00  0.00     0.057 A 
ATOM     74  C   UNL A   1      45.473  33.423  28.384  1.00  0.00     0.134 A 
ATOM     75  C   UNL A   1      45.919  32.769  30.645  1.00  0.00     0.134 A 
ATOM     76  F   UNL A   1      45.127  33.143  27.118  1.00  0.00    -0.206 F 
ATOM     77  C   UNL A   1      45.762  34.749  28.703  1.00  0.00     0.040 A 
ATOM     78  C   UNL A   1      46.178  34.097  30.984  1.00  0.00     0.040 A 
ATOM     79  F   UNL A   1      45.988  31.846  31.617  1.00  0.00    -0.206 F 
ATOM     80  C   UNL A   1      46.105  35.091  30.010  1.00  0.00     0.006 A 
ENDBRANCH  56  73
ENDBRANCH  30  31
ENDBRANCH  22  25
ENDBRANCH   1  21
TORSDOF 10
ENDMDL
MODEL 2
REMARK VINA RESULT:     -12.1      1.300      1.989
REMARK SMILES Cc1cccc2c(C(=O)NCCCNC(=O)c3ccc(-c4c5nc(c(-c6c(F)cccc6F)c6ccc([nH]6)c(-c6c(F)cccc6F)c6nc(c(-c7c(F)cccc7F)c7ccc4[nH]7)C=C6)C=C5)cc3)cc(=O)[nH]c12
REMARK SMILES IDX 13 1 12 2 11 3 10 4 8 5 9 6 7 8 1 9 2 10 3 11 75 12 4 13
REMARK SMILES IDX 6 14 74 15 5 16 72 17 71 19 73 20 14 21 15 22 16 24 17 25
REMARK SMILES IDX 18 26 70 27 19 28 69 29 20 30 21 31 22 32 63 33 23 34 68 35
REMARK SMILES IDX 62 36 64 37 24 38 67 39 61 40 60 41 25 43 51 44 34 45 50 46
REMARK SMILES IDX 35 47 38 48 49 49 65 50 36 51 37 52 48 54 66 55 39 56 26 57
REMARK SMILES IDX 27 58 32 59 28 60 29 61 31 62 33 63 30 64 52 65 53 66 58 67
REMARK SMILES IDX 54 68 55 69 57 70 59 71 56 72 40 73 41 74 46 75 42 76 43 77
REMARK SMILES IDX 45 78 47 79 44 80
REMARK H PARENT 10 7 74 18 14 23 64 42 38 53
REMARK Flexibility Score: inf
ROOT
ATOM      1  C   UNL A   1      39.010  20.343  25.795  1.00  0.00     0.118 C 
ENDROOT
BRANCH   1   2
ATOM      2  C   UNL A   1      37.804  19.852  24.998  1.00  0.00     0.042 C 
BRANCH   2   3
ATOM      3  C   UNL A   1      36.773  20.952  24.745  1.00  0.00     0.118 C 
BRANCH   3   4
ATOM      4  N   UNL A   1      35.717  20.887  25.741  1.00  0.00    -0.352 N 
ATOM      5  C   UNL A   1      34.459  21.392  25.849  1.00  0.00     0.252 C 
ATOM      6  O   UNL A   1      33.954  21.248  26.964  1.00  0.00    -0.269 OA
ATOM      7  H   UNL A   1      35.974  20.349  26.524  1.00  0.00     0.163 HD
BRANCH   5   8
ATOM      8  C   UNL A   1      33.690  22.014  24.709  1.00  0.00     0.054 A 
ATOM      9  C   UNL A   1      31.563  25.968  22.327  1.00  0.00     0.046 C 
ATOM     10  C   UNL A   1      32.527  25.392  23.327  1.00  0.00    -0.027 A 
ATOM     11  C   UNL A   1      33.264  26.281  24.117  1.00  0.00     0.005 A 
ATOM     12  C   UNL A   1      32.692  24.005  23.536  1.00  0.00     0.052 A 
ATOM     13  C   UNL A   1      34.137  25.807  25.087  1.00  0.00     0.001 A 
ATOM     14  C   UNL A   1      33.552  23.498  24.539  1.00  0.00     0.011 A 
ATOM     15  N   UNL A   1      32.027  23.099  22.701  1.00  0.00    -0.322 N 
ATOM     16  C   UNL A   1      34.266  24.433  25.302  1.00  0.00     0.011 A 
ATOM     17  C   UNL A   1      32.241  21.758  22.717  1.00  0.00     0.249 A 
ATOM     18  H   UNL A   1      31.365  23.455  22.065  1.00  0.00     0.170 HD
ATOM     19  C   UNL A   1      33.154  21.242  23.751  1.00  0.00     0.086 A 
ATOM     20  O   UNL A   1      31.693  20.993  21.935  1.00  0.00    -0.270 OA
ENDBRANCH   5   8
ENDBRANCH   3   4
ENDBRANCH   2   3
ENDBRANCH   1   2
BRANCH   1  21
ATOM     21  N   UNL A   1      40.090  19.362  25.821  1.00  0.00    -0.352 N 
ATOM     22  C   UNL A   1      41.433  19.536  26.055  1.00  0.00     0.251 C 
ATOM     23  H   UNL A   1      39.814  18.434  25.646  1.00  0.00     0.163 HD
ATOM     24  O   UNL A   1      42.222  18.630  25.808  1.00  0.00    -0.269 OA
BRANCH  22  25
ATOM     25  C   UNL A   1      41.927  20.823  26.587  1.00  0.00     0.039 A 
ATOM     26  C   UNL A   1      41.974  21.043  27.964  1.00  0.00     0.014 A 
ATOM     27  C   UNL A   1      42.338  21.822  25.701  1.00  0.00     0.014 A 
ATOM     28  C   UNL A   1      42.251  22.313  28.447  1.00  0.00     0.010 A 
ATOM     29  C   UNL A   1      42.716  23.073  26.197  1.00  0.00     0.010 A 
ATOM     30  C   UNL A   1      42.623  23.346  27.572  1.00  0.00    -0.014 A 
BRANCH  30  31
ATOM     31  C   UNL A   1      42.893  24.701  28.119  1.00  0.00     0.031 A 
ATOM     32  C   UNL A   1      44.303  25.139  28.421  1.00  0.00     0.074 A 
ATOM     33  C   UNL A   1      41.869  25.561  28.283  1.00  0.00     0.049 A 
ATOM     34  N   UNL A   1      44.730  26.286  28.889  1.00  0.00    -0.248 NA
ATOM     35  C   UNL A   1      45.376  24.163  28.168  1.00  0.00     0.031 C 
ATOM     36  C   UNL A   1      40.461  25.262  28.004  1.00  0.00     0.029 A 
ATOM     37  N   UNL A   1      41.852  26.868  28.697  1.00  0.00    -0.354 N 
ATOM     38  C   UNL A   1      46.108  26.161  29.009  1.00  0.00     0.074 A 
ATOM     39  C   UNL A   1      46.448  24.819  28.592  1.00  0.00     0.031 C 
ATOM     40  C   UNL A   1      39.729  26.367  28.202  1.00  0.00     0.029 A 
ATOM     41  C   UNL A   1      40.597  27.429  28.693  1.00  0.00     0.049 A 
ATOM     42  H   UNL A   1      42.661  27.358  28.971  1.00  0.00     0.167 HD
ATOM     43  C   UNL A   1      47.010  27.084  29.422  1.00  0.00     0.037 A 
ATOM     44  C   UNL A   1      40.191  28.655  29.068  1.00  0.00     0.037 A 
ATOM     45  C   UNL A   1      46.671  28.429  29.815  1.00  0.00     0.049 A 
ATOM     46  C   UNL A   1      41.209  29.630  29.590  1.00  0.00     0.074 A 
ATOM     47  C   UNL A   1      47.515  29.450  30.216  1.00  0.00     0.029 A 
ATOM     48  N   UNL A   1      45.381  28.936  29.862  1.00  0.00    -0.354 N 
ATOM     49  N   UNL A   1      42.511  29.507  29.671  1.00  0.00    -0.248 NA
ATOM     50  C   UNL A   1      40.694  30.914  30.084  1.00  0.00     0.031 C 
ATOM     51  C   UNL A   1      46.732  30.555  30.562  1.00  0.00     0.029 A 
ATOM     52  C   UNL A   1      45.404  30.244  30.319  1.00  0.00     0.049 A 
ATOM     53  H   UNL A   1      44.569  28.440  29.609  1.00  0.00     0.167 HD
ATOM     54  C   UNL A   1      42.973  30.706  30.196  1.00  0.00     0.074 A 
ATOM     55  C   UNL A   1      41.814  31.552  30.389  1.00  0.00     0.031 C 
ATOM     56  C   UNL A   1      44.242  31.076  30.497  1.00  0.00     0.037 A 
BRANCH  43  57
ATOM     57  C   UNL A   1      48.453  26.670  29.498  1.00  0.00     0.057 A 
ATOM     58  C   UNL A   1      48.949  26.041  30.647  1.00  0.00     0.134 A 
ATOM     59  C   UNL A   1      49.361  26.934  28.465  1.00  0.00     0.134 A 
ATOM     60  F   UNL A   1      48.137  25.765  31.678  1.00  0.00    -0.206 F 
ATOM     61  C   UNL A   1      50.297  25.696  30.769  1.00  0.00     0.040 A 
ATOM     62  C   UNL A   1      50.706  26.568  28.563  1.00  0.00     0.040 A 
ATOM     63  F   UNL A   1      48.950  27.524  27.332  1.00  0.00    -0.206 F 
ATOM     64  C   UNL A   1      51.178  25.953  29.722  1.00  0.00     0.006 A 
ENDBRANCH  43  57
BRANCH  44  65
ATOM     65  C   UNL A   1      38.755  29.034  29.000  1.00  0.00     0.057 A 
ATOM     66  C   UNL A   1      37.925  28.957  30.124  1.00  0.00     0.134 A 
ATOM     67  C   UNL A   1      38.198  29.547  27.822  1.00  0.00     0.134 A 
ATOM     68  F   UNL A   1      38.394  28.471  31.283  1.00  0.00    -0.206 F 
ATOM     69  C   UNL A   1      36.596  29.379  30.083  1.00  0.00     0.040 A 
ATOM     70  C   UNL A   1      36.880  30.005  27.775  1.00  0.00     0.040 A 
ATOM     71  F   UNL A   1      38.947  29.664  26.716  1.00  0.00    -0.206 F 
ATOM     72  C   UNL A   1      36.075  29.920  28.910  1.00  0.00     0.006 A 
ENDBRANCH  44  65
BRANCH  56  73
ATOM     73  C   UNL A   1      44.438  32.470  31.018  1.00  0.00     0.057 A 
ATOM     74  C   UNL A   1      44.641  33.537  30.134  1.00  0.00     0.134 A 
ATOM     75  C   UNL A   1      44.425  32.759  32.389  1.00  0.00     0.134 A 
ATOM     76  F   UNL A   1      44.673  33.329  28.809  1.00  0.00    -0.206 F 
ATOM     77  C   UNL A   1      44.821  34.841  30.594  1.00  0.00     0.040 A 
ATOM     78  C   UNL A   1      44.570  34.065  32.859  1.00  0.00     0.040 A 
ATOM     79  F   UNL A   1      44.217  31.785  33.288  1.00  0.00    -0.206 F 
ATOM     80  C   UNL A   1      44.774  35.109  31.961  1.00  0.00     0.006 A 
ENDBRANCH  56  73
ENDBRANCH  30  31
ENDBRANCH  22  25
ENDBRANCH   1  21
TORSDOF 10
ENDMDL
MODEL 3
REMARK VINA RESULT:     -12.0      5.580     10.447
REMARK SMILES Cc1cccc2c(C(=O)NCCCNC(=O)c3ccc(-c4c5nc(c(-c6c(F)cccc6F)c6ccc([nH]6)c(-c6c(F)cccc6F)c6nc(c(-c7c(F)cccc7F)c7ccc4[nH]7)C=C6)C=C5)cc3)cc(=O)[nH]c12
REMARK SMILES IDX 13 1 12 2 11 3 10 4 8 5 9 6 7 8 1 9 2 10 3 11 75 12 4 13
REMARK SMILES IDX 6 14 74 15 5 16 72 17 71 19 73 20 14 21 15 22 16 24 17 25
REMARK SMILES IDX 18 26 70 27 19 28 69 29 20 30 21 31 22 32 63 33 23 34 68 35
REMARK SMILES IDX 62 36 64 37 24 38 67 39 61 40 60 41 25 43 51 44 34 45 50 46
REMARK SMILES IDX 35 47 38 48 49 49 65 50 36 51 37 52 48 54 66 55 39 56 26 57
REMARK SMILES IDX 27 58 32 59 28 60 29 61 31 62 33 63 30 64 52 65 53 66 58 67
REMARK SMILES IDX 54 68 55 69 57 70 59 71 56 72 40 73 41 74 46 75 42 76 43 77
REMARK SMILES IDX 45 78 47 79 44 80
REMARK H PARENT 10 7 74 18 14 23 64 42 38 53
REMARK Flexibility Score: inf
ROOT
ATOM      1  C   UNL A   1      32.592  32.853  27.346  1.00  0.00     0.118 C 
ENDROOT
BRANCH   1   2
ATOM      2  C   UNL A   1      31.402  32.240  26.612  1.00  0.00     0.042 C 
BRANCH   2   3
ATOM      3  C   UNL A   1      31.620  30.770  26.253  1.00  0.00     0.118 C 
BRANCH   3   4
ATOM      4  N   UNL A   1      32.881  30.303  26.802  1.00  0.00    -0.352 N 
ATOM      5  C   UNL A   1      33.497  29.095  26.916  1.00  0.00     0.252 C 
ATOM      6  O   UNL A   1      34.503  29.109  27.628  1.00  0.00    -0.269 OA
ATOM      7  H   UNL A   1      33.419  31.035  27.181  1.00  0.00     0.163 HD
BRANCH   5   8
ATOM      8  C   UNL A   1      33.060  27.845  26.193  1.00  0.00     0.054 A 
ATOM      9  C   UNL A   1      32.128  25.162  21.978  1.00  0.00     0.046 C 
ATOM     10  C   UNL A   1      32.787  26.308  22.695  1.00  0.00    -0.027 A 
ATOM     11  C   UNL A   1      33.529  27.219  21.935  1.00  0.00     0.005 A 
ATOM     12  C   UNL A   1      32.658  26.533  24.083  1.00  0.00     0.052 A 
ATOM     13  C   UNL A   1      34.123  28.320  22.536  1.00  0.00     0.001 A 
ATOM     14  C   UNL A   1      33.227  27.664  24.713  1.00  0.00     0.011 A 
ATOM     15  N   UNL A   1      31.989  25.590  24.873  1.00  0.00    -0.322 N 
ATOM     16  C   UNL A   1      33.960  28.545  23.905  1.00  0.00     0.011 A 
ATOM     17  C   UNL A   1      31.948  25.632  26.230  1.00  0.00     0.249 A 
ATOM     18  H   UNL A   1      31.521  24.852  24.419  1.00  0.00     0.170 HD
ATOM     19  C   UNL A   1      32.562  26.804  26.878  1.00  0.00     0.086 A 
ATOM     20  O   UNL A   1      31.409  24.763  26.901  1.00  0.00    -0.270 OA
ENDBRANCH   5   8
ENDBRANCH   3   4
ENDBRANCH   2   3
ENDBRANCH   1   2
BRANCH   1  21
ATOM     21  N   UNL A   1      32.374  34.257  27.674  1.00  0.00    -0.352 N 
ATOM     22  C   UNL A   1      32.967  35.040  28.636  1.00  0.00     0.251 C 
ATOM     23  H   UNL A   1      31.699  34.715  27.122  1.00  0.00     0.163 HD
ATOM     24  O   UNL A   1      32.490  36.135  28.916  1.00  0.00    -0.269 OA
BRANCH  22  25
ATOM     25  C   UNL A   1      34.168  34.552  29.344  1.00  0.00     0.039 A 
ATOM     26  C   UNL A   1      35.428  34.672  28.756  1.00  0.00     0.014 A 
ATOM     27  C   UNL A   1      34.033  33.961  30.602  1.00  0.00     0.014 A 
ATOM     28  C   UNL A   1      36.519  34.040  29.335  1.00  0.00     0.010 A 
ATOM     29  C   UNL A   1      35.155  33.414  31.233  1.00  0.00     0.010 A 
ATOM     30  C   UNL A   1      36.397  33.401  30.579  1.00  0.00    -0.014 A 
BRANCH  30  31
ATOM     31  C   UNL A   1      37.580  32.716  31.162  1.00  0.00     0.031 A 
ATOM     32  C   UNL A   1      38.145  33.156  32.488  1.00  0.00     0.074 A 
ATOM     33  C   UNL A   1      38.105  31.651  30.524  1.00  0.00     0.049 A 
ATOM     34  N   UNL A   1      39.162  32.669  33.155  1.00  0.00    -0.248 NA
ATOM     35  C   UNL A   1      37.487  34.293  33.151  1.00  0.00     0.031 C 
ATOM     36  C   UNL A   1      37.632  31.114  29.244  1.00  0.00     0.029 A 
ATOM     37  N   UNL A   1      39.133  30.813  30.872  1.00  0.00    -0.354 N 
ATOM     38  C   UNL A   1      39.279  33.451  34.298  1.00  0.00     0.074 A 
ATOM     39  C   UNL A   1      38.249  34.464  34.223  1.00  0.00     0.031 C 
ATOM     40  C   UNL A   1      38.329  30.009  28.946  1.00  0.00     0.029 A 
ATOM     41  C   UNL A   1      39.347  29.801  29.968  1.00  0.00     0.049 A 
ATOM     42  H   UNL A   1      39.666  30.925  31.692  1.00  0.00     0.167 HD
ATOM     43  C   UNL A   1      40.160  33.331  35.320  1.00  0.00     0.037 A 
ATOM     44  C   UNL A   1      40.276  28.829  29.952  1.00  0.00     0.037 A 
ATOM     45  C   UNL A   1      41.171  32.307  35.403  1.00  0.00     0.049 A 
ATOM     46  C   UNL A   1      41.284  28.771  31.066  1.00  0.00     0.074 A 
ATOM     47  C   UNL A   1      42.088  32.079  36.413  1.00  0.00     0.029 A 
ATOM     48  N   UNL A   1      41.399  31.343  34.432  1.00  0.00    -0.354 N 
ATOM     49  N   UNL A   1      41.365  29.499  32.152  1.00  0.00    -0.248 NA
ATOM     50  C   UNL A   1      42.340  27.756  30.943  1.00  0.00     0.031 C 
ATOM     51  C   UNL A   1      42.910  31.016  36.028  1.00  0.00     0.029 A 
ATOM     52  C   UNL A   1      42.466  30.540  34.805  1.00  0.00     0.049 A 
ATOM     53  H   UNL A   1      40.880  31.242  33.602  1.00  0.00     0.167 HD
ATOM     54  C   UNL A   1      42.459  29.013  32.854  1.00  0.00     0.074 A 
ATOM     55  C   UNL A   1      42.994  27.910  32.083  1.00  0.00     0.031 C 
ATOM     56  C   UNL A   1      42.980  29.441  34.031  1.00  0.00     0.037 A 
BRANCH  43  57
ATOM     57  C   UNL A   1      40.094  34.347  36.426  1.00  0.00     0.057 A 
ATOM     58  C   UNL A   1      39.276  34.128  37.542  1.00  0.00     0.134 A 
ATOM     59  C   UNL A   1      40.795  35.559  36.369  1.00  0.00     0.134 A 
ATOM     60  F   UNL A   1      38.572  32.992  37.657  1.00  0.00    -0.206 F 
ATOM     61  C   UNL A   1      39.152  35.078  38.557  1.00  0.00     0.040 A 
ATOM     62  C   UNL A   1      40.701  36.506  37.392  1.00  0.00     0.040 A 
ATOM     63  F   UNL A   1      41.605  35.829  35.334  1.00  0.00    -0.206 F 
ATOM     64  C   UNL A   1      39.871  36.269  38.487  1.00  0.00     0.006 A 
ENDBRANCH  43  57
BRANCH  44  65
ATOM     65  C   UNL A   1      40.331  27.847  28.838  1.00  0.00     0.057 A 
ATOM     66  C   UNL A   1      39.599  26.654  28.878  1.00  0.00     0.134 A 
ATOM     67  C   UNL A   1      41.065  28.113  27.675  1.00  0.00     0.134 A 
ATOM     68  F   UNL A   1      38.879  26.336  29.964  1.00  0.00    -0.206 F 
ATOM     69  C   UNL A   1      39.591  25.763  27.805  1.00  0.00     0.040 A 
ATOM     70  C   UNL A   1      41.039  27.248  26.580  1.00  0.00     0.040 A 
ATOM     71  F   UNL A   1      41.771  29.248  27.567  1.00  0.00    -0.206 F 
ATOM     72  C   UNL A   1      40.300  26.069  26.644  1.00  0.00     0.006 A 
ENDBRANCH  44  65
BRANCH  56  73
ATOM     73  C   UNL A   1      44.156  28.679  34.570  1.00  0.00     0.057 A 
ATOM     74  C   UNL A   1      43.963  27.554  35.381  1.00  0.00     0.134 A 
ATOM     75  C   UNL A   1      45.476  29.055  34.288  1.00  0.00     0.134 A 
ATOM     76  F   UNL A   1      42.725  27.145  35.697  1.00  0.00    -0.206 F 
ATOM     77  C   UNL A   1      45.039  26.828  35.890  1.00  0.00     0.040 A 
ATOM     78  C   UNL A   1      46.560  28.317  34.764  1.00  0.00     0.040 A 
ATOM     79  F   UNL A   1      45.731  30.113  33.503  1.00  0.00    -0.206 F 
ATOM     80  C   UNL A   1      46.344  27.203  35.572  1.00  0.00     0.006 A 
ENDBRANCH  56  73
ENDBRANCH  30  31
ENDBRANCH  22  25
ENDBRANCH   1  21
TORSDOF 10
ENDMDL
