MODEL 1
REMARK VINA RESULT:     -11.2      0.000      0.000
REMARK SMILES Cc1cc(Br)cc([N+](=O)[O-])c1OCCC(=O)NCCCNC(=O)c1ccc(-c2c3nc(c(-c4c(F)cccc4F)c4ccc([nH]4)c(-c4c(F)cccc4F)c4nc(c(-c5c(F)cccc5F)c5ccc2[nH]5)C=C4)C=C3)cc1
REMARK SMILES IDX 18 1 17 2 15 3 16 4 14 6 13 7 12 8 11 9 1 10 2 11 3 12 4 13
REMARK SMILES IDX 7 14 5 15 6 16 8 17 9 18 10 19 19 20 20 21 21 22 22 23 23 25
REMARK SMILES IDX 24 26 25 27 77 28 26 29 76 30 27 31 28 32 29 33 70 34 30 35
REMARK SMILES IDX 75 36 69 37 71 38 31 39 74 40 68 41 67 42 32 44 58 45 41 46
REMARK SMILES IDX 57 47 42 48 45 49 56 50 72 51 43 52 44 53 55 55 73 56 46 57
REMARK SMILES IDX 33 58 34 59 39 60 35 61 36 62 38 63 40 64 37 65 59 66 60 67
REMARK SMILES IDX 65 68 61 69 62 70 64 71 66 72 63 73 47 74 48 75 53 76 49 77
REMARK SMILES IDX 50 78 52 79 54 80 51 81
REMARK H PARENT 17 5 21 24 71 43 45 54
REMARK Flexibility Score: inf
ROOT
ATOM      1  C   UNL A   1      31.251  29.743  24.876  1.00  0.00     0.117 C 
ENDROOT
BRANCH   1   2
ATOM      2  N   UNL A   1      30.953  29.670  23.452  1.00  0.00    -0.356 N 
ATOM      3  C   UNL A   1      30.041  28.912  22.780  1.00  0.00     0.223 C 
ATOM      4  O   UNL A   1      29.816  29.182  21.598  1.00  0.00    -0.275 OA
ATOM      5  H   UNL A   1      31.496  30.264  22.884  1.00  0.00     0.163 HD
BRANCH   3   6
ATOM      6  C   UNL A   1      29.319  27.774  23.459  1.00  0.00     0.141 C 
BRANCH   6   7
ATOM      7  C   UNL A   1      30.110  26.470  23.460  1.00  0.00     0.240 C 
BRANCH   7   8
ATOM      8  O   UNL A   1      31.509  26.672  23.385  1.00  0.00    -0.486 OA
BRANCH   8   9
ATOM      9  C   UNL A   1      32.482  26.064  24.116  1.00  0.00     0.200 A 
ATOM     10  C   UNL A   1      31.824  26.527  26.625  1.00  0.00     0.049 C 
ATOM     11  C   UNL A   1      32.617  25.910  25.506  1.00  0.00    -0.001 A 
ATOM     12  C   UNL A   1      33.652  25.069  25.998  1.00  0.00     0.023 A 
ATOM     13  C   UNL A   1      34.572  24.443  25.165  1.00  0.00     0.025 A 
ATOM     14  C   UNL A   1      33.475  25.449  23.302  1.00  0.00     0.312 A 
ATOM     15  Br  UNL A   1      35.902  23.338  25.922  1.00  0.00    -0.051 Br
ATOM     16  C   UNL A   1      34.508  24.644  23.803  1.00  0.00     0.105 A 
BRANCH  14  17
ATOM     17  N   UNL A   1      33.422  25.587  21.849  1.00  0.00     0.066 N 
ATOM     18  O   UNL A   1      33.079  24.583  21.206  1.00  0.00    -0.258 OA
ATOM     19  O   UNL A   1      33.765  26.670  21.354  1.00  0.00    -0.258 OA
ENDBRANCH  14  17
ENDBRANCH   8   9
ENDBRANCH   7   8
ENDBRANCH   6   7
ENDBRANCH   3   6
ENDBRANCH   1   2
BRANCH   1  20
ATOM     20  C   UNL A   1      31.020  31.124  25.492  1.00  0.00     0.042 C 
BRANCH  20  21
ATOM     21  C   UNL A   1      31.766  31.384  26.809  1.00  0.00     0.118 C 
BRANCH  21  22
ATOM     22  N   UNL A   1      31.959  32.806  27.050  1.00  0.00    -0.352 N 
ATOM     23  C   UNL A   1      32.921  33.507  27.734  1.00  0.00     0.251 C 
ATOM     24  H   UNL A   1      31.266  33.376  26.644  1.00  0.00     0.163 HD
ATOM     25  O   UNL A   1      32.684  34.698  27.972  1.00  0.00    -0.269 OA
BRANCH  23  26
ATOM     26  C   UNL A   1      34.230  32.950  28.187  1.00  0.00     0.039 A 
ATOM     27  C   UNL A   1      34.235  31.639  28.688  1.00  0.00     0.014 A 
ATOM     28  C   UNL A   1      35.399  33.704  28.314  1.00  0.00     0.014 A 
ATOM     29  C   UNL A   1      35.378  31.094  29.298  1.00  0.00     0.010 A 
ATOM     30  C   UNL A   1      36.562  33.134  28.882  1.00  0.00     0.010 A 
ATOM     31  C   UNL A   1      36.570  31.828  29.400  1.00  0.00    -0.014 A 
BRANCH  31  32
ATOM     32  C   UNL A   1      37.784  31.224  30.052  1.00  0.00     0.031 A 
ATOM     33  C   UNL A   1      38.156  31.518  31.491  1.00  0.00     0.074 A 
ATOM     34  C   UNL A   1      38.584  30.382  29.361  1.00  0.00     0.049 A 
ATOM     35  N   UNL A   1      39.145  31.033  32.209  1.00  0.00    -0.248 NA
ATOM     36  C   UNL A   1      37.327  32.493  32.213  1.00  0.00     0.031 C 
ATOM     37  C   UNL A   1      38.419  30.021  27.954  1.00  0.00     0.029 A 
ATOM     38  N   UNL A   1      39.697  29.669  29.756  1.00  0.00    -0.354 N 
ATOM     39  C   UNL A   1      39.066  31.653  33.452  1.00  0.00     0.074 A 
ATOM     40  C   UNL A   1      37.958  32.583  33.376  1.00  0.00     0.031 C 
ATOM     41  C   UNL A   1      39.364  29.128  27.614  1.00  0.00     0.029 A 
ATOM     42  C   UNL A   1      40.224  28.872  28.768  1.00  0.00     0.049 A 
ATOM     43  H   UNL A   1      40.077  29.726  30.662  1.00  0.00     0.167 HD
ATOM     44  C   UNL A   1      39.820  31.457  34.565  1.00  0.00     0.037 A 
ATOM     45  C   UNL A   1      41.272  28.022  28.774  1.00  0.00     0.037 A 
ATOM     46  C   UNL A   1      40.901  30.511  34.689  1.00  0.00     0.049 A 
ATOM     47  C   UNL A   1      42.079  27.804  30.025  1.00  0.00     0.074 A 
ATOM     48  C   UNL A   1      41.656  30.209  35.814  1.00  0.00     0.029 A 
ATOM     49  N   UNL A   1      41.388  29.717  33.666  1.00  0.00    -0.354 N 
ATOM     50  N   UNL A   1      41.930  28.340  31.210  1.00  0.00    -0.248 NA
ATOM     51  C   UNL A   1      43.195  26.847  29.938  1.00  0.00     0.031 C 
ATOM     52  C   UNL A   1      42.622  29.261  35.461  1.00  0.00     0.029 A 
ATOM     53  C   UNL A   1      42.441  28.940  34.128  1.00  0.00     0.049 A 
ATOM     54  H   UNL A   1      41.039  29.705  32.745  1.00  0.00     0.167 HD
ATOM     55  C   UNL A   1      42.909  27.764  32.014  1.00  0.00     0.074 A 
ATOM     56  C   UNL A   1      43.639  26.829  31.187  1.00  0.00     0.031 C 
ATOM     57  C   UNL A   1      43.171  27.996  33.322  1.00  0.00     0.037 A 
BRANCH  44  58
ATOM     58  C   UNL A   1      39.492  32.284  35.779  1.00  0.00     0.057 A 
ATOM     59  C   UNL A   1      38.560  31.853  36.733  1.00  0.00     0.134 A 
ATOM     60  C   UNL A   1      40.169  33.483  36.032  1.00  0.00     0.134 A 
ATOM     61  F   UNL A   1      37.879  30.713  36.550  1.00  0.00    -0.206 F 
ATOM     62  C   UNL A   1      38.296  32.599  37.882  1.00  0.00     0.040 A 
ATOM     63  C   UNL A   1      39.932  34.225  37.193  1.00  0.00     0.040 A 
ATOM     64  F   UNL A   1      41.089  33.944  35.170  1.00  0.00    -0.206 F 
ATOM     65  C   UNL A   1      38.988  33.785  38.119  1.00  0.00     0.006 A 
ENDBRANCH  44  58
BRANCH  45  66
ATOM     66  C   UNL A   1      41.616  27.268  27.542  1.00  0.00     0.057 A 
ATOM     67  C   UNL A   1      41.144  25.965  27.337  1.00  0.00     0.134 A 
ATOM     68  C   UNL A   1      42.450  27.816  26.562  1.00  0.00     0.134 A 
ATOM     69  F   UNL A   1      40.365  25.378  28.258  1.00  0.00    -0.206 F 
ATOM     70  C   UNL A   1      41.503  25.228  26.209  1.00  0.00     0.040 A 
ATOM     71  C   UNL A   1      42.798  27.099  25.416  1.00  0.00     0.040 A 
ATOM     72  F   UNL A   1      42.937  29.058  26.703  1.00  0.00    -0.206 F 
ATOM     73  C   UNL A   1      42.330  25.797  25.242  1.00  0.00     0.006 A 
ENDBRANCH  45  66
BRANCH  57  74
ATOM     74  C   UNL A   1      44.267  27.194  33.967  1.00  0.00     0.057 A 
ATOM     75  C   UNL A   1      45.592  27.648  34.011  1.00  0.00     0.134 A 
ATOM     76  C   UNL A   1      43.990  25.960  34.569  1.00  0.00     0.134 A 
ATOM     77  F   UNL A   1      45.932  28.814  33.443  1.00  0.00    -0.206 F 
ATOM     78  C   UNL A   1      46.604  26.890  34.607  1.00  0.00     0.040 A 
ATOM     79  C   UNL A   1      44.988  25.205  35.190  1.00  0.00     0.040 A 
ATOM     80  F   UNL A   1      42.742  25.469  34.571  1.00  0.00    -0.206 F 
ATOM     81  C   UNL A   1      46.303  25.667  35.203  1.00  0.00     0.006 A 
ENDBRANCH  57  74
ENDBRANCH  31  32
ENDBRANCH  23  26
ENDBRANCH  21  22
ENDBRANCH  20  21
ENDBRANCH   1  20
TORSDOF 14
ENDMDL
MODEL 2
REMARK VINA RESULT:     -11.1      4.437      9.106
REMARK SMILES Cc1cc(Br)cc([N+](=O)[O-])c1OCCC(=O)NCCCNC(=O)c1ccc(-c2c3nc(c(-c4c(F)cccc4F)c4ccc([nH]4)c(-c4c(F)cccc4F)c4nc(c(-c5c(F)cccc5F)c5ccc2[nH]5)C=C4)C=C3)cc1
REMARK SMILES IDX 18 1 17 2 15 3 16 4 14 6 13 7 12 8 11 9 1 10 2 11 3 12 4 13
REMARK SMILES IDX 7 14 5 15 6 16 8 17 9 18 10 19 19 20 20 21 21 22 22 23 23 25
REMARK SMILES IDX 24 26 25 27 77 28 26 29 76 30 27 31 28 32 29 33 70 34 30 35
REMARK SMILES IDX 75 36 69 37 71 38 31 39 74 40 68 41 67 42 32 44 58 45 41 46
REMARK SMILES IDX 57 47 42 48 45 49 56 50 72 51 43 52 44 53 55 55 73 56 46 57
REMARK SMILES IDX 33 58 34 59 39 60 35 61 36 62 38 63 40 64 37 65 59 66 60 67
REMARK SMILES IDX 65 68 61 69 62 70 64 71 66 72 63 73 47 74 48 75 53 76 49 77
REMARK SMILES IDX 50 78 52 79 54 80 51 81
REMARK H PARENT 17 5 21 24 71 43 45 54
REMARK Flexibility Score: inf
ROOT
ATOM      1  C   UNL A   1      35.700  20.342  24.931  1.00  0.00     0.117 C 
ENDROOT
BRANCH   1   2
ATOM      2  N   UNL A   1      34.541  19.703  25.541  1.00  0.00    -0.356 N 
ATOM      3  C   UNL A   1      33.287  19.495  25.047  1.00  0.00     0.223 C 
ATOM      4  O   UNL A   1      32.538  18.734  25.664  1.00  0.00    -0.275 OA
ATOM      5  H   UNL A   1      34.686  19.369  26.456  1.00  0.00     0.163 HD
BRANCH   3   6
ATOM      6  C   UNL A   1      32.827  20.168  23.778  1.00  0.00     0.141 C 
BRANCH   6   7
ATOM      7  C   UNL A   1      32.243  21.558  24.008  1.00  0.00     0.240 C 
BRANCH   7   8
ATOM      8  O   UNL A   1      32.808  22.217  25.126  1.00  0.00    -0.486 OA
BRANCH   8   9
ATOM      9  C   UNL A   1      33.219  23.510  25.216  1.00  0.00     0.200 A 
ATOM     10  C   UNL A   1      35.170  23.718  23.458  1.00  0.00     0.049 C 
ATOM     11  C   UNL A   1      34.175  24.218  24.468  1.00  0.00    -0.001 A 
ATOM     12  C   UNL A   1      34.281  25.623  24.658  1.00  0.00     0.023 A 
ATOM     13  C   UNL A   1      33.522  26.314  25.596  1.00  0.00     0.025 A 
ATOM     14  C   UNL A   1      32.500  24.245  26.201  1.00  0.00     0.312 A 
ATOM     15  Br  UNL A   1      33.734  28.182  25.760  1.00  0.00    -0.051 Br
ATOM     16  C   UNL A   1      32.635  25.627  26.397  1.00  0.00     0.105 A 
BRANCH  14  17
ATOM     17  N   UNL A   1      31.510  23.576  27.041  1.00  0.00     0.066 N 
ATOM     18  O   UNL A   1      30.319  23.826  26.803  1.00  0.00    -0.258 OA
ATOM     19  O   UNL A   1      31.920  22.848  27.956  1.00  0.00    -0.258 OA
ENDBRANCH  14  17
ENDBRANCH   8   9
ENDBRANCH   7   8
ENDBRANCH   6   7
ENDBRANCH   3   6
ENDBRANCH   1   2
BRANCH   1  20
ATOM     20  C   UNL A   1      36.965  19.483  24.946  1.00  0.00     0.042 C 
BRANCH  20  21
ATOM     21  C   UNL A   1      38.254  20.225  25.333  1.00  0.00     0.118 C 
BRANCH  21  22
ATOM     22  N   UNL A   1      39.360  19.308  25.558  1.00  0.00    -0.352 N 
ATOM     23  C   UNL A   1      40.671  19.508  25.912  1.00  0.00     0.251 C 
ATOM     24  H   UNL A   1      39.123  18.361  25.433  1.00  0.00     0.163 HD
ATOM     25  O   UNL A   1      41.438  18.545  25.789  1.00  0.00    -0.269 OA
BRANCH  23  26
ATOM     26  C   UNL A   1      41.230  20.784  26.450  1.00  0.00     0.039 A 
ATOM     27  C   UNL A   1      41.030  21.052  27.812  1.00  0.00     0.014 A 
ATOM     28  C   UNL A   1      41.772  21.796  25.656  1.00  0.00     0.014 A 
ATOM     29  C   UNL A   1      41.364  22.300  28.369  1.00  0.00     0.010 A 
ATOM     30  C   UNL A   1      42.154  23.031  26.229  1.00  0.00     0.010 A 
ATOM     31  C   UNL A   1      41.942  23.313  27.589  1.00  0.00    -0.014 A 
BRANCH  31  32
ATOM     32  C   UNL A   1      42.297  24.640  28.204  1.00  0.00     0.031 A 
ATOM     33  C   UNL A   1      43.714  24.984  28.619  1.00  0.00     0.074 A 
ATOM     34  C   UNL A   1      41.346  25.580  28.397  1.00  0.00     0.049 A 
ATOM     35  N   UNL A   1      44.184  26.107  29.115  1.00  0.00    -0.248 NA
ATOM     36  C   UNL A   1      44.728  23.931  28.477  1.00  0.00     0.031 C 
ATOM     37  C   UNL A   1      39.921  25.416  28.111  1.00  0.00     0.029 A 
ATOM     38  N   UNL A   1      41.438  26.871  28.876  1.00  0.00    -0.354 N 
ATOM     39  C   UNL A   1      45.537  25.889  29.358  1.00  0.00     0.074 A 
ATOM     40  C   UNL A   1      45.802  24.512  28.996  1.00  0.00     0.031 C 
ATOM     41  C   UNL A   1      39.282  26.566  28.379  1.00  0.00     0.029 A 
ATOM     42  C   UNL A   1      40.241  27.546  28.885  1.00  0.00     0.049 A 
ATOM     43  H   UNL A   1      42.284  27.270  29.182  1.00  0.00     0.167 HD
ATOM     44  C   UNL A   1      46.483  26.751  29.814  1.00  0.00     0.037 A 
ATOM     45  C   UNL A   1      39.934  28.809  29.248  1.00  0.00     0.037 A 
ATOM     46  C   UNL A   1      46.264  28.138  30.144  1.00  0.00     0.049 A 
ATOM     47  C   UNL A   1      41.002  29.754  29.728  1.00  0.00     0.074 A 
ATOM     48  C   UNL A   1      47.197  29.086  30.538  1.00  0.00     0.029 A 
ATOM     49  N   UNL A   1      45.038  28.778  30.123  1.00  0.00    -0.354 N 
ATOM     50  N   UNL A   1      42.287  29.547  29.868  1.00  0.00    -0.248 NA
ATOM     51  C   UNL A   1      40.573  31.115  30.088  1.00  0.00     0.031 C 
ATOM     52  C   UNL A   1      46.529  30.289  30.792  1.00  0.00     0.029 A 
ATOM     53  C   UNL A   1      45.187  30.102  30.514  1.00  0.00     0.049 A 
ATOM     54  H   UNL A   1      44.185  28.358  29.869  1.00  0.00     0.167 HD
ATOM     55  C   UNL A   1      42.821  30.757  30.300  1.00  0.00     0.074 A 
ATOM     56  C   UNL A   1      41.726  31.696  30.389  1.00  0.00     0.031 C 
ATOM     57  C   UNL A   1      44.110  31.053  30.595  1.00  0.00     0.037 A 
BRANCH  44  58
ATOM     58  C   UNL A   1      47.882  26.222  29.976  1.00  0.00     0.057 A 
ATOM     59  C   UNL A   1      48.811  26.268  28.928  1.00  0.00     0.134 A 
ATOM     60  C   UNL A   1      48.326  25.735  31.212  1.00  0.00     0.134 A 
ATOM     61  F   UNL A   1      48.450  26.724  27.720  1.00  0.00    -0.206 F 
ATOM     62  C   UNL A   1      50.123  25.822  29.096  1.00  0.00     0.040 A 
ATOM     63  C   UNL A   1      49.644  25.312  31.400  1.00  0.00     0.040 A 
ATOM     64  F   UNL A   1      47.494  25.683  32.263  1.00  0.00    -0.206 F 
ATOM     65  C   UNL A   1      50.545  25.350  30.338  1.00  0.00     0.006 A 
ENDBRANCH  44  58
BRANCH  45  66
ATOM     66  C   UNL A   1      38.532  29.285  29.142  1.00  0.00     0.057 A 
ATOM     67  C   UNL A   1      38.014  29.744  27.924  1.00  0.00     0.134 A 
ATOM     68  C   UNL A   1      37.690  29.326  30.259  1.00  0.00     0.134 A 
ATOM     69  F   UNL A   1      38.785  29.757  26.826  1.00  0.00    -0.206 F 
ATOM     70  C   UNL A   1      36.715  30.243  27.824  1.00  0.00     0.040 A 
ATOM     71  C   UNL A   1      36.381  29.799  30.168  1.00  0.00     0.040 A 
ATOM     72  F   UNL A   1      38.129  28.903  31.454  1.00  0.00    -0.206 F 
ATOM     73  C   UNL A   1      35.893  30.267  28.949  1.00  0.00     0.006 A 
ENDBRANCH  45  66
BRANCH  57  74
ATOM     74  C   UNL A   1      44.425  32.466  30.999  1.00  0.00     0.057 A 
ATOM     75  C   UNL A   1      44.427  32.874  32.340  1.00  0.00     0.134 A 
ATOM     76  C   UNL A   1      44.751  33.429  30.034  1.00  0.00     0.134 A 
ATOM     77  F   UNL A   1      44.112  32.009  33.314  1.00  0.00    -0.206 F 
ATOM     78  C   UNL A   1      44.716  34.193  32.703  1.00  0.00     0.040 A 
ATOM     79  C   UNL A   1      45.065  34.744  30.386  1.00  0.00     0.040 A 
ATOM     80  F   UNL A   1      44.777  33.107  28.733  1.00  0.00    -0.206 F 
ATOM     81  C   UNL A   1      45.041  35.131  31.725  1.00  0.00     0.006 A 
ENDBRANCH  57  74
ENDBRANCH  31  32
ENDBRANCH  23  26
ENDBRANCH  21  22
ENDBRANCH  20  21
ENDBRANCH   1  20
TORSDOF 14
ENDMDL
MODEL 3
REMARK VINA RESULT:     -10.9      4.330      8.389
REMARK SMILES Cc1cc(Br)cc([N+](=O)[O-])c1OCCC(=O)NCCCNC(=O)c1ccc(-c2c3nc(c(-c4c(F)cccc4F)c4ccc([nH]4)c(-c4c(F)cccc4F)c4nc(c(-c5c(F)cccc5F)c5ccc2[nH]5)C=C4)C=C3)cc1
REMARK SMILES IDX 18 1 17 2 15 3 16 4 14 6 13 7 12 8 11 9 1 10 2 11 3 12 4 13
REMARK SMILES IDX 7 14 5 15 6 16 8 17 9 18 10 19 19 20 20 21 21 22 22 23 23 25
REMARK SMILES IDX 24 26 25 27 77 28 26 29 76 30 27 31 28 32 29 33 70 34 30 35
REMARK SMILES IDX 75 36 69 37 71 38 31 39 74 40 68 41 67 42 32 44 58 45 41 46
REMARK SMILES IDX 57 47 42 48 45 49 56 50 72 51 43 52 44 53 55 55 73 56 46 57
REMARK SMILES IDX 33 58 34 59 39 60 35 61 36 62 38 63 40 64 37 65 59 66 60 67
REMARK SMILES IDX 65 68 61 69 62 70 64 71 66 72 63 73 47 74 48 75 53 76 49 77
REMARK SMILES IDX 50 78 52 79 54 80 51 81
REMARK H PARENT 17 5 21 24 71 43 45 54
REMARK Flexibility Score: inf
ROOT
ATOM      1  C   UNL A   1      35.943  20.049  24.942  1.00  0.00     0.117 C 
ENDROOT
BRANCH   1   2
ATOM      2  N   UNL A   1      34.930  19.006  25.039  1.00  0.00    -0.356 N 
ATOM      3  C   UNL A   1      33.702  18.913  24.456  1.00  0.00     0.223 C 
ATOM      4  O   UNL A   1      33.112  17.831  24.511  1.00  0.00    -0.275 OA
ATOM      5  H   UNL A   1      35.172  18.247  25.619  1.00  0.00     0.163 HD
BRANCH   3   6
ATOM      6  C   UNL A   1      33.078  20.096  23.758  1.00  0.00     0.141 C 
BRANCH   6   7
ATOM      7  C   UNL A   1      32.325  21.028  24.701  1.00  0.00     0.240 C 
BRANCH   7   8
ATOM      8  O   UNL A   1      33.186  21.821  25.498  1.00  0.00    -0.486 OA
BRANCH   8   9
ATOM      9  C   UNL A   1      33.482  23.140  25.351  1.00  0.00     0.200 A 
ATOM     10  C   UNL A   1      35.251  23.216  23.400  1.00  0.00     0.049 C 
ATOM     11  C   UNL A   1      34.303  23.792  24.415  1.00  0.00    -0.001 A 
ATOM     12  C   UNL A   1      34.296  25.213  24.381  1.00  0.00     0.023 A 
ATOM     13  C   UNL A   1      33.559  25.983  25.273  1.00  0.00     0.025 A 
ATOM     14  C   UNL A   1      32.786  23.964  26.280  1.00  0.00     0.312 A 
ATOM     15  Br  UNL A   1      33.612  27.864  25.133  1.00  0.00    -0.051 Br
ATOM     16  C   UNL A   1      32.809  25.366  26.251  1.00  0.00     0.105 A 
BRANCH  14  17
ATOM     17  N   UNL A   1      31.935  23.362  27.303  1.00  0.00     0.066 N 
ATOM     18  O   UNL A   1      30.724  23.619  27.243  1.00  0.00    -0.258 OA
ATOM     19  O   UNL A   1      32.479  22.680  28.183  1.00  0.00    -0.258 OA
ENDBRANCH  14  17
ENDBRANCH   8   9
ENDBRANCH   7   8
ENDBRANCH   6   7
ENDBRANCH   3   6
ENDBRANCH   1   2
BRANCH   1  20
ATOM     20  C   UNL A   1      37.353  19.525  24.665  1.00  0.00     0.042 C 
BRANCH  20  21
ATOM     21  C   UNL A   1      38.468  20.182  25.494  1.00  0.00     0.118 C 
BRANCH  21  22
ATOM     22  N   UNL A   1      39.591  19.281  25.700  1.00  0.00    -0.352 N 
ATOM     23  C   UNL A   1      40.911  19.502  26.007  1.00  0.00     0.251 C 
ATOM     24  H   UNL A   1      39.361  18.329  25.601  1.00  0.00     0.163 HD
ATOM     25  O   UNL A   1      41.684  18.545  25.878  1.00  0.00    -0.269 OA
BRANCH  23  26
ATOM     26  C   UNL A   1      41.473  20.793  26.501  1.00  0.00     0.039 A 
ATOM     27  C   UNL A   1      41.293  21.098  27.859  1.00  0.00     0.014 A 
ATOM     28  C   UNL A   1      41.999  21.786  25.671  1.00  0.00     0.014 A 
ATOM     29  C   UNL A   1      41.631  22.361  28.376  1.00  0.00     0.010 A 
ATOM     30  C   UNL A   1      42.384  23.038  26.205  1.00  0.00     0.010 A 
ATOM     31  C   UNL A   1      42.193  23.355  27.560  1.00  0.00    -0.014 A 
BRANCH  31  32
ATOM     32  C   UNL A   1      42.552  24.700  28.133  1.00  0.00     0.031 A 
ATOM     33  C   UNL A   1      41.514  25.778  28.371  1.00  0.00     0.074 A 
ATOM     34  C   UNL A   1      43.832  24.982  28.465  1.00  0.00     0.049 A 
ATOM     35  N   UNL A   1      41.663  26.970  28.906  1.00  0.00    -0.248 NA
ATOM     36  C   UNL A   1      40.140  25.494  27.937  1.00  0.00     0.031 C 
ATOM     37  C   UNL A   1      44.975  24.093  28.262  1.00  0.00     0.029 A 
ATOM     38  N   UNL A   1      44.384  26.100  29.054  1.00  0.00    -0.354 N 
ATOM     39  C   UNL A   1      40.413  27.578  28.858  1.00  0.00     0.074 A 
ATOM     40  C   UNL A   1      39.526  26.641  28.200  1.00  0.00     0.031 C 
ATOM     41  C   UNL A   1      46.080  24.679  28.752  1.00  0.00     0.029 A 
ATOM     42  C   UNL A   1      45.736  25.998  29.279  1.00  0.00     0.049 A 
ATOM     43  H   UNL A   1      43.858  26.897  29.291  1.00  0.00     0.167 HD
ATOM     44  C   UNL A   1      40.021  28.789  29.334  1.00  0.00     0.037 A 
ATOM     45  C   UNL A   1      46.611  26.853  29.848  1.00  0.00     0.037 A 
ATOM     46  C   UNL A   1      40.865  29.728  30.030  1.00  0.00     0.049 A 
ATOM     47  C   UNL A   1      46.151  28.178  30.390  1.00  0.00     0.074 A 
ATOM     48  C   UNL A   1      40.512  30.940  30.607  1.00  0.00     0.029 A 
ATOM     49  N   UNL A   1      42.223  29.573  30.245  1.00  0.00    -0.354 N 
ATOM     50  N   UNL A   1      44.948  28.693  30.407  1.00  0.00    -0.248 NA
ATOM     51  C   UNL A   1      47.176  29.038  31.005  1.00  0.00     0.031 C 
ATOM     52  C   UNL A   1      41.662  31.534  31.136  1.00  0.00     0.029 A 
ATOM     53  C   UNL A   1      42.724  30.672  30.929  1.00  0.00     0.049 A 
ATOM     54  H   UNL A   1      42.756  28.797  29.957  1.00  0.00     0.167 HD
ATOM     55  C   UNL A   1      45.065  29.916  31.059  1.00  0.00     0.074 A 
ATOM     56  C   UNL A   1      46.454  30.064  31.434  1.00  0.00     0.031 C 
ATOM     57  C   UNL A   1      44.100  30.829  31.321  1.00  0.00     0.037 A 
BRANCH  44  58
ATOM     58  C   UNL A   1      38.582  29.180  29.134  1.00  0.00     0.057 A 
ATOM     59  C   UNL A   1      37.657  29.142  30.186  1.00  0.00     0.134 A 
ATOM     60  C   UNL A   1      38.137  29.669  27.900  1.00  0.00     0.134 A 
ATOM     61  F   UNL A   1      38.019  28.685  31.394  1.00  0.00    -0.206 F 
ATOM     62  C   UNL A   1      36.335  29.553  30.010  1.00  0.00     0.040 A 
ATOM     63  C   UNL A   1      36.824  30.109  27.719  1.00  0.00     0.040 A 
ATOM     64  F   UNL A   1      38.976  29.752  26.856  1.00  0.00    -0.206 F 
ATOM     65  C   UNL A   1      35.917  30.046  28.775  1.00  0.00     0.006 A 
ENDBRANCH  44  58
BRANCH  45  66
ATOM     66  C   UNL A   1      48.041  26.470  29.972  1.00  0.00     0.057 A 
ATOM     67  C   UNL A   1      48.515  25.810  31.113  1.00  0.00     0.134 A 
ATOM     68  C   UNL A   1      48.968  26.784  28.973  1.00  0.00     0.134 A 
ATOM     69  F   UNL A   1      47.677  25.510  32.116  1.00  0.00    -0.206 F 
ATOM     70  C   UNL A   1      49.865  25.492  31.263  1.00  0.00     0.040 A 
ATOM     71  C   UNL A   1      50.317  26.450  29.100  1.00  0.00     0.040 A 
ATOM     72  F   UNL A   1      48.575  27.419  27.859  1.00  0.00    -0.206 F 
ATOM     73  C   UNL A   1      50.770  25.808  30.252  1.00  0.00     0.006 A 
ENDBRANCH  45  66
BRANCH  57  74
ATOM     74  C   UNL A   1      44.494  32.058  32.091  1.00  0.00     0.057 A 
ATOM     75  C   UNL A   1      44.910  33.235  31.453  1.00  0.00     0.134 A 
ATOM     76  C   UNL A   1      44.439  32.073  33.491  1.00  0.00     0.134 A 
ATOM     77  F   UNL A   1      45.000  33.289  30.116  1.00  0.00    -0.206 F 
ATOM     78  C   UNL A   1      45.280  34.370  32.180  1.00  0.00     0.040 A 
ATOM     79  C   UNL A   1      44.783  33.208  34.228  1.00  0.00     0.040 A 
ATOM     80  F   UNL A   1      44.042  30.984  34.167  1.00  0.00    -0.206 F 
ATOM     81  C   UNL A   1      45.213  34.360  33.572  1.00  0.00     0.006 A 
ENDBRANCH  57  74
ENDBRANCH  31  32
ENDBRANCH  23  26
ENDBRANCH  21  22
ENDBRANCH  20  21
ENDBRANCH   1  20
TORSDOF 14
ENDMDL
