MODEL 1
REMARK VINA RESULT:     -12.7      0.000      0.000
REMARK SMILES CC1(C)C[C@@H](Nc2ccc(Cl)c(C(=O)NCCCNC(=O)c3ccc(-c4c5nc(c(-c6c(F)cccc6F)c6ccc([nH]6)c(-c6c(F)cccc6F)c6nc(c(-c7c(F)cccc7F)c7ccc4[nH]7)C=C6)C=C5)cc3)c2)C(C)(C)O1
REMARK SMILES IDX 17 1 16 2 15 3 13 4 14 5 12 7 7 8 8 9 76 10 9 11 10 12 11 13
REMARK SMILES IDX 6 14 5 16 1 17 2 18 3 19 4 20 80 21 77 22 78 23 79 24 18 25
REMARK SMILES IDX 19 26 20 27 21 29 22 30 23 31 75 32 24 33 74 34 25 35 26 36
REMARK SMILES IDX 27 37 68 38 28 39 73 40 67 41 69 42 29 43 72 44 66 45 65 46
REMARK SMILES IDX 30 48 56 49 39 50 55 51 40 52 43 53 54 54 70 55 41 56 42 57
REMARK SMILES IDX 53 59 71 60 44 61 31 62 32 63 37 64 33 65 34 66 36 67 38 68
REMARK SMILES IDX 35 69 57 70 58 71 63 72 59 73 60 74 62 75 64 76 61 77 45 78
REMARK SMILES IDX 46 79 51 80 47 81 48 82 50 83 52 84 49 85
REMARK H PARENT 15 6 6 15 19 28 69 47 43 58
REMARK Flexibility Score: inf
ROOT
ATOM      1  C   UNL A   1      31.403  32.164  26.501  1.00  0.00     0.042 C 
ENDROOT
BRANCH   1   2
ATOM      2  C   UNL A   1      31.403  30.657  26.329  1.00  0.00     0.118 C 
BRANCH   2   3
ATOM      3  N   UNL A   1      32.369  30.144  25.376  1.00  0.00    -0.352 N 
ATOM      4  C   UNL A   1      32.229  29.265  24.328  1.00  0.00     0.252 C 
ATOM      5  O   UNL A   1      33.221  29.070  23.623  1.00  0.00    -0.269 OA
ATOM      6  H   UNL A   1      33.284  30.484  25.501  1.00  0.00     0.163 HD
BRANCH   4   7
ATOM      7  C   UNL A   1      31.002  28.461  24.072  1.00  0.00     0.060 A 
ATOM      8  C   UNL A   1      29.882  26.335  24.549  1.00  0.00     0.035 A 
ATOM      9  C   UNL A   1      28.753  26.796  23.876  1.00  0.00     0.027 A 
ATOM     10  C   UNL A   1      30.961  27.208  24.721  1.00  0.00     0.041 A 
ATOM     11  C   UNL A   1      28.792  28.003  23.188  1.00  0.00     0.023 A 
ATOM     12  C   UNL A   1      29.962  28.769  23.189  1.00  0.00     0.053 A 
ATOM     13  Cl  UNL A   1      30.105  29.892  21.879  1.00  0.00    -0.083 Cl
BRANCH   8  14
ATOM     14  N   UNL A   1      30.031  24.977  24.830  1.00  0.00    -0.379 N 
ATOM     15  H   UNL A   1      29.329  24.455  25.280  1.00  0.00     0.160 HD
BRANCH  14  16
ATOM     16  C   UNL A   1      31.306  24.378  24.410  1.00  0.00     0.113 C 
ATOM     17  C   UNL A   1      32.153  21.092  22.917  1.00  0.00     0.042 C 
ATOM     18  C   UNL A   1      32.376  22.522  23.399  1.00  0.00     0.065 C 
ATOM     19  C   UNL A   1      33.533  23.155  22.616  1.00  0.00     0.042 C 
ATOM     20  C   UNL A   1      31.094  23.343  23.326  1.00  0.00     0.062 C 
ATOM     21  O   UNL A   1      32.744  22.493  24.791  1.00  0.00    -0.367 OA
ATOM     22  C   UNL A   1      32.091  23.589  25.486  1.00  0.00     0.083 C 
ATOM     23  C   UNL A   1      31.236  22.953  26.583  1.00  0.00     0.044 C 
ATOM     24  C   UNL A   1      33.185  24.449  26.126  1.00  0.00     0.044 C 
ENDBRANCH  14  16
ENDBRANCH   8  14
ENDBRANCH   4   7
ENDBRANCH   2   3
ENDBRANCH   1   2
BRANCH   1  25
ATOM     25  C   UNL A   1      32.607  32.741  27.223  1.00  0.00     0.118 C 
BRANCH  25  26
ATOM     26  N   UNL A   1      32.440  34.134  27.626  1.00  0.00    -0.352 N 
ATOM     27  C   UNL A   1      33.069  34.893  28.583  1.00  0.00     0.251 C 
ATOM     28  H   UNL A   1      31.749  34.619  27.120  1.00  0.00     0.163 HD
ATOM     29  O   UNL A   1      32.637  36.021  28.831  1.00  0.00    -0.269 OA
BRANCH  27  30
ATOM     30  C   UNL A   1      34.231  34.381  29.343  1.00  0.00     0.039 A 
ATOM     31  C   UNL A   1      34.012  33.753  30.575  1.00  0.00     0.014 A 
ATOM     32  C   UNL A   1      35.536  34.534  28.877  1.00  0.00     0.014 A 
ATOM     33  C   UNL A   1      35.086  33.211  31.284  1.00  0.00     0.010 A 
ATOM     34  C   UNL A   1      36.587  33.886  29.517  1.00  0.00     0.010 A 
ATOM     35  C   UNL A   1      36.379  33.229  30.737  1.00  0.00    -0.014 A 
BRANCH  35  36
ATOM     36  C   UNL A   1      37.523  32.576  31.426  1.00  0.00     0.031 A 
ATOM     37  C   UNL A   1      38.228  31.407  30.793  1.00  0.00     0.074 A 
ATOM     38  C   UNL A   1      37.877  32.989  32.659  1.00  0.00     0.049 A 
ATOM     39  N   UNL A   1      39.211  30.679  31.264  1.00  0.00    -0.248 NA
ATOM     40  C   UNL A   1      37.744  30.973  29.474  1.00  0.00     0.031 C 
ATOM     41  C   UNL A   1      37.221  34.058  33.415  1.00  0.00     0.029 A 
ATOM     42  N   UNL A   1      38.869  32.550  33.499  1.00  0.00    -0.354 N 
ATOM     43  C   UNL A   1      39.444  29.696  30.310  1.00  0.00     0.074 A 
ATOM     44  C   UNL A   1      38.455  29.877  29.270  1.00  0.00     0.031 C 
ATOM     45  C   UNL A   1      37.845  34.210  34.593  1.00  0.00     0.029 A 
ATOM     46  C   UNL A   1      38.917  33.225  34.694  1.00  0.00     0.049 A 
ATOM     47  H   UNL A   1      39.488  31.821  33.267  1.00  0.00     0.167 HD
ATOM     48  C   UNL A   1      40.411  28.748  30.285  1.00  0.00     0.037 A 
ATOM     49  C   UNL A   1      39.728  33.067  35.756  1.00  0.00     0.037 A 
ATOM     50  C   UNL A   1      41.404  28.585  31.315  1.00  0.00     0.049 A 
ATOM     51  C   UNL A   1      40.808  32.023  35.703  1.00  0.00     0.074 A 
ATOM     52  C   UNL A   1      42.473  27.709  31.353  1.00  0.00     0.029 A 
ATOM     53  N   UNL A   1      41.441  29.313  32.496  1.00  0.00    -0.354 N 
ATOM     54  N   UNL A   1      41.077  31.162  34.750  1.00  0.00    -0.248 NA
ATOM     55  C   UNL A   1      41.703  31.937  36.863  1.00  0.00     0.031 C 
ATOM     56  C   UNL A   1      43.123  27.866  32.583  1.00  0.00     0.029 A 
ATOM     57  C   UNL A   1      42.496  28.883  33.285  1.00  0.00     0.049 A 
ATOM     58  H   UNL A   1      40.811  30.029  32.738  1.00  0.00     0.167 HD
ATOM     59  C   UNL A   1      42.183  30.443  35.189  1.00  0.00     0.074 A 
ATOM     60  C   UNL A   1      42.546  30.988  36.482  1.00  0.00     0.031 C 
ATOM     61  C   UNL A   1      42.836  29.425  34.577  1.00  0.00     0.037 A 
BRANCH  48  62
ATOM     62  C   UNL A   1      40.430  27.814  29.106  1.00  0.00     0.057 A 
ATOM     63  C   UNL A   1      41.204  28.071  27.965  1.00  0.00     0.134 A 
ATOM     64  C   UNL A   1      39.662  26.643  29.109  1.00  0.00     0.134 A 
ATOM     65  F   UNL A   1      41.955  29.179  27.888  1.00  0.00    -0.206 F 
ATOM     66  C   UNL A   1      41.179  27.222  26.856  1.00  0.00     0.040 A 
ATOM     67  C   UNL A   1      39.655  25.769  28.020  1.00  0.00     0.040 A 
ATOM     68  F   UNL A   1      38.903  26.327  30.170  1.00  0.00    -0.206 F 
ATOM     69  C   UNL A   1      40.405  26.065  26.884  1.00  0.00     0.006 A 
ENDBRANCH  48  62
BRANCH  49  70
ATOM     70  C   UNL A   1      39.556  33.937  36.948  1.00  0.00     0.057 A 
ATOM     71  C   UNL A   1      38.804  33.517  38.052  1.00  0.00     0.134 A 
ATOM     72  C   UNL A   1      40.162  35.196  37.023  1.00  0.00     0.134 A 
ATOM     73  F   UNL A   1      38.187  32.327  38.034  1.00  0.00    -0.206 F 
ATOM     74  C   UNL A   1      38.651  34.323  39.181  1.00  0.00     0.040 A 
ATOM     75  C   UNL A   1      40.040  36.001  38.156  1.00  0.00     0.040 A 
ATOM     76  F   UNL A   1      40.905  35.652  36.004  1.00  0.00    -0.206 F 
ATOM     77  C   UNL A   1      39.278  35.566  39.239  1.00  0.00     0.006 A 
ENDBRANCH  49  70
BRANCH  61  78
ATOM     78  C   UNL A   1      44.022  28.845  35.296  1.00  0.00     0.057 A 
ATOM     79  C   UNL A   1      45.321  29.329  35.093  1.00  0.00     0.134 A 
ATOM     80  C   UNL A   1      43.857  27.804  36.219  1.00  0.00     0.134 A 
ATOM     81  F   UNL A   1      45.549  30.316  34.214  1.00  0.00    -0.206 F 
ATOM     82  C   UNL A   1      46.417  28.776  35.757  1.00  0.00     0.040 A 
ATOM     83  C   UNL A   1      44.941  27.265  36.912  1.00  0.00     0.040 A 
ATOM     84  F   UNL A   1      42.639  27.300  36.469  1.00  0.00    -0.206 F 
ATOM     85  C   UNL A   1      46.227  27.744  36.675  1.00  0.00     0.006 A 
ENDBRANCH  61  78
ENDBRANCH  35  36
ENDBRANCH  27  30
ENDBRANCH  25  26
ENDBRANCH   1  25
TORSDOF 12
ENDMDL
MODEL 2
REMARK VINA RESULT:     -12.7      5.529     10.452
REMARK SMILES CC1(C)C[C@@H](Nc2ccc(Cl)c(C(=O)NCCCNC(=O)c3ccc(-c4c5nc(c(-c6c(F)cccc6F)c6ccc([nH]6)c(-c6c(F)cccc6F)c6nc(c(-c7c(F)cccc7F)c7ccc4[nH]7)C=C6)C=C5)cc3)c2)C(C)(C)O1
REMARK SMILES IDX 17 1 16 2 15 3 13 4 14 5 12 7 7 8 8 9 76 10 9 11 10 12 11 13
REMARK SMILES IDX 6 14 5 16 1 17 2 18 3 19 4 20 80 21 77 22 78 23 79 24 18 25
REMARK SMILES IDX 19 26 20 27 21 29 22 30 23 31 75 32 24 33 74 34 25 35 26 36
REMARK SMILES IDX 27 37 68 38 28 39 73 40 67 41 69 42 29 43 72 44 66 45 65 46
REMARK SMILES IDX 30 48 56 49 39 50 55 51 40 52 43 53 54 54 70 55 41 56 42 57
REMARK SMILES IDX 53 59 71 60 44 61 31 62 32 63 37 64 33 65 34 66 36 67 38 68
REMARK SMILES IDX 35 69 57 70 58 71 63 72 59 73 60 74 62 75 64 76 61 77 45 78
REMARK SMILES IDX 46 79 51 80 47 81 48 82 50 83 52 84 49 85
REMARK H PARENT 15 6 6 15 19 28 69 47 43 58
REMARK Flexibility Score: inf
ROOT
ATOM      1  C   UNL A   1      37.868  19.557  25.005  1.00  0.00     0.042 C 
ENDROOT
BRANCH   1   2
ATOM      2  C   UNL A   1      36.832  20.609  24.660  1.00  0.00     0.118 C 
BRANCH   2   3
ATOM      3  N   UNL A   1      35.969  21.009  25.756  1.00  0.00    -0.352 N 
ATOM      4  C   UNL A   1      34.599  21.088  25.849  1.00  0.00     0.252 C 
ATOM      5  O   UNL A   1      34.128  21.386  26.948  1.00  0.00    -0.269 OA
ATOM      6  H   UNL A   1      36.447  21.269  26.576  1.00  0.00     0.163 HD
BRANCH   4   7
ATOM      7  C   UNL A   1      33.676  20.952  24.688  1.00  0.00     0.060 A 
ATOM      8  C   UNL A   1      32.616  22.158  22.839  1.00  0.00     0.035 A 
ATOM      9  C   UNL A   1      32.093  20.953  22.372  1.00  0.00     0.027 A 
ATOM     10  C   UNL A   1      33.479  22.132  23.938  1.00  0.00     0.041 A 
ATOM     11  C   UNL A   1      32.234  19.792  23.123  1.00  0.00     0.023 A 
ATOM     12  C   UNL A   1      32.920  19.827  24.341  1.00  0.00     0.053 A 
ATOM     13  Cl  UNL A   1      32.539  18.541  25.436  1.00  0.00    -0.083 Cl
BRANCH   8  14
ATOM     14  N   UNL A   1      32.107  23.373  22.380  1.00  0.00    -0.379 N 
ATOM     15  H   UNL A   1      31.983  23.560  21.422  1.00  0.00     0.160 HD
BRANCH  14  16
ATOM     16  C   UNL A   1      31.767  24.353  23.421  1.00  0.00     0.113 C 
ATOM     17  C   UNL A   1      28.871  26.623  23.870  1.00  0.00     0.042 C 
ATOM     18  C   UNL A   1      30.165  25.899  24.229  1.00  0.00     0.065 C 
ATOM     19  C   UNL A   1      30.279  25.772  25.753  1.00  0.00     0.042 C 
ATOM     20  C   UNL A   1      30.271  24.556  23.516  1.00  0.00     0.062 C 
ATOM     21  O   UNL A   1      31.281  26.680  23.762  1.00  0.00    -0.367 OA
ATOM     22  C   UNL A   1      32.295  25.794  23.216  1.00  0.00     0.083 C 
ATOM     23  C   UNL A   1      32.493  26.217  21.759  1.00  0.00     0.044 C 
ATOM     24  C   UNL A   1      33.590  26.034  23.998  1.00  0.00     0.044 C 
ENDBRANCH  14  16
ENDBRANCH   8  14
ENDBRANCH   4   7
ENDBRANCH   2   3
ENDBRANCH   1   2
BRANCH   1  25
ATOM     25  C   UNL A   1      39.078  20.056  25.776  1.00  0.00     0.118 C 
BRANCH  25  26
ATOM     26  N   UNL A   1      40.166  19.087  25.854  1.00  0.00    -0.352 N 
ATOM     27  C   UNL A   1      41.510  19.236  26.097  1.00  0.00     0.251 C 
ATOM     28  H   UNL A   1      39.886  18.155  25.707  1.00  0.00     0.163 HD
ATOM     29  O   UNL A   1      42.254  18.262  25.963  1.00  0.00    -0.269 OA
BRANCH  27  30
ATOM     30  C   UNL A   1      42.092  20.541  26.483  1.00  0.00     0.039 A 
ATOM     31  C   UNL A   1      42.586  21.387  25.483  1.00  0.00     0.014 A 
ATOM     32  C   UNL A   1      42.184  20.935  27.818  1.00  0.00     0.014 A 
ATOM     33  C   UNL A   1      43.087  22.647  25.818  1.00  0.00     0.010 A 
ATOM     34  C   UNL A   1      42.564  22.234  28.139  1.00  0.00     0.010 A 
ATOM     35  C   UNL A   1      43.034  23.102  27.145  1.00  0.00    -0.014 A 
BRANCH  35  36
ATOM     36  C   UNL A   1      43.473  24.474  27.513  1.00  0.00     0.031 A 
ATOM     37  C   UNL A   1      42.464  25.515  27.915  1.00  0.00     0.074 A 
ATOM     38  C   UNL A   1      44.775  24.803  27.411  1.00  0.00     0.049 A 
ATOM     39  N   UNL A   1      42.651  26.775  28.221  1.00  0.00    -0.248 NA
ATOM     40  C   UNL A   1      41.053  25.099  27.942  1.00  0.00     0.031 C 
ATOM     41  C   UNL A   1      45.841  23.909  26.956  1.00  0.00     0.029 A 
ATOM     42  N   UNL A   1      45.423  25.984  27.672  1.00  0.00    -0.354 N 
ATOM     43  C   UNL A   1      41.386  27.299  28.455  1.00  0.00     0.074 A 
ATOM     44  C   UNL A   1      40.436  26.243  28.187  1.00  0.00     0.031 C 
ATOM     45  C   UNL A   1      47.012  24.563  26.996  1.00  0.00     0.029 A 
ATOM     46  C   UNL A   1      46.776  25.933  27.439  1.00  0.00     0.049 A 
ATOM     47  H   UNL A   1      44.962  26.792  27.995  1.00  0.00     0.167 HD
ATOM     48  C   UNL A   1      41.045  28.539  28.884  1.00  0.00     0.037 A 
ATOM     49  C   UNL A   1      47.721  26.883  27.563  1.00  0.00     0.037 A 
ATOM     50  C   UNL A   1      41.997  29.581  29.167  1.00  0.00     0.049 A 
ATOM     51  C   UNL A   1      47.328  28.246  28.058  1.00  0.00     0.074 A 
ATOM     52  C   UNL A   1      41.766  30.846  29.679  1.00  0.00     0.029 A 
ATOM     53  N   UNL A   1      43.365  29.480  28.953  1.00  0.00    -0.354 N 
ATOM     54  N   UNL A   1      46.136  28.700  28.368  1.00  0.00    -0.248 NA
ATOM     55  C   UNL A   1      48.409  29.224  28.234  1.00  0.00     0.031 C 
ATOM     56  C   UNL A   1      42.987  31.530  29.718  1.00  0.00     0.029 A 
ATOM     57  C   UNL A   1      43.987  30.671  29.290  1.00  0.00     0.049 A 
ATOM     58  H   UNL A   1      43.825  28.680  28.611  1.00  0.00     0.167 HD
ATOM     59  C   UNL A   1      46.326  30.010  28.791  1.00  0.00     0.074 A 
ATOM     60  C   UNL A   1      47.751  30.267  28.721  1.00  0.00     0.031 C 
ATOM     61  C   UNL A   1      45.405  30.917  29.200  1.00  0.00     0.037 A 
BRANCH  48  62
ATOM     62  C   UNL A   1      39.580  28.827  29.063  1.00  0.00     0.057 A 
ATOM     63  C   UNL A   1      38.777  29.287  28.009  1.00  0.00     0.134 A 
ATOM     64  C   UNL A   1      38.962  28.646  30.307  1.00  0.00     0.134 A 
ATOM     65  F   UNL A   1      39.303  29.495  26.793  1.00  0.00    -0.206 F 
ATOM     66  C   UNL A   1      37.428  29.598  28.196  1.00  0.00     0.040 A 
ATOM     67  C   UNL A   1      37.607  28.919  30.498  1.00  0.00     0.040 A 
ATOM     68  F   UNL A   1      39.665  28.200  31.359  1.00  0.00    -0.206 F 
ATOM     69  C   UNL A   1      36.839  29.410  29.444  1.00  0.00     0.006 A 
ENDBRANCH  48  62
BRANCH  49  70
ATOM     70  C   UNL A   1      49.132  26.563  27.229  1.00  0.00     0.057 A 
ATOM     71  C   UNL A   1      49.986  25.973  28.168  1.00  0.00     0.134 A 
ATOM     72  C   UNL A   1      49.653  26.815  25.954  1.00  0.00     0.134 A 
ATOM     73  F   UNL A   1      49.550  25.722  29.411  1.00  0.00    -0.206 F 
ATOM     74  C   UNL A   1      51.310  25.656  27.856  1.00  0.00     0.040 A 
ATOM     75  C   UNL A   1      50.966  26.479  25.620  1.00  0.00     0.040 A 
ATOM     76  F   UNL A   1      48.883  27.367  25.005  1.00  0.00    -0.206 F 
ATOM     77  C   UNL A   1      51.800  25.901  26.576  1.00  0.00     0.006 A 
ENDBRANCH  49  70
BRANCH  61  78
ATOM     78  C   UNL A   1      45.915  32.268  29.616  1.00  0.00     0.057 A 
ATOM     79  C   UNL A   1      46.014  33.333  28.713  1.00  0.00     0.134 A 
ATOM     80  C   UNL A   1      46.291  32.510  30.944  1.00  0.00     0.134 A 
ATOM     81  F   UNL A   1      45.681  33.166  27.424  1.00  0.00    -0.206 F 
ATOM     82  C   UNL A   1      46.499  34.582  29.107  1.00  0.00     0.040 A 
ATOM     83  C   UNL A   1      46.748  33.762  31.356  1.00  0.00     0.040 A 
ATOM     84  F   UNL A   1      46.212  31.536  31.864  1.00  0.00    -0.206 F 
ATOM     85  C   UNL A   1      46.862  34.799  30.435  1.00  0.00     0.006 A 
ENDBRANCH  61  78
ENDBRANCH  35  36
ENDBRANCH  27  30
ENDBRANCH  25  26
ENDBRANCH   1  25
TORSDOF 12
ENDMDL
MODEL 3
REMARK VINA RESULT:     -12.6      5.123      9.494
REMARK SMILES CC1(C)C[C@@H](Nc2ccc(Cl)c(C(=O)NCCCNC(=O)c3ccc(-c4c5nc(c(-c6c(F)cccc6F)c6ccc([nH]6)c(-c6c(F)cccc6F)c6nc(c(-c7c(F)cccc7F)c7ccc4[nH]7)C=C6)C=C5)cc3)c2)C(C)(C)O1
REMARK SMILES IDX 17 1 16 2 15 3 13 4 14 5 12 7 7 8 8 9 76 10 9 11 10 12 11 13
REMARK SMILES IDX 6 14 5 16 1 17 2 18 3 19 4 20 80 21 77 22 78 23 79 24 18 25
REMARK SMILES IDX 19 26 20 27 21 29 22 30 23 31 75 32 24 33 74 34 25 35 26 36
REMARK SMILES IDX 27 37 68 38 28 39 73 40 67 41 69 42 29 43 72 44 66 45 65 46
REMARK SMILES IDX 30 48 56 49 39 50 55 51 40 52 43 53 54 54 70 55 41 56 42 57
REMARK SMILES IDX 53 59 71 60 44 61 31 62 32 63 37 64 33 65 34 66 36 67 38 68
REMARK SMILES IDX 35 69 57 70 58 71 63 72 59 73 60 74 62 75 64 76 61 77 45 78
REMARK SMILES IDX 46 79 51 80 47 81 48 82 50 83 52 84 49 85
REMARK H PARENT 15 6 6 15 19 28 69 47 43 58
REMARK Flexibility Score: inf
ROOT
ATOM      1  C   UNL A   1      37.860  19.555  24.998  1.00  0.00     0.042 C 
ENDROOT
BRANCH   1   2
ATOM      2  C   UNL A   1      36.766  20.542  24.641  1.00  0.00     0.118 C 
BRANCH   2   3
ATOM      3  N   UNL A   1      35.892  20.920  25.735  1.00  0.00    -0.352 N 
ATOM      4  C   UNL A   1      34.521  20.990  25.818  1.00  0.00     0.252 C 
ATOM      5  O   UNL A   1      34.039  21.267  26.918  1.00  0.00    -0.269 OA
ATOM      6  H   UNL A   1      36.362  21.169  26.563  1.00  0.00     0.163 HD
BRANCH   4   7
ATOM      7  C   UNL A   1      33.609  20.868  24.648  1.00  0.00     0.060 A 
ATOM      8  C   UNL A   1      32.576  22.093  22.795  1.00  0.00     0.035 A 
ATOM      9  C   UNL A   1      32.048  20.896  22.317  1.00  0.00     0.027 A 
ATOM     10  C   UNL A   1      33.428  22.053  23.903  1.00  0.00     0.041 A 
ATOM     11  C   UNL A   1      32.172  19.729  23.062  1.00  0.00     0.023 A 
ATOM     12  C   UNL A   1      32.847  19.752  24.287  1.00  0.00     0.053 A 
ATOM     13  Cl  UNL A   1      32.445  18.462  25.371  1.00  0.00    -0.083 Cl
BRANCH   8  14
ATOM     14  N   UNL A   1      32.082  23.315  22.338  1.00  0.00    -0.379 N 
ATOM     15  H   UNL A   1      31.928  23.493  21.383  1.00  0.00     0.160 HD
BRANCH  14  16
ATOM     16  C   UNL A   1      31.804  24.317  23.378  1.00  0.00     0.113 C 
ATOM     17  C   UNL A   1      29.083  26.800  23.796  1.00  0.00     0.042 C 
ATOM     18  C   UNL A   1      30.313  25.978  24.169  1.00  0.00     0.065 C 
ATOM     19  C   UNL A   1      30.397  25.841  25.695  1.00  0.00     0.042 C 
ATOM     20  C   UNL A   1      30.326  24.633  23.454  1.00  0.00     0.062 C 
ATOM     21  O   UNL A   1      31.492  26.673  23.719  1.00  0.00    -0.367 OA
ATOM     22  C   UNL A   1      32.443  25.713  23.184  1.00  0.00     0.083 C 
ATOM     23  C   UNL A   1      32.692  26.122  21.731  1.00  0.00     0.044 C 
ATOM     24  C   UNL A   1      33.742  25.853  23.983  1.00  0.00     0.044 C 
ENDBRANCH  14  16
ENDBRANCH   8  14
ENDBRANCH   4   7
ENDBRANCH   2   3
ENDBRANCH   1   2
BRANCH   1  25
ATOM     25  C   UNL A   1      39.018  20.121  25.801  1.00  0.00     0.118 C 
BRANCH  25  26
ATOM     26  N   UNL A   1      40.183  19.245  25.853  1.00  0.00    -0.352 N 
ATOM     27  C   UNL A   1      41.505  19.493  26.133  1.00  0.00     0.251 C 
ATOM     28  H   UNL A   1      39.987  18.302  25.649  1.00  0.00     0.163 HD
ATOM     29  O   UNL A   1      42.332  18.594  25.964  1.00  0.00    -0.269 OA
BRANCH  27  30
ATOM     30  C   UNL A   1      41.966  20.819  26.602  1.00  0.00     0.039 A 
ATOM     31  C   UNL A   1      42.347  21.778  25.657  1.00  0.00     0.014 A 
ATOM     32  C   UNL A   1      42.056  21.124  27.960  1.00  0.00     0.014 A 
ATOM     33  C   UNL A   1      42.731  23.055  26.073  1.00  0.00     0.010 A 
ATOM     34  C   UNL A   1      42.314  22.429  28.367  1.00  0.00     0.010 A 
ATOM     35  C   UNL A   1      42.670  23.408  27.430  1.00  0.00    -0.014 A 
BRANCH  35  36
ATOM     36  C   UNL A   1      42.982  24.787  27.889  1.00  0.00     0.031 A 
ATOM     37  C   UNL A   1      44.406  25.202  28.143  1.00  0.00     0.074 A 
ATOM     38  C   UNL A   1      41.975  25.643  28.152  1.00  0.00     0.049 A 
ATOM     39  N   UNL A   1      44.869  26.343  28.592  1.00  0.00    -0.248 NA
ATOM     40  C   UNL A   1      45.447  24.193  27.895  1.00  0.00     0.031 C 
ATOM     41  C   UNL A   1      40.549  25.336  28.025  1.00  0.00     0.029 A 
ATOM     42  N   UNL A   1      41.996  26.942  28.592  1.00  0.00    -0.354 N 
ATOM     43  C   UNL A   1      46.244  26.177  28.697  1.00  0.00     0.074 A 
ATOM     44  C   UNL A   1      46.533  24.808  28.334  1.00  0.00     0.031 C 
ATOM     45  C   UNL A   1      39.834  26.424  28.351  1.00  0.00     0.029 A 
ATOM     46  C   UNL A   1      40.746  27.490  28.750  1.00  0.00     0.049 A 
ATOM     47  H   UNL A   1      42.828  27.435  28.777  1.00  0.00     0.167 HD
ATOM     48  C   UNL A   1      47.187  27.090  29.035  1.00  0.00     0.037 A 
ATOM     49  C   UNL A   1      40.375  28.712  29.174  1.00  0.00     0.037 A 
ATOM     50  C   UNL A   1      46.895  28.457  29.378  1.00  0.00     0.049 A 
ATOM     51  C   UNL A   1      41.434  29.718  29.527  1.00  0.00     0.074 A 
ATOM     52  C   UNL A   1      47.777  29.484  29.662  1.00  0.00     0.029 A 
ATOM     53  N   UNL A   1      45.616  28.986  29.493  1.00  0.00    -0.354 N 
ATOM     54  N   UNL A   1      42.738  29.576  29.528  1.00  0.00    -0.248 NA
ATOM     55  C   UNL A   1      40.973  31.054  29.922  1.00  0.00     0.031 C 
ATOM     56  C   UNL A   1      47.033  30.618  30.005  1.00  0.00     0.029 A 
ATOM     57  C   UNL A   1      45.686  30.316  29.876  1.00  0.00     0.049 A 
ATOM     58  H   UNL A   1      44.783  28.489  29.327  1.00  0.00     0.167 HD
ATOM     59  C   UNL A   1      43.254  30.810  29.909  1.00  0.00     0.074 A 
ATOM     60  C   UNL A   1      42.121  31.691  30.104  1.00  0.00     0.031 C 
ATOM     61  C   UNL A   1      44.547  31.177  30.081  1.00  0.00     0.037 A 
BRANCH  48  62
ATOM     62  C   UNL A   1      48.618  26.628  29.055  1.00  0.00     0.057 A 
ATOM     63  C   UNL A   1      49.232  26.157  30.225  1.00  0.00     0.134 A 
ATOM     64  C   UNL A   1      49.394  26.656  27.890  1.00  0.00     0.134 A 
ATOM     65  F   UNL A   1      48.553  26.112  31.380  1.00  0.00    -0.206 F 
ATOM     66  C   UNL A   1      50.576  25.774  30.244  1.00  0.00     0.040 A 
ATOM     67  C   UNL A   1      50.728  26.244  27.889  1.00  0.00     0.040 A 
ATOM     68  F   UNL A   1      48.872  27.087  26.731  1.00  0.00    -0.206 F 
ATOM     69  C   UNL A   1      51.326  25.814  29.072  1.00  0.00     0.006 A 
ENDBRANCH  48  62
BRANCH  49  70
ATOM     70  C   UNL A   1      38.931  29.050  29.265  1.00  0.00     0.057 A 
ATOM     71  C   UNL A   1      38.217  28.873  30.456  1.00  0.00     0.134 A 
ATOM     72  C   UNL A   1      38.239  29.584  28.172  1.00  0.00     0.134 A 
ATOM     73  F   UNL A   1      38.821  28.352  31.534  1.00  0.00    -0.206 F 
ATOM     74  C   UNL A   1      36.864  29.203  30.554  1.00  0.00     0.040 A 
ATOM     75  C   UNL A   1      36.893  29.944  28.263  1.00  0.00     0.040 A 
ATOM     76  F   UNL A   1      38.868  29.789  27.006  1.00  0.00    -0.206 F 
ATOM     77  C   UNL A   1      36.201  29.749  29.457  1.00  0.00     0.006 A 
ENDBRANCH  49  70
BRANCH  61  78
ATOM     78  C   UNL A   1      44.804  32.601  30.488  1.00  0.00     0.057 A 
ATOM     79  C   UNL A   1      44.921  32.978  31.832  1.00  0.00     0.134 A 
ATOM     80  C   UNL A   1      44.957  33.603  29.521  1.00  0.00     0.134 A 
ATOM     81  F   UNL A   1      44.773  32.070  32.809  1.00  0.00    -0.206 F 
ATOM     82  C   UNL A   1      45.149  34.305  32.200  1.00  0.00     0.040 A 
ATOM     83  C   UNL A   1      45.216  34.927  29.876  1.00  0.00     0.040 A 
ATOM     84  F   UNL A   1      44.867  33.309  28.214  1.00  0.00    -0.206 F 
ATOM     85  C   UNL A   1      45.303  35.283  31.219  1.00  0.00     0.006 A 
ENDBRANCH  61  78
ENDBRANCH  35  36
ENDBRANCH  27  30
ENDBRANCH  25  26
ENDBRANCH   1  25
TORSDOF 12
ENDMDL
