MODEL 1
REMARK VINA RESULT:     -11.4      0.000      0.000
REMARK SMILES Cc1ccc(CNC(=O)c2csc(/C=C/C(=O)NCCCNC(=O)c3ccc(-c4c5nc(c(-c6c(F)cccc6F)c6ccc([nH]6)c(-c6c(F)cccc6F)c6nc(c(-c7c(F)cccc7F)c7ccc4[nH]7)C=C6)C=C5)cc3)c2)s1
REMARK SMILES IDX 19 1 18 2 16 3 17 4 15 6 14 7 13 8 10 9 11 10 79 11 12 12
REMARK SMILES IDX 8 13 7 14 9 16 6 17 5 18 1 19 2 20 3 21 80 22 4 23 20 24
REMARK SMILES IDX 21 25 22 26 23 27 24 29 25 30 26 31 78 32 27 33 77 34 28 35
REMARK SMILES IDX 29 36 30 37 71 38 31 39 76 40 70 41 72 42 32 43 75 44 69 45
REMARK SMILES IDX 68 46 33 48 59 49 42 50 58 51 43 52 46 53 57 54 73 55 44 56
REMARK SMILES IDX 45 57 56 59 74 60 47 61 34 62 35 63 40 64 36 65 37 66 39 67
REMARK SMILES IDX 41 68 38 69 60 70 61 71 66 72 62 73 63 74 65 75 67 76 64 77
REMARK SMILES IDX 48 78 49 79 54 80 50 81 51 82 53 83 55 84 52 85
REMARK H PARENT 18 5 7 15 22 28 72 47 46 58
REMARK Flexibility Score: inf
ROOT
ATOM      1  C   UNL A   1      36.453  20.272  25.007  1.00  0.00     0.118 C 
ENDROOT
BRANCH   1   2
ATOM      2  N   UNL A   1      35.286  19.405  24.997  1.00  0.00    -0.352 N 
ATOM      3  C   UNL A   1      33.975  19.697  24.777  1.00  0.00     0.244 C 
ATOM      4  O   UNL A   1      33.154  18.792  24.667  1.00  0.00    -0.270 OA
ATOM      5  H   UNL A   1      35.474  18.456  25.180  1.00  0.00     0.163 HD
BRANCH   3   6
ATOM      6  C   UNL A   1      33.553  21.098  24.589  1.00  0.00     0.072 C 
ATOM      7  C   UNL A   1      32.658  21.451  23.655  1.00  0.00     0.024 C 
BRANCH   7   8
ATOM      8  C   UNL A   1      32.240  22.800  23.470  1.00  0.00     0.028 A 
ATOM      9  C   UNL A   1      31.096  24.846  23.771  1.00  0.00     0.051 A 
ATOM     10  C   UNL A   1      31.911  25.129  22.692  1.00  0.00     0.079 A 
ATOM     11  C   UNL A   1      31.245  23.472  24.160  1.00  0.00     0.033 A 
ATOM     12  S   UNL A   1      32.908  23.817  22.254  1.00  0.00    -0.144 S 
BRANCH   9  13
ATOM     13  C   UNL A   1      30.190  25.839  24.336  1.00  0.00     0.252 C 
ATOM     14  N   UNL A   1      30.375  26.246  25.630  1.00  0.00    -0.347 N 
ATOM     15  H   UNL A   1      29.636  26.762  26.025  1.00  0.00     0.164 HD
ATOM     16  O   UNL A   1      29.277  26.331  23.679  1.00  0.00    -0.269 OA
BRANCH  14  17
ATOM     17  C   UNL A   1      31.511  26.019  26.499  1.00  0.00     0.163 C 
BRANCH  17  18
ATOM     18  C   UNL A   1      32.365  27.247  26.519  1.00  0.00     0.024 A 
ATOM     19  C   UNL A   1      33.339  30.978  27.251  1.00  0.00     0.056 C 
ATOM     20  C   UNL A   1      33.203  29.549  26.852  1.00  0.00     0.002 A 
ATOM     21  C   UNL A   1      34.103  28.759  26.166  1.00  0.00     0.015 A 
ATOM     22  S   UNL A   1      31.784  28.686  27.251  1.00  0.00    -0.144 S 
ATOM     23  C   UNL A   1      33.621  27.432  25.976  1.00  0.00     0.017 A 
ENDBRANCH  17  18
ENDBRANCH  14  17
ENDBRANCH   9  13
ENDBRANCH   7   8
ENDBRANCH   3   6
ENDBRANCH   1   2
BRANCH   1  24
ATOM     24  C   UNL A   1      37.758  19.481  24.941  1.00  0.00     0.042 C 
BRANCH  24  25
ATOM     25  C   UNL A   1      38.909  20.105  25.731  1.00  0.00     0.118 C 
BRANCH  25  26
ATOM     26  N   UNL A   1      40.053  19.212  25.841  1.00  0.00    -0.352 N 
ATOM     27  C   UNL A   1      41.366  19.490  26.126  1.00  0.00     0.251 C 
ATOM     28  H   UNL A   1      39.853  18.260  25.688  1.00  0.00     0.163 HD
ATOM     29  O   UNL A   1      42.209  18.606  25.996  1.00  0.00    -0.269 OA
BRANCH  27  30
ATOM     30  C   UNL A   1      41.789  20.838  26.573  1.00  0.00     0.039 A 
ATOM     31  C   UNL A   1      41.764  21.124  27.942  1.00  0.00     0.014 A 
ATOM     32  C   UNL A   1      42.140  21.838  25.660  1.00  0.00     0.014 A 
ATOM     33  C   UNL A   1      42.137  22.391  28.401  1.00  0.00     0.010 A 
ATOM     34  C   UNL A   1      42.553  23.090  26.122  1.00  0.00     0.010 A 
ATOM     35  C   UNL A   1      42.553  23.378  27.495  1.00  0.00    -0.014 A 
BRANCH  35  36
ATOM     36  C   UNL A   1      42.983  24.718  27.967  1.00  0.00     0.031 A 
ATOM     37  C   UNL A   1      41.965  25.772  28.290  1.00  0.00     0.074 A 
ATOM     38  C   UNL A   1      44.296  25.004  28.053  1.00  0.00     0.049 A 
ATOM     39  N   UNL A   1      42.150  27.024  28.626  1.00  0.00    -0.248 NA
ATOM     40  C   UNL A   1      40.552  25.374  28.206  1.00  0.00     0.031 C 
ATOM     41  C   UNL A   1      45.388  24.080  27.743  1.00  0.00     0.029 A 
ATOM     42  N   UNL A   1      44.933  26.165  28.415  1.00  0.00    -0.354 N 
ATOM     43  C   UNL A   1      40.881  27.569  28.768  1.00  0.00     0.074 A 
ATOM     44  C   UNL A   1      39.933  26.517  28.465  1.00  0.00     0.031 C 
ATOM     45  C   UNL A   1      46.560  24.707  27.935  1.00  0.00     0.029 A 
ATOM     46  C   UNL A   1      46.302  26.081  28.357  1.00  0.00     0.049 A 
ATOM     47  H   UNL A   1      44.455  26.979  28.690  1.00  0.00     0.167 HD
ATOM     48  C   UNL A   1      40.537  28.830  29.124  1.00  0.00     0.037 A 
ATOM     49  C   UNL A   1      47.244  27.009  28.606  1.00  0.00     0.037 A 
ATOM     50  C   UNL A   1      41.470  29.870  29.462  1.00  0.00     0.049 A 
ATOM     51  C   UNL A   1      46.837  28.390  29.028  1.00  0.00     0.074 A 
ATOM     52  C   UNL A   1      41.208  31.162  29.887  1.00  0.00     0.029 A 
ATOM     53  N   UNL A   1      42.848  29.734  29.423  1.00  0.00    -0.354 N 
ATOM     54  N   UNL A   1      45.632  28.881  29.186  1.00  0.00    -0.248 NA
ATOM     55  C   UNL A   1      47.919  29.346  29.307  1.00  0.00     0.031 C 
ATOM     56  C   UNL A   1      42.430  31.814  30.088  1.00  0.00     0.029 A 
ATOM     57  C   UNL A   1      43.451  30.920  29.808  1.00  0.00     0.049 A 
ATOM     58  H   UNL A   1      43.328  28.915  29.160  1.00  0.00     0.167 HD
ATOM     59  C   UNL A   1      45.810  30.196  29.596  1.00  0.00     0.074 A 
ATOM     60  C   UNL A   1      47.239  30.424  29.671  1.00  0.00     0.031 C 
ATOM     61  C   UNL A   1      44.872  31.129  29.883  1.00  0.00     0.037 A 
BRANCH  48  62
ATOM     62  C   UNL A   1      39.075  29.154  29.161  1.00  0.00     0.057 A 
ATOM     63  C   UNL A   1      38.384  29.556  28.012  1.00  0.00     0.134 A 
ATOM     64  C   UNL A   1      38.346  29.032  30.351  1.00  0.00     0.134 A 
ATOM     65  F   UNL A   1      39.031  29.704  26.847  1.00  0.00    -0.206 F 
ATOM     66  C   UNL A   1      37.019  29.844  28.048  1.00  0.00     0.040 A 
ATOM     67  C   UNL A   1      36.978  29.300  30.395  1.00  0.00     0.040 A 
ATOM     68  F   UNL A   1      38.952  28.648  31.484  1.00  0.00    -0.206 F 
ATOM     69  C   UNL A   1      36.311  29.712  29.242  1.00  0.00     0.006 A 
ENDBRANCH  48  62
BRANCH  49  70
ATOM     70  C   UNL A   1      48.676  26.654  28.477  1.00  0.00     0.057 A 
ATOM     71  C   UNL A   1      49.372  26.901  27.290  1.00  0.00     0.134 A 
ATOM     72  C   UNL A   1      49.379  26.065  29.534  1.00  0.00     0.134 A 
ATOM     73  F   UNL A   1      48.741  27.447  26.240  1.00  0.00    -0.206 F 
ATOM     74  C   UNL A   1      50.719  26.567  27.152  1.00  0.00     0.040 A 
ATOM     75  C   UNL A   1      50.730  25.739  29.415  1.00  0.00     0.040 A 
ATOM     76  F   UNL A   1      48.763  25.807  30.696  1.00  0.00    -0.206 F 
ATOM     77  C   UNL A   1      51.403  25.988  28.219  1.00  0.00     0.006 A 
ENDBRANCH  49  70
BRANCH  61  78
ATOM     78  C   UNL A   1      45.362  32.472  30.325  1.00  0.00     0.057 A 
ATOM     79  C   UNL A   1      45.574  32.765  31.678  1.00  0.00     0.134 A 
ATOM     80  C   UNL A   1      45.652  33.471  29.388  1.00  0.00     0.134 A 
ATOM     81  F   UNL A   1      45.301  31.852  32.621  1.00  0.00    -0.206 F 
ATOM     82  C   UNL A   1      46.050  34.013  32.084  1.00  0.00     0.040 A 
ATOM     83  C   UNL A   1      46.139  34.717  29.781  1.00  0.00     0.040 A 
ATOM     84  F   UNL A   1      45.469  33.248  28.077  1.00  0.00    -0.206 F 
ATOM     85  C   UNL A   1      46.338  34.992  31.133  1.00  0.00     0.006 A 
ENDBRANCH  61  78
ENDBRANCH  35  36
ENDBRANCH  27  30
ENDBRANCH  25  26
ENDBRANCH  24  25
ENDBRANCH   1  24
TORSDOF 14
ENDMDL
MODEL 2
REMARK VINA RESULT:     -11.4      4.574      9.785
REMARK SMILES Cc1ccc(CNC(=O)c2csc(/C=C/C(=O)NCCCNC(=O)c3ccc(-c4c5nc(c(-c6c(F)cccc6F)c6ccc([nH]6)c(-c6c(F)cccc6F)c6nc(c(-c7c(F)cccc7F)c7ccc4[nH]7)C=C6)C=C5)cc3)c2)s1
REMARK SMILES IDX 19 1 18 2 16 3 17 4 15 6 14 7 13 8 10 9 11 10 79 11 12 12
REMARK SMILES IDX 8 13 7 14 9 16 6 17 5 18 1 19 2 20 3 21 80 22 4 23 20 24
REMARK SMILES IDX 21 25 22 26 23 27 24 29 25 30 26 31 78 32 27 33 77 34 28 35
REMARK SMILES IDX 29 36 30 37 71 38 31 39 76 40 70 41 72 42 32 43 75 44 69 45
REMARK SMILES IDX 68 46 33 48 59 49 42 50 58 51 43 52 46 53 57 54 73 55 44 56
REMARK SMILES IDX 45 57 56 59 74 60 47 61 34 62 35 63 40 64 36 65 37 66 39 67
REMARK SMILES IDX 41 68 38 69 60 70 61 71 66 72 62 73 63 74 65 75 67 76 64 77
REMARK SMILES IDX 48 78 49 79 54 80 50 81 51 82 53 83 55 84 52 85
REMARK H PARENT 18 5 7 15 22 28 72 47 46 58
REMARK Flexibility Score: inf
ROOT
ATOM      1  C   UNL A   1      31.693  30.558  26.901  1.00  0.00     0.118 C 
ENDROOT
BRANCH   1   2
ATOM      2  N   UNL A   1      32.989  30.253  27.486  1.00  0.00    -0.352 N 
ATOM      3  C   UNL A   1      33.898  29.294  27.158  1.00  0.00     0.244 C 
ATOM      4  O   UNL A   1      35.006  29.294  27.685  1.00  0.00    -0.270 OA
ATOM      5  H   UNL A   1      33.249  30.830  28.240  1.00  0.00     0.163 HD
BRANCH   3   6
ATOM      6  C   UNL A   1      33.582  28.306  26.110  1.00  0.00     0.072 C 
ATOM      7  C   UNL A   1      32.878  27.195  26.371  1.00  0.00     0.024 C 
BRANCH   7   8
ATOM      8  C   UNL A   1      32.563  26.238  25.364  1.00  0.00     0.028 A 
ATOM      9  C   UNL A   1      32.798  24.752  23.541  1.00  0.00     0.051 A 
ATOM     10  C   UNL A   1      31.459  24.614  23.852  1.00  0.00     0.079 A 
ATOM     11  C   UNL A   1      33.403  25.751  24.377  1.00  0.00     0.033 A 
ATOM     12  S   UNL A   1      30.990  25.563  25.189  1.00  0.00    -0.144 S 
BRANCH   9  13
ATOM     13  C   UNL A   1      33.420  24.002  22.456  1.00  0.00     0.252 C 
ATOM     14  N   UNL A   1      34.187  22.909  22.760  1.00  0.00    -0.347 N 
ATOM     15  H   UNL A   1      34.737  22.556  22.023  1.00  0.00     0.164 HD
ATOM     16  O   UNL A   1      33.263  24.314  21.279  1.00  0.00    -0.269 OA
BRANCH  14  17
ATOM     17  C   UNL A   1      34.301  22.202  24.018  1.00  0.00     0.163 C 
BRANCH  17  18
ATOM     18  C   UNL A   1      35.635  22.497  24.626  1.00  0.00     0.024 A 
ATOM     19  C   UNL A   1      39.183  21.749  26.128  1.00  0.00     0.056 C 
ATOM     20  C   UNL A   1      37.888  22.285  25.620  1.00  0.00     0.002 A 
ATOM     21  C   UNL A   1      37.448  23.591  25.598  1.00  0.00     0.015 A 
ATOM     22  S   UNL A   1      36.730  21.218  24.957  1.00  0.00    -0.144 S 
ATOM     23  C   UNL A   1      36.150  23.714  25.023  1.00  0.00     0.017 A 
ENDBRANCH  17  18
ENDBRANCH  14  17
ENDBRANCH   9  13
ENDBRANCH   7   8
ENDBRANCH   3   6
ENDBRANCH   1   2
BRANCH   1  24
ATOM     24  C   UNL A   1      31.437  32.063  26.826  1.00  0.00     0.042 C 
BRANCH  24  25
ATOM     25  C   UNL A   1      32.698  32.919  26.942  1.00  0.00     0.118 C 
BRANCH  25  26
ATOM     26  N   UNL A   1      32.445  34.190  27.605  1.00  0.00    -0.352 N 
ATOM     27  C   UNL A   1      33.040  34.743  28.711  1.00  0.00     0.251 C 
ATOM     28  H   UNL A   1      31.738  34.739  27.194  1.00  0.00     0.163 HD
ATOM     29  O   UNL A   1      32.553  35.754  29.212  1.00  0.00    -0.269 OA
BRANCH  27  30
ATOM     30  C   UNL A   1      34.246  34.137  29.321  1.00  0.00     0.039 A 
ATOM     31  C   UNL A   1      35.502  34.520  28.836  1.00  0.00     0.014 A 
ATOM     32  C   UNL A   1      34.154  33.151  30.309  1.00  0.00     0.014 A 
ATOM     33  C   UNL A   1      36.663  33.957  29.374  1.00  0.00     0.010 A 
ATOM     34  C   UNL A   1      35.315  32.620  30.875  1.00  0.00     0.010 A 
ATOM     35  C   UNL A   1      36.579  33.015  30.410  1.00  0.00    -0.014 A 
BRANCH  35  36
ATOM     36  C   UNL A   1      37.802  32.431  31.015  1.00  0.00     0.031 A 
ATOM     37  C   UNL A   1      38.469  31.245  30.381  1.00  0.00     0.074 A 
ATOM     38  C   UNL A   1      38.282  32.934  32.167  1.00  0.00     0.049 A 
ATOM     39  N   UNL A   1      39.487  30.543  30.810  1.00  0.00    -0.248 NA
ATOM     40  C   UNL A   1      37.908  30.774  29.106  1.00  0.00     0.031 C 
ATOM     41  C   UNL A   1      37.713  34.066  32.900  1.00  0.00     0.029 A 
ATOM     42  N   UNL A   1      39.354  32.546  32.931  1.00  0.00    -0.354 N 
ATOM     43  C   UNL A   1      39.672  29.533  29.875  1.00  0.00     0.074 A 
ATOM     44  C   UNL A   1      38.650  29.703  28.863  1.00  0.00     0.031 C 
ATOM     45  C   UNL A   1      38.447  34.286  34.004  1.00  0.00     0.029 A 
ATOM     46  C   UNL A   1      39.518  33.297  34.068  1.00  0.00     0.049 A 
ATOM     47  H   UNL A   1      39.949  31.801  32.687  1.00  0.00     0.167 HD
ATOM     48  C   UNL A   1      40.611  28.557  29.858  1.00  0.00     0.037 A 
ATOM     49  C   UNL A   1      40.426  33.194  35.057  1.00  0.00     0.037 A 
ATOM     50  C   UNL A   1      41.651  28.403  30.838  1.00  0.00     0.049 A 
ATOM     51  C   UNL A   1      41.474  32.123  34.999  1.00  0.00     0.074 A 
ATOM     52  C   UNL A   1      42.678  27.475  30.870  1.00  0.00     0.029 A 
ATOM     53  N   UNL A   1      41.803  29.205  31.958  1.00  0.00    -0.354 N 
ATOM     54  N   UNL A   1      41.653  31.194  34.093  1.00  0.00    -0.248 NA
ATOM     55  C   UNL A   1      42.447  32.085  36.102  1.00  0.00     0.031 C 
ATOM     56  C   UNL A   1      43.443  27.705  32.021  1.00  0.00     0.029 A 
ATOM     57  C   UNL A   1      42.901  28.789  32.692  1.00  0.00     0.049 A 
ATOM     58  H   UNL A   1      41.216  29.959  32.197  1.00  0.00     0.167 HD
ATOM     59  C   UNL A   1      42.765  30.471  34.505  1.00  0.00     0.074 A 
ATOM     60  C   UNL A   1      43.225  31.074  35.739  1.00  0.00     0.031 C 
ATOM     61  C   UNL A   1      43.350  29.404  33.913  1.00  0.00     0.037 A 
BRANCH  48  62
ATOM     62  C   UNL A   1      40.549  27.570  28.734  1.00  0.00     0.057 A 
ATOM     63  C   UNL A   1      39.717  26.445  28.790  1.00  0.00     0.134 A 
ATOM     64  C   UNL A   1      41.306  27.762  27.571  1.00  0.00     0.134 A 
ATOM     65  F   UNL A   1      38.979  26.201  29.883  1.00  0.00    -0.206 F 
ATOM     66  C   UNL A   1      39.652  25.535  27.734  1.00  0.00     0.040 A 
ATOM     67  C   UNL A   1      41.236  26.869  26.502  1.00  0.00     0.040 A 
ATOM     68  F   UNL A   1      42.119  28.822  27.457  1.00  0.00    -0.206 F 
ATOM     69  C   UNL A   1      40.410  25.749  26.584  1.00  0.00     0.006 A 
ENDBRANCH  48  62
BRANCH  49  70
ATOM     70  C   UNL A   1      40.391  34.152  36.187  1.00  0.00     0.057 A 
ATOM     71  C   UNL A   1      39.611  33.897  37.319  1.00  0.00     0.134 A 
ATOM     72  C   UNL A   1      41.135  35.336  36.162  1.00  0.00     0.134 A 
ATOM     73  F   UNL A   1      38.864  32.785  37.386  1.00  0.00    -0.206 F 
ATOM     74  C   UNL A   1      39.564  34.792  38.388  1.00  0.00     0.040 A 
ATOM     75  C   UNL A   1      41.109  36.233  37.229  1.00  0.00     0.040 A 
ATOM     76  F   UNL A   1      41.903  35.631  35.103  1.00  0.00    -0.206 F 
ATOM     77  C   UNL A   1      40.318  35.963  38.346  1.00  0.00     0.006 A 
ENDBRANCH  49  70
BRANCH  61  78
ATOM     78  C   UNL A   1      44.562  28.835  34.581  1.00  0.00     0.057 A 
ATOM     79  C   UNL A   1      45.846  29.315  34.299  1.00  0.00     0.134 A 
ATOM     80  C   UNL A   1      44.441  27.818  35.536  1.00  0.00     0.134 A 
ATOM     81  F   UNL A   1      46.025  30.279  33.383  1.00  0.00    -0.206 F 
ATOM     82  C   UNL A   1      46.972  28.796  34.938  1.00  0.00     0.040 A 
ATOM     83  C   UNL A   1      45.557  27.299  36.190  1.00  0.00     0.040 A 
ATOM     84  F   UNL A   1      43.235  27.318  35.848  1.00  0.00    -0.206 F 
ATOM     85  C   UNL A   1      46.829  27.787  35.891  1.00  0.00     0.006 A 
ENDBRANCH  61  78
ENDBRANCH  35  36
ENDBRANCH  27  30
ENDBRANCH  25  26
ENDBRANCH  24  25
ENDBRANCH   1  24
TORSDOF 14
ENDMDL
MODEL 3
REMARK VINA RESULT:     -11.2      1.294      6.379
REMARK SMILES Cc1ccc(CNC(=O)c2csc(/C=C/C(=O)NCCCNC(=O)c3ccc(-c4c5nc(c(-c6c(F)cccc6F)c6ccc([nH]6)c(-c6c(F)cccc6F)c6nc(c(-c7c(F)cccc7F)c7ccc4[nH]7)C=C6)C=C5)cc3)c2)s1
REMARK SMILES IDX 19 1 18 2 16 3 17 4 15 6 14 7 13 8 10 9 11 10 79 11 12 12
REMARK SMILES IDX 8 13 7 14 9 16 6 17 5 18 1 19 2 20 3 21 80 22 4 23 20 24
REMARK SMILES IDX 21 25 22 26 23 27 24 29 25 30 26 31 78 32 27 33 77 34 28 35
REMARK SMILES IDX 29 36 30 37 71 38 31 39 76 40 70 41 72 42 32 43 75 44 69 45
REMARK SMILES IDX 68 46 33 48 59 49 42 50 58 51 43 52 46 53 57 54 73 55 44 56
REMARK SMILES IDX 45 57 56 59 74 60 47 61 34 62 35 63 40 64 36 65 37 66 39 67
REMARK SMILES IDX 41 68 38 69 60 70 61 71 66 72 62 73 63 74 65 75 67 76 64 77
REMARK SMILES IDX 48 78 49 79 54 80 50 81 51 82 53 83 55 84 52 85
REMARK H PARENT 18 5 7 15 22 28 72 47 46 58
REMARK Flexibility Score: inf
ROOT
ATOM      1  C   UNL A   1      36.847  20.552  24.881  1.00  0.00     0.118 C 
ENDROOT
BRANCH   1   2
ATOM      2  N   UNL A   1      35.759  19.590  24.950  1.00  0.00    -0.352 N 
ATOM      3  C   UNL A   1      34.416  19.772  24.833  1.00  0.00     0.244 C 
ATOM      4  O   UNL A   1      33.667  18.801  24.775  1.00  0.00    -0.270 OA
ATOM      5  H   UNL A   1      36.040  18.659  25.106  1.00  0.00     0.163 HD
BRANCH   3   6
ATOM      6  C   UNL A   1      33.865  21.134  24.694  1.00  0.00     0.072 C 
ATOM      7  C   UNL A   1      32.829  21.402  23.885  1.00  0.00     0.024 C 
BRANCH   7   8
ATOM      8  C   UNL A   1      32.287  22.712  23.749  1.00  0.00     0.028 A 
ATOM      9  C   UNL A   1      31.894  24.893  22.929  1.00  0.00     0.051 A 
ATOM     10  C   UNL A   1      31.020  24.826  23.997  1.00  0.00     0.079 A 
ATOM     11  C   UNL A   1      32.672  23.689  22.846  1.00  0.00     0.033 A 
ATOM     12  S   UNL A   1      31.054  23.315  24.786  1.00  0.00    -0.144 S 
BRANCH   9  13
ATOM     13  C   UNL A   1      31.999  26.081  22.090  1.00  0.00     0.252 C 
ATOM     14  N   UNL A   1      32.900  27.055  22.430  1.00  0.00    -0.347 N 
ATOM     15  H   UNL A   1      32.800  27.911  21.954  1.00  0.00     0.164 HD
ATOM     16  O   UNL A   1      31.316  26.224  21.080  1.00  0.00    -0.269 OA
BRANCH  14  17
ATOM     17  C   UNL A   1      33.977  26.998  23.395  1.00  0.00     0.163 C 
BRANCH  17  18
ATOM     18  C   UNL A   1      33.543  27.680  24.654  1.00  0.00     0.024 A 
ATOM     19  C   UNL A   1      32.054  30.524  26.912  1.00  0.00     0.056 C 
ATOM     20  C   UNL A   1      32.669  29.321  26.283  1.00  0.00     0.002 A 
ATOM     21  C   UNL A   1      33.171  28.192  26.897  1.00  0.00     0.015 A 
ATOM     22  S   UNL A   1      32.818  29.233  24.583  1.00  0.00    -0.144 S 
ATOM     23  C   UNL A   1      33.673  27.245  25.957  1.00  0.00     0.017 A 
ENDBRANCH  17  18
ENDBRANCH  14  17
ENDBRANCH   9  13
ENDBRANCH   7   8
ENDBRANCH   3   6
ENDBRANCH   1   2
BRANCH   1  24
ATOM     24  C   UNL A   1      38.209  19.872  24.739  1.00  0.00     0.042 C 
BRANCH  24  25
ATOM     25  C   UNL A   1      38.997  19.773  26.045  1.00  0.00     0.118 C 
BRANCH  25  26
ATOM     26  N   UNL A   1      40.267  19.083  25.874  1.00  0.00    -0.352 N 
ATOM     27  C   UNL A   1      41.551  19.557  25.974  1.00  0.00     0.251 C 
ATOM     28  H   UNL A   1      40.193  18.126  25.653  1.00  0.00     0.163 HD
ATOM     29  O   UNL A   1      42.485  18.843  25.616  1.00  0.00    -0.269 OA
BRANCH  27  30
ATOM     30  C   UNL A   1      41.832  20.917  26.489  1.00  0.00     0.039 A 
ATOM     31  C   UNL A   1      41.725  21.143  27.866  1.00  0.00     0.014 A 
ATOM     32  C   UNL A   1      42.128  21.982  25.632  1.00  0.00     0.014 A 
ATOM     33  C   UNL A   1      41.964  22.417  28.389  1.00  0.00     0.010 A 
ATOM     34  C   UNL A   1      42.408  23.245  26.158  1.00  0.00     0.010 A 
ATOM     35  C   UNL A   1      42.325  23.474  27.540  1.00  0.00    -0.014 A 
BRANCH  35  36
ATOM     36  C   UNL A   1      42.614  24.826  28.081  1.00  0.00     0.031 A 
ATOM     37  C   UNL A   1      44.002  25.184  28.528  1.00  0.00     0.074 A 
ATOM     38  C   UNL A   1      41.613  25.715  28.223  1.00  0.00     0.049 A 
ATOM     39  N   UNL A   1      44.426  26.278  29.109  1.00  0.00    -0.248 NA
ATOM     40  C   UNL A   1      45.047  24.173  28.310  1.00  0.00     0.031 C 
ATOM     41  C   UNL A   1      40.216  25.485  27.854  1.00  0.00     0.029 A 
ATOM     42  N   UNL A   1      41.620  26.990  28.730  1.00  0.00    -0.354 N 
ATOM     43  C   UNL A   1      45.779  26.077  29.351  1.00  0.00     0.074 A 
ATOM     44  C   UNL A   1      46.102  24.751  28.868  1.00  0.00     0.031 C 
ATOM     45  C   UNL A   1      39.501  26.585  28.140  1.00  0.00     0.029 A 
ATOM     46  C   UNL A   1      40.383  27.586  28.733  1.00  0.00     0.049 A 
ATOM     47  H   UNL A   1      42.433  27.436  29.059  1.00  0.00     0.167 HD
ATOM     48  C   UNL A   1      46.672  26.924  29.917  1.00  0.00     0.037 A 
ATOM     49  C   UNL A   1      40.000  28.799  29.174  1.00  0.00     0.037 A 
ATOM     50  C   UNL A   1      46.368  28.256  30.365  1.00  0.00     0.049 A 
ATOM     51  C   UNL A   1      41.014  29.730  29.770  1.00  0.00     0.074 A 
ATOM     52  C   UNL A   1      47.223  29.204  30.902  1.00  0.00     0.029 A 
ATOM     53  N   UNL A   1      45.109  28.834  30.321  1.00  0.00    -0.354 N 
ATOM     54  N   UNL A   1      42.296  29.537  29.964  1.00  0.00    -0.248 NA
ATOM     55  C   UNL A   1      40.530  31.047  30.208  1.00  0.00     0.031 C 
ATOM     56  C   UNL A   1      46.477  30.351  31.199  1.00  0.00     0.029 A 
ATOM     57  C   UNL A   1      45.162  30.122  30.827  1.00  0.00     0.049 A 
ATOM     58  H   UNL A   1      44.297  28.393  29.979  1.00  0.00     0.167 HD
ATOM     59  C   UNL A   1      42.774  30.710  30.531  1.00  0.00     0.074 A 
ATOM     60  C   UNL A   1      41.647  31.613  30.644  1.00  0.00     0.031 C 
ATOM     61  C   UNL A   1      44.034  31.009  30.925  1.00  0.00     0.037 A 
BRANCH  48  62
ATOM     62  C   UNL A   1      48.073  26.425  30.087  1.00  0.00     0.057 A 
ATOM     63  C   UNL A   1      48.480  25.767  31.254  1.00  0.00     0.134 A 
ATOM     64  C   UNL A   1      49.015  26.577  29.062  1.00  0.00     0.134 A 
ATOM     65  F   UNL A   1      47.626  25.604  32.275  1.00  0.00    -0.206 F 
ATOM     66  C   UNL A   1      49.784  25.291  31.403  1.00  0.00     0.040 A 
ATOM     67  C   UNL A   1      50.316  26.090  29.193  1.00  0.00     0.040 A 
ATOM     68  F   UNL A   1      48.684  27.196  27.920  1.00  0.00    -0.206 F 
ATOM     69  C   UNL A   1      50.704  25.448  30.368  1.00  0.00     0.006 A 
ENDBRANCH  48  62
BRANCH  49  70
ATOM     70  C   UNL A   1      38.582  29.210  29.051  1.00  0.00     0.057 A 
ATOM     71  C   UNL A   1      38.069  29.654  27.828  1.00  0.00     0.134 A 
ATOM     72  C   UNL A   1      37.713  29.165  30.145  1.00  0.00     0.134 A 
ATOM     73  F   UNL A   1      38.864  29.734  26.752  1.00  0.00    -0.206 F 
ATOM     74  C   UNL A   1      36.737  30.050  27.698  1.00  0.00     0.040 A 
ATOM     75  C   UNL A   1      36.375  29.544  30.026  1.00  0.00     0.040 A 
ATOM     76  F   UNL A   1      38.151  28.745  31.341  1.00  0.00    -0.206 F 
ATOM     77  C   UNL A   1      35.885  29.991  28.799  1.00  0.00     0.006 A 
ENDBRANCH  49  70
BRANCH  61  78
ATOM     78  C   UNL A   1      44.263  32.376  31.492  1.00  0.00     0.057 A 
ATOM     79  C   UNL A   1      44.574  33.466  30.671  1.00  0.00     0.134 A 
ATOM     80  C   UNL A   1      44.142  32.608  32.867  1.00  0.00     0.134 A 
ATOM     81  F   UNL A   1      44.717  33.300  29.347  1.00  0.00    -0.206 F 
ATOM     82  C   UNL A   1      44.768  34.742  31.201  1.00  0.00     0.040 A 
ATOM     83  C   UNL A   1      44.321  33.881  33.407  1.00  0.00     0.040 A 
ATOM     84  F   UNL A   1      43.845  31.602  33.704  1.00  0.00    -0.206 F 
ATOM     85  C   UNL A   1      44.637  34.953  32.574  1.00  0.00     0.006 A 
ENDBRANCH  61  78
ENDBRANCH  35  36
ENDBRANCH  27  30
ENDBRANCH  25  26
ENDBRANCH  24  25
ENDBRANCH   1  24
TORSDOF 14
ENDMDL
