MODEL 1
REMARK VINA RESULT:     -12.3      0.000      0.000
REMARK SMILES CS(=O)(=O)c1ccc(/C=C(/C(=O)NCCCNC(=O)c2ccc(-c3c4nc(c(-c5c(F)cccc5F)c5ccc([nH]5)c(-c5c(F)cccc5F)c5nc(c(-c6c(F)cccc6F)c6ccc3[nH]6)C=C5)C=C4)cc2)c2ccc(O)cc2)cc1
REMARK SMILES IDX 15 1 14 2 13 3 11 4 12 5 10 7 9 8 8 9 5 10 6 11 82 12 7 13
REMARK SMILES IDX 81 14 2 15 1 16 3 17 4 18 74 19 75 20 80 21 76 22 79 23
REMARK SMILES IDX 77 24 78 25 16 27 17 28 18 29 19 31 20 32 21 33 73 34 22 35
REMARK SMILES IDX 72 36 23 37 24 38 25 39 66 40 26 41 71 42 65 43 67 44 27 45
REMARK SMILES IDX 70 46 64 47 63 48 28 50 54 51 37 52 53 53 38 54 41 55 52 56
REMARK SMILES IDX 68 57 39 58 40 59 51 61 69 62 42 63 29 64 30 65 35 66 31 67
REMARK SMILES IDX 32 68 34 69 36 70 33 71 55 72 56 73 61 74 57 75 58 76 60 77
REMARK SMILES IDX 62 78 59 79 43 80 44 81 49 82 45 83 46 84 48 85 50 86 47 87
REMARK H PARENT 13 6 78 26 17 30 67 49 41 60
REMARK Flexibility Score: inf
ROOT
ATOM      1  C   UNL A   1      33.897  28.031  25.726  1.00  0.00     0.042 C 
ENDROOT
BRANCH   1   2
ATOM      2  C   UNL A   1      32.875  27.104  25.065  1.00  0.00     0.118 C 
BRANCH   2   3
ATOM      3  N   UNL A   1      33.121  27.017  23.640  1.00  0.00    -0.352 N 
ATOM      4  C   UNL A   1      33.493  26.015  22.802  1.00  0.00     0.251 C 
ATOM      5  O   UNL A   1      33.657  26.339  21.623  1.00  0.00    -0.269 OA
ATOM      6  H   UNL A   1      32.988  27.875  23.174  1.00  0.00     0.163 HD
BRANCH   4   7
ATOM      7  C   UNL A   1      33.619  24.570  23.230  1.00  0.00     0.047 C 
ATOM      8  C   UNL A   1      32.544  23.748  23.277  1.00  0.00     0.022 C 
BRANCH   8   9
ATOM      9  C   UNL A   1      32.486  22.292  23.551  1.00  0.00    -0.025 A 
ATOM     10  C   UNL A   1      32.585  19.496  23.839  1.00  0.00     0.067 A 
ATOM     11  C   UNL A   1      32.867  20.324  24.928  1.00  0.00     0.021 A 
ATOM     12  C   UNL A   1      32.182  20.048  22.624  1.00  0.00     0.021 A 
ATOM     13  C   UNL A   1      32.789  21.714  24.788  1.00  0.00     0.009 A 
ATOM     14  C   UNL A   1      32.134  21.442  22.487  1.00  0.00     0.009 A 
BRANCH  10  15
ATOM     15  S   UNL A   1      32.787  17.742  24.043  1.00  0.00     0.175 S 
ATOM     16  C   UNL A   1      34.456  17.475  24.564  1.00  0.00     0.163 C 
ATOM     17  O   UNL A   1      32.659  17.149  22.722  1.00  0.00    -0.224 OA
ATOM     18  O   UNL A   1      31.909  17.353  25.127  1.00  0.00    -0.224 OA
ENDBRANCH  10  15
ENDBRANCH   8   9
BRANCH   7  19
ATOM     19  C   UNL A   1      34.936  24.146  23.772  1.00  0.00    -0.013 A 
ATOM     20  C   UNL A   1      35.259  24.489  25.098  1.00  0.00     0.013 A 
ATOM     21  C   UNL A   1      35.824  23.335  23.051  1.00  0.00     0.013 A 
ATOM     22  C   UNL A   1      36.410  23.992  25.707  1.00  0.00     0.047 A 
ATOM     23  C   UNL A   1      36.966  22.814  23.670  1.00  0.00     0.047 A 
ATOM     24  C   UNL A   1      37.238  23.135  24.998  1.00  0.00     0.115 A 
BRANCH  24  25
ATOM     25  O   UNL A   1      38.310  22.609  25.656  1.00  0.00    -0.508 OA
ATOM     26  H   UNL A   1      38.291  22.523  26.589  1.00  0.00     0.293 HD
ENDBRANCH  24  25
ENDBRANCH   7  19
ENDBRANCH   4   7
ENDBRANCH   2   3
ENDBRANCH   1   2
BRANCH   1  27
ATOM     27  C   UNL A   1      33.599  28.309  27.201  1.00  0.00     0.118 C 
BRANCH  27  28
ATOM     28  N   UNL A   1      33.553  29.736  27.491  1.00  0.00    -0.352 N 
ATOM     29  C   UNL A   1      34.471  30.541  28.115  1.00  0.00     0.251 C 
ATOM     30  H   UNL A   1      32.735  30.194  27.192  1.00  0.00     0.163 HD
ATOM     31  O   UNL A   1      34.140  31.666  28.480  1.00  0.00    -0.269 OA
BRANCH  29  32
ATOM     32  C   UNL A   1      35.851  30.067  28.357  1.00  0.00     0.039 A 
ATOM     33  C   UNL A   1      36.775  30.121  27.309  1.00  0.00     0.014 A 
ATOM     34  C   UNL A   1      36.225  29.528  29.592  1.00  0.00     0.014 A 
ATOM     35  C   UNL A   1      38.086  29.687  27.517  1.00  0.00     0.010 A 
ATOM     36  C   UNL A   1      37.551  29.167  29.819  1.00  0.00     0.010 A 
ATOM     37  C   UNL A   1      38.494  29.239  28.783  1.00  0.00    -0.014 A 
BRANCH  37  38
ATOM     38  C   UNL A   1      39.903  28.843  29.042  1.00  0.00     0.031 A 
ATOM     39  C   UNL A   1      40.863  29.817  29.667  1.00  0.00     0.074 A 
ATOM     40  C   UNL A   1      40.330  27.624  28.660  1.00  0.00     0.049 A 
ATOM     41  N   UNL A   1      42.144  29.681  29.899  1.00  0.00    -0.248 NA
ATOM     42  C   UNL A   1      40.318  31.126  30.064  1.00  0.00     0.031 C 
ATOM     43  C   UNL A   1      39.507  26.606  28.003  1.00  0.00     0.029 A 
ATOM     44  N   UNL A   1      41.567  27.037  28.755  1.00  0.00    -0.354 N 
ATOM     45  C   UNL A   1      42.557  30.884  30.461  1.00  0.00     0.074 A 
ATOM     46  C   UNL A   1      41.404  31.758  30.480  1.00  0.00     0.031 C 
ATOM     47  C   UNL A   1      40.257  25.518  27.769  1.00  0.00     0.029 A 
ATOM     48  C   UNL A   1      41.621  25.774  28.218  1.00  0.00     0.049 A 
ATOM     49  H   UNL A   1      42.343  27.480  29.170  1.00  0.00     0.167 HD
ATOM     50  C   UNL A   1      43.777  31.219  30.943  1.00  0.00     0.037 A 
ATOM     51  C   UNL A   1      42.656  24.923  28.086  1.00  0.00     0.037 A 
ATOM     52  C   UNL A   1      44.920  30.343  30.932  1.00  0.00     0.049 A 
ATOM     53  C   UNL A   1      44.007  25.329  28.609  1.00  0.00     0.074 A 
ATOM     54  C   UNL A   1      46.191  30.576  31.426  1.00  0.00     0.029 A 
ATOM     55  N   UNL A   1      44.929  29.063  30.398  1.00  0.00    -0.354 N 
ATOM     56  N   UNL A   1      44.367  26.448  29.191  1.00  0.00    -0.248 NA
ATOM     57  C   UNL A   1      45.096  24.352  28.464  1.00  0.00     0.031 C 
ATOM     58  C   UNL A   1      46.981  29.456  31.151  1.00  0.00     0.029 A 
ATOM     59  C   UNL A   1      46.188  28.502  30.536  1.00  0.00     0.049 A 
ATOM     60  H   UNL A   1      44.154  28.619  29.983  1.00  0.00     0.167 HD
ATOM     61  C   UNL A   1      45.712  26.297  29.507  1.00  0.00     0.074 A 
ATOM     62  C   UNL A   1      46.098  24.971  29.070  1.00  0.00     0.031 C 
ATOM     63  C   UNL A   1      46.552  27.176  30.105  1.00  0.00     0.037 A 
BRANCH  50  64
ATOM     64  C   UNL A   1      43.938  32.590  31.536  1.00  0.00     0.057 A 
ATOM     65  C   UNL A   1      43.771  32.822  32.908  1.00  0.00     0.134 A 
ATOM     66  C   UNL A   1      44.312  33.680  30.739  1.00  0.00     0.134 A 
ATOM     67  F   UNL A   1      43.404  31.825  33.726  1.00  0.00    -0.206 F 
ATOM     68  C   UNL A   1      43.946  34.092  33.461  1.00  0.00     0.040 A 
ATOM     69  C   UNL A   1      44.518  34.947  31.285  1.00  0.00     0.040 A 
ATOM     70  F   UNL A   1      44.497  33.527  29.418  1.00  0.00    -0.206 F 
ATOM     71  C   UNL A   1      44.330  35.158  32.649  1.00  0.00     0.006 A 
ENDBRANCH  50  64
BRANCH  51  72
ATOM     72  C   UNL A   1      42.462  23.602  27.435  1.00  0.00     0.057 A 
ATOM     73  C   UNL A   1      42.162  22.459  28.185  1.00  0.00     0.134 A 
ATOM     74  C   UNL A   1      42.598  23.445  26.050  1.00  0.00     0.134 A 
ATOM     75  F   UNL A   1      42.034  22.540  29.518  1.00  0.00    -0.206 F 
ATOM     76  C   UNL A   1      42.034  21.204  27.587  1.00  0.00     0.040 A 
ATOM     77  C   UNL A   1      42.443  22.202  25.435  1.00  0.00     0.040 A 
ATOM     78  F   UNL A   1      42.875  24.503  25.273  1.00  0.00    -0.206 F 
ATOM     79  C   UNL A   1      42.171  21.074  26.206  1.00  0.00     0.006 A 
ENDBRANCH  51  72
BRANCH  63  80
ATOM     80  C   UNL A   1      47.960  26.718  30.360  1.00  0.00     0.057 A 
ATOM     81  C   UNL A   1      48.318  26.035  31.527  1.00  0.00     0.134 A 
ATOM     82  C   UNL A   1      48.960  26.935  29.404  1.00  0.00     0.134 A 
ATOM     83  F   UNL A   1      47.411  25.807  32.489  1.00  0.00    -0.206 F 
ATOM     84  C   UNL A   1      49.628  25.605  31.747  1.00  0.00     0.040 A 
ATOM     85  C   UNL A   1      50.266  26.484  29.599  1.00  0.00     0.040 A 
ATOM     86  F   UNL A   1      48.682  27.575  28.258  1.00  0.00    -0.206 F 
ATOM     87  C   UNL A   1      50.604  25.822  30.777  1.00  0.00     0.006 A 
ENDBRANCH  63  80
ENDBRANCH  37  38
ENDBRANCH  29  32
ENDBRANCH  27  28
ENDBRANCH   1  27
TORSDOF 14
ENDMDL
MODEL 2
REMARK VINA RESULT:     -12.2      3.422      8.294
REMARK SMILES CS(=O)(=O)c1ccc(/C=C(/C(=O)NCCCNC(=O)c2ccc(-c3c4nc(c(-c5c(F)cccc5F)c5ccc([nH]5)c(-c5c(F)cccc5F)c5nc(c(-c6c(F)cccc6F)c6ccc3[nH]6)C=C5)C=C4)cc2)c2ccc(O)cc2)cc1
REMARK SMILES IDX 15 1 14 2 13 3 11 4 12 5 10 7 9 8 8 9 5 10 6 11 82 12 7 13
REMARK SMILES IDX 81 14 2 15 1 16 3 17 4 18 74 19 75 20 80 21 76 22 79 23
REMARK SMILES IDX 77 24 78 25 16 27 17 28 18 29 19 31 20 32 21 33 73 34 22 35
REMARK SMILES IDX 72 36 23 37 24 38 25 39 66 40 26 41 71 42 65 43 67 44 27 45
REMARK SMILES IDX 70 46 64 47 63 48 28 50 54 51 37 52 53 53 38 54 41 55 52 56
REMARK SMILES IDX 68 57 39 58 40 59 51 61 69 62 42 63 29 64 30 65 35 66 31 67
REMARK SMILES IDX 32 68 34 69 36 70 33 71 55 72 56 73 61 74 57 75 58 76 60 77
REMARK SMILES IDX 62 78 59 79 43 80 44 81 49 82 45 83 46 84 48 85 50 86 47 87
REMARK H PARENT 13 6 78 26 17 30 67 49 41 60
REMARK Flexibility Score: inf
ROOT
ATOM      1  C   UNL A   1      36.272  23.492  24.254  1.00  0.00     0.042 C 
ENDROOT
BRANCH   1   2
ATOM      2  C   UNL A   1      34.807  23.888  24.058  1.00  0.00     0.118 C 
BRANCH   2   3
ATOM      3  N   UNL A   1      34.029  23.535  25.229  1.00  0.00    -0.352 N 
ATOM      4  C   UNL A   1      33.007  24.126  25.900  1.00  0.00     0.251 C 
ATOM      5  O   UNL A   1      32.622  23.535  26.912  1.00  0.00    -0.269 OA
ATOM      6  H   UNL A   1      34.300  22.676  25.625  1.00  0.00     0.163 HD
BRANCH   4   7
ATOM      7  C   UNL A   1      32.302  25.375  25.420  1.00  0.00     0.047 C 
ATOM      8  C   UNL A   1      31.609  25.396  24.257  1.00  0.00     0.022 C 
BRANCH   8   9
ATOM      9  C   UNL A   1      30.763  26.472  23.687  1.00  0.00    -0.025 A 
ATOM     10  C   UNL A   1      29.069  28.574  22.898  1.00  0.00     0.067 A 
ATOM     11  C   UNL A   1      30.424  28.601  22.560  1.00  0.00     0.021 A 
ATOM     12  C   UNL A   1      28.534  27.472  23.563  1.00  0.00     0.021 A 
ATOM     13  C   UNL A   1      31.258  27.539  22.930  1.00  0.00     0.009 A 
ATOM     14  C   UNL A   1      29.383  26.428  23.953  1.00  0.00     0.009 A 
BRANCH  10  15
ATOM     15  S   UNL A   1      28.072  29.986  22.485  1.00  0.00     0.175 S 
ATOM     16  C   UNL A   1      28.918  31.410  23.107  1.00  0.00     0.163 C 
ATOM     17  O   UNL A   1      26.838  29.865  23.244  1.00  0.00    -0.224 OA
ATOM     18  O   UNL A   1      28.057  30.067  21.039  1.00  0.00    -0.224 OA
ENDBRANCH  10  15
ENDBRANCH   8   9
BRANCH   7  19
ATOM     19  C   UNL A   1      32.558  26.623  26.186  1.00  0.00    -0.013 A 
ATOM     20  C   UNL A   1      33.809  27.250  26.049  1.00  0.00     0.013 A 
ATOM     21  C   UNL A   1      31.570  27.251  26.957  1.00  0.00     0.013 A 
ATOM     22  C   UNL A   1      34.053  28.497  26.623  1.00  0.00     0.047 A 
ATOM     23  C   UNL A   1      31.805  28.516  27.510  1.00  0.00     0.047 A 
ATOM     24  C   UNL A   1      33.039  29.133  27.323  1.00  0.00     0.115 A 
BRANCH  24  25
ATOM     25  O   UNL A   1      33.293  30.385  27.798  1.00  0.00    -0.508 OA
ATOM     26  H   UNL A   1      34.171  30.710  27.818  1.00  0.00     0.293 HD
ENDBRANCH  24  25
ENDBRANCH   7  19
ENDBRANCH   4   7
ENDBRANCH   2   3
ENDBRANCH   1   2
BRANCH   1  27
ATOM     27  C   UNL A   1      36.719  23.521  25.717  1.00  0.00     0.118 C 
BRANCH  27  28
ATOM     28  N   UNL A   1      37.743  22.524  25.997  1.00  0.00    -0.352 N 
ATOM     29  C   UNL A   1      39.048  22.683  26.387  1.00  0.00     0.251 C 
ATOM     30  H   UNL A   1      37.452  21.590  25.889  1.00  0.00     0.163 HD
ATOM     31  O   UNL A   1      39.816  21.727  26.333  1.00  0.00    -0.269 OA
BRANCH  29  32
ATOM     32  C   UNL A   1      39.540  23.994  26.863  1.00  0.00     0.039 A 
ATOM     33  C   UNL A   1      40.124  24.868  25.942  1.00  0.00     0.014 A 
ATOM     34  C   UNL A   1      39.470  24.345  28.214  1.00  0.00     0.014 A 
ATOM     35  C   UNL A   1      40.588  26.115  26.367  1.00  0.00     0.010 A 
ATOM     36  C   UNL A   1      39.863  25.618  28.622  1.00  0.00     0.010 A 
ATOM     37  C   UNL A   1      40.430  26.515  27.704  1.00  0.00    -0.014 A 
BRANCH  37  38
ATOM     38  C   UNL A   1      40.849  27.866  28.157  1.00  0.00     0.031 A 
ATOM     39  C   UNL A   1      42.308  28.228  28.219  1.00  0.00     0.074 A 
ATOM     40  C   UNL A   1      39.917  28.747  28.568  1.00  0.00     0.049 A 
ATOM     41  N   UNL A   1      42.869  29.325  28.659  1.00  0.00    -0.248 NA
ATOM     42  C   UNL A   1      43.264  27.214  27.744  1.00  0.00     0.031 C 
ATOM     43  C   UNL A   1      38.474  28.499  28.599  1.00  0.00     0.029 A 
ATOM     44  N   UNL A   1      40.043  30.025  29.053  1.00  0.00    -0.354 N 
ATOM     45  C   UNL A   1      44.238  29.132  28.519  1.00  0.00     0.074 A 
ATOM     46  C   UNL A   1      44.426  27.790  28.011  1.00  0.00     0.031 C 
ATOM     47  C   UNL A   1      37.849  29.594  29.062  1.00  0.00     0.029 A 
ATOM     48  C   UNL A   1      38.846  30.603  29.401  1.00  0.00     0.049 A 
ATOM     49  H   UNL A   1      40.910  30.484  29.142  1.00  0.00     0.167 HD
ATOM     50  C   UNL A   1      45.246  30.002  28.766  1.00  0.00     0.037 A 
ATOM     51  C   UNL A   1      38.583  31.805  29.949  1.00  0.00     0.037 A 
ATOM     52  C   UNL A   1      45.056  31.341  29.262  1.00  0.00     0.049 A 
ATOM     53  C   UNL A   1      39.722  32.744  30.235  1.00  0.00     0.074 A 
ATOM     54  C   UNL A   1      46.010  32.312  29.514  1.00  0.00     0.029 A 
ATOM     55  N   UNL A   1      43.826  31.897  29.584  1.00  0.00    -0.354 N 
ATOM     56  N   UNL A   1      41.007  32.568  30.043  1.00  0.00    -0.248 NA
ATOM     57  C   UNL A   1      39.375  34.054  30.807  1.00  0.00     0.031 C 
ATOM     58  C   UNL A   1      45.362  33.438  30.029  1.00  0.00     0.029 A 
ATOM     59  C   UNL A   1      44.000  33.191  30.046  1.00  0.00     0.049 A 
ATOM     60  H   UNL A   1      42.959  31.439  29.495  1.00  0.00     0.167 HD
ATOM     61  C   UNL A   1      41.617  33.751  30.441  1.00  0.00     0.074 A 
ATOM     62  C   UNL A   1      40.560  34.644  30.867  1.00  0.00     0.031 C 
ATOM     63  C   UNL A   1      42.934  34.071  30.455  1.00  0.00     0.037 A 
BRANCH  50  64
ATOM     64  C   UNL A   1      46.649  29.538  28.492  1.00  0.00     0.057 A 
ATOM     65  C   UNL A   1      47.416  28.896  29.473  1.00  0.00     0.134 A 
ATOM     66  C   UNL A   1      47.221  29.688  27.222  1.00  0.00     0.134 A 
ATOM     67  F   UNL A   1      46.932  28.729  30.712  1.00  0.00    -0.206 F 
ATOM     68  C   UNL A   1      48.709  28.443  29.209  1.00  0.00     0.040 A 
ATOM     69  C   UNL A   1      48.503  29.213  26.938  1.00  0.00     0.040 A 
ATOM     70  F   UNL A   1      46.540  30.287  26.233  1.00  0.00    -0.206 F 
ATOM     71  C   UNL A   1      49.253  28.593  27.935  1.00  0.00     0.006 A 
ENDBRANCH  50  64
BRANCH  51  72
ATOM     72  C   UNL A   1      37.183  32.194  30.262  1.00  0.00     0.057 A 
ATOM     73  C   UNL A   1      36.407  32.914  29.347  1.00  0.00     0.134 A 
ATOM     74  C   UNL A   1      36.597  31.879  31.494  1.00  0.00     0.134 A 
ATOM     75  F   UNL A   1      36.915  33.261  28.155  1.00  0.00    -0.206 F 
ATOM     76  C   UNL A   1      35.111  33.333  29.656  1.00  0.00     0.040 A 
ATOM     77  C   UNL A   1      35.293  32.264  31.805  1.00  0.00     0.040 A 
ATOM     78  F   UNL A   1      37.284  31.181  32.412  1.00  0.00    -0.206 F 
ATOM     79  C   UNL A   1      34.549  33.004  30.888  1.00  0.00     0.006 A 
ENDBRANCH  51  72
BRANCH  63  80
ATOM     80  C   UNL A   1      43.302  35.455  30.904  1.00  0.00     0.057 A 
ATOM     81  C   UNL A   1      43.498  35.770  32.254  1.00  0.00     0.134 A 
ATOM     82  C   UNL A   1      43.499  36.477  29.966  1.00  0.00     0.134 A 
ATOM     83  F   UNL A   1      43.312  34.841  33.203  1.00  0.00    -0.206 F 
ATOM     84  C   UNL A   1      43.851  37.060  32.658  1.00  0.00     0.040 A 
ATOM     85  C   UNL A   1      43.882  37.762  30.355  1.00  0.00     0.040 A 
ATOM     86  F   UNL A   1      43.339  36.240  28.655  1.00  0.00    -0.206 F 
ATOM     87  C   UNL A   1      44.052  38.057  31.706  1.00  0.00     0.006 A 
ENDBRANCH  63  80
ENDBRANCH  37  38
ENDBRANCH  29  32
ENDBRANCH  27  28
ENDBRANCH   1  27
TORSDOF 14
ENDMDL
MODEL 3
REMARK VINA RESULT:     -12.2      3.447      8.361
REMARK SMILES CS(=O)(=O)c1ccc(/C=C(/C(=O)NCCCNC(=O)c2ccc(-c3c4nc(c(-c5c(F)cccc5F)c5ccc([nH]5)c(-c5c(F)cccc5F)c5nc(c(-c6c(F)cccc6F)c6ccc3[nH]6)C=C5)C=C4)cc2)c2ccc(O)cc2)cc1
REMARK SMILES IDX 15 1 14 2 13 3 11 4 12 5 10 7 9 8 8 9 5 10 6 11 82 12 7 13
REMARK SMILES IDX 81 14 2 15 1 16 3 17 4 18 74 19 75 20 80 21 76 22 79 23
REMARK SMILES IDX 77 24 78 25 16 27 17 28 18 29 19 31 20 32 21 33 73 34 22 35
REMARK SMILES IDX 72 36 23 37 24 38 25 39 66 40 26 41 71 42 65 43 67 44 27 45
REMARK SMILES IDX 70 46 64 47 63 48 28 50 54 51 37 52 53 53 38 54 41 55 52 56
REMARK SMILES IDX 68 57 39 58 40 59 51 61 69 62 42 63 29 64 30 65 35 66 31 67
REMARK SMILES IDX 32 68 34 69 36 70 33 71 55 72 56 73 61 74 57 75 58 76 60 77
REMARK SMILES IDX 62 78 59 79 43 80 44 81 49 82 45 83 46 84 48 85 50 86 47 87
REMARK H PARENT 13 6 78 26 17 30 67 49 41 60
REMARK Flexibility Score: inf
ROOT
ATOM      1  C   UNL A   1      35.890  23.738  25.993  1.00  0.00     0.042 C 
ENDROOT
BRANCH   1   2
ATOM      2  C   UNL A   1      34.539  23.870  25.287  1.00  0.00     0.118 C 
BRANCH   2   3
ATOM      3  N   UNL A   1      33.460  23.537  26.196  1.00  0.00    -0.352 N 
ATOM      4  C   UNL A   1      32.305  24.152  26.561  1.00  0.00     0.251 C 
ATOM      5  O   UNL A   1      31.643  23.572  27.426  1.00  0.00    -0.269 OA
ATOM      6  H   UNL A   1      33.593  22.673  26.649  1.00  0.00     0.163 HD
BRANCH   4   7
ATOM      7  C   UNL A   1      31.787  25.414  25.909  1.00  0.00     0.047 C 
ATOM      8  C   UNL A   1      31.098  25.379  24.744  1.00  0.00     0.022 C 
BRANCH   8   9
ATOM      9  C   UNL A   1      30.416  26.481  24.023  1.00  0.00    -0.025 A 
ATOM     10  C   UNL A   1      28.980  28.637  22.927  1.00  0.00     0.067 A 
ATOM     11  C   UNL A   1      30.374  28.610  22.848  1.00  0.00     0.021 A 
ATOM     12  C   UNL A   1      28.288  27.562  23.485  1.00  0.00     0.021 A 
ATOM     13  C   UNL A   1      31.083  27.521  23.369  1.00  0.00     0.009 A 
ATOM     14  C   UNL A   1      29.009  26.491  24.029  1.00  0.00     0.009 A 
BRANCH  10  15
ATOM     15  S   UNL A   1      28.132  30.081  22.333  1.00  0.00     0.175 S 
ATOM     16  C   UNL A   1      29.146  31.474  22.739  1.00  0.00     0.163 C 
ATOM     17  O   UNL A   1      26.914  30.205  23.117  1.00  0.00    -0.224 OA
ATOM     18  O   UNL A   1      28.086  29.963  20.890  1.00  0.00    -0.224 OA
ENDBRANCH  10  15
ENDBRANCH   8   9
BRANCH   7  19
ATOM     19  C   UNL A   1      32.227  26.703  26.505  1.00  0.00    -0.013 A 
ATOM     20  C   UNL A   1      33.540  27.143  26.261  1.00  0.00     0.013 A 
ATOM     21  C   UNL A   1      31.356  27.542  27.215  1.00  0.00     0.013 A 
ATOM     22  C   UNL A   1      33.959  28.409  26.667  1.00  0.00     0.047 A 
ATOM     23  C   UNL A   1      31.768  28.824  27.599  1.00  0.00     0.047 A 
ATOM     24  C   UNL A   1      33.061  29.250  27.305  1.00  0.00     0.115 A 
BRANCH  24  25
ATOM     25  O   UNL A   1      33.487  30.507  27.613  1.00  0.00    -0.508 OA
ATOM     26  H   UNL A   1      34.357  30.643  27.931  1.00  0.00     0.293 HD
ENDBRANCH  24  25
ENDBRANCH   7  19
ENDBRANCH   4   7
ENDBRANCH   2   3
ENDBRANCH   1   2
BRANCH   1  27
ATOM     27  C   UNL A   1      37.080  23.741  25.032  1.00  0.00     0.118 C 
BRANCH  27  28
ATOM     28  N   UNL A   1      38.100  22.775  25.420  1.00  0.00    -0.352 N 
ATOM     29  C   UNL A   1      39.278  22.958  26.098  1.00  0.00     0.251 C 
ATOM     30  H   UNL A   1      37.914  21.846  25.154  1.00  0.00     0.163 HD
ATOM     31  O   UNL A   1      40.114  22.059  26.111  1.00  0.00    -0.269 OA
BRANCH  29  32
ATOM     32  C   UNL A   1      39.553  24.227  26.806  1.00  0.00     0.039 A 
ATOM     33  C   UNL A   1      39.058  24.396  28.102  1.00  0.00     0.014 A 
ATOM     34  C   UNL A   1      40.253  25.266  26.184  1.00  0.00     0.014 A 
ATOM     35  C   UNL A   1      39.312  25.582  28.793  1.00  0.00     0.010 A 
ATOM     36  C   UNL A   1      40.571  26.416  26.902  1.00  0.00     0.010 A 
ATOM     37  C   UNL A   1      40.101  26.588  28.212  1.00  0.00    -0.014 A 
BRANCH  37  38
ATOM     38  C   UNL A   1      40.444  27.825  28.961  1.00  0.00     0.031 A 
ATOM     39  C   UNL A   1      41.765  27.943  29.670  1.00  0.00     0.074 A 
ATOM     40  C   UNL A   1      39.539  28.820  29.048  1.00  0.00     0.049 A 
ATOM     41  N   UNL A   1      42.209  28.908  30.434  1.00  0.00    -0.248 NA
ATOM     42  C   UNL A   1      42.702  26.817  29.519  1.00  0.00     0.031 C 
ATOM     43  C   UNL A   1      38.206  28.807  28.442  1.00  0.00     0.029 A 
ATOM     44  N   UNL A   1      39.597  30.030  29.693  1.00  0.00    -0.354 N 
ATOM     45  C   UNL A   1      43.470  28.505  30.858  1.00  0.00     0.074 A 
ATOM     46  C   UNL A   1      43.695  27.182  30.315  1.00  0.00     0.031 C 
ATOM     47  C   UNL A   1      37.580  29.959  28.732  1.00  0.00     0.029 A 
ATOM     48  C   UNL A   1      38.447  30.772  29.577  1.00  0.00     0.049 A 
ATOM     49  H   UNL A   1      40.389  30.337  30.191  1.00  0.00     0.167 HD
ATOM     50  C   UNL A   1      44.370  29.185  31.607  1.00  0.00     0.037 A 
ATOM     51  C   UNL A   1      38.120  31.967  30.106  1.00  0.00     0.037 A 
ATOM     52  C   UNL A   1      44.147  30.505  32.137  1.00  0.00     0.049 A 
ATOM     53  C   UNL A   1      39.129  32.692  30.954  1.00  0.00     0.074 A 
ATOM     54  C   UNL A   1      45.009  31.293  32.880  1.00  0.00     0.029 A 
ATOM     55  N   UNL A   1      42.977  31.232  31.980  1.00  0.00    -0.354 N 
ATOM     56  N   UNL A   1      40.340  32.322  31.297  1.00  0.00    -0.248 NA
ATOM     57  C   UNL A   1      38.731  34.004  31.483  1.00  0.00     0.031 C 
ATOM     58  C   UNL A   1      44.344  32.478  33.211  1.00  0.00     0.029 A 
ATOM     59  C   UNL A   1      43.089  32.453  32.626  1.00  0.00     0.049 A 
ATOM     60  H   UNL A   1      42.184  30.927  31.482  1.00  0.00     0.167 HD
ATOM     61  C   UNL A   1      40.856  33.366  32.055  1.00  0.00     0.074 A 
ATOM     62  C   UNL A   1      39.835  34.392  32.105  1.00  0.00     0.031 C 
ATOM     63  C   UNL A   1      42.066  33.467  32.656  1.00  0.00     0.037 A 
BRANCH  50  64
ATOM     64  C   UNL A   1      45.686  28.518  31.890  1.00  0.00     0.057 A 
ATOM     65  C   UNL A   1      45.869  27.697  33.011  1.00  0.00     0.134 A 
ATOM     66  C   UNL A   1      46.767  28.654  31.009  1.00  0.00     0.134 A 
ATOM     67  F   UNL A   1      44.878  27.531  33.900  1.00  0.00    -0.206 F 
ATOM     68  C   UNL A   1      47.084  27.057  33.259  1.00  0.00     0.040 A 
ATOM     69  C   UNL A   1      47.977  27.996  31.230  1.00  0.00     0.040 A 
ATOM     70  F   UNL A   1      46.659  29.418  29.911  1.00  0.00    -0.206 F 
ATOM     71  C   UNL A   1      48.141  27.199  32.362  1.00  0.00     0.006 A 
ENDBRANCH  50  64
BRANCH  51  72
ATOM     72  C   UNL A   1      36.781  32.558  29.850  1.00  0.00     0.057 A 
ATOM     73  C   UNL A   1      35.687  32.260  30.670  1.00  0.00     0.134 A 
ATOM     74  C   UNL A   1      36.557  33.413  28.764  1.00  0.00     0.134 A 
ATOM     75  F   UNL A   1      35.832  31.434  31.717  1.00  0.00    -0.206 F 
ATOM     76  C   UNL A   1      34.413  32.765  30.404  1.00  0.00     0.040 A 
ATOM     77  C   UNL A   1      35.296  33.950  28.503  1.00  0.00     0.040 A 
ATOM     78  F   UNL A   1      37.566  33.747  27.946  1.00  0.00    -0.206 F 
ATOM     79  C   UNL A   1      34.215  33.617  29.318  1.00  0.00     0.006 A 
ENDBRANCH  51  72
BRANCH  63  80
ATOM     80  C   UNL A   1      42.369  34.746  33.384  1.00  0.00     0.057 A 
ATOM     81  C   UNL A   1      42.029  34.933  34.728  1.00  0.00     0.134 A 
ATOM     82  C   UNL A   1      43.043  35.789  32.735  1.00  0.00     0.134 A 
ATOM     83  F   UNL A   1      41.371  33.979  35.403  1.00  0.00    -0.206 F 
ATOM     84  C   UNL A   1      42.326  36.123  35.397  1.00  0.00     0.040 A 
ATOM     85  C   UNL A   1      43.372  36.971  33.400  1.00  0.00     0.040 A 
ATOM     86  F   UNL A   1      43.406  35.671  31.449  1.00  0.00    -0.206 F 
ATOM     87  C   UNL A   1      43.007  37.142  34.734  1.00  0.00     0.006 A 
ENDBRANCH  63  80
ENDBRANCH  37  38
ENDBRANCH  29  32
ENDBRANCH  27  28
ENDBRANCH   1  27
TORSDOF 14
ENDMDL
