MODEL 1
REMARK VINA RESULT:     -12.5      0.000      0.000
REMARK SMILES O=C(CCC(=O)N1CCC(c2nnc3ccccn23)CC1)NCCCNC(=O)c1ccc(-c2c3nc(c(-c4c(F)cccc4F)c4ccc([nH]4)c(-c4c(F)cccc4F)c4nc(c(-c5c(F)cccc5F)c5ccc2[nH]5)C=C4)C=C3)cc1
REMARK SMILES IDX 23 1 22 2 1 3 2 4 3 6 4 7 5 8 6 9 7 10 8 11 21 12 9 13 20 14
REMARK SMILES IDX 10 15 11 16 12 17 19 18 13 19 14 20 18 21 15 22 17 23 16 24
REMARK SMILES IDX 24 25 25 26 26 27 27 28 28 30 29 31 30 32 82 33 31 34 81 35
REMARK SMILES IDX 32 36 33 37 34 38 75 39 35 40 80 41 74 42 76 43 36 44 79 45
REMARK SMILES IDX 73 46 72 47 37 49 63 50 46 51 62 52 47 53 50 54 61 55 77 56
REMARK SMILES IDX 48 57 49 58 60 60 78 61 51 62 38 63 39 64 44 65 40 66 41 67
REMARK SMILES IDX 43 68 45 69 42 70 64 71 65 72 70 73 66 74 67 75 69 76 71 77
REMARK SMILES IDX 68 78 52 79 53 80 58 81 54 82 55 83 57 84 59 85 56 86
REMARK H PARENT 22 5 26 29 76 48 50 59
REMARK Flexibility Score: inf
ROOT
ATOM      1  C   UNL A   1      31.821  30.322  26.506  1.00  0.00     0.117 C 
ENDROOT
BRANCH   1   2
ATOM      2  N   UNL A   1      32.182  30.048  25.126  1.00  0.00    -0.356 N 
ATOM      3  O   UNL A   1      33.966  28.744  25.715  1.00  0.00    -0.275 OA
ATOM      4  C   UNL A   1      33.209  29.165  24.853  1.00  0.00     0.220 C 
ATOM      5  H   UNL A   1      31.698  30.489  24.391  1.00  0.00     0.163 HD
BRANCH   4   6
ATOM      6  C   UNL A   1      33.255  28.675  23.415  1.00  0.00     0.110 C 
BRANCH   6   7
ATOM      7  C   UNL A   1      31.854  28.273  22.952  1.00  0.00     0.110 C 
BRANCH   7   8
ATOM      8  C   UNL A   1      31.236  27.082  23.675  1.00  0.00     0.223 C 
ATOM      9  O   UNL A   1      30.584  27.273  24.704  1.00  0.00    -0.275 OA
ATOM     10  N   UNL A   1      31.341  25.824  23.101  1.00  0.00    -0.343 N 
ATOM     11  C   UNL A   1      30.404  24.769  23.473  1.00  0.00     0.120 C 
ATOM     12  C   UNL A   1      32.380  25.395  22.184  1.00  0.00     0.120 C 
ATOM     13  C   UNL A   1      31.112  23.559  24.078  1.00  0.00     0.033 C 
ATOM     14  C   UNL A   1      33.183  24.268  22.819  1.00  0.00     0.033 C 
ATOM     15  C   UNL A   1      32.288  23.083  23.209  1.00  0.00     0.062 C 
BRANCH  15  16
ATOM     16  C   UNL A   1      33.086  22.038  23.932  1.00  0.00     0.140 A 
ATOM     17  N   UNL A   1      33.979  22.273  24.879  1.00  0.00    -0.134 NA
ATOM     18  N   UNL A   1      32.999  20.674  23.724  1.00  0.00    -0.286 N 
ATOM     19  N   UNL A   1      34.495  21.072  25.303  1.00  0.00    -0.130 NA
ATOM     20  C   UNL A   1      33.915  20.119  24.609  1.00  0.00     0.160 A 
ATOM     21  C   UNL A   1      32.206  19.904  22.872  1.00  0.00     0.095 A 
ATOM     22  C   UNL A   1      34.052  18.703  24.620  1.00  0.00     0.050 A 
ATOM     23  C   UNL A   1      32.329  18.565  22.893  1.00  0.00     0.019 A 
ATOM     24  C   UNL A   1      33.290  17.954  23.799  1.00  0.00     0.005 A 
ENDBRANCH  15  16
ENDBRANCH   7   8
ENDBRANCH   6   7
ENDBRANCH   4   6
ENDBRANCH   1   2
BRANCH   1  25
ATOM     25  C   UNL A   1      31.221  31.705  26.742  1.00  0.00     0.042 C 
BRANCH  25  26
ATOM     26  C   UNL A   1      32.157  32.880  26.463  1.00  0.00     0.118 C 
BRANCH  26  27
ATOM     27  N   UNL A   1      32.263  33.840  27.552  1.00  0.00    -0.352 N 
ATOM     28  C   UNL A   1      33.320  34.109  28.400  1.00  0.00     0.251 C 
ATOM     29  H   UNL A   1      31.455  34.380  27.709  1.00  0.00     0.163 HD
ATOM     30  O   UNL A   1      33.224  35.057  29.178  1.00  0.00    -0.269 OA
BRANCH  28  31
ATOM     31  C   UNL A   1      34.508  33.220  28.464  1.00  0.00     0.039 A 
ATOM     32  C   UNL A   1      35.764  33.812  28.277  1.00  0.00     0.014 A 
ATOM     33  C   UNL A   1      34.431  31.863  28.777  1.00  0.00     0.014 A 
ATOM     34  C   UNL A   1      36.927  33.098  28.578  1.00  0.00     0.010 A 
ATOM     35  C   UNL A   1      35.583  31.164  29.136  1.00  0.00     0.010 A 
ATOM     36  C   UNL A   1      36.829  31.803  29.108  1.00  0.00    -0.014 A 
BRANCH  36  37
ATOM     37  C   UNL A   1      37.967  31.208  29.852  1.00  0.00     0.031 A 
ATOM     38  C   UNL A   1      38.856  30.168  29.249  1.00  0.00     0.074 A 
ATOM     39  C   UNL A   1      38.107  31.555  31.148  1.00  0.00     0.049 A 
ATOM     40  N   UNL A   1      39.856  29.526  29.800  1.00  0.00    -0.248 NA
ATOM     41  C   UNL A   1      38.584  29.785  27.858  1.00  0.00     0.031 C 
ATOM     42  C   UNL A   1      37.249  32.506  31.863  1.00  0.00     0.029 A 
ATOM     43  N   UNL A   1      39.001  31.139  32.103  1.00  0.00    -0.354 N 
ATOM     44  C   UNL A   1      40.339  28.666  28.825  1.00  0.00     0.074 A 
ATOM     45  C   UNL A   1      39.498  28.843  27.658  1.00  0.00     0.031 C 
ATOM     46  C   UNL A   1      37.664  32.610  33.133  1.00  0.00     0.029 A 
ATOM     47  C   UNL A   1      38.792  31.710  33.335  1.00  0.00     0.049 A 
ATOM     48  H   UNL A   1      39.722  30.495  31.922  1.00  0.00     0.167 HD
ATOM     49  C   UNL A   1      41.392  27.818  28.900  1.00  0.00     0.037 A 
ATOM     50  C   UNL A   1      39.428  31.523  34.506  1.00  0.00     0.037 A 
ATOM     51  C   UNL A   1      42.211  27.637  30.073  1.00  0.00     0.049 A 
ATOM     52  C   UNL A   1      40.581  30.567  34.563  1.00  0.00     0.074 A 
ATOM     53  C   UNL A   1      43.335  26.844  30.227  1.00  0.00     0.029 A 
ATOM     54  N   UNL A   1      41.984  28.246  31.298  1.00  0.00    -0.354 N 
ATOM     55  N   UNL A   1      41.085  29.830  33.603  1.00  0.00    -0.248 NA
ATOM     56  C   UNL A   1      41.257  30.420  35.858  1.00  0.00     0.031 C 
ATOM     57  C   UNL A   1      43.762  26.940  31.557  1.00  0.00     0.029 A 
ATOM     58  C   UNL A   1      42.929  27.825  32.220  1.00  0.00     0.049 A 
ATOM     59  H   UNL A   1      41.257  28.884  31.485  1.00  0.00     0.167 HD
ATOM     60  C   UNL A   1      42.150  29.145  34.172  1.00  0.00     0.074 A 
ATOM     61  C   UNL A   1      42.226  29.567  35.557  1.00  0.00     0.031 C 
ATOM     62  C   UNL A   1      42.987  28.251  33.596  1.00  0.00     0.037 A 
BRANCH  49  63
ATOM     63  C   UNL A   1      41.721  27.016  27.674  1.00  0.00     0.057 A 
ATOM     64  C   UNL A   1      41.206  25.728  27.480  1.00  0.00     0.134 A 
ATOM     65  C   UNL A   1      42.520  27.553  26.657  1.00  0.00     0.134 A 
ATOM     66  F   UNL A   1      40.437  25.155  28.418  1.00  0.00    -0.206 F 
ATOM     67  C   UNL A   1      41.492  24.994  26.327  1.00  0.00     0.040 A 
ATOM     68  C   UNL A   1      42.796  26.835  25.491  1.00  0.00     0.040 A 
ATOM     69  F   UNL A   1      43.038  28.785  26.774  1.00  0.00    -0.206 F 
ATOM     70  C   UNL A   1      42.284  25.550  25.326  1.00  0.00     0.006 A 
ENDBRANCH  49  63
BRANCH  50  71
ATOM     71  C   UNL A   1      38.997  32.278  35.707  1.00  0.00     0.057 A 
ATOM     72  C   UNL A   1      38.183  31.682  36.676  1.00  0.00     0.134 A 
ATOM     73  C   UNL A   1      39.407  33.598  35.929  1.00  0.00     0.134 A 
ATOM     74  F   UNL A   1      37.748  30.424  36.511  1.00  0.00    -0.206 F 
ATOM     75  C   UNL A   1      37.781  32.375  37.818  1.00  0.00     0.040 A 
ATOM     76  C   UNL A   1      39.031  34.295  37.077  1.00  0.00     0.040 A 
ATOM     77  F   UNL A   1      40.199  34.219  35.043  1.00  0.00    -0.206 F 
ATOM     78  C   UNL A   1      38.211  33.685  38.025  1.00  0.00     0.006 A 
ENDBRANCH  50  71
BRANCH  62  79
ATOM     79  C   UNL A   1      44.070  27.684  34.463  1.00  0.00     0.057 A 
ATOM     80  C   UNL A   1      43.895  26.489  35.172  1.00  0.00     0.134 A 
ATOM     81  C   UNL A   1      45.309  28.326  34.570  1.00  0.00     0.134 A 
ATOM     82  F   UNL A   1      42.723  25.836  35.125  1.00  0.00    -0.206 F 
ATOM     83  C   UNL A   1      44.910  25.961  35.972  1.00  0.00     0.040 A 
ATOM     84  C   UNL A   1      46.339  27.798  35.350  1.00  0.00     0.040 A 
ATOM     85  F   UNL A   1      45.541  29.473  33.914  1.00  0.00    -0.206 F 
ATOM     86  C   UNL A   1      46.138  26.614  36.057  1.00  0.00     0.006 A 
ENDBRANCH  62  79
ENDBRANCH  36  37
ENDBRANCH  28  31
ENDBRANCH  26  27
ENDBRANCH  25  26
ENDBRANCH   1  25
TORSDOF 13
ENDMDL
MODEL 2
REMARK VINA RESULT:     -12.4      3.737      7.253
REMARK SMILES O=C(CCC(=O)N1CCC(c2nnc3ccccn23)CC1)NCCCNC(=O)c1ccc(-c2c3nc(c(-c4c(F)cccc4F)c4ccc([nH]4)c(-c4c(F)cccc4F)c4nc(c(-c5c(F)cccc5F)c5ccc2[nH]5)C=C4)C=C3)cc1
REMARK SMILES IDX 23 1 22 2 1 3 2 4 3 6 4 7 5 8 6 9 7 10 8 11 21 12 9 13 20 14
REMARK SMILES IDX 10 15 11 16 12 17 19 18 13 19 14 20 18 21 15 22 17 23 16 24
REMARK SMILES IDX 24 25 25 26 26 27 27 28 28 30 29 31 30 32 82 33 31 34 81 35
REMARK SMILES IDX 32 36 33 37 34 38 75 39 35 40 80 41 74 42 76 43 36 44 79 45
REMARK SMILES IDX 73 46 72 47 37 49 63 50 46 51 62 52 47 53 50 54 61 55 77 56
REMARK SMILES IDX 48 57 49 58 60 60 78 61 51 62 38 63 39 64 44 65 40 66 41 67
REMARK SMILES IDX 43 68 45 69 42 70 64 71 65 72 70 73 66 74 67 75 69 76 71 77
REMARK SMILES IDX 68 78 52 79 53 80 58 81 54 82 55 83 57 84 59 85 56 86
REMARK H PARENT 22 5 26 29 76 48 50 59
REMARK Flexibility Score: inf
ROOT
ATOM      1  C   UNL A   1      31.549  29.996  25.554  1.00  0.00     0.117 C 
ENDROOT
BRANCH   1   2
ATOM      2  N   UNL A   1      31.025  28.877  24.793  1.00  0.00    -0.356 N 
ATOM      3  O   UNL A   1      33.012  28.509  23.719  1.00  0.00    -0.275 OA
ATOM      4  C   UNL A   1      31.876  28.146  23.983  1.00  0.00     0.220 C 
ATOM      5  H   UNL A   1      30.072  28.640  24.852  1.00  0.00     0.163 HD
BRANCH   4   6
ATOM      6  C   UNL A   1      31.322  26.804  23.535  1.00  0.00     0.110 C 
BRANCH   6   7
ATOM      7  C   UNL A   1      30.431  26.211  24.628  1.00  0.00     0.110 C 
BRANCH   7   8
ATOM      8  C   UNL A   1      31.160  25.478  25.749  1.00  0.00     0.223 C 
ATOM      9  O   UNL A   1      31.486  26.100  26.762  1.00  0.00    -0.275 OA
ATOM     10  N   UNL A   1      31.349  24.110  25.640  1.00  0.00    -0.343 N 
ATOM     11  C   UNL A   1      31.594  23.307  26.834  1.00  0.00     0.120 C 
ATOM     12  C   UNL A   1      31.411  23.359  24.400  1.00  0.00     0.120 C 
ATOM     13  C   UNL A   1      32.938  22.585  26.773  1.00  0.00     0.033 C 
ATOM     14  C   UNL A   1      32.790  22.729  24.257  1.00  0.00     0.033 C 
ATOM     15  C   UNL A   1      33.128  21.825  25.450  1.00  0.00     0.062 C 
BRANCH  15  16
ATOM     16  C   UNL A   1      34.534  21.309  25.337  1.00  0.00     0.140 A 
ATOM     17  N   UNL A   1      34.874  20.077  25.002  1.00  0.00    -0.134 NA
ATOM     18  N   UNL A   1      35.680  22.050  25.553  1.00  0.00    -0.286 N 
ATOM     19  N   UNL A   1      36.245  19.985  24.998  1.00  0.00    -0.130 NA
ATOM     20  C   UNL A   1      36.725  21.161  25.334  1.00  0.00     0.160 A 
ATOM     21  C   UNL A   1      35.882  23.388  25.897  1.00  0.00     0.095 A 
ATOM     22  C   UNL A   1      38.053  21.647  25.490  1.00  0.00     0.050 A 
ATOM     23  C   UNL A   1      37.139  23.848  26.031  1.00  0.00     0.019 A 
ATOM     24  C   UNL A   1      38.255  22.937  25.822  1.00  0.00     0.005 A 
ENDBRANCH  15  16
ENDBRANCH   7   8
ENDBRANCH   6   7
ENDBRANCH   4   6
ENDBRANCH   1   2
BRANCH   1  25
ATOM     25  C   UNL A   1      32.146  29.618  26.908  1.00  0.00     0.042 C 
BRANCH  25  26
ATOM     26  C   UNL A   1      33.635  29.919  27.072  1.00  0.00     0.118 C 
BRANCH  26  27
ATOM     27  N   UNL A   1      33.934  30.987  28.014  1.00  0.00    -0.352 N 
ATOM     28  C   UNL A   1      35.098  31.262  28.705  1.00  0.00     0.251 C 
ATOM     29  H   UNL A   1      33.191  31.611  28.184  1.00  0.00     0.163 HD
ATOM     30  O   UNL A   1      35.162  32.301  29.363  1.00  0.00    -0.269 OA
BRANCH  28  31
ATOM     31  C   UNL A   1      36.218  30.287  28.757  1.00  0.00     0.039 A 
ATOM     32  C   UNL A   1      36.983  30.125  27.594  1.00  0.00     0.014 A 
ATOM     33  C   UNL A   1      36.581  29.602  29.917  1.00  0.00     0.014 A 
ATOM     34  C   UNL A   1      38.194  29.431  27.644  1.00  0.00     0.010 A 
ATOM     35  C   UNL A   1      37.816  28.959  29.988  1.00  0.00     0.010 A 
ATOM     36  C   UNL A   1      38.661  28.936  28.870  1.00  0.00    -0.014 A 
BRANCH  36  37
ATOM     37  C   UNL A   1      40.099  28.619  29.054  1.00  0.00     0.031 A 
ATOM     38  C   UNL A   1      41.083  29.635  29.539  1.00  0.00     0.074 A 
ATOM     39  C   UNL A   1      40.520  27.401  28.653  1.00  0.00     0.049 A 
ATOM     40  N   UNL A   1      42.377  29.510  29.699  1.00  0.00    -0.248 NA
ATOM     41  C   UNL A   1      40.556  30.964  29.875  1.00  0.00     0.031 C 
ATOM     42  C   UNL A   1      39.658  26.355  28.093  1.00  0.00     0.029 A 
ATOM     43  N   UNL A   1      41.772  26.840  28.632  1.00  0.00    -0.354 N 
ATOM     44  C   UNL A   1      42.823  30.741  30.158  1.00  0.00     0.074 A 
ATOM     45  C   UNL A   1      41.664  31.610  30.218  1.00  0.00     0.031 C 
ATOM     46  C   UNL A   1      40.401  25.279  27.797  1.00  0.00     0.029 A 
ATOM     47  C   UNL A   1      41.795  25.569  28.110  1.00  0.00     0.049 A 
ATOM     48  H   UNL A   1      42.576  27.303  28.959  1.00  0.00     0.167 HD
ATOM     49  C   UNL A   1      44.081  31.102  30.505  1.00  0.00     0.037 A 
ATOM     50  C   UNL A   1      42.823  24.730  27.895  1.00  0.00     0.037 A 
ATOM     51  C   UNL A   1      45.230  30.234  30.425  1.00  0.00     0.049 A 
ATOM     52  C   UNL A   1      44.208  25.161  28.275  1.00  0.00     0.074 A 
ATOM     53  C   UNL A   1      46.535  30.491  30.808  1.00  0.00     0.029 A 
ATOM     54  N   UNL A   1      45.213  28.946  29.910  1.00  0.00    -0.354 N 
ATOM     55  N   UNL A   1      44.598  26.298  28.798  1.00  0.00    -0.248 NA
ATOM     56  C   UNL A   1      45.290  24.197  28.043  1.00  0.00     0.031 C 
ATOM     57  C   UNL A   1      47.316  29.375  30.486  1.00  0.00     0.029 A 
ATOM     58  C   UNL A   1      46.490  28.406  29.941  1.00  0.00     0.049 A 
ATOM     59  H   UNL A   1      44.412  28.483  29.573  1.00  0.00     0.167 HD
ATOM     60  C   UNL A   1      45.969  26.180  28.976  1.00  0.00     0.074 A 
ATOM     61  C   UNL A   1      46.338  24.855  28.517  1.00  0.00     0.031 C 
ATOM     62  C   UNL A   1      46.841  27.087  29.476  1.00  0.00     0.037 A 
BRANCH  49  63
ATOM     63  C   UNL A   1      44.284  32.502  31.006  1.00  0.00     0.057 A 
ATOM     64  C   UNL A   1      44.208  32.813  32.370  1.00  0.00     0.134 A 
ATOM     65  C   UNL A   1      44.606  33.542  30.124  1.00  0.00     0.134 A 
ATOM     66  F   UNL A   1      43.901  31.863  33.267  1.00  0.00    -0.206 F 
ATOM     67  C   UNL A   1      44.423  34.111  32.837  1.00  0.00     0.040 A 
ATOM     68  C   UNL A   1      44.842  34.840  30.582  1.00  0.00     0.040 A 
ATOM     69  F   UNL A   1      44.705  33.312  28.806  1.00  0.00    -0.206 F 
ATOM     70  C   UNL A   1      44.747  35.127  31.942  1.00  0.00     0.006 A 
ENDBRANCH  49  63
BRANCH  50  71
ATOM     71  C   UNL A   1      42.570  23.390  27.309  1.00  0.00     0.057 A 
ATOM     72  C   UNL A   1      42.205  22.310  28.119  1.00  0.00     0.134 A 
ATOM     73  C   UNL A   1      42.660  23.164  25.930  1.00  0.00     0.134 A 
ATOM     74  F   UNL A   1      42.116  22.463  29.449  1.00  0.00    -0.206 F 
ATOM     75  C   UNL A   1      41.949  21.048  27.581  1.00  0.00     0.040 A 
ATOM     76  C   UNL A   1      42.386  21.914  25.377  1.00  0.00     0.040 A 
ATOM     77  F   UNL A   1      42.993  24.164  25.101  1.00  0.00    -0.206 F 
ATOM     78  C   UNL A   1      42.034  20.848  26.204  1.00  0.00     0.006 A 
ENDBRANCH  50  71
BRANCH  62  79
ATOM     79  C   UNL A   1      48.276  26.667  29.569  1.00  0.00     0.057 A 
ATOM     80  C   UNL A   1      49.207  27.006  28.579  1.00  0.00     0.134 A 
ATOM     81  C   UNL A   1      48.736  25.937  30.671  1.00  0.00     0.134 A 
ATOM     82  F   UNL A   1      48.823  27.688  27.489  1.00  0.00    -0.206 F 
ATOM     83  C   UNL A   1      50.545  26.618  28.675  1.00  0.00     0.040 A 
ATOM     84  C   UNL A   1      50.075  25.562  30.789  1.00  0.00     0.040 A 
ATOM     85  F   UNL A   1      47.894  25.583  31.654  1.00  0.00    -0.206 F 
ATOM     86  C   UNL A   1      50.982  25.899  29.786  1.00  0.00     0.006 A 
ENDBRANCH  62  79
ENDBRANCH  36  37
ENDBRANCH  28  31
ENDBRANCH  26  27
ENDBRANCH  25  26
ENDBRANCH   1  25
TORSDOF 13
ENDMDL
MODEL 3
REMARK VINA RESULT:     -12.3      2.930      7.681
REMARK SMILES O=C(CCC(=O)N1CCC(c2nnc3ccccn23)CC1)NCCCNC(=O)c1ccc(-c2c3nc(c(-c4c(F)cccc4F)c4ccc([nH]4)c(-c4c(F)cccc4F)c4nc(c(-c5c(F)cccc5F)c5ccc2[nH]5)C=C4)C=C3)cc1
REMARK SMILES IDX 23 1 22 2 1 3 2 4 3 6 4 7 5 8 6 9 7 10 8 11 21 12 9 13 20 14
REMARK SMILES IDX 10 15 11 16 12 17 19 18 13 19 14 20 18 21 15 22 17 23 16 24
REMARK SMILES IDX 24 25 25 26 26 27 27 28 28 30 29 31 30 32 82 33 31 34 81 35
REMARK SMILES IDX 32 36 33 37 34 38 75 39 35 40 80 41 74 42 76 43 36 44 79 45
REMARK SMILES IDX 73 46 72 47 37 49 63 50 46 51 62 52 47 53 50 54 61 55 77 56
REMARK SMILES IDX 48 57 49 58 60 60 78 61 51 62 38 63 39 64 44 65 40 66 41 67
REMARK SMILES IDX 43 68 45 69 42 70 64 71 65 72 70 73 66 74 67 75 69 76 71 77
REMARK SMILES IDX 68 78 52 79 53 80 58 81 54 82 55 83 57 84 59 85 56 86
REMARK H PARENT 22 5 26 29 76 48 50 59
REMARK Flexibility Score: inf
ROOT
ATOM      1  C   UNL A   1      36.098  20.713  25.124  1.00  0.00     0.117 C 
ENDROOT
BRANCH   1   2
ATOM      2  N   UNL A   1      34.780  21.076  24.635  1.00  0.00    -0.356 N 
ATOM      3  O   UNL A   1      33.916  21.294  26.742  1.00  0.00    -0.275 OA
ATOM      4  C   UNL A   1      33.797  21.444  25.535  1.00  0.00     0.220 C 
ATOM      5  H   UNL A   1      34.587  21.061  23.669  1.00  0.00     0.163 HD
BRANCH   4   6
ATOM      6  C   UNL A   1      32.602  22.147  24.913  1.00  0.00     0.110 C 
BRANCH   6   7
ATOM      7  C   UNL A   1      32.836  22.357  23.416  1.00  0.00     0.110 C 
BRANCH   7   8
ATOM      8  C   UNL A   1      33.426  23.707  23.023  1.00  0.00     0.223 C 
ATOM      9  O   UNL A   1      34.642  23.805  22.844  1.00  0.00    -0.275 OA
ATOM     10  N   UNL A   1      32.565  24.767  22.780  1.00  0.00    -0.343 N 
ATOM     11  C   UNL A   1      33.006  25.897  21.969  1.00  0.00     0.120 C 
ATOM     12  C   UNL A   1      31.234  24.921  23.334  1.00  0.00     0.120 C 
ATOM     13  C   UNL A   1      32.955  27.212  22.743  1.00  0.00     0.033 C 
ATOM     14  C   UNL A   1      31.192  26.163  24.214  1.00  0.00     0.033 C 
ATOM     15  C   UNL A   1      31.600  27.423  23.438  1.00  0.00     0.062 C 
BRANCH  15  16
ATOM     16  C   UNL A   1      31.658  28.609  24.356  1.00  0.00     0.140 A 
ATOM     17  N   UNL A   1      30.792  29.608  24.375  1.00  0.00    -0.134 NA
ATOM     18  N   UNL A   1      32.618  28.827  25.326  1.00  0.00    -0.286 N 
ATOM     19  N   UNL A   1      31.171  30.499  25.350  1.00  0.00    -0.130 NA
ATOM     20  C   UNL A   1      32.264  30.036  25.913  1.00  0.00     0.160 A 
ATOM     21  C   UNL A   1      33.724  28.081  25.737  1.00  0.00     0.095 A 
ATOM     22  C   UNL A   1      33.086  30.530  26.963  1.00  0.00     0.050 A 
ATOM     23  C   UNL A   1      34.493  28.544  26.739  1.00  0.00     0.019 A 
ATOM     24  C   UNL A   1      34.156  29.814  27.364  1.00  0.00     0.005 A 
ENDBRANCH  15  16
ENDBRANCH   7   8
ENDBRANCH   6   7
ENDBRANCH   4   6
ENDBRANCH   1   2
BRANCH   1  25
ATOM     25  C   UNL A   1      37.240  21.541  24.542  1.00  0.00     0.042 C 
BRANCH  25  26
ATOM     26  C   UNL A   1      37.955  22.458  25.534  1.00  0.00     0.118 C 
BRANCH  26  27
ATOM     27  N   UNL A   1      39.364  22.153  25.729  1.00  0.00    -0.352 N 
ATOM     28  C   UNL A   1      40.344  22.867  26.392  1.00  0.00     0.251 C 
ATOM     29  H   UNL A   1      39.666  21.307  25.326  1.00  0.00     0.163 HD
ATOM     30  O   UNL A   1      41.452  22.353  26.535  1.00  0.00    -0.269 OA
BRANCH  28  31
ATOM     31  C   UNL A   1      40.119  24.268  26.832  1.00  0.00     0.039 A 
ATOM     32  C   UNL A   1      39.374  24.462  28.003  1.00  0.00     0.014 A 
ATOM     33  C   UNL A   1      40.676  25.371  26.185  1.00  0.00     0.014 A 
ATOM     34  C   UNL A   1      39.342  25.718  28.613  1.00  0.00     0.010 A 
ATOM     35  C   UNL A   1      40.698  26.612  26.819  1.00  0.00     0.010 A 
ATOM     36  C   UNL A   1      40.094  26.772  28.072  1.00  0.00    -0.014 A 
BRANCH  36  37
ATOM     37  C   UNL A   1      40.454  27.944  28.909  1.00  0.00     0.031 A 
ATOM     38  C   UNL A   1      41.714  27.992  29.712  1.00  0.00     0.074 A 
ATOM     39  C   UNL A   1      39.541  28.932  29.014  1.00  0.00     0.049 A 
ATOM     40  N   UNL A   1      42.131  28.930  30.525  1.00  0.00    -0.248 NA
ATOM     41  C   UNL A   1      42.616  26.838  29.605  1.00  0.00     0.031 C 
ATOM     42  C   UNL A   1      38.242  28.955  28.333  1.00  0.00     0.029 A 
ATOM     43  N   UNL A   1      39.548  30.093  29.745  1.00  0.00    -0.354 N 
ATOM     44  C   UNL A   1      43.347  28.486  31.025  1.00  0.00     0.074 A 
ATOM     45  C   UNL A   1      43.582  27.177  30.450  1.00  0.00     0.031 C 
ATOM     46  C   UNL A   1      37.586  30.075  28.666  1.00  0.00     0.029 A 
ATOM     47  C   UNL A   1      38.397  30.832  29.611  1.00  0.00     0.049 A 
ATOM     48  H   UNL A   1      40.303  30.369  30.311  1.00  0.00     0.167 HD
ATOM     49  C   UNL A   1      44.187  29.121  31.877  1.00  0.00     0.037 A 
ATOM     50  C   UNL A   1      38.027  31.988  30.191  1.00  0.00     0.037 A 
ATOM     51  C   UNL A   1      43.934  30.417  32.456  1.00  0.00     0.049 A 
ATOM     52  C   UNL A   1      38.971  32.662  31.141  1.00  0.00     0.074 A 
ATOM     53  C   UNL A   1      44.751  31.168  33.284  1.00  0.00     0.029 A 
ATOM     54  N   UNL A   1      42.767  31.147  32.282  1.00  0.00    -0.354 N 
ATOM     55  N   UNL A   1      40.160  32.272  31.530  1.00  0.00    -0.248 NA
ATOM     56  C   UNL A   1      38.528  33.933  31.725  1.00  0.00     0.031 C 
ATOM     57  C   UNL A   1      44.062  32.331  33.645  1.00  0.00     0.029 A 
ATOM     58  C   UNL A   1      42.832  32.326  33.009  1.00  0.00     0.049 A 
ATOM     59  H   UNL A   1      42.005  30.868  31.725  1.00  0.00     0.167 HD
ATOM     60  C   UNL A   1      40.617  33.260  32.391  1.00  0.00     0.074 A 
ATOM     61  C   UNL A   1      39.581  34.272  32.454  1.00  0.00     0.031 C 
ATOM     62  C   UNL A   1      41.790  33.321  33.065  1.00  0.00     0.037 A 
BRANCH  49  63
ATOM     63  C   UNL A   1      45.465  28.421  32.235  1.00  0.00     0.057 A 
ATOM     64  C   UNL A   1      46.640  28.614  31.498  1.00  0.00     0.134 A 
ATOM     65  C   UNL A   1      45.537  27.585  33.357  1.00  0.00     0.134 A 
ATOM     66  F   UNL A   1      46.638  29.400  30.410  1.00  0.00    -0.206 F 
ATOM     67  C   UNL A   1      47.834  27.982  31.847  1.00  0.00     0.040 A 
ATOM     68  C   UNL A   1      46.731  26.963  33.728  1.00  0.00     0.040 A 
ATOM     69  F   UNL A   1      44.451  27.364  34.114  1.00  0.00    -0.206 F 
ATOM     70  C   UNL A   1      47.883  27.159  32.969  1.00  0.00     0.006 A 
ENDBRANCH  49  63
BRANCH  50  71
ATOM     71  C   UNL A   1      36.708  32.585  29.866  1.00  0.00     0.057 A 
ATOM     72  C   UNL A   1      35.586  32.323  30.658  1.00  0.00     0.134 A 
ATOM     73  C   UNL A   1      36.544  33.450  28.777  1.00  0.00     0.134 A 
ATOM     74  F   UNL A   1      35.679  31.491  31.707  1.00  0.00    -0.206 F 
ATOM     75  C   UNL A   1      34.343  32.889  30.373  1.00  0.00     0.040 A 
ATOM     76  C   UNL A   1      35.312  34.040  28.494  1.00  0.00     0.040 A 
ATOM     77  F   UNL A   1      37.586  33.751  27.988  1.00  0.00    -0.206 F 
ATOM     78  C   UNL A   1      34.205  33.756  29.291  1.00  0.00     0.006 A 
ENDBRANCH  50  71
BRANCH  62  79
ATOM     79  C   UNL A   1      42.019  34.534  33.914  1.00  0.00     0.057 A 
ATOM     80  C   UNL A   1      41.691  34.551  35.276  1.00  0.00     0.134 A 
ATOM     81  C   UNL A   1      42.597  35.687  33.371  1.00  0.00     0.134 A 
ATOM     82  F   UNL A   1      41.118  33.482  35.850  1.00  0.00    -0.206 F 
ATOM     83  C   UNL A   1      41.914  35.681  36.064  1.00  0.00     0.040 A 
ATOM     84  C   UNL A   1      42.844  36.816  34.153  1.00  0.00     0.040 A 
ATOM     85  F   UNL A   1      42.935  35.733  32.073  1.00  0.00    -0.206 F 
ATOM     86  C   UNL A   1      42.499  36.816  35.503  1.00  0.00     0.006 A 
ENDBRANCH  62  79
ENDBRANCH  36  37
ENDBRANCH  28  31
ENDBRANCH  26  27
ENDBRANCH  25  26
ENDBRANCH   1  25
TORSDOF 13
ENDMDL
