MODEL 1
REMARK VINA RESULT:     -11.3      0.000      0.000
REMARK SMILES C[NH+](C)[C@H](CC(=O)Nc1cccc(Cl)c1)C(=O)NCCCNC(=O)c1ccc(-c2c3nc(c(-c4c(F)cccc4F)c4ccc([nH]4)c(-c4c(F)cccc4F)c4nc(c(-c5c(F)cccc5F)c5ccc2[nH]5)C=C4)C=C3)cc1
REMARK SMILES IDX 19 1 18 2 16 3 17 4 4 6 2 7 1 8 3 9 5 11 6 12 7 13 8 14 9 16
REMARK SMILES IDX 10 17 15 18 11 19 13 20 12 21 14 22 20 23 21 24 22 25 23 26
REMARK SMILES IDX 24 28 25 29 26 30 78 31 27 32 77 33 28 34 29 35 30 36 71 37
REMARK SMILES IDX 31 38 76 39 70 40 72 41 32 42 75 43 69 44 68 45 33 47 59 48
REMARK SMILES IDX 42 49 58 50 43 51 46 52 57 53 73 54 44 55 45 56 56 58 74 59
REMARK SMILES IDX 47 60 34 61 35 62 40 63 36 64 37 65 39 66 41 67 38 68 60 69
REMARK SMILES IDX 61 70 66 71 62 72 63 73 65 74 67 75 64 76 48 77 49 78 54 79
REMARK SMILES IDX 50 80 51 81 53 82 55 83 52 84
REMARK H PARENT 18 5 2 10 8 15 22 27 72 46 46 57
REMARK Flexibility Score: inf
ROOT
ATOM      1  C   UNL A   1      36.217  21.329  24.978  1.00  0.00     0.118 C 
ENDROOT
BRANCH   1   2
ATOM      2  N   UNL A   1      35.568  21.380  26.273  1.00  0.00    -0.351 N 
ATOM      3  C   UNL A   1      34.287  21.643  26.633  1.00  0.00     0.278 C 
ATOM      4  O   UNL A   1      33.982  21.333  27.792  1.00  0.00    -0.268 OA
ATOM      5  H   UNL A   1      36.167  21.187  27.030  1.00  0.00     0.163 HD
BRANCH   3   6
ATOM      6  C   UNL A   1      33.241  22.285  25.699  1.00  0.00     0.283 C 
BRANCH   6   7
ATOM      7  N   UNL A   1      33.175  21.602  24.365  1.00  0.00    -0.329 N 
ATOM      8  C   UNL A   1      32.782  22.413  23.223  1.00  0.00     0.333 C 
ATOM      9  C   UNL A   1      32.428  20.347  24.372  1.00  0.00     0.333 C 
ATOM     10  H   UNL A   1      34.163  21.396  24.217  1.00  0.00     0.348 HD
ENDBRANCH   6   7
BRANCH   6  11
ATOM     11  C   UNL A   1      32.995  23.803  25.782  1.00  0.00     0.175 C 
BRANCH  11  12
ATOM     12  C   UNL A   1      31.920  24.394  26.660  1.00  0.00     0.230 C 
ATOM     13  O   UNL A   1      31.247  23.617  27.355  1.00  0.00    -0.274 OA
ATOM     14  N   UNL A   1      31.610  25.706  26.790  1.00  0.00    -0.326 N 
ATOM     15  H   UNL A   1      30.872  25.850  27.424  1.00  0.00     0.169 HD
BRANCH  14  16
ATOM     16  C   UNL A   1      32.079  26.909  26.248  1.00  0.00     0.042 A 
ATOM     17  C   UNL A   1      33.340  27.453  26.468  1.00  0.00     0.026 A 
ATOM     18  C   UNL A   1      31.188  27.590  25.403  1.00  0.00     0.046 A 
ATOM     19  C   UNL A   1      33.739  28.613  25.790  1.00  0.00     0.004 A 
ATOM     20  C   UNL A   1      31.587  28.747  24.733  1.00  0.00     0.043 A 
ATOM     21  C   UNL A   1      32.867  29.254  24.912  1.00  0.00     0.020 A 
ATOM     22  Cl  UNL A   1      30.493  29.530  23.660  1.00  0.00    -0.084 Cl
ENDBRANCH  14  16
ENDBRANCH  11  12
ENDBRANCH   6  11
ENDBRANCH   3   6
ENDBRANCH   1   2
BRANCH   1  23
ATOM     23  C   UNL A   1      37.368  20.337  24.896  1.00  0.00     0.042 C 
BRANCH  23  24
ATOM     24  C   UNL A   1      38.617  20.745  25.655  1.00  0.00     0.118 C 
BRANCH  24  25
ATOM     25  N   UNL A   1      39.612  19.684  25.692  1.00  0.00    -0.352 N 
ATOM     26  C   UNL A   1      40.955  19.773  25.971  1.00  0.00     0.251 C 
ATOM     27  H   UNL A   1      39.278  18.781  25.490  1.00  0.00     0.163 HD
ATOM     28  O   UNL A   1      41.705  18.834  25.714  1.00  0.00    -0.269 OA
BRANCH  26  29
ATOM     29  C   UNL A   1      41.498  21.016  26.556  1.00  0.00     0.039 A 
ATOM     30  C   UNL A   1      42.016  22.004  25.718  1.00  0.00     0.014 A 
ATOM     31  C   UNL A   1      41.479  21.207  27.938  1.00  0.00     0.014 A 
ATOM     32  C   UNL A   1      42.445  23.218  26.263  1.00  0.00     0.010 A 
ATOM     33  C   UNL A   1      41.801  22.452  28.466  1.00  0.00     0.010 A 
ATOM     34  C   UNL A   1      42.301  23.467  27.638  1.00  0.00    -0.014 A 
BRANCH  34  35
ATOM     35  C   UNL A   1      42.695  24.760  28.255  1.00  0.00     0.031 A 
ATOM     36  C   UNL A   1      41.654  25.828  28.464  1.00  0.00     0.074 A 
ATOM     37  C   UNL A   1      43.988  25.014  28.535  1.00  0.00     0.049 A 
ATOM     38  N   UNL A   1      41.806  27.074  28.835  1.00  0.00    -0.248 NA
ATOM     39  C   UNL A   1      40.258  25.454  28.182  1.00  0.00     0.031 C 
ATOM     40  C   UNL A   1      45.098  24.079  28.344  1.00  0.00     0.029 A 
ATOM     41  N   UNL A   1      44.591  26.149  29.021  1.00  0.00    -0.354 N 
ATOM     42  C   UNL A   1      40.534  27.634  28.801  1.00  0.00     0.074 A 
ATOM     43  C   UNL A   1      39.634  26.612  28.317  1.00  0.00     0.031 C 
ATOM     44  C   UNL A   1      46.242  24.670  28.727  1.00  0.00     0.029 A 
ATOM     45  C   UNL A   1      45.956  26.041  29.139  1.00  0.00     0.049 A 
ATOM     46  H   UNL A   1      44.091  26.962  29.263  1.00  0.00     0.167 HD
ATOM     47  C   UNL A   1      40.148  28.880  29.163  1.00  0.00     0.037 A 
ATOM     48  C   UNL A   1      46.875  26.951  29.518  1.00  0.00     0.037 A 
ATOM     49  C   UNL A   1      41.043  29.882  29.674  1.00  0.00     0.049 A 
ATOM     50  C   UNL A   1      46.424  28.335  29.899  1.00  0.00     0.074 A 
ATOM     51  C   UNL A   1      40.744  31.156  30.123  1.00  0.00     0.029 A 
ATOM     52  N   UNL A   1      42.414  29.722  29.805  1.00  0.00    -0.354 N 
ATOM     53  N   UNL A   1      45.212  28.835  29.914  1.00  0.00    -0.248 NA
ATOM     54  C   UNL A   1      47.467  29.282  30.319  1.00  0.00     0.031 C 
ATOM     55  C   UNL A   1      41.940  31.785  30.477  1.00  0.00     0.029 A 
ATOM     56  C   UNL A   1      42.977  30.882  30.308  1.00  0.00     0.049 A 
ATOM     57  H   UNL A   1      42.914  28.905  29.575  1.00  0.00     0.167 HD
ATOM     58  C   UNL A   1      45.341  30.136  30.384  1.00  0.00     0.074 A 
ATOM     59  C   UNL A   1      46.749  30.349  30.643  1.00  0.00     0.031 C 
ATOM     60  C   UNL A   1      44.378  31.068  30.587  1.00  0.00     0.037 A 
BRANCH  47  61
ATOM     61  C   UNL A   1      38.694  29.226  29.018  1.00  0.00     0.057 A 
ATOM     62  C   UNL A   1      38.135  29.584  27.783  1.00  0.00     0.134 A 
ATOM     63  C   UNL A   1      37.832  29.169  30.121  1.00  0.00     0.134 A 
ATOM     64  F   UNL A   1      38.905  29.669  26.687  1.00  0.00    -0.206 F 
ATOM     65  C   UNL A   1      36.782  29.904  27.657  1.00  0.00     0.040 A 
ATOM     66  C   UNL A   1      36.471  29.455  30.002  1.00  0.00     0.040 A 
ATOM     67  F   UNL A   1      38.297  28.826  31.332  1.00  0.00    -0.206 F 
ATOM     68  C   UNL A   1      35.945  29.832  28.768  1.00  0.00     0.006 A 
ENDBRANCH  47  61
BRANCH  48  69
ATOM     69  C   UNL A   1      48.313  26.581  29.571  1.00  0.00     0.057 A 
ATOM     70  C   UNL A   1      49.163  26.829  28.486  1.00  0.00     0.134 A 
ATOM     71  C   UNL A   1      48.872  25.962  30.696  1.00  0.00     0.134 A 
ATOM     72  F   UNL A   1      48.683  27.402  27.372  1.00  0.00    -0.206 F 
ATOM     73  C   UNL A   1      50.508  26.456  28.507  1.00  0.00     0.040 A 
ATOM     74  C   UNL A   1      50.222  25.610  30.743  1.00  0.00     0.040 A 
ATOM     75  F   UNL A   1      48.115  25.703  31.772  1.00  0.00    -0.206 F 
ATOM     76  C   UNL A   1      51.042  25.849  29.641  1.00  0.00     0.006 A 
ENDBRANCH  48  69
BRANCH  60  77
ATOM     77  C   UNL A   1      44.795  32.385  31.175  1.00  0.00     0.057 A 
ATOM     78  C   UNL A   1      45.132  33.485  30.380  1.00  0.00     0.134 A 
ATOM     79  C   UNL A   1      44.784  32.569  32.565  1.00  0.00     0.134 A 
ATOM     80  F   UNL A   1      45.174  33.372  29.044  1.00  0.00    -0.206 F 
ATOM     81  C   UNL A   1      45.454  34.720  30.945  1.00  0.00     0.040 A 
ATOM     82  C   UNL A   1      45.076  33.805  33.140  1.00  0.00     0.040 A 
ATOM     83  F   UNL A   1      44.459  31.556  33.384  1.00  0.00    -0.206 F 
ATOM     84  C   UNL A   1      45.416  34.885  32.329  1.00  0.00     0.006 A 
ENDBRANCH  60  77
ENDBRANCH  34  35
ENDBRANCH  26  29
ENDBRANCH  24  25
ENDBRANCH  23  24
ENDBRANCH   1  23
TORSDOF 14
ENDMDL
MODEL 2
REMARK VINA RESULT:     -11.2      4.646      9.511
REMARK SMILES C[NH+](C)[C@H](CC(=O)Nc1cccc(Cl)c1)C(=O)NCCCNC(=O)c1ccc(-c2c3nc(c(-c4c(F)cccc4F)c4ccc([nH]4)c(-c4c(F)cccc4F)c4nc(c(-c5c(F)cccc5F)c5ccc2[nH]5)C=C4)C=C3)cc1
REMARK SMILES IDX 19 1 18 2 16 3 17 4 4 6 2 7 1 8 3 9 5 11 6 12 7 13 8 14 9 16
REMARK SMILES IDX 10 17 15 18 11 19 13 20 12 21 14 22 20 23 21 24 22 25 23 26
REMARK SMILES IDX 24 28 25 29 26 30 78 31 27 32 77 33 28 34 29 35 30 36 71 37
REMARK SMILES IDX 31 38 76 39 70 40 72 41 32 42 75 43 69 44 68 45 33 47 59 48
REMARK SMILES IDX 42 49 58 50 43 51 46 52 57 53 73 54 44 55 45 56 56 58 74 59
REMARK SMILES IDX 47 60 34 61 35 62 40 63 36 64 37 65 39 66 41 67 38 68 60 69
REMARK SMILES IDX 61 70 66 71 62 72 63 73 65 74 67 75 64 76 48 77 49 78 54 79
REMARK SMILES IDX 50 80 51 81 53 82 55 83 52 84
REMARK H PARENT 18 5 2 10 8 15 22 27 72 46 46 57
REMARK Flexibility Score: inf
ROOT
ATOM      1  C   UNL A   1      31.786  30.685  25.967  1.00  0.00     0.118 C 
ENDROOT
BRANCH   1   2
ATOM      2  N   UNL A   1      32.850  29.920  26.587  1.00  0.00    -0.351 N 
ATOM      3  C   UNL A   1      33.353  28.690  26.320  1.00  0.00     0.278 C 
ATOM      4  O   UNL A   1      34.444  28.432  26.845  1.00  0.00    -0.268 OA
ATOM      5  H   UNL A   1      33.287  30.378  27.341  1.00  0.00     0.163 HD
BRANCH   3   6
ATOM      6  C   UNL A   1      32.652  27.644  25.429  1.00  0.00     0.283 C 
BRANCH   6   7
ATOM      7  N   UNL A   1      32.201  26.444  26.207  1.00  0.00    -0.329 N 
ATOM      8  C   UNL A   1      32.964  25.217  26.037  1.00  0.00     0.333 C 
ATOM      9  C   UNL A   1      30.771  26.167  26.104  1.00  0.00     0.333 C 
ATOM     10  H   UNL A   1      32.408  26.755  27.156  1.00  0.00     0.348 HD
ENDBRANCH   6   7
BRANCH   6  11
ATOM     11  C   UNL A   1      33.122  27.466  23.973  1.00  0.00     0.175 C 
BRANCH  11  12
ATOM     12  C   UNL A   1      33.044  28.582  22.962  1.00  0.00     0.230 C 
ATOM     13  O   UNL A   1      34.108  29.017  22.496  1.00  0.00    -0.274 OA
ATOM     14  N   UNL A   1      31.919  29.164  22.483  1.00  0.00    -0.326 N 
ATOM     15  H   UNL A   1      32.118  29.871  21.829  1.00  0.00     0.169 HD
BRANCH  14  16
ATOM     16  C   UNL A   1      30.541  29.012  22.686  1.00  0.00     0.042 A 
ATOM     17  C   UNL A   1      29.873  27.796  22.780  1.00  0.00     0.026 A 
ATOM     18  C   UNL A   1      29.805  30.199  22.821  1.00  0.00     0.046 A 
ATOM     19  C   UNL A   1      28.506  27.762  23.088  1.00  0.00     0.004 A 
ATOM     20  C   UNL A   1      28.443  30.162  23.122  1.00  0.00     0.043 A 
ATOM     21  C   UNL A   1      27.793  28.944  23.272  1.00  0.00     0.020 A 
ATOM     22  Cl  UNL A   1      27.577  31.633  23.337  1.00  0.00    -0.084 Cl
ENDBRANCH  14  16
ENDBRANCH  11  12
ENDBRANCH   6  11
ENDBRANCH   3   6
ENDBRANCH   1   2
BRANCH   1  23
ATOM     23  C   UNL A   1      31.444  31.978  26.693  1.00  0.00     0.042 C 
BRANCH  23  24
ATOM     24  C   UNL A   1      32.618  32.660  27.371  1.00  0.00     0.118 C 
BRANCH  24  25
ATOM     25  N   UNL A   1      32.382  34.079  27.588  1.00  0.00    -0.352 N 
ATOM     26  C   UNL A   1      32.963  34.917  28.509  1.00  0.00     0.251 C 
ATOM     27  H   UNL A   1      31.716  34.495  26.994  1.00  0.00     0.163 HD
ATOM     28  O   UNL A   1      32.477  36.023  28.736  1.00  0.00    -0.269 OA
BRANCH  26  29
ATOM     29  C   UNL A   1      34.162  34.470  29.248  1.00  0.00     0.039 A 
ATOM     30  C   UNL A   1      34.019  33.895  30.512  1.00  0.00     0.014 A 
ATOM     31  C   UNL A   1      35.429  34.607  28.678  1.00  0.00     0.014 A 
ATOM     32  C   UNL A   1      35.143  33.388  31.171  1.00  0.00     0.010 A 
ATOM     33  C   UNL A   1      36.526  34.006  29.283  1.00  0.00     0.010 A 
ATOM     34  C   UNL A   1      36.399  33.402  30.543  1.00  0.00    -0.014 A 
BRANCH  34  35
ATOM     35  C   UNL A   1      37.612  32.828  31.183  1.00  0.00     0.031 A 
ATOM     36  C   UNL A   1      38.285  31.636  30.558  1.00  0.00     0.074 A 
ATOM     37  C   UNL A   1      38.049  33.309  32.363  1.00  0.00     0.049 A 
ATOM     38  N   UNL A   1      39.250  30.886  31.027  1.00  0.00    -0.248 NA
ATOM     39  C   UNL A   1      37.779  31.205  29.244  1.00  0.00     0.031 C 
ATOM     40  C   UNL A   1      37.463  34.436  33.092  1.00  0.00     0.029 A 
ATOM     41  N   UNL A   1      39.079  32.892  33.171  1.00  0.00    -0.354 N 
ATOM     42  C   UNL A   1      39.443  29.885  30.083  1.00  0.00     0.074 A 
ATOM     43  C   UNL A   1      38.457  30.087  29.044  1.00  0.00     0.031 C 
ATOM     44  C   UNL A   1      38.154  34.632  34.227  1.00  0.00     0.029 A 
ATOM     45  C   UNL A   1      39.195  33.615  34.334  1.00  0.00     0.049 A 
ATOM     46  H   UNL A   1      39.678  32.146  32.938  1.00  0.00     0.167 HD
ATOM     47  C   UNL A   1      40.372  28.901  30.070  1.00  0.00     0.037 A 
ATOM     48  C   UNL A   1      40.035  33.463  35.378  1.00  0.00     0.037 A 
ATOM     49  C   UNL A   1      41.371  28.725  31.088  1.00  0.00     0.049 A 
ATOM     50  C   UNL A   1      41.048  32.351  35.348  1.00  0.00     0.074 A 
ATOM     51  C   UNL A   1      42.393  27.795  31.140  1.00  0.00     0.029 A 
ATOM     52  N   UNL A   1      41.472  29.498  32.236  1.00  0.00    -0.354 N 
ATOM     53  N   UNL A   1      41.255  31.444  34.424  1.00  0.00    -0.248 NA
ATOM     54  C   UNL A   1      41.948  32.241  36.505  1.00  0.00     0.031 C 
ATOM     55  C   UNL A   1      43.082  27.971  32.343  1.00  0.00     0.029 A 
ATOM     56  C   UNL A   1      42.527  29.051  33.012  1.00  0.00     0.049 A 
ATOM     57  H   UNL A   1      40.881  30.252  32.464  1.00  0.00     0.167 HD
ATOM     58  C   UNL A   1      42.332  30.686  34.866  1.00  0.00     0.074 A 
ATOM     59  C   UNL A   1      42.736  31.238  36.142  1.00  0.00     0.031 C 
ATOM     60  C   UNL A   1      42.934  29.630  34.267  1.00  0.00     0.037 A 
BRANCH  47  61
ATOM     61  C   UNL A   1      40.350  27.940  28.915  1.00  0.00     0.057 A 
ATOM     62  C   UNL A   1      39.602  26.755  28.949  1.00  0.00     0.134 A 
ATOM     63  C   UNL A   1      41.060  28.219  27.740  1.00  0.00     0.134 A 
ATOM     64  F   UNL A   1      38.907  26.421  30.047  1.00  0.00    -0.206 F 
ATOM     65  C   UNL A   1      39.587  25.868  27.871  1.00  0.00     0.040 A 
ATOM     66  C   UNL A   1      41.027  27.356  26.644  1.00  0.00     0.040 A 
ATOM     67  F   UNL A   1      41.791  29.339  27.635  1.00  0.00    -0.206 F 
ATOM     68  C   UNL A   1      40.296  26.172  26.711  1.00  0.00     0.006 A 
ENDBRANCH  47  61
BRANCH  48  69
ATOM     69  C   UNL A   1      39.965  34.394  36.533  1.00  0.00     0.057 A 
ATOM     70  C   UNL A   1      39.190  34.091  37.659  1.00  0.00     0.134 A 
ATOM     71  C   UNL A   1      40.656  35.612  36.538  1.00  0.00     0.134 A 
ATOM     72  F   UNL A   1      38.489  32.948  37.706  1.00  0.00    -0.206 F 
ATOM     73  C   UNL A   1      39.087  34.971  38.737  1.00  0.00     0.040 A 
ATOM     74  C   UNL A   1      40.586  36.489  37.622  1.00  0.00     0.040 A 
ATOM     75  F   UNL A   1      41.422  35.961  35.494  1.00  0.00    -0.206 F 
ATOM     76  C   UNL A   1      39.791  36.173  38.723  1.00  0.00     0.006 A 
ENDBRANCH  48  69
BRANCH  60  77
ATOM     77  C   UNL A   1      44.135  29.037  34.943  1.00  0.00     0.057 A 
ATOM     78  C   UNL A   1      44.032  27.985  35.860  1.00  0.00     0.134 A 
ATOM     79  C   UNL A   1      45.422  29.480  34.608  1.00  0.00     0.134 A 
ATOM     80  F   UNL A   1      42.829  27.522  36.232  1.00  0.00    -0.206 F 
ATOM     81  C   UNL A   1      45.166  27.402  36.429  1.00  0.00     0.040 A 
ATOM     82  C   UNL A   1      46.563  28.887  35.148  1.00  0.00     0.040 A 
ATOM     83  F   UNL A   1      45.591  30.479  33.727  1.00  0.00    -0.206 F 
ATOM     84  C   UNL A   1      46.436  27.847  36.065  1.00  0.00     0.006 A 
ENDBRANCH  60  77
ENDBRANCH  34  35
ENDBRANCH  26  29
ENDBRANCH  24  25
ENDBRANCH  23  24
ENDBRANCH   1  23
TORSDOF 14
ENDMDL
MODEL 3
REMARK VINA RESULT:     -11.2      1.257      6.400
REMARK SMILES C[NH+](C)[C@H](CC(=O)Nc1cccc(Cl)c1)C(=O)NCCCNC(=O)c1ccc(-c2c3nc(c(-c4c(F)cccc4F)c4ccc([nH]4)c(-c4c(F)cccc4F)c4nc(c(-c5c(F)cccc5F)c5ccc2[nH]5)C=C4)C=C3)cc1
REMARK SMILES IDX 19 1 18 2 16 3 17 4 4 6 2 7 1 8 3 9 5 11 6 12 7 13 8 14 9 16
REMARK SMILES IDX 10 17 15 18 11 19 13 20 12 21 14 22 20 23 21 24 22 25 23 26
REMARK SMILES IDX 24 28 25 29 26 30 78 31 27 32 77 33 28 34 29 35 30 36 71 37
REMARK SMILES IDX 31 38 76 39 70 40 72 41 32 42 75 43 69 44 68 45 33 47 59 48
REMARK SMILES IDX 42 49 58 50 43 51 46 52 57 53 73 54 44 55 45 56 56 58 74 59
REMARK SMILES IDX 47 60 34 61 35 62 40 63 36 64 37 65 39 66 41 67 38 68 60 69
REMARK SMILES IDX 61 70 66 71 62 72 63 73 65 74 67 75 64 76 48 77 49 78 54 79
REMARK SMILES IDX 50 80 51 81 53 82 55 83 52 84
REMARK H PARENT 18 5 2 10 8 15 22 27 72 46 46 57
REMARK Flexibility Score: inf
ROOT
ATOM      1  C   UNL A   1      36.602  20.515  24.929  1.00  0.00     0.118 C 
ENDROOT
BRANCH   1   2
ATOM      2  N   UNL A   1      35.394  19.729  25.083  1.00  0.00    -0.351 N 
ATOM      3  C   UNL A   1      34.082  20.065  25.013  1.00  0.00     0.278 C 
ATOM      4  O   UNL A   1      33.292  19.117  24.909  1.00  0.00    -0.268 OA
ATOM      5  H   UNL A   1      35.556  18.777  25.273  1.00  0.00     0.163 HD
BRANCH   3   6
ATOM      6  C   UNL A   1      33.557  21.515  25.055  1.00  0.00     0.283 C 
BRANCH   6   7
ATOM      7  N   UNL A   1      32.575  21.732  26.168  1.00  0.00    -0.329 N 
ATOM      8  C   UNL A   1      31.341  22.428  25.839  1.00  0.00     0.333 C 
ATOM      9  C   UNL A   1      33.163  22.293  27.382  1.00  0.00     0.333 C 
ATOM     10  H   UNL A   1      32.296  20.769  26.354  1.00  0.00     0.348 HD
ENDBRANCH   6   7
BRANCH   6  11
ATOM     11  C   UNL A   1      33.381  22.286  23.734  1.00  0.00     0.175 C 
BRANCH  11  12
ATOM     12  C   UNL A   1      34.249  23.465  23.372  1.00  0.00     0.230 C 
ATOM     13  O   UNL A   1      35.237  23.257  22.649  1.00  0.00    -0.274 OA
ATOM     14  N   UNL A   1      34.059  24.754  23.740  1.00  0.00    -0.326 N 
ATOM     15  H   UNL A   1      34.757  25.348  23.379  1.00  0.00     0.169 HD
BRANCH  14  16
ATOM     16  C   UNL A   1      33.119  25.455  24.504  1.00  0.00     0.042 A 
ATOM     17  C   UNL A   1      33.266  25.797  25.844  1.00  0.00     0.026 A 
ATOM     18  C   UNL A   1      31.951  25.848  23.831  1.00  0.00     0.046 A 
ATOM     19  C   UNL A   1      32.303  26.592  26.482  1.00  0.00     0.004 A 
ATOM     20  C   UNL A   1      30.992  26.635  24.470  1.00  0.00     0.043 A 
ATOM     21  C   UNL A   1      31.172  27.022  25.792  1.00  0.00     0.020 A 
ATOM     22  Cl  UNL A   1      29.596  27.149  23.604  1.00  0.00    -0.084 Cl
ENDBRANCH  14  16
ENDBRANCH  11  12
ENDBRANCH   6  11
ENDBRANCH   3   6
ENDBRANCH   1   2
BRANCH   1  23
ATOM     23  C   UNL A   1      37.879  19.690  24.874  1.00  0.00     0.042 C 
BRANCH  23  24
ATOM     24  C   UNL A   1      39.017  20.215  25.729  1.00  0.00     0.118 C 
BRANCH  24  25
ATOM     25  N   UNL A   1      40.106  19.258  25.849  1.00  0.00    -0.352 N 
ATOM     26  C   UNL A   1      41.435  19.493  26.109  1.00  0.00     0.251 C 
ATOM     27  H   UNL A   1      39.856  18.313  25.728  1.00  0.00     0.163 HD
ATOM     28  O   UNL A   1      42.269  18.609  25.927  1.00  0.00    -0.269 OA
BRANCH  26  29
ATOM     29  C   UNL A   1      41.860  20.827  26.582  1.00  0.00     0.039 A 
ATOM     30  C   UNL A   1      42.336  21.765  25.664  1.00  0.00     0.014 A 
ATOM     31  C   UNL A   1      41.772  21.152  27.936  1.00  0.00     0.014 A 
ATOM     32  C   UNL A   1      42.652  23.057  26.097  1.00  0.00     0.010 A 
ATOM     33  C   UNL A   1      41.979  22.464  28.345  1.00  0.00     0.010 A 
ATOM     34  C   UNL A   1      42.435  23.428  27.435  1.00  0.00    -0.014 A 
BRANCH  34  35
ATOM     35  C   UNL A   1      42.707  24.803  27.929  1.00  0.00     0.031 A 
ATOM     36  C   UNL A   1      44.099  25.170  28.368  1.00  0.00     0.074 A 
ATOM     37  C   UNL A   1      41.698  25.684  28.076  1.00  0.00     0.049 A 
ATOM     38  N   UNL A   1      44.520  26.251  28.975  1.00  0.00    -0.248 NA
ATOM     39  C   UNL A   1      45.153  24.170  28.127  1.00  0.00     0.031 C 
ATOM     40  C   UNL A   1      40.298  25.439  27.723  1.00  0.00     0.029 A 
ATOM     41  N   UNL A   1      41.693  26.960  28.584  1.00  0.00    -0.354 N 
ATOM     42  C   UNL A   1      45.875  26.047  29.210  1.00  0.00     0.074 A 
ATOM     43  C   UNL A   1      46.191  24.718  28.738  1.00  0.00     0.031 C 
ATOM     44  C   UNL A   1      39.576  26.535  28.007  1.00  0.00     0.029 A 
ATOM     45  C   UNL A   1      40.446  27.539  28.610  1.00  0.00     0.049 A 
ATOM     46  H   UNL A   1      42.506  27.417  28.899  1.00  0.00     0.167 HD
ATOM     47  C   UNL A   1      46.778  26.898  29.750  1.00  0.00     0.037 A 
ATOM     48  C   UNL A   1      40.049  28.736  29.084  1.00  0.00     0.037 A 
ATOM     49  C   UNL A   1      46.464  28.231  30.189  1.00  0.00     0.049 A 
ATOM     50  C   UNL A   1      41.068  29.659  29.695  1.00  0.00     0.074 A 
ATOM     51  C   UNL A   1      47.317  29.194  30.697  1.00  0.00     0.029 A 
ATOM     52  N   UNL A   1      45.195  28.789  30.170  1.00  0.00    -0.354 N 
ATOM     53  N   UNL A   1      42.355  29.475  29.863  1.00  0.00    -0.248 NA
ATOM     54  C   UNL A   1      40.582  30.958  30.181  1.00  0.00     0.031 C 
ATOM     55  C   UNL A   1      46.557  30.316  31.034  1.00  0.00     0.029 A 
ATOM     56  C   UNL A   1      45.239  30.076  30.678  1.00  0.00     0.049 A 
ATOM     57  H   UNL A   1      44.382  28.337  29.845  1.00  0.00     0.167 HD
ATOM     58  C   UNL A   1      42.839  30.647  30.433  1.00  0.00     0.074 A 
ATOM     59  C   UNL A   1      41.706  31.536  30.582  1.00  0.00     0.031 C 
ATOM     60  C   UNL A   1      44.107  30.959  30.794  1.00  0.00     0.037 A 
BRANCH  47  61
ATOM     61  C   UNL A   1      48.191  26.411  29.894  1.00  0.00     0.057 A 
ATOM     62  C   UNL A   1      49.153  26.618  28.896  1.00  0.00     0.134 A 
ATOM     63  C   UNL A   1      48.606  25.755  31.061  1.00  0.00     0.134 A 
ATOM     64  F   UNL A   1      48.822  27.230  27.748  1.00  0.00    -0.206 F 
ATOM     65  C   UNL A   1      50.465  26.162  29.038  1.00  0.00     0.040 A 
ATOM     66  C   UNL A   1      49.923  25.323  31.228  1.00  0.00     0.040 A 
ATOM     67  F   UNL A   1      47.740  25.530  32.060  1.00  0.00    -0.206 F 
ATOM     68  C   UNL A   1      50.854  25.520  30.211  1.00  0.00     0.006 A 
ENDBRANCH  47  61
BRANCH  48  69
ATOM     69  C   UNL A   1      38.623  29.140  28.987  1.00  0.00     0.057 A 
ATOM     70  C   UNL A   1      38.086  29.612  27.783  1.00  0.00     0.134 A 
ATOM     71  C   UNL A   1      37.764  29.077  30.092  1.00  0.00     0.134 A 
ATOM     72  F   UNL A   1      38.862  29.715  26.694  1.00  0.00    -0.206 F 
ATOM     73  C   UNL A   1      36.757  30.028  27.685  1.00  0.00     0.040 A 
ATOM     74  C   UNL A   1      36.425  29.462  30.001  1.00  0.00     0.040 A 
ATOM     75  F   UNL A   1      38.213  28.627  31.273  1.00  0.00    -0.206 F 
ATOM     76  C   UNL A   1      35.920  29.948  28.796  1.00  0.00     0.006 A 
ENDBRANCH  48  69
BRANCH  60  77
ATOM     77  C   UNL A   1      44.360  32.338  31.328  1.00  0.00     0.057 A 
ATOM     78  C   UNL A   1      44.642  33.423  30.490  1.00  0.00     0.134 A 
ATOM     79  C   UNL A   1      44.243  32.594  32.701  1.00  0.00     0.134 A 
ATOM     80  F   UNL A   1      44.779  33.243  29.167  1.00  0.00    -0.206 F 
ATOM     81  C   UNL A   1      44.810  34.712  30.999  1.00  0.00     0.040 A 
ATOM     82  C   UNL A   1      44.380  33.882  33.218  1.00  0.00     0.040 A 
ATOM     83  F   UNL A   1      43.964  31.600  33.558  1.00  0.00    -0.206 F 
ATOM     84  C   UNL A   1      44.668  34.945  32.366  1.00  0.00     0.006 A 
ENDBRANCH  60  77
ENDBRANCH  34  35
ENDBRANCH  26  29
ENDBRANCH  24  25
ENDBRANCH  23  24
ENDBRANCH   1  23
TORSDOF 14
ENDMDL
