MODEL 1
REMARK VINA RESULT:     -13.7      0.000      0.000
REMARK SMILES O=C(NCCCNC(=O)c1nnn(-c2cccc(Br)c2)c1[C@@H]1COc2ccccc2O1)c1ccc(-c2c3nc(c(-c4c(F)cccc4F)c4ccc([nH]4)c(-c4c(F)cccc4F)c4nc(c(-c5c(F)cccc5F)c5ccc2[nH]5)C=C4)C=C3)cc1
REMARK SMILES IDX 4 1 3 2 1 3 2 4 32 6 33 7 85 8 34 9 84 10 35 11 36 12 37 13
REMARK SMILES IDX 78 14 38 15 83 16 77 17 79 18 39 19 82 20 76 21 75 22 40 24
REMARK SMILES IDX 66 25 49 26 65 27 50 28 53 29 64 30 80 31 51 32 52 33 63 35
REMARK SMILES IDX 81 36 54 37 41 38 42 39 47 40 43 41 44 42 46 43 48 44 45 45
REMARK SMILES IDX 67 46 68 47 73 48 69 49 70 50 72 51 74 52 71 53 55 54 56 55
REMARK SMILES IDX 61 56 57 57 58 58 60 59 62 60 59 61 5 62 6 63 7 64 8 65 9 67
REMARK SMILES IDX 10 68 11 69 21 70 12 71 13 72 22 73 23 74 31 75 24 76 30 77
REMARK SMILES IDX 25 78 29 79 26 80 28 81 27 82 14 83 15 84 20 85 16 86 18 87
REMARK SMILES IDX 17 88 19 89
REMARK H PARENT 3 5 79 23 53 34 7 66
REMARK Flexibility Score: inf
ROOT
ATOM      1  C   UNL A   1      33.200  29.823  26.533  1.00  0.00     0.118 C 
ENDROOT
BRANCH   1   2
ATOM      2  N   UNL A   1      33.533  30.998  27.313  1.00  0.00    -0.352 N 
ATOM      3  O   UNL A   1      34.688  32.797  27.891  1.00  0.00    -0.269 OA
ATOM      4  C   UNL A   1      34.709  31.578  27.712  1.00  0.00     0.251 C 
ATOM      5  H   UNL A   1      32.739  31.489  27.626  1.00  0.00     0.163 HD
BRANCH   4   6
ATOM      6  C   UNL A   1      35.949  30.829  28.044  1.00  0.00     0.039 A 
ATOM      7  C   UNL A   1      36.097  29.451  27.930  1.00  0.00     0.014 A 
ATOM      8  C   UNL A   1      37.021  31.581  28.572  1.00  0.00     0.014 A 
ATOM      9  C   UNL A   1      37.261  28.835  28.375  1.00  0.00     0.010 A 
ATOM     10  C   UNL A   1      38.198  30.969  29.008  1.00  0.00     0.010 A 
ATOM     11  C   UNL A   1      38.311  29.588  28.916  1.00  0.00    -0.014 A 
BRANCH  11  12
ATOM     12  C   UNL A   1      39.560  28.870  29.159  1.00  0.00     0.031 A 
ATOM     13  C   UNL A   1      39.939  28.776  30.596  1.00  0.00     0.074 A 
ATOM     14  C   UNL A   1      40.333  28.251  28.249  1.00  0.00     0.049 A 
ATOM     15  N   UNL A   1      40.943  29.332  31.192  1.00  0.00    -0.248 NA
ATOM     16  C   UNL A   1      39.033  28.045  31.493  1.00  0.00     0.031 C 
ATOM     17  C   UNL A   1      40.031  27.917  26.860  1.00  0.00     0.029 A 
ATOM     18  N   UNL A   1      41.578  27.720  28.440  1.00  0.00    -0.354 N 
ATOM     19  C   UNL A   1      40.896  28.896  32.514  1.00  0.00     0.074 A 
ATOM     20  C   UNL A   1      39.642  28.202  32.668  1.00  0.00     0.031 C 
ATOM     21  C   UNL A   1      40.988  27.080  26.392  1.00  0.00     0.029 A 
ATOM     22  C   UNL A   1      42.027  26.927  27.400  1.00  0.00     0.049 A 
ATOM     23  H   UNL A   1      42.110  27.889  29.252  1.00  0.00     0.167 HD
ATOM     24  C   UNL A   1      41.975  28.987  33.339  1.00  0.00     0.037 A 
ATOM     25  C   UNL A   1      43.147  26.162  27.395  1.00  0.00     0.037 A 
ATOM     26  C   UNL A   1      42.938  29.941  32.855  1.00  0.00     0.049 A 
ATOM     27  C   UNL A   1      44.060  26.660  28.452  1.00  0.00     0.074 A 
ATOM     28  C   UNL A   1      42.909  31.288  32.543  1.00  0.00     0.029 A 
ATOM     29  N   UNL A   1      44.114  29.472  32.324  1.00  0.00    -0.354 N 
ATOM     30  N   UNL A   1      44.739  27.769  28.385  1.00  0.00    -0.248 NA
ATOM     31  C   UNL A   1      43.959  26.073  29.780  1.00  0.00     0.031 C 
ATOM     32  C   UNL A   1      43.796  31.431  31.433  1.00  0.00     0.029 A 
ATOM     33  C   UNL A   1      44.323  30.169  31.164  1.00  0.00     0.049 A 
ATOM     34  H   UNL A   1      44.693  28.773  32.704  1.00  0.00     0.167 HD
ATOM     35  C   UNL A   1      44.778  28.239  29.689  1.00  0.00     0.074 A 
ATOM     36  C   UNL A   1      44.394  27.100  30.514  1.00  0.00     0.031 C 
ATOM     37  C   UNL A   1      44.848  29.575  29.959  1.00  0.00     0.037 A 
BRANCH  24  38
ATOM     38  C   UNL A   1      42.316  27.972  34.403  1.00  0.00     0.057 A 
ATOM     39  C   UNL A   1      42.802  26.707  34.021  1.00  0.00     0.134 A 
ATOM     40  C   UNL A   1      41.907  28.071  35.748  1.00  0.00     0.134 A 
ATOM     41  F   UNL A   1      43.217  26.479  32.764  1.00  0.00    -0.206 F 
ATOM     42  C   UNL A   1      42.795  25.605  34.884  1.00  0.00     0.040 A 
ATOM     43  C   UNL A   1      41.946  26.990  36.634  1.00  0.00     0.040 A 
ATOM     44  F   UNL A   1      41.356  29.183  36.250  1.00  0.00    -0.206 F 
ATOM     45  C   UNL A   1      42.355  25.742  36.193  1.00  0.00     0.006 A 
ENDBRANCH  24  38
BRANCH  25  46
ATOM     46  C   UNL A   1      43.411  24.893  26.684  1.00  0.00     0.057 A 
ATOM     47  C   UNL A   1      42.741  23.711  27.033  1.00  0.00     0.134 A 
ATOM     48  C   UNL A   1      44.116  24.869  25.470  1.00  0.00     0.134 A 
ATOM     49  F   UNL A   1      42.007  23.645  28.151  1.00  0.00    -0.206 F 
ATOM     50  C   UNL A   1      42.752  22.579  26.208  1.00  0.00     0.040 A 
ATOM     51  C   UNL A   1      44.143  23.743  24.642  1.00  0.00     0.040 A 
ATOM     52  F   UNL A   1      44.727  25.968  25.001  1.00  0.00    -0.206 F 
ATOM     53  C   UNL A   1      43.447  22.596  25.003  1.00  0.00     0.006 A 
ENDBRANCH  25  46
BRANCH  37  54
ATOM     54  C   UNL A   1      45.218  30.507  28.841  1.00  0.00     0.057 A 
ATOM     55  C   UNL A   1      46.533  30.885  28.533  1.00  0.00     0.134 A 
ATOM     56  C   UNL A   1      44.212  30.936  27.966  1.00  0.00     0.134 A 
ATOM     57  F   UNL A   1      47.574  30.429  29.246  1.00  0.00    -0.206 F 
ATOM     58  C   UNL A   1      46.823  31.706  27.440  1.00  0.00     0.040 A 
ATOM     59  C   UNL A   1      44.494  31.725  26.849  1.00  0.00     0.040 A 
ATOM     60  F   UNL A   1      42.938  30.562  28.162  1.00  0.00    -0.206 F 
ATOM     61  C   UNL A   1      45.802  32.125  26.591  1.00  0.00     0.006 A 
ENDBRANCH  37  54
ENDBRANCH  11  12
ENDBRANCH   4   6
ENDBRANCH   1   2
BRANCH   1  62
ATOM     62  C   UNL A   1      32.566  28.654  27.288  1.00  0.00     0.042 C 
BRANCH  62  63
ATOM     63  C   UNL A   1      32.354  27.363  26.504  1.00  0.00     0.118 C 
BRANCH  63  64
ATOM     64  N   UNL A   1      30.977  27.104  26.124  1.00  0.00    -0.351 N 
ATOM     65  C   UNL A   1      30.384  25.871  25.951  1.00  0.00     0.273 C 
ATOM     66  H   UNL A   1      30.405  27.891  25.976  1.00  0.00     0.163 HD
ATOM     67  O   UNL A   1      29.187  25.805  25.669  1.00  0.00    -0.267 OA
BRANCH  65  68
ATOM     68  C   UNL A   1      31.234  24.698  26.036  1.00  0.00     0.178 A 
ATOM     69  N   UNL A   1      31.405  24.095  27.250  1.00  0.00    -0.124 NA
ATOM     70  C   UNL A   1      31.884  23.963  25.042  1.00  0.00     0.122 A 
ATOM     71  N   UNL A   1      32.065  22.973  27.061  1.00  0.00    -0.061 NA
ATOM     72  N   UNL A   1      32.374  22.863  25.747  1.00  0.00    -0.213 N 
BRANCH  70  73
ATOM     73  C   UNL A   1      31.995  24.133  23.552  1.00  0.00     0.262 C 
ATOM     74  C   UNL A   1      33.427  24.298  23.040  1.00  0.00     0.281 C 
ATOM     75  O   UNL A   1      31.131  25.188  23.103  1.00  0.00    -0.477 OA
ATOM     76  O   UNL A   1      33.988  25.557  23.416  1.00  0.00    -0.485 OA
ATOM     77  C   UNL A   1      31.767  26.380  22.878  1.00  0.00     0.162 A 
ATOM     78  C   UNL A   1      33.129  26.579  23.109  1.00  0.00     0.161 A 
ATOM     79  C   UNL A   1      30.962  27.451  22.500  1.00  0.00     0.050 A 
ATOM     80  C   UNL A   1      33.651  27.869  23.108  1.00  0.00     0.050 A 
ATOM     81  C   UNL A   1      31.494  28.741  22.461  1.00  0.00     0.004 A 
ATOM     82  C   UNL A   1      32.829  28.953  22.803  1.00  0.00     0.004 A 
ENDBRANCH  70  73
BRANCH  72  83
ATOM     83  C   UNL A   1      32.978  21.659  25.300  1.00  0.00     0.068 A 
ATOM     84  C   UNL A   1      32.236  20.532  24.933  1.00  0.00     0.028 A 
ATOM     85  C   UNL A   1      34.383  21.611  25.260  1.00  0.00     0.044 A 
ATOM     86  C   UNL A   1      32.897  19.346  24.599  1.00  0.00     0.003 A 
ATOM     87  C   UNL A   1      35.028  20.419  24.948  1.00  0.00     0.020 A 
ATOM     88  C   UNL A   1      34.291  19.282  24.626  1.00  0.00     0.016 A 
ATOM     89  Br  UNL A   1      36.915  20.336  25.001  1.00  0.00    -0.051 Br
ENDBRANCH  72  83
ENDBRANCH  65  68
ENDBRANCH  63  64
ENDBRANCH  62  63
ENDBRANCH   1  62
TORSDOF 12
ENDMDL
MODEL 2
REMARK VINA RESULT:     -13.4      2.924      7.834
REMARK SMILES O=C(NCCCNC(=O)c1nnn(-c2cccc(Br)c2)c1[C@@H]1COc2ccccc2O1)c1ccc(-c2c3nc(c(-c4c(F)cccc4F)c4ccc([nH]4)c(-c4c(F)cccc4F)c4nc(c(-c5c(F)cccc5F)c5ccc2[nH]5)C=C4)C=C3)cc1
REMARK SMILES IDX 4 1 3 2 1 3 2 4 32 6 33 7 85 8 34 9 84 10 35 11 36 12 37 13
REMARK SMILES IDX 78 14 38 15 83 16 77 17 79 18 39 19 82 20 76 21 75 22 40 24
REMARK SMILES IDX 66 25 49 26 65 27 50 28 53 29 64 30 80 31 51 32 52 33 63 35
REMARK SMILES IDX 81 36 54 37 41 38 42 39 47 40 43 41 44 42 46 43 48 44 45 45
REMARK SMILES IDX 67 46 68 47 73 48 69 49 70 50 72 51 74 52 71 53 55 54 56 55
REMARK SMILES IDX 61 56 57 57 58 58 60 59 62 60 59 61 5 62 6 63 7 64 8 65 9 67
REMARK SMILES IDX 10 68 11 69 21 70 12 71 13 72 22 73 23 74 31 75 24 76 30 77
REMARK SMILES IDX 25 78 29 79 26 80 28 81 27 82 14 83 15 84 20 85 16 86 18 87
REMARK SMILES IDX 17 88 19 89
REMARK H PARENT 3 5 79 23 53 34 7 66
REMARK Flexibility Score: inf
ROOT
ATOM      1  C   UNL A   1      37.277  22.419  25.436  1.00  0.00     0.118 C 
ENDROOT
BRANCH   1   2
ATOM      2  N   UNL A   1      38.639  21.991  25.682  1.00  0.00    -0.352 N 
ATOM      3  O   UNL A   1      40.429  21.487  26.885  1.00  0.00    -0.269 OA
ATOM      4  C   UNL A   1      39.607  22.355  26.582  1.00  0.00     0.251 C 
ATOM      5  H   UNL A   1      38.936  21.281  25.066  1.00  0.00     0.163 HD
BRANCH   4   6
ATOM      6  C   UNL A   1      39.791  23.730  27.113  1.00  0.00     0.039 A 
ATOM      7  C   UNL A   1      38.953  24.805  26.836  1.00  0.00     0.014 A 
ATOM      8  C   UNL A   1      40.939  23.955  27.904  1.00  0.00     0.014 A 
ATOM      9  C   UNL A   1      39.278  26.078  27.291  1.00  0.00     0.010 A 
ATOM     10  C   UNL A   1      41.262  25.229  28.376  1.00  0.00     0.010 A 
ATOM     11  C   UNL A   1      40.430  26.294  28.059  1.00  0.00    -0.014 A 
BRANCH  11  12
ATOM     12  C   UNL A   1      40.565  27.620  28.656  1.00  0.00     0.031 A 
ATOM     13  C   UNL A   1      41.743  28.391  28.168  1.00  0.00     0.074 A 
ATOM     14  C   UNL A   1      39.722  28.215  29.519  1.00  0.00     0.049 A 
ATOM     15  N   UNL A   1      42.798  28.737  28.832  1.00  0.00    -0.248 NA
ATOM     16  C   UNL A   1      41.788  28.736  26.741  1.00  0.00     0.031 C 
ATOM     17  C   UNL A   1      38.365  27.827  29.893  1.00  0.00     0.029 A 
ATOM     18  N   UNL A   1      39.921  29.380  30.205  1.00  0.00    -0.354 N 
ATOM     19  C   UNL A   1      43.577  29.487  27.954  1.00  0.00     0.074 A 
ATOM     20  C   UNL A   1      42.964  29.358  26.656  1.00  0.00     0.031 C 
ATOM     21  C   UNL A   1      37.797  28.839  30.592  1.00  0.00     0.029 A 
ATOM     22  C   UNL A   1      38.789  29.879  30.823  1.00  0.00     0.049 A 
ATOM     23  H   UNL A   1      40.798  29.826  30.254  1.00  0.00     0.167 HD
ATOM     24  C   UNL A   1      44.572  30.304  28.395  1.00  0.00     0.037 A 
ATOM     25  C   UNL A   1      38.669  31.084  31.434  1.00  0.00     0.037 A 
ATOM     26  C   UNL A   1      44.991  29.962  29.730  1.00  0.00     0.049 A 
ATOM     27  C   UNL A   1      40.027  31.580  31.766  1.00  0.00     0.074 A 
ATOM     28  C   UNL A   1      45.489  28.824  30.337  1.00  0.00     0.029 A 
ATOM     29  N   UNL A   1      44.639  30.797  30.761  1.00  0.00    -0.354 N 
ATOM     30  N   UNL A   1      40.780  31.102  32.714  1.00  0.00    -0.248 NA
ATOM     31  C   UNL A   1      40.711  32.415  30.790  1.00  0.00     0.031 C 
ATOM     32  C   UNL A   1      44.946  28.840  31.657  1.00  0.00     0.029 A 
ATOM     33  C   UNL A   1      44.177  29.997  31.771  1.00  0.00     0.049 A 
ATOM     34  H   UNL A   1      44.707  31.780  30.771  1.00  0.00     0.167 HD
ATOM     35  C   UNL A   1      42.073  31.210  32.227  1.00  0.00     0.074 A 
ATOM     36  C   UNL A   1      41.978  32.133  31.101  1.00  0.00     0.031 C 
ATOM     37  C   UNL A   1      43.048  30.333  32.604  1.00  0.00     0.037 A 
BRANCH  24  38
ATOM     38  C   UNL A   1      44.934  31.622  27.754  1.00  0.00     0.057 A 
ATOM     39  C   UNL A   1      46.225  31.797  27.218  1.00  0.00     0.134 A 
ATOM     40  C   UNL A   1      44.188  32.807  27.909  1.00  0.00     0.134 A 
ATOM     41  F   UNL A   1      47.041  30.748  27.027  1.00  0.00    -0.206 F 
ATOM     42  C   UNL A   1      46.761  33.061  26.946  1.00  0.00     0.040 A 
ATOM     43  C   UNL A   1      44.695  34.070  27.589  1.00  0.00     0.040 A 
ATOM     44  F   UNL A   1      42.972  32.820  28.469  1.00  0.00    -0.206 F 
ATOM     45  C   UNL A   1      45.999  34.205  27.142  1.00  0.00     0.006 A 
ENDBRANCH  24  38
BRANCH  25  46
ATOM     46  C   UNL A   1      37.478  31.949  31.570  1.00  0.00     0.057 A 
ATOM     47  C   UNL A   1      36.886  32.556  30.452  1.00  0.00     0.134 A 
ATOM     48  C   UNL A   1      36.729  31.979  32.758  1.00  0.00     0.134 A 
ATOM     49  F   UNL A   1      37.502  32.544  29.262  1.00  0.00    -0.206 F 
ATOM     50  C   UNL A   1      35.612  33.135  30.507  1.00  0.00     0.040 A 
ATOM     51  C   UNL A   1      35.461  32.563  32.829  1.00  0.00     0.040 A 
ATOM     52  F   UNL A   1      37.164  31.362  33.867  1.00  0.00    -0.206 F 
ATOM     53  C   UNL A   1      34.891  33.130  31.696  1.00  0.00     0.006 A 
ENDBRANCH  25  46
BRANCH  37  54
ATOM     54  C   UNL A   1      42.795  29.460  33.798  1.00  0.00     0.057 A 
ATOM     55  C   UNL A   1      42.053  28.271  33.762  1.00  0.00     0.134 A 
ATOM     56  C   UNL A   1      43.434  29.774  35.005  1.00  0.00     0.134 A 
ATOM     57  F   UNL A   1      41.500  27.829  32.623  1.00  0.00    -0.206 F 
ATOM     58  C   UNL A   1      41.903  27.465  34.895  1.00  0.00     0.040 A 
ATOM     59  C   UNL A   1      43.323  28.957  36.132  1.00  0.00     0.040 A 
ATOM     60  F   UNL A   1      44.211  30.865  35.097  1.00  0.00    -0.206 F 
ATOM     61  C   UNL A   1      42.543  27.806  36.084  1.00  0.00     0.006 A 
ENDBRANCH  37  54
ENDBRANCH  11  12
ENDBRANCH   4   6
ENDBRANCH   1   2
BRANCH   1  62
ATOM     62  C   UNL A   1      36.997  23.081  24.087  1.00  0.00     0.042 C 
BRANCH  62  63
ATOM     63  C   UNL A   1      35.616  23.702  23.898  1.00  0.00     0.118 C 
BRANCH  63  64
ATOM     64  N   UNL A   1      34.690  22.895  23.126  1.00  0.00    -0.351 N 
ATOM     65  C   UNL A   1      33.575  23.338  22.444  1.00  0.00     0.273 C 
ATOM     66  H   UNL A   1      34.877  21.929  23.082  1.00  0.00     0.163 HD
ATOM     67  O   UNL A   1      32.903  22.538  21.792  1.00  0.00    -0.267 OA
BRANCH  65  68
ATOM     68  C   UNL A   1      33.203  24.732  22.598  1.00  0.00     0.178 A 
ATOM     69  N   UNL A   1      33.744  25.656  21.748  1.00  0.00    -0.124 NA
ATOM     70  C   UNL A   1      32.273  25.345  23.440  1.00  0.00     0.122 A 
ATOM     71  N   UNL A   1      33.144  26.807  21.960  1.00  0.00    -0.061 NA
ATOM     72  N   UNL A   1      32.258  26.660  22.973  1.00  0.00    -0.213 N 
BRANCH  70  73
ATOM     73  C   UNL A   1      31.367  24.818  24.520  1.00  0.00     0.262 C 
ATOM     74  C   UNL A   1      31.661  25.370  25.915  1.00  0.00     0.281 C 
ATOM     75  O   UNL A   1      31.342  23.383  24.495  1.00  0.00    -0.477 OA
ATOM     76  O   UNL A   1      32.892  24.869  26.440  1.00  0.00    -0.485 OA
ATOM     77  C   UNL A   1      32.139  22.789  25.438  1.00  0.00     0.162 A 
ATOM     78  C   UNL A   1      32.949  23.506  26.320  1.00  0.00     0.161 A 
ATOM     79  C   UNL A   1      32.196  21.398  25.415  1.00  0.00     0.050 A 
ATOM     80  C   UNL A   1      33.917  22.842  27.067  1.00  0.00     0.050 A 
ATOM     81  C   UNL A   1      33.141  20.728  26.193  1.00  0.00     0.004 A 
ATOM     82  C   UNL A   1      34.027  21.454  26.989  1.00  0.00     0.004 A 
ENDBRANCH  70  73
BRANCH  72  83
ATOM     83  C   UNL A   1      31.406  27.753  23.281  1.00  0.00     0.068 A 
ATOM     84  C   UNL A   1      30.278  28.071  22.520  1.00  0.00     0.028 A 
ATOM     85  C   UNL A   1      31.748  28.551  24.387  1.00  0.00     0.044 A 
ATOM     86  C   UNL A   1      29.542  29.220  22.819  1.00  0.00     0.003 A 
ATOM     87  C   UNL A   1      31.019  29.704  24.662  1.00  0.00     0.020 A 
ATOM     88  C   UNL A   1      29.923  30.048  23.876  1.00  0.00     0.016 A 
ATOM     89  Br  UNL A   1      31.551  30.829  26.085  1.00  0.00    -0.051 Br
ENDBRANCH  72  83
ENDBRANCH  65  68
ENDBRANCH  63  64
ENDBRANCH  62  63
ENDBRANCH   1  62
TORSDOF 12
ENDMDL
MODEL 3
REMARK VINA RESULT:     -13.0      1.199      2.141
REMARK SMILES O=C(NCCCNC(=O)c1nnn(-c2cccc(Br)c2)c1[C@@H]1COc2ccccc2O1)c1ccc(-c2c3nc(c(-c4c(F)cccc4F)c4ccc([nH]4)c(-c4c(F)cccc4F)c4nc(c(-c5c(F)cccc5F)c5ccc2[nH]5)C=C4)C=C3)cc1
REMARK SMILES IDX 4 1 3 2 1 3 2 4 32 6 33 7 85 8 34 9 84 10 35 11 36 12 37 13
REMARK SMILES IDX 78 14 38 15 83 16 77 17 79 18 39 19 82 20 76 21 75 22 40 24
REMARK SMILES IDX 66 25 49 26 65 27 50 28 53 29 64 30 80 31 51 32 52 33 63 35
REMARK SMILES IDX 81 36 54 37 41 38 42 39 47 40 43 41 44 42 46 43 48 44 45 45
REMARK SMILES IDX 67 46 68 47 73 48 69 49 70 50 72 51 74 52 71 53 55 54 56 55
REMARK SMILES IDX 61 56 57 57 58 58 60 59 62 60 59 61 5 62 6 63 7 64 8 65 9 67
REMARK SMILES IDX 10 68 11 69 21 70 12 71 13 72 22 73 23 74 31 75 24 76 30 77
REMARK SMILES IDX 25 78 29 79 26 80 28 81 27 82 14 83 15 84 20 85 16 86 18 87
REMARK SMILES IDX 17 88 19 89
REMARK H PARENT 3 5 79 23 53 34 7 66
REMARK Flexibility Score: inf
ROOT
ATOM      1  C   UNL A   1      33.396  29.577  27.076  1.00  0.00     0.118 C 
ENDROOT
BRANCH   1   2
ATOM      2  N   UNL A   1      33.583  30.784  27.855  1.00  0.00    -0.352 N 
ATOM      3  O   UNL A   1      34.460  32.745  28.392  1.00  0.00    -0.269 OA
ATOM      4  C   UNL A   1      34.672  31.548  28.186  1.00  0.00     0.251 C 
ATOM      5  H   UNL A   1      32.742  31.132  28.231  1.00  0.00     0.163 HD
BRANCH   4   6
ATOM      6  C   UNL A   1      36.039  31.014  28.420  1.00  0.00     0.039 A 
ATOM      7  C   UNL A   1      37.069  31.718  29.034  1.00  0.00     0.014 A 
ATOM      8  C   UNL A   1      36.309  29.722  27.919  1.00  0.00     0.014 A 
ATOM      9  C   UNL A   1      38.345  31.169  29.101  1.00  0.00     0.010 A 
ATOM     10  C   UNL A   1      37.584  29.160  27.996  1.00  0.00     0.010 A 
ATOM     11  C   UNL A   1      38.607  29.894  28.584  1.00  0.00    -0.014 A 
BRANCH  11  12
ATOM     12  C   UNL A   1      39.920  29.332  28.890  1.00  0.00     0.031 A 
ATOM     13  C   UNL A   1      40.137  29.044  30.336  1.00  0.00     0.074 A 
ATOM     14  C   UNL A   1      40.887  29.000  28.017  1.00  0.00     0.049 A 
ATOM     15  N   UNL A   1      40.958  29.627  31.148  1.00  0.00    -0.248 NA
ATOM     16  C   UNL A   1      39.267  28.045  30.969  1.00  0.00     0.031 C 
ATOM     17  C   UNL A   1      40.810  28.874  26.564  1.00  0.00     0.029 A 
ATOM     18  N   UNL A   1      42.171  28.629  28.301  1.00  0.00    -0.354 N 
ATOM     19  C   UNL A   1      40.829  28.964  32.366  1.00  0.00     0.074 A 
ATOM     20  C   UNL A   1      39.699  28.080  32.230  1.00  0.00     0.031 C 
ATOM     21  C   UNL A   1      41.942  28.278  26.115  1.00  0.00     0.029 A 
ATOM     22  C   UNL A   1      42.866  28.103  27.227  1.00  0.00     0.049 A 
ATOM     23  H   UNL A   1      42.569  28.728  29.197  1.00  0.00     0.167 HD
ATOM     24  C   UNL A   1      41.772  29.064  33.342  1.00  0.00     0.037 A 
ATOM     25  C   UNL A   1      44.090  27.521  27.265  1.00  0.00     0.037 A 
ATOM     26  C   UNL A   1      42.615  30.217  33.154  1.00  0.00     0.049 A 
ATOM     27  C   UNL A   1      44.777  27.953  28.506  1.00  0.00     0.074 A 
ATOM     28  C   UNL A   1      42.399  31.579  33.053  1.00  0.00     0.029 A 
ATOM     29  N   UNL A   1      43.906  30.023  32.732  1.00  0.00    -0.354 N 
ATOM     30  N   UNL A   1      45.265  29.143  28.709  1.00  0.00    -0.248 NA
ATOM     31  C   UNL A   1      44.618  27.134  29.700  1.00  0.00     0.031 C 
ATOM     32  C   UNL A   1      43.374  32.040  32.118  1.00  0.00     0.029 A 
ATOM     33  C   UNL A   1      44.132  30.934  31.735  1.00  0.00     0.049 A 
ATOM     34  H   UNL A   1      44.544  29.359  33.079  1.00  0.00     0.167 HD
ATOM     35  C   UNL A   1      45.071  29.378  30.061  1.00  0.00     0.074 A 
ATOM     36  C   UNL A   1      44.787  28.069  30.637  1.00  0.00     0.031 C 
ATOM     37  C   UNL A   1      44.886  30.642  30.541  1.00  0.00     0.037 A 
BRANCH  24  38
ATOM     38  C   UNL A   1      42.150  27.939  34.275  1.00  0.00     0.057 A 
ATOM     39  C   UNL A   1      41.988  28.110  35.664  1.00  0.00     0.134 A 
ATOM     40  C   UNL A   1      42.936  26.832  33.899  1.00  0.00     0.134 A 
ATOM     41  F   UNL A   1      41.267  29.131  36.154  1.00  0.00    -0.206 F 
ATOM     42  C   UNL A   1      42.634  27.296  36.603  1.00  0.00     0.040 A 
ATOM     43  C   UNL A   1      43.542  25.981  34.829  1.00  0.00     0.040 A 
ATOM     44  F   UNL A   1      43.244  26.571  32.623  1.00  0.00    -0.206 F 
ATOM     45  C   UNL A   1      43.424  26.234  36.185  1.00  0.00     0.006 A 
ENDBRANCH  24  38
BRANCH  25  46
ATOM     46  C   UNL A   1      44.643  26.447  26.412  1.00  0.00     0.057 A 
ATOM     47  C   UNL A   1      45.772  26.664  25.608  1.00  0.00     0.134 A 
ATOM     48  C   UNL A   1      44.247  25.109  26.574  1.00  0.00     0.134 A 
ATOM     49  F   UNL A   1      46.253  27.901  25.425  1.00  0.00    -0.206 F 
ATOM     50  C   UNL A   1      46.481  25.609  25.021  1.00  0.00     0.040 A 
ATOM     51  C   UNL A   1      44.940  24.047  25.986  1.00  0.00     0.040 A 
ATOM     52  F   UNL A   1      43.229  24.780  27.384  1.00  0.00    -0.206 F 
ATOM     53  C   UNL A   1      46.071  24.294  25.217  1.00  0.00     0.006 A 
ENDBRANCH  25  46
BRANCH  37  54
ATOM     54  C   UNL A   1      45.225  31.798  29.646  1.00  0.00     0.057 A 
ATOM     55  C   UNL A   1      44.375  32.299  28.649  1.00  0.00     0.134 A 
ATOM     56  C   UNL A   1      46.408  32.510  29.888  1.00  0.00     0.134 A 
ATOM     57  F   UNL A   1      43.171  31.754  28.423  1.00  0.00    -0.206 F 
ATOM     58  C   UNL A   1      44.719  33.420  27.888  1.00  0.00     0.040 A 
ATOM     59  C   UNL A   1      46.743  33.652  29.160  1.00  0.00     0.040 A 
ATOM     60  F   UNL A   1      47.241  32.125  30.868  1.00  0.00    -0.206 F 
ATOM     61  C   UNL A   1      45.905  34.102  28.145  1.00  0.00     0.006 A 
ENDBRANCH  37  54
ENDBRANCH  11  12
ENDBRANCH   4   6
ENDBRANCH   1   2
BRANCH   1  62
ATOM     62  C   UNL A   1      32.009  28.937  27.121  1.00  0.00     0.042 C 
BRANCH  62  63
ATOM     63  C   UNL A   1      31.923  27.453  26.775  1.00  0.00     0.118 C 
BRANCH  63  64
ATOM     64  N   UNL A   1      30.675  27.047  26.156  1.00  0.00    -0.351 N 
ATOM     65  C   UNL A   1      30.273  25.758  25.873  1.00  0.00     0.273 C 
ATOM     66  H   UNL A   1      30.049  27.766  25.913  1.00  0.00     0.163 HD
ATOM     67  O   UNL A   1      29.160  25.561  25.382  1.00  0.00    -0.267 OA
BRANCH  65  68
ATOM     68  C   UNL A   1      31.229  24.690  26.100  1.00  0.00     0.178 A 
ATOM     69  N   UNL A   1      31.271  24.095  27.331  1.00  0.00    -0.124 NA
ATOM     70  C   UNL A   1      32.110  24.047  25.229  1.00  0.00     0.122 A 
ATOM     71  N   UNL A   1      32.078  23.059  27.256  1.00  0.00    -0.061 NA
ATOM     72  N   UNL A   1      32.605  23.002  26.010  1.00  0.00    -0.213 N 
BRANCH  70  73
ATOM     73  C   UNL A   1      32.438  24.248  23.775  1.00  0.00     0.262 C 
ATOM     74  C   UNL A   1      33.882  24.677  23.507  1.00  0.00     0.281 C 
ATOM     75  O   UNL A   1      31.486  25.131  23.164  1.00  0.00    -0.477 OA
ATOM     76  O   UNL A   1      34.132  26.014  23.944  1.00  0.00    -0.485 OA
ATOM     77  C   UNL A   1      31.922  26.421  23.022  1.00  0.00     0.162 A 
ATOM     78  C   UNL A   1      33.166  26.864  23.474  1.00  0.00     0.161 A 
ATOM     79  C   UNL A   1      31.011  27.330  22.490  1.00  0.00     0.050 A 
ATOM     80  C   UNL A   1      33.437  28.228  23.532  1.00  0.00     0.050 A 
ATOM     81  C   UNL A   1      31.298  28.695  22.512  1.00  0.00     0.004 A 
ATOM     82  C   UNL A   1      32.494  29.146  23.069  1.00  0.00     0.004 A 
ENDBRANCH  70  73
BRANCH  72  83
ATOM     83  C   UNL A   1      33.407  21.881  25.673  1.00  0.00     0.068 A 
ATOM     84  C   UNL A   1      34.803  21.902  25.744  1.00  0.00     0.028 A 
ATOM     85  C   UNL A   1      32.750  20.722  25.225  1.00  0.00     0.044 A 
ATOM     86  C   UNL A   1      35.536  20.797  25.300  1.00  0.00     0.003 A 
ATOM     87  C   UNL A   1      33.490  19.637  24.765  1.00  0.00     0.020 A 
ATOM     88  C   UNL A   1      34.882  19.674  24.792  1.00  0.00     0.016 A 
ATOM     89  Br  UNL A   1      32.599  18.126  24.065  1.00  0.00    -0.051 Br
ENDBRANCH  72  83
ENDBRANCH  65  68
ENDBRANCH  63  64
ENDBRANCH  62  63
ENDBRANCH   1  62
TORSDOF 12
ENDMDL
