MODEL 1
REMARK VINA RESULT:     -11.2      0.000      0.000
REMARK SMILES CC1=C(CC(=O)NCCCNC(=O)c2ccc(-c3c4nc(c(-c5c(F)cccc5F)c5ccc([nH]5)c(-c5c(F)cccc5F)c5nc(c(-c6c(F)cccc6F)c6ccc3[nH]6)C=C5)C=C4)cc2)c2cc(F)ccc2/C1=C\c1cccc(OCc2ccccc2)c1
REMARK SMILES IDX 5 1 6 2 7 3 4 5 3 6 1 7 2 8 75 9 68 10 74 11 76 12 69 13
REMARK SMILES IDX 73 14 70 15 72 16 71 17 77 18 78 19 90 20 79 21 81 22 80 23
REMARK SMILES IDX 82 24 83 25 84 26 85 27 89 28 86 29 88 30 87 31 8 32 9 33
REMARK SMILES IDX 10 34 11 35 12 36 13 38 14 39 15 40 67 41 16 42 66 43 17 44
REMARK SMILES IDX 18 45 19 46 60 47 20 48 65 49 59 50 61 51 21 52 64 53 58 54
REMARK SMILES IDX 57 55 22 57 48 58 31 59 47 60 32 61 35 62 46 63 62 64 33 65
REMARK SMILES IDX 34 66 45 68 63 69 36 70 23 71 24 72 29 73 25 74 26 75 28 76
REMARK SMILES IDX 30 77 27 78 49 79 50 80 55 81 51 82 52 83 54 84 56 85 53 86
REMARK SMILES IDX 37 87 38 88 43 89 39 90 40 91 42 92 44 93 41 94
REMARK H PARENT 7 4 11 37 61 56 35 67
REMARK Flexibility Score: inf
ROOT
ATOM      1  C   UNL A   1      33.577  34.318  28.747  1.00  0.00     0.224 C 
ATOM      2  O   UNL A   1      32.528  34.257  28.101  1.00  0.00    -0.275 OA
ATOM      3  N   UNL A   1      33.487  34.392  30.106  1.00  0.00    -0.356 N 
ATOM      4  H   UNL A   1      32.573  34.377  30.470  1.00  0.00     0.163 HD
ENDROOT
BRANCH   1   5
ATOM      5  C   UNL A   1      34.938  34.283  28.056  1.00  0.00     0.136 C 
BRANCH   5   6
ATOM      6  C   UNL A   1      35.671  32.998  28.268  1.00  0.00    -0.027 C 
ATOM      7  C   UNL A   1      37.791  33.828  29.420  1.00  0.00     0.045 C 
ATOM      8  C   UNL A   1      36.897  32.801  28.808  1.00  0.00    -0.039 C 
ATOM      9  C   UNL A   1      37.233  31.370  28.751  1.00  0.00    -0.014 C 
ATOM     10  C   UNL A   1      35.114  31.677  27.923  1.00  0.00    -0.011 A 
ATOM     11  C   UNL A   1      36.041  30.669  28.244  1.00  0.00    -0.010 A 
ATOM     12  C   UNL A   1      38.436  30.858  29.066  1.00  0.00     0.017 C 
ATOM     13  C   UNL A   1      33.872  31.351  27.393  1.00  0.00     0.048 A 
ATOM     14  C   UNL A   1      35.721  29.328  28.067  1.00  0.00     0.012 A 
ATOM     15  C   UNL A   1      33.574  30.006  27.189  1.00  0.00     0.123 A 
ATOM     16  C   UNL A   1      34.478  28.998  27.524  1.00  0.00     0.040 A 
ATOM     17  F   UNL A   1      32.386  29.667  26.670  1.00  0.00    -0.207 F 
BRANCH  12  18
ATOM     18  C   UNL A   1      38.791  29.440  29.033  1.00  0.00    -0.021 A 
ATOM     19  C   UNL A   1      38.470  28.582  30.092  1.00  0.00     0.008 A 
ATOM     20  C   UNL A   1      39.498  28.955  27.927  1.00  0.00     0.054 A 
ATOM     21  C   UNL A   1      38.903  27.257  30.065  1.00  0.00     0.004 A 
ATOM     22  C   UNL A   1      39.890  27.619  27.878  1.00  0.00     0.120 A 
ATOM     23  C   UNL A   1      39.620  26.784  28.966  1.00  0.00     0.046 A 
BRANCH  22  24
ATOM     24  O   UNL A   1      40.474  26.997  26.807  1.00  0.00    -0.489 OA
BRANCH  24  25
ATOM     25  C   UNL A   1      40.608  25.571  26.835  1.00  0.00     0.265 C 
BRANCH  25  26
ATOM     26  C   UNL A   1      41.834  25.022  27.545  1.00  0.00    -0.011 A 
ATOM     27  C   UNL A   1      41.820  23.837  28.297  1.00  0.00     0.007 A 
ATOM     28  C   UNL A   1      43.047  25.721  27.433  1.00  0.00     0.007 A 
ATOM     29  C   UNL A   1      42.989  23.338  28.877  1.00  0.00     0.000 A 
ATOM     30  C   UNL A   1      44.211  25.234  28.033  1.00  0.00     0.000 A 
ATOM     31  C   UNL A   1      44.183  24.037  28.745  1.00  0.00     0.000 A 
ENDBRANCH  25  26
ENDBRANCH  24  25
ENDBRANCH  22  24
ENDBRANCH  12  18
ENDBRANCH   5   6
ENDBRANCH   1   5
BRANCH   3  32
ATOM     32  C   UNL A   1      34.547  34.488  31.092  1.00  0.00     0.117 C 
BRANCH  32  33
ATOM     33  C   UNL A   1      34.691  33.214  31.917  1.00  0.00     0.042 C 
BRANCH  33  34
ATOM     34  C   UNL A   1      36.106  32.955  32.424  1.00  0.00     0.118 C 
BRANCH  34  35
ATOM     35  N   UNL A   1      36.226  33.078  33.873  1.00  0.00    -0.352 N 
ATOM     36  C   UNL A   1      37.175  32.574  34.730  1.00  0.00     0.251 C 
ATOM     37  H   UNL A   1      35.515  33.605  34.304  1.00  0.00     0.163 HD
ATOM     38  O   UNL A   1      37.009  32.668  35.943  1.00  0.00    -0.269 OA
BRANCH  36  39
ATOM     39  C   UNL A   1      38.375  31.888  34.203  1.00  0.00     0.039 A 
ATOM     40  C   UNL A   1      39.657  32.279  34.591  1.00  0.00     0.014 A 
ATOM     41  C   UNL A   1      38.211  30.834  33.298  1.00  0.00     0.014 A 
ATOM     42  C   UNL A   1      40.767  31.745  33.943  1.00  0.00     0.010 A 
ATOM     43  C   UNL A   1      39.332  30.239  32.710  1.00  0.00     0.010 A 
ATOM     44  C   UNL A   1      40.618  30.730  32.985  1.00  0.00    -0.014 A 
BRANCH  44  45
ATOM     45  C   UNL A   1      41.814  30.221  32.262  1.00  0.00     0.031 A 
ATOM     46  C   UNL A   1      42.447  28.912  32.657  1.00  0.00     0.074 A 
ATOM     47  C   UNL A   1      42.301  30.914  31.215  1.00  0.00     0.049 A 
ATOM     48  N   UNL A   1      43.484  28.305  32.135  1.00  0.00    -0.248 NA
ATOM     49  C   UNL A   1      41.842  28.190  33.789  1.00  0.00     0.031 C 
ATOM     50  C   UNL A   1      41.778  32.193  30.729  1.00  0.00     0.029 A 
ATOM     51  N   UNL A   1      43.336  30.632  30.358  1.00  0.00    -0.354 N 
ATOM     52  C   UNL A   1      43.671  27.152  32.888  1.00  0.00     0.074 A 
ATOM     53  C   UNL A   1      42.654  27.150  33.918  1.00  0.00     0.031 C 
ATOM     54  C   UNL A   1      42.468  32.565  29.641  1.00  0.00     0.029 A 
ATOM     55  C   UNL A   1      43.517  31.584  29.384  1.00  0.00     0.049 A 
ATOM     56  H   UNL A   1      43.895  29.826  30.435  1.00  0.00     0.167 HD
ATOM     57  C   UNL A   1      44.599  26.177  32.731  1.00  0.00     0.037 A 
ATOM     58  C   UNL A   1      44.436  31.667  28.405  1.00  0.00     0.037 A 
ATOM     59  C   UNL A   1      45.589  26.158  31.685  1.00  0.00     0.049 A 
ATOM     60  C   UNL A   1      45.468  30.583  28.272  1.00  0.00     0.074 A 
ATOM     61  C   UNL A   1      46.535  25.185  31.412  1.00  0.00     0.029 A 
ATOM     62  N   UNL A   1      45.761  27.158  30.742  1.00  0.00    -0.354 N 
ATOM     63  N   UNL A   1      45.606  29.482  28.969  1.00  0.00    -0.248 NA
ATOM     64  C   UNL A   1      46.479  30.760  27.219  1.00  0.00     0.031 C 
ATOM     65  C   UNL A   1      47.308  25.616  30.329  1.00  0.00     0.029 A 
ATOM     66  C   UNL A   1      46.815  26.838  29.901  1.00  0.00     0.049 A 
ATOM     67  H   UNL A   1      45.215  27.975  30.677  1.00  0.00     0.167 HD
ATOM     68  C   UNL A   1      46.705  28.828  28.430  1.00  0.00     0.074 A 
ATOM     69  C   UNL A   1      47.182  29.644  27.332  1.00  0.00     0.031 C 
ATOM     70  C   UNL A   1      47.275  27.660  28.813  1.00  0.00     0.037 A 
BRANCH  57  71
ATOM     71  C   UNL A   1      44.604  25.050  33.723  1.00  0.00     0.057 A 
ATOM     72  C   UNL A   1      45.151  25.233  34.999  1.00  0.00     0.134 A 
ATOM     73  C   UNL A   1      44.121  23.776  33.400  1.00  0.00     0.134 A 
ATOM     74  F   UNL A   1      45.636  26.427  35.368  1.00  0.00    -0.206 F 
ATOM     75  C   UNL A   1      45.226  24.185  35.917  1.00  0.00     0.040 A 
ATOM     76  C   UNL A   1      44.169  22.725  34.319  1.00  0.00     0.040 A 
ATOM     77  F   UNL A   1      43.574  23.540  32.199  1.00  0.00    -0.206 F 
ATOM     78  C   UNL A   1      44.731  22.927  35.580  1.00  0.00     0.006 A 
ENDBRANCH  57  71
BRANCH  58  79
ATOM     79  C   UNL A   1      44.446  32.831  27.483  1.00  0.00     0.057 A 
ATOM     80  C   UNL A   1      43.905  32.741  26.195  1.00  0.00     0.134 A 
ATOM     81  C   UNL A   1      44.955  34.071  27.884  1.00  0.00     0.134 A 
ATOM     82  F   UNL A   1      43.403  31.579  25.750  1.00  0.00    -0.206 F 
ATOM     83  C   UNL A   1      43.872  33.841  25.338  1.00  0.00     0.040 A 
ATOM     84  C   UNL A   1      44.903  35.186  27.048  1.00  0.00     0.040 A 
ATOM     85  F   UNL A   1      45.465  34.225  29.116  1.00  0.00    -0.206 F 
ATOM     86  C   UNL A   1      44.362  35.072  25.769  1.00  0.00     0.006 A 
ENDBRANCH  58  79
BRANCH  70  87
ATOM     87  C   UNL A   1      48.459  27.191  28.020  1.00  0.00     0.057 A 
ATOM     88  C   UNL A   1      48.285  26.399  26.877  1.00  0.00     0.134 A 
ATOM     89  C   UNL A   1      49.769  27.514  28.392  1.00  0.00     0.134 A 
ATOM     90  F   UNL A   1      47.055  26.049  26.471  1.00  0.00    -0.206 F 
ATOM     91  C   UNL A   1      49.374  25.949  26.131  1.00  0.00     0.040 A 
ATOM     92  C   UNL A   1      50.866  27.091  27.639  1.00  0.00     0.040 A 
ATOM     93  F   UNL A   1      50.001  28.283  29.467  1.00  0.00    -0.206 F 
ATOM     94  C   UNL A   1      50.669  26.302  26.508  1.00  0.00     0.006 A 
ENDBRANCH  70  87
ENDBRANCH  44  45
ENDBRANCH  36  39
ENDBRANCH  34  35
ENDBRANCH  33  34
ENDBRANCH  32  33
ENDBRANCH   3  32
TORSDOF 15
ENDMDL
MODEL 2
REMARK VINA RESULT:     -11.1      3.394      8.143
REMARK SMILES CC1=C(CC(=O)NCCCNC(=O)c2ccc(-c3c4nc(c(-c5c(F)cccc5F)c5ccc([nH]5)c(-c5c(F)cccc5F)c5nc(c(-c6c(F)cccc6F)c6ccc3[nH]6)C=C5)C=C4)cc2)c2cc(F)ccc2/C1=C\c1cccc(OCc2ccccc2)c1
REMARK SMILES IDX 5 1 6 2 7 3 4 5 3 6 1 7 2 8 75 9 68 10 74 11 76 12 69 13
REMARK SMILES IDX 73 14 70 15 72 16 71 17 77 18 78 19 90 20 79 21 81 22 80 23
REMARK SMILES IDX 82 24 83 25 84 26 85 27 89 28 86 29 88 30 87 31 8 32 9 33
REMARK SMILES IDX 10 34 11 35 12 36 13 38 14 39 15 40 67 41 16 42 66 43 17 44
REMARK SMILES IDX 18 45 19 46 60 47 20 48 65 49 59 50 61 51 21 52 64 53 58 54
REMARK SMILES IDX 57 55 22 57 48 58 31 59 47 60 32 61 35 62 46 63 62 64 33 65
REMARK SMILES IDX 34 66 45 68 63 69 36 70 23 71 24 72 29 73 25 74 26 75 28 76
REMARK SMILES IDX 30 77 27 78 49 79 50 80 55 81 51 82 52 83 54 84 56 85 53 86
REMARK SMILES IDX 37 87 38 88 43 89 39 90 40 91 42 92 44 93 41 94
REMARK H PARENT 7 4 11 37 61 56 35 67
REMARK Flexibility Score: inf
ROOT
ATOM      1  C   UNL A   1      40.378  35.524  34.839  1.00  0.00     0.224 C 
ATOM      2  O   UNL A   1      39.649  36.286  35.477  1.00  0.00    -0.275 OA
ATOM      3  N   UNL A   1      41.626  35.964  34.503  1.00  0.00    -0.356 N 
ATOM      4  H   UNL A   1      41.852  36.869  34.816  1.00  0.00     0.163 HD
ENDROOT
BRANCH   1   5
ATOM      5  C   UNL A   1      39.918  34.120  34.457  1.00  0.00     0.136 C 
BRANCH   5   6
ATOM      6  C   UNL A   1      38.861  34.114  33.402  1.00  0.00    -0.027 C 
ATOM      7  C   UNL A   1      36.745  34.134  34.829  1.00  0.00     0.045 C 
ATOM      8  C   UNL A   1      37.515  34.080  33.551  1.00  0.00    -0.039 C 
ATOM      9  C   UNL A   1      36.877  34.021  32.227  1.00  0.00    -0.014 C 
ATOM     10  C   UNL A   1      39.152  34.178  31.958  1.00  0.00    -0.011 A 
ATOM     11  C   UNL A   1      37.950  34.158  31.226  1.00  0.00    -0.010 A 
ATOM     12  C   UNL A   1      35.562  33.827  32.024  1.00  0.00     0.017 C 
ATOM     13  C   UNL A   1      40.373  34.280  31.305  1.00  0.00     0.048 A 
ATOM     14  C   UNL A   1      37.960  34.271  29.841  1.00  0.00     0.012 A 
ATOM     15  C   UNL A   1      40.374  34.359  29.915  1.00  0.00     0.123 A 
ATOM     16  C   UNL A   1      39.187  34.362  29.182  1.00  0.00     0.040 A 
ATOM     17  F   UNL A   1      41.541  34.448  29.262  1.00  0.00    -0.207 F 
BRANCH  12  18
ATOM     18  C   UNL A   1      34.901  33.780  30.720  1.00  0.00    -0.021 A 
ATOM     19  C   UNL A   1      34.161  34.866  30.238  1.00  0.00     0.008 A 
ATOM     20  C   UNL A   1      34.991  32.603  29.968  1.00  0.00     0.054 A 
ATOM     21  C   UNL A   1      33.472  34.753  29.031  1.00  0.00     0.004 A 
ATOM     22  C   UNL A   1      34.341  32.507  28.739  1.00  0.00     0.120 A 
ATOM     23  C   UNL A   1      33.554  33.572  28.293  1.00  0.00     0.046 A 
BRANCH  22  24
ATOM     24  O   UNL A   1      34.450  31.465  27.859  1.00  0.00    -0.489 OA
BRANCH  24  25
ATOM     25  C   UNL A   1      33.309  31.120  27.064  1.00  0.00     0.265 C 
BRANCH  25  26
ATOM     26  C   UNL A   1      33.006  29.637  26.926  1.00  0.00    -0.011 A 
ATOM     27  C   UNL A   1      31.799  29.056  27.344  1.00  0.00     0.007 A 
ATOM     28  C   UNL A   1      33.972  28.804  26.337  1.00  0.00     0.007 A 
ATOM     29  C   UNL A   1      31.542  27.699  27.135  1.00  0.00     0.000 A 
ATOM     30  C   UNL A   1      33.725  27.442  26.150  1.00  0.00     0.000 A 
ATOM     31  C   UNL A   1      32.505  26.893  26.540  1.00  0.00     0.000 A 
ENDBRANCH  25  26
ENDBRANCH  24  25
ENDBRANCH  22  24
ENDBRANCH  12  18
ENDBRANCH   5   6
ENDBRANCH   1   5
BRANCH   3  32
ATOM     32  C   UNL A   1      42.666  35.288  33.752  1.00  0.00     0.117 C 
BRANCH  32  33
ATOM     33  C   UNL A   1      43.655  36.262  33.123  1.00  0.00     0.042 C 
BRANCH  33  34
ATOM     34  C   UNL A   1      43.658  36.252  31.598  1.00  0.00     0.118 C 
BRANCH  34  35
ATOM     35  N   UNL A   1      44.890  36.782  31.024  1.00  0.00    -0.352 N 
ATOM     36  C   UNL A   1      45.894  36.143  30.337  1.00  0.00     0.251 C 
ATOM     37  H   UNL A   1      45.022  37.749  31.149  1.00  0.00     0.163 HD
ATOM     38  O   UNL A   1      46.927  36.749  30.067  1.00  0.00    -0.269 OA
BRANCH  36  39
ATOM     39  C   UNL A   1      45.755  34.721  29.953  1.00  0.00     0.039 A 
ATOM     40  C   UNL A   1      45.368  34.357  28.662  1.00  0.00     0.014 A 
ATOM     41  C   UNL A   1      46.015  33.732  30.907  1.00  0.00     0.014 A 
ATOM     42  C   UNL A   1      45.066  33.028  28.381  1.00  0.00     0.010 A 
ATOM     43  C   UNL A   1      45.793  32.387  30.596  1.00  0.00     0.010 A 
ATOM     44  C   UNL A   1      45.260  32.029  29.347  1.00  0.00    -0.014 A 
BRANCH  44  45
ATOM     45  C   UNL A   1      44.870  30.627  29.043  1.00  0.00     0.031 A 
ATOM     46  C   UNL A   1      43.427  30.202  29.114  1.00  0.00     0.074 A 
ATOM     47  C   UNL A   1      45.812  29.746  28.651  1.00  0.00     0.049 A 
ATOM     48  N   UNL A   1      42.898  29.028  28.872  1.00  0.00    -0.248 NA
ATOM     49  C   UNL A   1      42.446  31.224  29.515  1.00  0.00     0.031 C 
ATOM     50  C   UNL A   1      47.243  30.032  28.538  1.00  0.00     0.029 A 
ATOM     51  N   UNL A   1      45.703  28.435  28.260  1.00  0.00    -0.354 N 
ATOM     52  C   UNL A   1      41.537  29.163  29.117  1.00  0.00     0.074 A 
ATOM     53  C   UNL A   1      41.319  30.528  29.547  1.00  0.00     0.031 C 
ATOM     54  C   UNL A   1      47.873  28.944  28.071  1.00  0.00     0.029 A 
ATOM     55  C   UNL A   1      46.903  27.868  27.905  1.00  0.00     0.049 A 
ATOM     56  H   UNL A   1      44.848  27.948  28.237  1.00  0.00     0.167 HD
ATOM     57  C   UNL A   1      40.555  28.239  28.986  1.00  0.00     0.037 A 
ATOM     58  C   UNL A   1      47.193  26.615  27.507  1.00  0.00     0.037 A 
ATOM     59  C   UNL A   1      40.763  26.891  28.522  1.00  0.00     0.049 A 
ATOM     60  C   UNL A   1      46.085  25.605  27.397  1.00  0.00     0.074 A 
ATOM     61  C   UNL A   1      39.822  25.899  28.304  1.00  0.00     0.029 A 
ATOM     62  N   UNL A   1      41.998  26.346  28.208  1.00  0.00    -0.354 N 
ATOM     63  N   UNL A   1      44.799  25.762  27.595  1.00  0.00    -0.248 NA
ATOM     64  C   UNL A   1      46.473  24.240  27.013  1.00  0.00     0.031 C 
ATOM     65  C   UNL A   1      40.492  24.741  27.898  1.00  0.00     0.029 A 
ATOM     66  C   UNL A   1      41.846  25.024  27.822  1.00  0.00     0.049 A 
ATOM     67  H   UNL A   1      42.856  26.827  28.252  1.00  0.00     0.167 HD
ATOM     68  C   UNL A   1      44.224  24.523  27.346  1.00  0.00     0.074 A 
ATOM     69  C   UNL A   1      45.298  23.633  26.956  1.00  0.00     0.031 C 
ATOM     70  C   UNL A   1      42.925  24.152  27.437  1.00  0.00     0.037 A 
BRANCH  57  71
ATOM     71  C   UNL A   1      39.159  28.643  29.363  1.00  0.00     0.057 A 
ATOM     72  C   UNL A   1      38.315  29.239  28.418  1.00  0.00     0.134 A 
ATOM     73  C   UNL A   1      38.671  28.496  30.667  1.00  0.00     0.134 A 
ATOM     74  F   UNL A   1      38.724  29.415  27.153  1.00  0.00    -0.206 F 
ATOM     75  C   UNL A   1      37.036  29.682  28.759  1.00  0.00     0.040 A 
ATOM     76  C   UNL A   1      37.385  28.914  31.015  1.00  0.00     0.040 A 
ATOM     77  F   UNL A   1      39.427  27.921  31.615  1.00  0.00    -0.206 F 
ATOM     78  C   UNL A   1      36.566  29.517  30.060  1.00  0.00     0.006 A 
ENDBRANCH  57  71
BRANCH  58  79
ATOM     79  C   UNL A   1      48.595  26.229  27.208  1.00  0.00     0.057 A 
ATOM     80  C   UNL A   1      49.115  26.333  25.913  1.00  0.00     0.134 A 
ATOM     81  C   UNL A   1      49.458  25.789  28.217  1.00  0.00     0.134 A 
ATOM     82  F   UNL A   1      48.337  26.746  24.901  1.00  0.00    -0.206 F 
ATOM     83  C   UNL A   1      50.443  26.013  25.631  1.00  0.00     0.040 A 
ATOM     84  C   UNL A   1      50.796  25.492  27.955  1.00  0.00     0.040 A 
ATOM     85  F   UNL A   1      49.023  25.691  29.483  1.00  0.00    -0.206 F 
ATOM     86  C   UNL A   1      51.291  25.601  26.658  1.00  0.00     0.006 A 
ENDBRANCH  58  79
BRANCH  70  87
ATOM     87  C   UNL A   1      42.598  22.731  27.085  1.00  0.00     0.057 A 
ATOM     88  C   UNL A   1      42.249  21.811  28.081  1.00  0.00     0.134 A 
ATOM     89  C   UNL A   1      42.639  22.273  25.763  1.00  0.00     0.134 A 
ATOM     90  F   UNL A   1      42.198  22.185  29.369  1.00  0.00    -0.206 F 
ATOM     91  C   UNL A   1      41.947  20.484  27.773  1.00  0.00     0.040 A 
ATOM     92  C   UNL A   1      42.315  20.953  25.439  1.00  0.00     0.040 A 
ATOM     93  F   UNL A   1      42.950  23.110  24.762  1.00  0.00    -0.206 F 
ATOM     94  C   UNL A   1      41.973  20.055  26.447  1.00  0.00     0.006 A 
ENDBRANCH  70  87
ENDBRANCH  44  45
ENDBRANCH  36  39
ENDBRANCH  34  35
ENDBRANCH  33  34
ENDBRANCH  32  33
ENDBRANCH   3  32
TORSDOF 15
ENDMDL
MODEL 3
REMARK VINA RESULT:     -11.1      2.822      6.869
REMARK SMILES CC1=C(CC(=O)NCCCNC(=O)c2ccc(-c3c4nc(c(-c5c(F)cccc5F)c5ccc([nH]5)c(-c5c(F)cccc5F)c5nc(c(-c6c(F)cccc6F)c6ccc3[nH]6)C=C5)C=C4)cc2)c2cc(F)ccc2/C1=C\c1cccc(OCc2ccccc2)c1
REMARK SMILES IDX 5 1 6 2 7 3 4 5 3 6 1 7 2 8 75 9 68 10 74 11 76 12 69 13
REMARK SMILES IDX 73 14 70 15 72 16 71 17 77 18 78 19 90 20 79 21 81 22 80 23
REMARK SMILES IDX 82 24 83 25 84 26 85 27 89 28 86 29 88 30 87 31 8 32 9 33
REMARK SMILES IDX 10 34 11 35 12 36 13 38 14 39 15 40 67 41 16 42 66 43 17 44
REMARK SMILES IDX 18 45 19 46 60 47 20 48 65 49 59 50 61 51 21 52 64 53 58 54
REMARK SMILES IDX 57 55 22 57 48 58 31 59 47 60 32 61 35 62 46 63 62 64 33 65
REMARK SMILES IDX 34 66 45 68 63 69 36 70 23 71 24 72 29 73 25 74 26 75 28 76
REMARK SMILES IDX 30 77 27 78 49 79 50 80 55 81 51 82 52 83 54 84 56 85 53 86
REMARK SMILES IDX 37 87 38 88 43 89 39 90 40 91 42 92 44 93 41 94
REMARK H PARENT 7 4 11 37 61 56 35 67
REMARK Flexibility Score: inf
ROOT
ATOM      1  C   UNL A   1      35.500  34.693  32.395  1.00  0.00     0.224 C 
ATOM      2  O   UNL A   1      35.524  35.760  33.012  1.00  0.00    -0.275 OA
ATOM      3  N   UNL A   1      34.615  34.569  31.364  1.00  0.00    -0.356 N 
ATOM      4  H   UNL A   1      34.063  35.364  31.185  1.00  0.00     0.163 HD
ENDROOT
BRANCH   1   5
ATOM      5  C   UNL A   1      36.449  33.551  32.748  1.00  0.00     0.136 C 
BRANCH   5   6
ATOM      6  C   UNL A   1      37.851  33.789  32.289  1.00  0.00    -0.027 C 
ATOM      7  C   UNL A   1      37.656  33.232  29.806  1.00  0.00     0.045 C 
ATOM      8  C   UNL A   1      38.379  33.618  31.054  1.00  0.00    -0.039 C 
ATOM      9  C   UNL A   1      39.819  33.916  31.091  1.00  0.00    -0.014 C 
ATOM     10  C   UNL A   1      38.918  34.305  33.167  1.00  0.00    -0.011 A 
ATOM     11  C   UNL A   1      40.118  34.422  32.442  1.00  0.00    -0.010 A 
ATOM     12  C   UNL A   1      40.668  33.701  30.071  1.00  0.00     0.017 C 
ATOM     13  C   UNL A   1      38.860  34.683  34.502  1.00  0.00     0.048 A 
ATOM     14  C   UNL A   1      41.259  34.948  33.038  1.00  0.00     0.012 A 
ATOM     15  C   UNL A   1      40.017  35.178  35.099  1.00  0.00     0.123 A 
ATOM     16  C   UNL A   1      41.206  35.318  34.383  1.00  0.00     0.040 A 
ATOM     17  F   UNL A   1      39.988  35.540  36.388  1.00  0.00    -0.207 F 
BRANCH  12  18
ATOM     18  C   UNL A   1      42.098  34.004  30.076  1.00  0.00    -0.021 A 
ATOM     19  C   UNL A   1      42.574  35.287  29.785  1.00  0.00     0.008 A 
ATOM     20  C   UNL A   1      42.998  32.966  30.345  1.00  0.00     0.054 A 
ATOM     21  C   UNL A   1      43.948  35.517  29.713  1.00  0.00     0.004 A 
ATOM     22  C   UNL A   1      44.370  33.205  30.319  1.00  0.00     0.120 A 
ATOM     23  C   UNL A   1      44.840  34.474  29.968  1.00  0.00     0.046 A 
BRANCH  22  24
ATOM     24  O   UNL A   1      45.343  32.313  30.680  1.00  0.00    -0.489 OA
BRANCH  24  25
ATOM     25  C   UNL A   1      44.956  30.972  31.002  1.00  0.00     0.265 C 
BRANCH  25  26
ATOM     26  C   UNL A   1      45.075  29.949  29.884  1.00  0.00    -0.011 A 
ATOM     27  C   UNL A   1      44.049  29.699  28.959  1.00  0.00     0.007 A 
ATOM     28  C   UNL A   1      46.272  29.226  29.756  1.00  0.00     0.007 A 
ATOM     29  C   UNL A   1      44.231  28.796  27.910  1.00  0.00     0.000 A 
ATOM     30  C   UNL A   1      46.445  28.304  28.721  1.00  0.00     0.000 A 
ATOM     31  C   UNL A   1      45.428  28.098  27.791  1.00  0.00     0.000 A 
ENDBRANCH  25  26
ENDBRANCH  24  25
ENDBRANCH  22  24
ENDBRANCH  12  18
ENDBRANCH   5   6
ENDBRANCH   1   5
BRANCH   3  32
ATOM     32  C   UNL A   1      34.370  33.434  30.495  1.00  0.00     0.117 C 
BRANCH  32  33
ATOM     33  C   UNL A   1      34.021  33.855  29.072  1.00  0.00     0.042 C 
BRANCH  33  34
ATOM     34  C   UNL A   1      34.737  33.054  27.990  1.00  0.00     0.118 C 
BRANCH  34  35
ATOM     35  N   UNL A   1      34.070  31.795  27.676  1.00  0.00    -0.352 N 
ATOM     36  C   UNL A   1      34.537  30.504  27.741  1.00  0.00     0.251 C 
ATOM     37  H   UNL A   1      33.139  31.885  27.368  1.00  0.00     0.163 HD
ATOM     38  O   UNL A   1      33.858  29.588  27.285  1.00  0.00    -0.269 OA
BRANCH  36  39
ATOM     39  C   UNL A   1      35.866  30.214  28.323  1.00  0.00     0.039 A 
ATOM     40  C   UNL A   1      37.036  30.443  27.598  1.00  0.00     0.014 A 
ATOM     41  C   UNL A   1      35.940  29.700  29.621  1.00  0.00     0.014 A 
ATOM     42  C   UNL A   1      38.255  29.991  28.094  1.00  0.00     0.010 A 
ATOM     43  C   UNL A   1      37.178  29.324  30.153  1.00  0.00     0.010 A 
ATOM     44  C   UNL A   1      38.340  29.413  29.370  1.00  0.00    -0.014 A 
BRANCH  44  45
ATOM     45  C   UNL A   1      39.643  28.882  29.851  1.00  0.00     0.031 A 
ATOM     46  C   UNL A   1      40.269  29.418  31.112  1.00  0.00     0.074 A 
ATOM     47  C   UNL A   1      40.239  27.878  29.179  1.00  0.00     0.049 A 
ATOM     48  N   UNL A   1      41.391  29.069  31.690  1.00  0.00    -0.248 NA
ATOM     49  C   UNL A   1      39.546  30.490  31.816  1.00  0.00     0.031 C 
ATOM     50  C   UNL A   1      39.735  27.268  27.947  1.00  0.00     0.029 A 
ATOM     51  N   UNL A   1      41.392  27.182  29.446  1.00  0.00    -0.354 N 
ATOM     52  C   UNL A   1      41.522  29.893  32.802  1.00  0.00     0.074 A 
ATOM     53  C   UNL A   1      40.375  30.775  32.810  1.00  0.00     0.031 C 
ATOM     54  C   UNL A   1      40.551  26.267  27.586  1.00  0.00     0.029 A 
ATOM     55  C   UNL A   1      41.664  26.199  28.526  1.00  0.00     0.049 A 
ATOM     56  H   UNL A   1      41.968  27.371  30.221  1.00  0.00     0.167 HD
ATOM     57  C   UNL A   1      42.502  29.906  33.738  1.00  0.00     0.037 A 
ATOM     58  C   UNL A   1      42.704  25.348  28.439  1.00  0.00     0.037 A 
ATOM     59  C   UNL A   1      43.625  29.004  33.753  1.00  0.00     0.049 A 
ATOM     60  C   UNL A   1      43.788  25.406  29.478  1.00  0.00     0.074 A 
ATOM     61  C   UNL A   1      44.639  28.906  34.690  1.00  0.00     0.029 A 
ATOM     62  N   UNL A   1      43.882  28.048  32.784  1.00  0.00    -0.354 N 
ATOM     63  N   UNL A   1      43.875  26.165  30.543  1.00  0.00    -0.248 NA
ATOM     64  C   UNL A   1      44.924  24.491  29.297  1.00  0.00     0.031 C 
ATOM     65  C   UNL A   1      45.533  27.918  34.267  1.00  0.00     0.029 A 
ATOM     66  C   UNL A   1      45.053  27.371  33.088  1.00  0.00     0.049 A 
ATOM     67  H   UNL A   1      43.317  27.873  31.997  1.00  0.00     0.167 HD
ATOM     68  C   UNL A   1      45.063  25.809  31.166  1.00  0.00     0.074 A 
ATOM     69  C   UNL A   1      45.651  24.748  30.373  1.00  0.00     0.031 C 
ATOM     70  C   UNL A   1      45.623  26.318  32.289  1.00  0.00     0.037 A 
BRANCH  57  71
ATOM     71  C   UNL A   1      42.418  30.940  34.822  1.00  0.00     0.057 A 
ATOM     72  C   UNL A   1      43.151  32.130  34.724  1.00  0.00     0.134 A 
ATOM     73  C   UNL A   1      41.661  30.739  35.983  1.00  0.00     0.134 A 
ATOM     74  F   UNL A   1      43.900  32.382  33.641  1.00  0.00    -0.206 F 
ATOM     75  C   UNL A   1      43.140  33.080  35.747  1.00  0.00     0.040 A 
ATOM     76  C   UNL A   1      41.625  31.692  37.003  1.00  0.00     0.040 A 
ATOM     77  F   UNL A   1      40.928  29.625  36.132  1.00  0.00    -0.206 F 
ATOM     78  C   UNL A   1      42.373  32.863  36.889  1.00  0.00     0.006 A 
ENDBRANCH  57  71
BRANCH  58  79
ATOM     79  C   UNL A   1      42.791  24.384  27.314  1.00  0.00     0.057 A 
ATOM     80  C   UNL A   1      42.249  23.096  27.419  1.00  0.00     0.134 A 
ATOM     81  C   UNL A   1      43.377  24.740  26.096  1.00  0.00     0.134 A 
ATOM     82  F   UNL A   1      41.675  22.694  28.562  1.00  0.00    -0.206 F 
ATOM     83  C   UNL A   1      42.289  22.199  26.352  1.00  0.00     0.040 A 
ATOM     84  C   UNL A   1      43.400  23.862  25.012  1.00  0.00     0.040 A 
ATOM     85  F   UNL A   1      43.893  25.968  25.928  1.00  0.00    -0.206 F 
ATOM     86  C   UNL A   1      42.857  22.586  25.140  1.00  0.00     0.006 A 
ENDBRANCH  58  79
BRANCH  70  87
ATOM     87  C   UNL A   1      46.922  25.714  32.734  1.00  0.00     0.057 A 
ATOM     88  C   UNL A   1      48.138  26.162  32.202  1.00  0.00     0.134 A 
ATOM     89  C   UNL A   1      46.968  24.683  33.680  1.00  0.00     0.134 A 
ATOM     90  F   UNL A   1      48.162  27.142  31.286  1.00  0.00    -0.206 F 
ATOM     91  C   UNL A   1      49.355  25.608  32.600  1.00  0.00     0.040 A 
ATOM     92  C   UNL A   1      48.181  24.138  34.105  1.00  0.00     0.040 A 
ATOM     93  F   UNL A   1      45.839  24.222  34.239  1.00  0.00    -0.206 F 
ATOM     94  C   UNL A   1      49.378  24.597  33.560  1.00  0.00     0.006 A 
ENDBRANCH  70  87
ENDBRANCH  44  45
ENDBRANCH  36  39
ENDBRANCH  34  35
ENDBRANCH  33  34
ENDBRANCH  32  33
ENDBRANCH   3  32
TORSDOF 15
ENDMDL
