MODEL 1
REMARK VINA RESULT:     -13.0      0.000      0.000
REMARK SMILES COc1c(C)cccc1C(=O)NC(=S)Nc1ccc(C(=O)NCCCNC(=O)c2ccc(-c3c4nc(c(-c5c(F)cccc5F)c5ccc([nH]5)c(-c5c(F)cccc5F)c5nc(c(-c6c(F)cccc6F)c6ccc3[nH]6)C=C5)C=C4)cc2)cc1C
REMARK SMILES IDX 20 1 21 2 22 3 19 5 16 6 17 7 84 8 18 9 83 10 85 11 15 12
REMARK SMILES IDX 13 14 14 15 12 16 10 17 11 18 9 20 3 21 4 22 5 23 6 24 8 25
REMARK SMILES IDX 7 26 2 27 1 28 23 29 24 30 25 31 26 32 27 33 28 35 29 36
REMARK SMILES IDX 30 37 82 38 31 39 81 40 32 41 33 42 34 43 75 44 35 45 80 46
REMARK SMILES IDX 74 47 76 48 36 49 79 50 73 51 72 52 37 54 63 55 46 56 62 57
REMARK SMILES IDX 47 58 50 59 61 60 77 61 48 62 49 63 60 65 78 66 51 67 38 68
REMARK SMILES IDX 39 69 44 70 40 71 41 72 43 73 45 74 42 75 64 76 65 77 70 78
REMARK SMILES IDX 66 79 67 80 69 81 71 82 68 83 52 84 53 85 58 86 54 87 55 88
REMARK SMILES IDX 57 89 59 90 56 91
REMARK H PARENT 22 4 15 13 12 19 26 34 76 53 50 64
REMARK Flexibility Score: inf
ROOT
ATOM      1  C   UNL A   1      32.558  29.972  26.590  1.00  0.00     0.251 C 
ATOM      2  O   UNL A   1      31.863  30.942  26.289  1.00  0.00    -0.269 OA
ATOM      3  N   UNL A   1      33.410  30.091  27.661  1.00  0.00    -0.352 N 
ATOM      4  H   UNL A   1      33.043  30.374  28.530  1.00  0.00     0.163 HD
ENDROOT
BRANCH   1   5
ATOM      5  C   UNL A   1      32.474  28.651  25.780  1.00  0.00     0.040 A 
ATOM      6  C   UNL A   1      32.423  26.204  23.107  1.00  0.00     0.043 A 
ATOM      7  C   UNL A   1      33.561  27.615  23.070  1.00  0.00     0.027 A 
ATOM      8  C   UNL A   1      31.145  26.068  24.213  1.00  0.00    -0.027 A 
ATOM      9  C   UNL A   1      33.625  28.869  24.381  1.00  0.00     0.016 A 
ATOM     10  C   UNL A   1      31.134  27.138  25.572  1.00  0.00     0.019 A 
ATOM     11  C   UNL A   1      29.836  25.513  23.729  1.00  0.00     0.046 C 
BRANCH   6  12
ATOM     12  N   UNL A   1      33.054  24.891  23.230  1.00  0.00    -0.332 N 
ATOM     13  H   UNL A   1      33.303  24.478  22.371  1.00  0.00     0.169 HD
BRANCH  12  14
ATOM     14  C   UNL A   1      33.361  24.123  24.350  1.00  0.00     0.177 C 
ATOM     15  S   UNL A   1      34.600  24.703  25.335  1.00  0.00    -0.040 S 
BRANCH  14  16
ATOM     16  N   UNL A   1      32.683  22.968  24.864  1.00  0.00    -0.299 N 
ATOM     17  C   UNL A   1      32.306  21.537  24.866  1.00  0.00     0.261 C 
ATOM     18  O   UNL A   1      31.460  21.116  25.652  1.00  0.00    -0.269 OA
ATOM     19  H   UNL A   1      32.204  23.323  25.648  1.00  0.00     0.172 HD
BRANCH  17  20
ATOM     20  C   UNL A   1      32.948  20.591  23.940  1.00  0.00     0.082 A 
ATOM     21  C   UNL A   1      34.066  19.675  24.906  1.00  0.00     0.134 A 
ATOM     22  C   UNL A   1      34.313  17.676  24.560  1.00  0.00    -0.008 A 
ATOM     23  C   UNL A   1      35.204  16.502  25.090  1.00  0.00     0.048 C 
ATOM     24  C   UNL A   1      33.427  16.984  23.113  1.00  0.00     0.007 A 
ATOM     25  C   UNL A   1      32.168  19.810  22.565  1.00  0.00     0.018 A 
ATOM     26  C   UNL A   1      32.407  18.082  22.139  1.00  0.00     0.001 A 
BRANCH  21  27
ATOM     27  O   UNL A   1      35.094  20.838  25.024  1.00  0.00    -0.496 OA
ATOM     28  C   UNL A   1      36.529  20.720  24.979  1.00  0.00     0.278 C 
ENDBRANCH  21  27
ENDBRANCH  17  20
ENDBRANCH  14  16
ENDBRANCH  12  14
ENDBRANCH   6  12
ENDBRANCH   1   5
BRANCH   3  29
ATOM     29  C   UNL A   1      34.821  29.814  27.562  1.00  0.00     0.118 C 
BRANCH  29  30
ATOM     30  C   UNL A   1      35.598  31.064  27.944  1.00  0.00     0.042 C 
BRANCH  30  31
ATOM     31  C   UNL A   1      35.624  31.288  29.443  1.00  0.00     0.118 C 
BRANCH  31  32
ATOM     32  N   UNL A   1      34.799  32.429  29.801  1.00  0.00    -0.352 N 
ATOM     33  C   UNL A   1      34.761  33.174  30.956  1.00  0.00     0.251 C 
ATOM     34  H   UNL A   1      34.165  32.714  29.103  1.00  0.00     0.163 HD
ATOM     35  O   UNL A   1      33.741  33.810  31.214  1.00  0.00    -0.269 OA
BRANCH  33  36
ATOM     36  C   UNL A   1      36.018  33.452  31.705  1.00  0.00     0.039 A 
ATOM     37  C   UNL A   1      36.992  34.082  30.913  1.00  0.00     0.014 A 
ATOM     38  C   UNL A   1      36.401  32.616  32.743  1.00  0.00     0.014 A 
ATOM     39  C   UNL A   1      38.272  33.562  30.890  1.00  0.00     0.010 A 
ATOM     40  C   UNL A   1      37.601  31.981  32.617  1.00  0.00     0.010 A 
ATOM     41  C   UNL A   1      38.495  32.420  31.641  1.00  0.00    -0.014 A 
BRANCH  41  42
ATOM     42  C   UNL A   1      39.717  31.662  31.636  1.00  0.00     0.031 A 
ATOM     43  C   UNL A   1      39.695  30.493  30.750  1.00  0.00     0.074 A 
ATOM     44  C   UNL A   1      40.786  32.250  32.216  1.00  0.00     0.049 A 
ATOM     45  N   UNL A   1      40.545  29.542  30.775  1.00  0.00    -0.248 NA
ATOM     46  C   UNL A   1      38.633  30.272  29.762  1.00  0.00     0.031 C 
ATOM     47  C   UNL A   1      42.205  31.960  32.083  1.00  0.00     0.029 A 
ATOM     48  N   UNL A   1      40.734  33.197  33.250  1.00  0.00    -0.354 N 
ATOM     49  C   UNL A   1      40.364  28.795  29.628  1.00  0.00     0.074 A 
ATOM     50  C   UNL A   1      39.087  29.201  29.111  1.00  0.00     0.031 C 
ATOM     51  C   UNL A   1      42.845  32.425  33.175  1.00  0.00     0.029 A 
ATOM     52  C   UNL A   1      41.826  32.910  34.096  1.00  0.00     0.049 A 
ATOM     53  H   UNL A   1      40.070  33.916  33.363  1.00  0.00     0.167 HD
ATOM     54  C   UNL A   1      41.423  28.053  29.198  1.00  0.00     0.037 A 
ATOM     55  C   UNL A   1      41.573  32.374  35.330  1.00  0.00     0.037 A 
ATOM     56  C   UNL A   1      42.483  28.137  30.210  1.00  0.00     0.049 A 
ATOM     57  C   UNL A   1      42.004  30.923  35.386  1.00  0.00     0.074 A 
ATOM     58  C   UNL A   1      43.573  28.982  30.336  1.00  0.00     0.029 A 
ATOM     59  N   UNL A   1      42.226  27.630  31.479  1.00  0.00    -0.354 N 
ATOM     60  N   UNL A   1      42.068  30.134  34.342  1.00  0.00    -0.248 NA
ATOM     61  C   UNL A   1      42.496  30.286  36.604  1.00  0.00     0.031 C 
ATOM     62  C   UNL A   1      43.890  29.067  31.722  1.00  0.00     0.029 A 
ATOM     63  C   UNL A   1      43.011  28.261  32.428  1.00  0.00     0.049 A 
ATOM     64  H   UNL A   1      41.575  26.917  31.675  1.00  0.00     0.167 HD
ATOM     65  C   UNL A   1      42.627  28.939  34.710  1.00  0.00     0.074 A 
ATOM     66  C   UNL A   1      42.874  29.084  36.135  1.00  0.00     0.031 C 
ATOM     67  C   UNL A   1      42.873  27.915  33.838  1.00  0.00     0.037 A 
BRANCH  54  68
ATOM     68  C   UNL A   1      41.636  27.481  27.814  1.00  0.00     0.057 A 
ATOM     69  C   UNL A   1      41.650  26.081  27.639  1.00  0.00     0.134 A 
ATOM     70  C   UNL A   1      41.887  28.204  26.632  1.00  0.00     0.134 A 
ATOM     71  F   UNL A   1      41.392  25.244  28.652  1.00  0.00    -0.206 F 
ATOM     72  C   UNL A   1      41.936  25.460  26.415  1.00  0.00     0.040 A 
ATOM     73  C   UNL A   1      42.182  27.594  25.402  1.00  0.00     0.040 A 
ATOM     74  F   UNL A   1      41.840  29.535  26.578  1.00  0.00    -0.206 F 
ATOM     75  C   UNL A   1      42.214  26.216  25.290  1.00  0.00     0.006 A 
ENDBRANCH  54  68
BRANCH  55  76
ATOM     76  C   UNL A   1      40.341  32.976  35.938  1.00  0.00     0.057 A 
ATOM     77  C   UNL A   1      39.223  32.125  36.082  1.00  0.00     0.134 A 
ATOM     78  C   UNL A   1      40.404  34.076  36.799  1.00  0.00     0.134 A 
ATOM     79  F   UNL A   1      39.072  31.072  35.262  1.00  0.00    -0.206 F 
ATOM     80  C   UNL A   1      38.343  32.232  37.163  1.00  0.00     0.040 A 
ATOM     81  C   UNL A   1      39.501  34.212  37.863  1.00  0.00     0.040 A 
ATOM     82  F   UNL A   1      41.415  34.952  36.717  1.00  0.00    -0.206 F 
ATOM     83  C   UNL A   1      38.516  33.251  38.091  1.00  0.00     0.006 A 
ENDBRANCH  55  76
BRANCH  67  84
ATOM     84  C   UNL A   1      43.079  26.478  34.255  1.00  0.00     0.057 A 
ATOM     85  C   UNL A   1      44.320  25.827  34.206  1.00  0.00     0.134 A 
ATOM     86  C   UNL A   1      42.049  25.749  34.892  1.00  0.00     0.134 A 
ATOM     87  F   UNL A   1      45.428  26.444  33.775  1.00  0.00    -0.206 F 
ATOM     88  C   UNL A   1      44.498  24.516  34.657  1.00  0.00     0.040 A 
ATOM     89  C   UNL A   1      42.239  24.475  35.428  1.00  0.00     0.040 A 
ATOM     90  F   UNL A   1      40.816  26.251  35.057  1.00  0.00    -0.206 F 
ATOM     91  C   UNL A   1      43.460  23.839  35.283  1.00  0.00     0.006 A 
ENDBRANCH  67  84
ENDBRANCH  41  42
ENDBRANCH  33  36
ENDBRANCH  31  32
ENDBRANCH  30  31
ENDBRANCH  29  30
ENDBRANCH   3  29
TORSDOF 15
ENDMDL
MODEL 2
REMARK VINA RESULT:     -12.5      1.658      2.810
REMARK SMILES COc1c(C)cccc1C(=O)NC(=S)Nc1ccc(C(=O)NCCCNC(=O)c2ccc(-c3c4nc(c(-c5c(F)cccc5F)c5ccc([nH]5)c(-c5c(F)cccc5F)c5nc(c(-c6c(F)cccc6F)c6ccc3[nH]6)C=C5)C=C4)cc2)cc1C
REMARK SMILES IDX 20 1 21 2 22 3 19 5 16 6 17 7 84 8 18 9 83 10 85 11 15 12
REMARK SMILES IDX 13 14 14 15 12 16 10 17 11 18 9 20 3 21 4 22 5 23 6 24 8 25
REMARK SMILES IDX 7 26 2 27 1 28 23 29 24 30 25 31 26 32 27 33 28 35 29 36
REMARK SMILES IDX 30 37 82 38 31 39 81 40 32 41 33 42 34 43 75 44 35 45 80 46
REMARK SMILES IDX 74 47 76 48 36 49 79 50 73 51 72 52 37 54 63 55 46 56 62 57
REMARK SMILES IDX 47 58 50 59 61 60 77 61 48 62 49 63 60 65 78 66 51 67 38 68
REMARK SMILES IDX 39 69 44 70 40 71 41 72 43 73 45 74 42 75 64 76 65 77 70 78
REMARK SMILES IDX 66 79 67 80 69 81 71 82 68 83 52 84 53 85 58 86 54 87 55 88
REMARK SMILES IDX 57 89 59 90 56 91
REMARK H PARENT 22 4 15 13 12 19 26 34 76 53 50 64
REMARK Flexibility Score: inf
ROOT
ATOM      1  C   UNL A   1      33.284  28.851  24.885  1.00  0.00     0.251 C 
ATOM      2  O   UNL A   1      33.756  29.292  23.838  1.00  0.00    -0.269 OA
ATOM      3  N   UNL A   1      33.103  29.720  25.934  1.00  0.00    -0.352 N 
ATOM      4  H   UNL A   1      32.578  30.540  25.784  1.00  0.00     0.163 HD
ENDROOT
BRANCH   1   5
ATOM      5  C   UNL A   1      32.901  27.352  25.017  1.00  0.00     0.040 A 
ATOM      6  C   UNL A   1      31.613  24.022  24.399  1.00  0.00     0.043 A 
ATOM      7  C   UNL A   1      32.367  25.001  23.072  1.00  0.00     0.027 A 
ATOM      8  C   UNL A   1      31.211  24.663  25.915  1.00  0.00    -0.027 A 
ATOM      9  C   UNL A   1      33.025  26.673  23.328  1.00  0.00     0.016 A 
ATOM     10  C   UNL A   1      31.854  26.214  26.335  1.00  0.00     0.019 A 
ATOM     11  C   UNL A   1      29.928  24.224  26.561  1.00  0.00     0.046 C 
BRANCH   6  12
ATOM     12  N   UNL A   1      32.342  22.813  24.780  1.00  0.00    -0.332 N 
ATOM     13  H   UNL A   1      32.166  22.505  25.698  1.00  0.00     0.169 HD
BRANCH  12  14
ATOM     14  C   UNL A   1      33.243  22.024  24.069  1.00  0.00     0.177 C 
ATOM     15  S   UNL A   1      32.685  20.510  23.581  1.00  0.00    -0.040 S 
BRANCH  14  16
ATOM     16  N   UNL A   1      34.545  22.367  23.573  1.00  0.00    -0.299 N 
ATOM     17  C   UNL A   1      35.975  22.717  23.719  1.00  0.00     0.261 C 
ATOM     18  O   UNL A   1      36.639  23.052  22.740  1.00  0.00    -0.269 OA
ATOM     19  H   UNL A   1      34.415  22.372  22.597  1.00  0.00     0.172 HD
BRANCH  17  20
ATOM     20  C   UNL A   1      36.632  22.655  25.034  1.00  0.00     0.082 A 
ATOM     21  C   UNL A   1      37.521  21.161  25.043  1.00  0.00     0.134 A 
ATOM     22  C   UNL A   1      39.365  21.078  25.922  1.00  0.00    -0.008 A 
ATOM     23  C   UNL A   1      40.463  20.005  26.229  1.00  0.00     0.048 C 
ATOM     24  C   UNL A   1      39.917  22.588  26.801  1.00  0.00     0.007 A 
ATOM     25  C   UNL A   1      37.267  24.034  25.931  1.00  0.00     0.018 A 
ATOM     26  C   UNL A   1      38.834  24.010  26.808  1.00  0.00     0.001 A 
BRANCH  21  27
ATOM     27  O   UNL A   1      36.254  20.275  25.217  1.00  0.00    -0.496 OA
ATOM     28  C   UNL A   1      36.038  18.967  24.652  1.00  0.00     0.278 C 
ENDBRANCH  21  27
ENDBRANCH  17  20
ENDBRANCH  14  16
ENDBRANCH  12  14
ENDBRANCH   6  12
ENDBRANCH   1   5
BRANCH   3  29
ATOM     29  C   UNL A   1      33.653  29.477  27.243  1.00  0.00     0.118 C 
BRANCH  29  30
ATOM     30  C   UNL A   1      35.166  29.375  27.133  1.00  0.00     0.042 C 
BRANCH  30  31
ATOM     31  C   UNL A   1      35.872  30.517  27.839  1.00  0.00     0.118 C 
BRANCH  31  32
ATOM     32  N   UNL A   1      34.975  31.648  27.996  1.00  0.00    -0.352 N 
ATOM     33  C   UNL A   1      34.719  32.437  29.094  1.00  0.00     0.251 C 
ATOM     34  H   UNL A   1      34.469  31.890  27.186  1.00  0.00     0.163 HD
ATOM     35  O   UNL A   1      33.658  33.055  29.141  1.00  0.00    -0.269 OA
BRANCH  33  36
ATOM     36  C   UNL A   1      35.818  32.776  30.041  1.00  0.00     0.039 A 
ATOM     37  C   UNL A   1      36.861  33.488  29.426  1.00  0.00     0.014 A 
ATOM     38  C   UNL A   1      36.087  31.939  31.113  1.00  0.00     0.014 A 
ATOM     39  C   UNL A   1      38.160  33.054  29.602  1.00  0.00     0.010 A 
ATOM     40  C   UNL A   1      37.332  31.387  31.173  1.00  0.00     0.010 A 
ATOM     41  C   UNL A   1      38.338  31.909  30.361  1.00  0.00    -0.014 A 
BRANCH  41  42
ATOM     42  C   UNL A   1      39.594  31.233  30.541  1.00  0.00     0.031 A 
ATOM     43  C   UNL A   1      39.701  29.961  29.817  1.00  0.00     0.074 A 
ATOM     44  C   UNL A   1      40.583  31.954  31.113  1.00  0.00     0.049 A 
ATOM     45  N   UNL A   1      40.595  29.076  30.026  1.00  0.00    -0.248 NA
ATOM     46  C   UNL A   1      38.732  29.553  28.794  1.00  0.00     0.031 C 
ATOM     47  C   UNL A   1      42.022  31.737  31.120  1.00  0.00     0.029 A 
ATOM     48  N   UNL A   1      40.402  33.019  32.009  1.00  0.00    -0.354 N 
ATOM     49  C   UNL A   1      40.543  28.180  28.976  1.00  0.00     0.074 A 
ATOM     50  C   UNL A   1      39.290  28.438  28.321  1.00  0.00     0.031 C 
ATOM     51  C   UNL A   1      42.549  32.375  32.184  1.00  0.00     0.029 A 
ATOM     52  C   UNL A   1      41.438  32.909  32.960  1.00  0.00     0.049 A 
ATOM     53  H   UNL A   1      39.695  33.705  31.979  1.00  0.00     0.167 HD
ATOM     54  C   UNL A   1      41.668  27.455  28.723  1.00  0.00     0.037 A 
ATOM     55  C   UNL A   1      41.117  32.519  34.232  1.00  0.00     0.037 A 
ATOM     56  C   UNL A   1      42.640  27.732  29.787  1.00  0.00     0.049 A 
ATOM     57  C   UNL A   1      41.617  31.116  34.508  1.00  0.00     0.074 A 
ATOM     58  C   UNL A   1      43.673  28.650  29.879  1.00  0.00     0.029 A 
ATOM     59  N   UNL A   1      42.313  27.374  31.091  1.00  0.00    -0.354 N 
ATOM     60  N   UNL A   1      41.803  30.206  33.584  1.00  0.00    -0.248 NA
ATOM     61  C   UNL A   1      42.045  30.669  35.830  1.00  0.00     0.031 C 
ATOM     62  C   UNL A   1      43.876  28.930  31.261  1.00  0.00     0.029 A 
ATOM     63  C   UNL A   1      42.987  28.167  32.002  1.00  0.00     0.049 A 
ATOM     64  H   UNL A   1      41.686  26.654  31.332  1.00  0.00     0.167 HD
ATOM     65  C   UNL A   1      42.392  29.104  34.143  1.00  0.00     0.074 A 
ATOM     66  C   UNL A   1      42.520  29.443  35.550  1.00  0.00     0.031 C 
ATOM     67  C   UNL A   1      42.757  27.995  33.431  1.00  0.00     0.037 A 
BRANCH  54  68
ATOM     68  C   UNL A   1      42.017  26.727  27.444  1.00  0.00     0.057 A 
ATOM     69  C   UNL A   1      42.347  25.356  27.497  1.00  0.00     0.134 A 
ATOM     70  C   UNL A   1      42.112  27.284  26.154  1.00  0.00     0.134 A 
ATOM     71  F   UNL A   1      42.273  24.659  28.639  1.00  0.00    -0.206 F 
ATOM     72  C   UNL A   1      42.777  24.622  26.382  1.00  0.00     0.040 A 
ATOM     73  C   UNL A   1      42.548  26.563  25.032  1.00  0.00     0.040 A 
ATOM     74  F   UNL A   1      41.769  28.544  25.888  1.00  0.00    -0.206 F 
ATOM     75  C   UNL A   1      42.889  25.227  25.143  1.00  0.00     0.006 A 
ENDBRANCH  54  68
BRANCH  55  76
ATOM     76  C   UNL A   1      39.813  33.117  34.668  1.00  0.00     0.057 A 
ATOM     77  C   UNL A   1      38.716  32.234  34.779  1.00  0.00     0.134 A 
ATOM     78  C   UNL A   1      39.755  34.286  35.432  1.00  0.00     0.134 A 
ATOM     79  F   UNL A   1      38.681  31.112  34.042  1.00  0.00    -0.206 F 
ATOM     80  C   UNL A   1      37.732  32.393  35.760  1.00  0.00     0.040 A 
ATOM     81  C   UNL A   1      38.749  34.472  36.392  1.00  0.00     0.040 A 
ATOM     82  F   UNL A   1      40.739  35.194  35.370  1.00  0.00    -0.206 F 
ATOM     83  C   UNL A   1      37.779  33.492  36.608  1.00  0.00     0.006 A 
ENDBRANCH  55  76
BRANCH  67  84
ATOM     84  C   UNL A   1      43.005  26.638  34.046  1.00  0.00     0.057 A 
ATOM     85  C   UNL A   1      42.023  25.904  34.728  1.00  0.00     0.134 A 
ATOM     86  C   UNL A   1      44.214  25.942  33.816  1.00  0.00     0.134 A 
ATOM     87  F   UNL A   1      40.775  26.366  34.887  1.00  0.00    -0.206 F 
ATOM     88  C   UNL A   1      42.260  24.622  35.234  1.00  0.00     0.040 A 
ATOM     89  C   UNL A   1      44.428  24.630  34.237  1.00  0.00     0.040 A 
ATOM     90  F   UNL A   1      45.235  26.490  33.140  1.00  0.00    -0.206 F 
ATOM     91  C   UNL A   1      43.459  23.975  34.978  1.00  0.00     0.006 A 
ENDBRANCH  67  84
ENDBRANCH  41  42
ENDBRANCH  33  36
ENDBRANCH  31  32
ENDBRANCH  30  31
ENDBRANCH  29  30
ENDBRANCH   3  29
TORSDOF 15
ENDMDL
MODEL 3
REMARK VINA RESULT:     -12.5      1.799      2.957
REMARK SMILES COc1c(C)cccc1C(=O)NC(=S)Nc1ccc(C(=O)NCCCNC(=O)c2ccc(-c3c4nc(c(-c5c(F)cccc5F)c5ccc([nH]5)c(-c5c(F)cccc5F)c5nc(c(-c6c(F)cccc6F)c6ccc3[nH]6)C=C5)C=C4)cc2)cc1C
REMARK SMILES IDX 20 1 21 2 22 3 19 5 16 6 17 7 84 8 18 9 83 10 85 11 15 12
REMARK SMILES IDX 13 14 14 15 12 16 10 17 11 18 9 20 3 21 4 22 5 23 6 24 8 25
REMARK SMILES IDX 7 26 2 27 1 28 23 29 24 30 25 31 26 32 27 33 28 35 29 36
REMARK SMILES IDX 30 37 82 38 31 39 81 40 32 41 33 42 34 43 75 44 35 45 80 46
REMARK SMILES IDX 74 47 76 48 36 49 79 50 73 51 72 52 37 54 63 55 46 56 62 57
REMARK SMILES IDX 47 58 50 59 61 60 77 61 48 62 49 63 60 65 78 66 51 67 38 68
REMARK SMILES IDX 39 69 44 70 40 71 41 72 43 73 45 74 42 75 64 76 65 77 70 78
REMARK SMILES IDX 66 79 67 80 69 81 71 82 68 83 52 84 53 85 58 86 54 87 55 88
REMARK SMILES IDX 57 89 59 90 56 91
REMARK H PARENT 22 4 15 13 12 19 26 34 76 53 50 64
REMARK Flexibility Score: inf
ROOT
ATOM      1  C   UNL A   1      34.477  31.801  28.109  1.00  0.00     0.251 C 
ATOM      2  O   UNL A   1      35.272  31.243  28.864  1.00  0.00    -0.269 OA
ATOM      3  N   UNL A   1      34.501  33.174  28.040  1.00  0.00    -0.352 N 
ATOM      4  H   UNL A   1      35.353  33.622  27.831  1.00  0.00     0.163 HD
ENDROOT
BRANCH   1   5
ATOM      5  C   UNL A   1      33.474  30.978  27.258  1.00  0.00     0.040 A 
ATOM      6  C   UNL A   1      31.928  29.015  24.633  1.00  0.00     0.043 A 
ATOM      7  C   UNL A   1      33.663  28.765  25.098  1.00  0.00     0.027 A 
ATOM      8  C   UNL A   1      30.999  30.325  25.173  1.00  0.00    -0.027 A 
ATOM      9  C   UNL A   1      34.485  29.722  26.403  1.00  0.00     0.016 A 
ATOM     10  C   UNL A   1      31.617  31.270  26.485  1.00  0.00     0.019 A 
ATOM     11  C   UNL A   1      30.053  30.978  24.207  1.00  0.00     0.046 C 
BRANCH   6  12
ATOM     12  N   UNL A   1      31.035  27.891  24.912  1.00  0.00    -0.332 N 
ATOM     13  H   UNL A   1      30.220  28.134  25.410  1.00  0.00     0.169 HD
BRANCH  12  14
ATOM     14  C   UNL A   1      31.137  26.539  24.598  1.00  0.00     0.177 C 
ATOM     15  S   UNL A   1      29.880  25.551  25.132  1.00  0.00    -0.040 S 
BRANCH  14  16
ATOM     16  N   UNL A   1      32.101  25.878  23.764  1.00  0.00    -0.299 N 
ATOM     17  C   UNL A   1      33.270  25.006  23.515  1.00  0.00     0.261 C 
ATOM     18  O   UNL A   1      33.745  24.908  22.386  1.00  0.00    -0.269 OA
ATOM     19  H   UNL A   1      31.840  26.162  22.858  1.00  0.00     0.172 HD
BRANCH  17  20
ATOM     20  C   UNL A   1      33.872  24.229  24.609  1.00  0.00     0.082 A 
ATOM     21  C   UNL A   1      33.315  22.597  24.387  1.00  0.00     0.134 A 
ATOM     22  C   UNL A   1      34.578  21.031  24.746  1.00  0.00    -0.008 A 
ATOM     23  C   UNL A   1      34.523  19.466  24.754  1.00  0.00     0.048 C 
ATOM     24  C   UNL A   1      36.220  21.451  25.443  1.00  0.00     0.007 A 
ATOM     25  C   UNL A   1      35.471  24.500  25.302  1.00  0.00     0.018 A 
ATOM     26  C   UNL A   1      36.603  23.173  25.732  1.00  0.00     0.001 A 
BRANCH  21  27
ATOM     27  O   UNL A   1      31.875  22.899  24.893  1.00  0.00    -0.496 OA
ATOM     28  C   UNL A   1      31.079  22.067  25.759  1.00  0.00     0.278 C 
ENDBRANCH  21  27
ENDBRANCH  17  20
ENDBRANCH  14  16
ENDBRANCH  12  14
ENDBRANCH   6  12
ENDBRANCH   1   5
BRANCH   3  29
ATOM     29  C   UNL A   1      33.327  33.980  28.259  1.00  0.00     0.118 C 
BRANCH  29  30
ATOM     30  C   UNL A   1      33.704  35.180  29.112  1.00  0.00     0.042 C 
BRANCH  30  31
ATOM     31  C   UNL A   1      33.169  35.071  30.527  1.00  0.00     0.118 C 
BRANCH  31  32
ATOM     32  N   UNL A   1      34.108  35.652  31.470  1.00  0.00    -0.352 N 
ATOM     33  C   UNL A   1      34.659  35.129  32.616  1.00  0.00     0.251 C 
ATOM     34  H   UNL A   1      34.396  36.569  31.254  1.00  0.00     0.163 HD
ATOM     35  O   UNL A   1      35.090  35.901  33.470  1.00  0.00    -0.269 OA
BRANCH  33  36
ATOM     36  C   UNL A   1      35.006  33.682  32.683  1.00  0.00     0.039 A 
ATOM     37  C   UNL A   1      35.560  33.315  33.920  1.00  0.00     0.014 A 
ATOM     38  C   UNL A   1      35.378  33.008  31.529  1.00  0.00     0.014 A 
ATOM     39  C   UNL A   1      36.742  32.599  33.937  1.00  0.00     0.010 A 
ATOM     40  C   UNL A   1      36.622  32.451  31.509  1.00  0.00     0.010 A 
ATOM     41  C   UNL A   1      37.319  32.318  32.709  1.00  0.00    -0.014 A 
BRANCH  41  42
ATOM     42  C   UNL A   1      38.607  31.705  32.530  1.00  0.00     0.031 A 
ATOM     43  C   UNL A   1      38.574  30.445  31.779  1.00  0.00     0.074 A 
ATOM     44  C   UNL A   1      39.678  32.473  32.828  1.00  0.00     0.049 A 
ATOM     45  N   UNL A   1      39.532  29.605  31.722  1.00  0.00    -0.248 NA
ATOM     46  C   UNL A   1      37.385  29.994  31.048  1.00  0.00     0.031 C 
ATOM     47  C   UNL A   1      41.074  32.329  32.441  1.00  0.00     0.029 A 
ATOM     48  N   UNL A   1      39.696  33.522  33.759  1.00  0.00    -0.354 N 
ATOM     49  C   UNL A   1      39.241  28.714  30.709  1.00  0.00     0.074 A 
ATOM     50  C   UNL A   1      37.847  28.911  30.421  1.00  0.00     0.031 C 
ATOM     51  C   UNL A   1      41.839  32.987  33.336  1.00  0.00     0.029 A 
ATOM     52  C   UNL A   1      40.955  33.459  34.393  1.00  0.00     0.049 A 
ATOM     53  H   UNL A   1      38.976  34.171  33.935  1.00  0.00     0.167 HD
ATOM     54  C   UNL A   1      40.289  28.049  30.147  1.00  0.00     0.037 A 
ATOM     55  C   UNL A   1      41.010  33.045  35.697  1.00  0.00     0.037 A 
ATOM     56  C   UNL A   1      41.498  28.368  30.914  1.00  0.00     0.049 A 
ATOM     57  C   UNL A   1      41.632  31.668  35.800  1.00  0.00     0.074 A 
ATOM     58  C   UNL A   1      42.472  29.338  30.741  1.00  0.00     0.029 A 
ATOM     59  N   UNL A   1      41.553  27.987  32.250  1.00  0.00    -0.354 N 
ATOM     60  N   UNL A   1      41.604  30.775  34.842  1.00  0.00    -0.248 NA
ATOM     61  C   UNL A   1      42.423  31.236  36.949  1.00  0.00     0.031 C 
ATOM     62  C   UNL A   1      43.029  29.620  32.022  1.00  0.00     0.029 A 
ATOM     63  C   UNL A   1      42.411  28.808  32.960  1.00  0.00     0.049 A 
ATOM     64  H   UNL A   1      41.050  27.235  32.638  1.00  0.00     0.167 HD
ATOM     65  C   UNL A   1      42.374  29.701  35.201  1.00  0.00     0.074 A 
ATOM     66  C   UNL A   1      42.862  30.038  36.527  1.00  0.00     0.031 C 
ATOM     67  C   UNL A   1      42.585  28.616  34.395  1.00  0.00     0.037 A 
BRANCH  54  68
ATOM     68  C   UNL A   1      40.313  27.347  28.807  1.00  0.00     0.057 A 
ATOM     69  C   UNL A   1      39.614  26.131  28.651  1.00  0.00     0.134 A 
ATOM     70  C   UNL A   1      41.023  27.746  27.658  1.00  0.00     0.134 A 
ATOM     71  F   UNL A   1      38.855  25.626  29.633  1.00  0.00    -0.206 F 
ATOM     72  C   UNL A   1      39.656  25.361  27.479  1.00  0.00     0.040 A 
ATOM     73  C   UNL A   1      41.081  26.980  26.482  1.00  0.00     0.040 A 
ATOM     74  F   UNL A   1      41.682  28.901  27.584  1.00  0.00    -0.206 F 
ATOM     75  C   UNL A   1      40.401  25.779  26.390  1.00  0.00     0.006 A 
ENDBRANCH  54  68
BRANCH  55  76
ATOM     76  C   UNL A   1      39.845  33.574  36.480  1.00  0.00     0.057 A 
ATOM     77  C   UNL A   1      38.907  32.624  36.940  1.00  0.00     0.134 A 
ATOM     78  C   UNL A   1      39.916  34.776  37.190  1.00  0.00     0.134 A 
ATOM     79  F   UNL A   1      38.751  31.463  36.283  1.00  0.00    -0.206 F 
ATOM     80  C   UNL A   1      38.243  32.767  38.163  1.00  0.00     0.040 A 
ATOM     81  C   UNL A   1      39.224  34.943  38.398  1.00  0.00     0.040 A 
ATOM     82  F   UNL A   1      40.760  35.746  36.810  1.00  0.00    -0.206 F 
ATOM     83  C   UNL A   1      38.445  33.911  38.923  1.00  0.00     0.006 A 
ENDBRANCH  55  76
BRANCH  67  84
ATOM     84  C   UNL A   1      43.054  27.270  34.894  1.00  0.00     0.057 A 
ATOM     85  C   UNL A   1      42.198  26.180  35.109  1.00  0.00     0.134 A 
ATOM     86  C   UNL A   1      44.432  26.975  35.011  1.00  0.00     0.134 A 
ATOM     87  F   UNL A   1      40.879  26.260  34.884  1.00  0.00    -0.206 F 
ATOM     88  C   UNL A   1      42.665  24.926  35.511  1.00  0.00     0.040 A 
ATOM     89  C   UNL A   1      44.913  25.704  35.323  1.00  0.00     0.040 A 
ATOM     90  F   UNL A   1      45.380  27.899  34.794  1.00  0.00    -0.206 F 
ATOM     91  C   UNL A   1      44.027  24.679  35.606  1.00  0.00     0.006 A 
ENDBRANCH  67  84
ENDBRANCH  41  42
ENDBRANCH  33  36
ENDBRANCH  31  32
ENDBRANCH  30  31
ENDBRANCH  29  30
ENDBRANCH   3  29
TORSDOF 15
ENDMDL
