MODEL 1
REMARK VINA RESULT:     -12.3      0.000      0.000
REMARK SMILES Cc1ccc(NS(=O)(=O)N2CCCC[C@@H]2C(=O)NCCCNC(=O)c2ccc(-c3c4nc(c(-c5c(F)cccc5F)c5ccc([nH]5)c(-c5c(F)cccc5F)c5nc(c(-c6c(F)cccc6F)c6ccc3[nH]6)C=C5)C=C4)cc2)c(C)n1
REMARK SMILES IDX 19 1 18 2 16 3 17 4 15 6 10 7 11 8 12 9 14 10 13 11 7 12
REMARK SMILES IDX 8 13 9 14 6 15 5 17 1 18 2 19 3 20 81 21 4 22 79 23 80 24
REMARK SMILES IDX 20 25 21 26 22 27 23 28 24 30 25 31 26 32 78 33 27 34 77 35
REMARK SMILES IDX 28 36 29 37 30 38 71 39 31 40 76 41 70 42 72 43 32 44 75 45
REMARK SMILES IDX 69 46 68 47 33 49 59 50 42 51 58 52 43 53 46 54 57 55 73 56
REMARK SMILES IDX 44 57 45 58 56 60 74 61 47 62 34 63 35 64 40 65 36 66 37 67
REMARK SMILES IDX 39 68 41 69 38 70 60 71 61 72 66 73 62 74 63 75 65 76 67 77
REMARK SMILES IDX 64 78 48 79 49 80 54 81 50 82 51 83 53 84 55 85 52 86
REMARK H PARENT 18 5 6 16 22 29 72 48 46 59
REMARK Flexibility Score: inf
ROOT
ATOM      1  C   UNL A   1      37.521  21.512  25.353  1.00  0.00     0.117 C 
ENDROOT
BRANCH   1   2
ATOM      2  N   UNL A   1      36.388  21.673  26.255  1.00  0.00    -0.355 N 
ATOM      3  C   UNL A   1      35.044  21.542  26.137  1.00  0.00     0.238 C 
ATOM      4  O   UNL A   1      34.442  21.558  27.220  1.00  0.00    -0.273 OA
ATOM      5  H   UNL A   1      36.664  21.939  27.162  1.00  0.00     0.163 HD
BRANCH   3   6
ATOM      6  C   UNL A   1      34.255  21.412  24.828  1.00  0.00     0.163 C 
ATOM      7  N   UNL A   1      33.697  22.676  24.216  1.00  0.00    -0.172 NA
ATOM      8  C   UNL A   1      33.085  22.395  22.874  1.00  0.00     0.105 C 
ATOM      9  C   UNL A   1      31.960  21.378  23.010  1.00  0.00     0.017 C 
ATOM     10  C   UNL A   1      33.184  20.311  24.901  1.00  0.00     0.030 C 
ATOM     11  C   UNL A   1      32.501  20.068  23.560  1.00  0.00     0.004 C 
BRANCH   7  12
ATOM     12  S   UNL A   1      34.798  23.979  24.101  1.00  0.00     0.302 S 
ATOM     13  O   UNL A   1      35.826  23.665  23.137  1.00  0.00    -0.189 OA
ATOM     14  O   UNL A   1      35.177  24.366  25.438  1.00  0.00    -0.189 OA
BRANCH  12  15
ATOM     15  N   UNL A   1      33.870  25.188  23.471  1.00  0.00    -0.269 N 
ATOM     16  H   UNL A   1      33.880  25.276  22.491  1.00  0.00     0.181 HD
BRANCH  15  17
ATOM     17  C   UNL A   1      33.045  26.130  24.182  1.00  0.00     0.071 A 
ATOM     18  C   UNL A   1      31.840  28.722  27.336  1.00  0.00     0.067 C 
ATOM     19  C   UNL A   1      32.171  27.949  26.098  1.00  0.00     0.038 A 
ATOM     20  C   UNL A   1      33.226  28.304  25.282  1.00  0.00     0.026 A 
ATOM     21  N   UNL A   1      31.493  26.801  25.915  1.00  0.00    -0.256 NA
ATOM     22  C   UNL A   1      33.671  27.380  24.339  1.00  0.00     0.030 A 
ATOM     23  C   UNL A   1      31.889  25.921  24.947  1.00  0.00     0.062 A 
ATOM     24  C   UNL A   1      30.953  24.762  24.880  1.00  0.00     0.069 C 
ENDBRANCH  15  17
ENDBRANCH  12  15
ENDBRANCH   7  12
ENDBRANCH   3   6
ENDBRANCH   1   2
BRANCH   1  25
ATOM     25  C   UNL A   1      38.722  22.389  25.726  1.00  0.00     0.042 C 
BRANCH  25  26
ATOM     26  C   UNL A   1      39.926  21.652  26.317  1.00  0.00     0.118 C 
BRANCH  26  27
ATOM     27  N   UNL A   1      41.179  21.847  25.603  1.00  0.00    -0.352 N 
ATOM     28  C   UNL A   1      42.101  22.866  25.617  1.00  0.00     0.251 C 
ATOM     29  H   UNL A   1      41.411  21.107  24.995  1.00  0.00     0.163 HD
ATOM     30  O   UNL A   1      43.076  22.808  24.870  1.00  0.00    -0.269 OA
BRANCH  28  31
ATOM     31  C   UNL A   1      41.936  24.051  26.482  1.00  0.00     0.039 A 
ATOM     32  C   UNL A   1      42.605  25.238  26.147  1.00  0.00     0.014 A 
ATOM     33  C   UNL A   1      41.203  23.983  27.663  1.00  0.00     0.014 A 
ATOM     34  C   UNL A   1      42.489  26.367  26.966  1.00  0.00     0.010 A 
ATOM     35  C   UNL A   1      41.017  25.125  28.430  1.00  0.00     0.010 A 
ATOM     36  C   UNL A   1      41.675  26.322  28.103  1.00  0.00    -0.014 A 
BRANCH  36  37
ATOM     37  C   UNL A   1      41.531  27.456  29.048  1.00  0.00     0.031 A 
ATOM     38  C   UNL A   1      42.377  27.460  30.292  1.00  0.00     0.074 A 
ATOM     39  C   UNL A   1      40.551  28.361  28.883  1.00  0.00     0.049 A 
ATOM     40  N   UNL A   1      42.212  28.116  31.410  1.00  0.00    -0.248 NA
ATOM     41  C   UNL A   1      43.533  26.546  30.293  1.00  0.00     0.031 C 
ATOM     42  C   UNL A   1      39.650  28.440  27.732  1.00  0.00     0.029 A 
ATOM     43  N   UNL A   1      40.114  29.358  29.718  1.00  0.00    -0.354 N 
ATOM     44  C   UNL A   1      43.197  27.642  32.269  1.00  0.00     0.074 A 
ATOM     45  C   UNL A   1      43.942  26.634  31.550  1.00  0.00     0.031 C 
ATOM     46  C   UNL A   1      38.754  29.418  27.944  1.00  0.00     0.029 A 
ATOM     47  C   UNL A   1      38.987  29.998  29.262  1.00  0.00     0.049 A 
ATOM     48  H   UNL A   1      40.563  29.592  30.562  1.00  0.00     0.167 HD
ATOM     49  C   UNL A   1      43.451  28.020  33.544  1.00  0.00     0.037 A 
ATOM     50  C   UNL A   1      38.210  30.922  29.860  1.00  0.00     0.037 A 
ATOM     51  C   UNL A   1      42.747  29.080  34.217  1.00  0.00     0.049 A 
ATOM     52  C   UNL A   1      38.560  31.381  31.249  1.00  0.00     0.074 A 
ATOM     53  C   UNL A   1      42.984  29.614  35.470  1.00  0.00     0.029 A 
ATOM     54  N   UNL A   1      41.677  29.776  33.676  1.00  0.00    -0.354 N 
ATOM     55  N   UNL A   1      39.512  30.952  32.045  1.00  0.00    -0.248 NA
ATOM     56  C   UNL A   1      37.733  32.451  31.823  1.00  0.00     0.031 C 
ATOM     57  C   UNL A   1      42.039  30.621  35.698  1.00  0.00     0.029 A 
ATOM     58  C   UNL A   1      41.238  30.735  34.572  1.00  0.00     0.049 A 
ATOM     59  H   UNL A   1      41.287  29.614  32.787  1.00  0.00     0.167 HD
ATOM     60  C   UNL A   1      39.411  31.713  33.201  1.00  0.00     0.074 A 
ATOM     61  C   UNL A   1      38.316  32.640  32.998  1.00  0.00     0.031 C 
ATOM     62  C   UNL A   1      40.154  31.652  34.334  1.00  0.00     0.037 A 
BRANCH  49  63
ATOM     63  C   UNL A   1      44.527  27.287  34.291  1.00  0.00     0.057 A 
ATOM     64  C   UNL A   1      45.862  27.710  34.280  1.00  0.00     0.134 A 
ATOM     65  C   UNL A   1      44.216  26.156  35.056  1.00  0.00     0.134 A 
ATOM     66  F   UNL A   1      46.230  28.777  33.556  1.00  0.00    -0.206 F 
ATOM     67  C   UNL A   1      46.853  27.020  34.981  1.00  0.00     0.040 A 
ATOM     68  C   UNL A   1      45.193  25.473  35.785  1.00  0.00     0.040 A 
ATOM     69  F   UNL A   1      42.956  25.698  35.115  1.00  0.00    -0.206 F 
ATOM     70  C   UNL A   1      46.518  25.903  35.743  1.00  0.00     0.006 A 
ENDBRANCH  49  63
BRANCH  50  71
ATOM     71  C   UNL A   1      37.029  31.473  29.151  1.00  0.00     0.057 A 
ATOM     72  C   UNL A   1      37.048  32.772  28.629  1.00  0.00     0.134 A 
ATOM     73  C   UNL A   1      35.860  30.723  28.972  1.00  0.00     0.134 A 
ATOM     74  F   UNL A   1      38.132  33.545  28.785  1.00  0.00    -0.206 F 
ATOM     75  C   UNL A   1      35.940  33.313  27.973  1.00  0.00     0.040 A 
ATOM     76  C   UNL A   1      34.754  31.244  28.297  1.00  0.00     0.040 A 
ATOM     77  F   UNL A   1      35.782  29.469  29.439  1.00  0.00    -0.206 F 
ATOM     78  C   UNL A   1      34.790  32.545  27.801  1.00  0.00     0.006 A 
ENDBRANCH  50  71
BRANCH  62  79
ATOM     79  C   UNL A   1      39.828  32.634  35.417  1.00  0.00     0.057 A 
ATOM     80  C   UNL A   1      40.344  33.935  35.410  1.00  0.00     0.134 A 
ATOM     81  C   UNL A   1      38.954  32.285  36.454  1.00  0.00     0.134 A 
ATOM     82  F   UNL A   1      41.196  34.322  34.449  1.00  0.00    -0.206 F 
ATOM     83  C   UNL A   1      40.012  34.854  36.407  1.00  0.00     0.040 A 
ATOM     84  C   UNL A   1      38.597  33.201  37.443  1.00  0.00     0.040 A 
ATOM     85  F   UNL A   1      38.420  31.056  36.511  1.00  0.00    -0.206 F 
ATOM     86  C   UNL A   1      39.131  34.489  37.423  1.00  0.00     0.006 A 
ENDBRANCH  62  79
ENDBRANCH  36  37
ENDBRANCH  28  31
ENDBRANCH  26  27
ENDBRANCH  25  26
ENDBRANCH   1  25
TORSDOF 13
ENDMDL
MODEL 2
REMARK VINA RESULT:     -12.1      4.280      9.121
REMARK SMILES Cc1ccc(NS(=O)(=O)N2CCCC[C@@H]2C(=O)NCCCNC(=O)c2ccc(-c3c4nc(c(-c5c(F)cccc5F)c5ccc([nH]5)c(-c5c(F)cccc5F)c5nc(c(-c6c(F)cccc6F)c6ccc3[nH]6)C=C5)C=C4)cc2)c(C)n1
REMARK SMILES IDX 19 1 18 2 16 3 17 4 15 6 10 7 11 8 12 9 14 10 13 11 7 12
REMARK SMILES IDX 8 13 9 14 6 15 5 17 1 18 2 19 3 20 81 21 4 22 79 23 80 24
REMARK SMILES IDX 20 25 21 26 22 27 23 28 24 30 25 31 26 32 78 33 27 34 77 35
REMARK SMILES IDX 28 36 29 37 30 38 71 39 31 40 76 41 70 42 72 43 32 44 75 45
REMARK SMILES IDX 69 46 68 47 33 49 59 50 42 51 58 52 43 53 46 54 57 55 73 56
REMARK SMILES IDX 44 57 45 58 56 60 74 61 47 62 34 63 35 64 40 65 36 66 37 67
REMARK SMILES IDX 39 68 41 69 38 70 60 71 61 72 66 73 62 74 63 75 65 76 67 77
REMARK SMILES IDX 64 78 48 79 49 80 54 81 50 82 51 83 53 84 55 85 52 86
REMARK H PARENT 18 5 6 16 22 29 72 48 46 59
REMARK Flexibility Score: inf
ROOT
ATOM      1  C   UNL A   1      33.043  30.456  26.338  1.00  0.00     0.117 C 
ENDROOT
BRANCH   1   2
ATOM      2  N   UNL A   1      33.629  29.447  25.465  1.00  0.00    -0.355 N 
ATOM      3  C   UNL A   1      33.135  28.506  24.622  1.00  0.00     0.238 C 
ATOM      4  O   UNL A   1      33.992  27.990  23.890  1.00  0.00    -0.273 OA
ATOM      5  H   UNL A   1      34.612  29.450  25.494  1.00  0.00     0.163 HD
BRANCH   3   6
ATOM      6  C   UNL A   1      31.676  28.041  24.535  1.00  0.00     0.163 C 
ATOM      7  N   UNL A   1      31.381  26.593  24.855  1.00  0.00    -0.172 NA
ATOM      8  C   UNL A   1      29.901  26.340  24.865  1.00  0.00     0.105 C 
ATOM      9  C   UNL A   1      29.299  26.674  23.508  1.00  0.00     0.017 C 
ATOM     10  C   UNL A   1      31.008  28.464  23.216  1.00  0.00     0.030 C 
ATOM     11  C   UNL A   1      29.518  28.144  23.184  1.00  0.00     0.004 C 
BRANCH   7  12
ATOM     12  S   UNL A   1      32.091  26.006  26.294  1.00  0.00     0.302 S 
ATOM     13  O   UNL A   1      31.290  24.931  26.830  1.00  0.00    -0.189 OA
ATOM     14  O   UNL A   1      32.411  27.135  27.132  1.00  0.00    -0.189 OA
BRANCH  12  15
ATOM     15  N   UNL A   1      33.511  25.357  25.761  1.00  0.00    -0.269 N 
ATOM     16  H   UNL A   1      34.239  25.995  25.583  1.00  0.00     0.181 HD
BRANCH  15  17
ATOM     17  C   UNL A   1      33.815  23.969  25.527  1.00  0.00     0.071 A 
ATOM     18  C   UNL A   1      36.213  20.492  25.001  1.00  0.00     0.067 C 
ATOM     19  C   UNL A   1      35.230  21.585  25.275  1.00  0.00     0.038 A 
ATOM     20  C   UNL A   1      35.103  22.150  26.528  1.00  0.00     0.026 A 
ATOM     21  N   UNL A   1      34.597  22.098  24.203  1.00  0.00    -0.256 NA
ATOM     22  C   UNL A   1      34.411  23.354  26.643  1.00  0.00     0.030 A 
ATOM     23  C   UNL A   1      33.864  23.245  24.327  1.00  0.00     0.062 A 
ATOM     24  C   UNL A   1      33.201  23.583  23.035  1.00  0.00     0.069 C 
ENDBRANCH  15  17
ENDBRANCH  12  15
ENDBRANCH   7  12
ENDBRANCH   3   6
ENDBRANCH   1   2
BRANCH   1  25
ATOM     25  C   UNL A   1      33.772  30.592  27.680  1.00  0.00     0.042 C 
BRANCH  25  26
ATOM     26  C   UNL A   1      34.187  32.012  28.070  1.00  0.00     0.118 C 
BRANCH  26  27
ATOM     27  N   UNL A   1      34.130  32.302  29.495  1.00  0.00    -0.352 N 
ATOM     28  C   UNL A   1      35.005  32.048  30.524  1.00  0.00     0.251 C 
ATOM     29  H   UNL A   1      33.310  32.770  29.775  1.00  0.00     0.163 HD
ATOM     30  O   UNL A   1      34.695  32.362  31.671  1.00  0.00    -0.269 OA
BRANCH  28  31
ATOM     31  C   UNL A   1      36.299  31.373  30.295  1.00  0.00     0.039 A 
ATOM     32  C   UNL A   1      36.881  30.641  31.341  1.00  0.00     0.014 A 
ATOM     33  C   UNL A   1      36.987  31.524  29.094  1.00  0.00     0.014 A 
ATOM     34  C   UNL A   1      38.120  30.017  31.160  1.00  0.00     0.010 A 
ATOM     35  C   UNL A   1      38.173  30.836  28.884  1.00  0.00     0.010 A 
ATOM     36  C   UNL A   1      38.763  30.094  29.920  1.00  0.00    -0.014 A 
BRANCH  36  37
ATOM     37  C   UNL A   1      40.097  29.501  29.656  1.00  0.00     0.031 A 
ATOM     38  C   UNL A   1      41.288  30.419  29.600  1.00  0.00     0.074 A 
ATOM     39  C   UNL A   1      40.211  28.208  29.306  1.00  0.00     0.049 A 
ATOM     40  N   UNL A   1      42.464  30.227  29.064  1.00  0.00    -0.248 NA
ATOM     41  C   UNL A   1      41.099  31.763  30.172  1.00  0.00     0.031 C 
ATOM     42  C   UNL A   1      39.123  27.230  29.296  1.00  0.00     0.029 A 
ATOM     43  N   UNL A   1      41.294  27.508  28.835  1.00  0.00    -0.354 N 
ATOM     44  C   UNL A   1      43.127  31.443  29.170  1.00  0.00     0.074 A 
ATOM     45  C   UNL A   1      42.217  32.371  29.805  1.00  0.00     0.031 C 
ATOM     46  C   UNL A   1      39.588  26.062  28.821  1.00  0.00     0.029 A 
ATOM     47  C   UNL A   1      40.989  26.225  28.450  1.00  0.00     0.049 A 
ATOM     48  H   UNL A   1      42.200  27.888  28.779  1.00  0.00     0.167 HD
ATOM     49  C   UNL A   1      44.383  31.753  28.772  1.00  0.00     0.037 A 
ATOM     50  C   UNL A   1      41.749  25.300  27.831  1.00  0.00     0.037 A 
ATOM     51  C   UNL A   1      45.300  30.796  28.211  1.00  0.00     0.049 A 
ATOM     52  C   UNL A   1      43.167  25.646  27.468  1.00  0.00     0.074 A 
ATOM     53  C   UNL A   1      46.626  30.973  27.864  1.00  0.00     0.029 A 
ATOM     54  N   UNL A   1      44.982  29.475  27.935  1.00  0.00    -0.354 N 
ATOM     55  N   UNL A   1      43.798  26.789  27.600  1.00  0.00    -0.248 NA
ATOM     56  C   UNL A   1      43.979  24.576  26.873  1.00  0.00     0.031 C 
ATOM     57  C   UNL A   1      47.106  29.762  27.353  1.00  0.00     0.029 A 
ATOM     58  C   UNL A   1      46.087  28.823  27.416  1.00  0.00     0.049 A 
ATOM     59  H   UNL A   1      44.102  29.061  28.085  1.00  0.00     0.167 HD
ATOM     60  C   UNL A   1      45.084  26.569  27.126  1.00  0.00     0.074 A 
ATOM     61  C   UNL A   1      45.148  25.181  26.717  1.00  0.00     0.031 C 
ATOM     62  C   UNL A   1      46.122  27.437  27.032  1.00  0.00     0.037 A 
BRANCH  49  63
ATOM     63  C   UNL A   1      44.836  33.176  28.925  1.00  0.00     0.057 A 
ATOM     64  C   UNL A   1      44.583  34.148  27.949  1.00  0.00     0.134 A 
ATOM     65  C   UNL A   1      45.511  33.586  30.082  1.00  0.00     0.134 A 
ATOM     66  F   UNL A   1      43.953  33.820  26.811  1.00  0.00    -0.206 F 
ATOM     67  C   UNL A   1      45.007  35.469  28.106  1.00  0.00     0.040 A 
ATOM     68  C   UNL A   1      45.916  34.910  30.263  1.00  0.00     0.040 A 
ATOM     69  F   UNL A   1      45.784  32.708  31.059  1.00  0.00    -0.206 F 
ATOM     70  C   UNL A   1      45.669  35.855  29.269  1.00  0.00     0.006 A 
ENDBRANCH  49  63
BRANCH  50  71
ATOM     71  C   UNL A   1      41.186  23.964  27.517  1.00  0.00     0.057 A 
ATOM     72  C   UNL A   1      41.586  22.831  28.234  1.00  0.00     0.134 A 
ATOM     73  C   UNL A   1      40.237  23.784  26.503  1.00  0.00     0.134 A 
ATOM     74  F   UNL A   1      42.505  22.938  29.204  1.00  0.00    -0.206 F 
ATOM     75  C   UNL A   1      41.079  21.563  27.942  1.00  0.00     0.040 A 
ATOM     76  C   UNL A   1      39.705  22.525  26.216  1.00  0.00     0.040 A 
ATOM     77  F   UNL A   1      39.805  24.831  25.786  1.00  0.00    -0.206 F 
ATOM     78  C   UNL A   1      40.131  21.409  26.933  1.00  0.00     0.006 A 
ENDBRANCH  50  71
BRANCH  62  79
ATOM     79  C   UNL A   1      47.416  26.898  26.502  1.00  0.00     0.057 A 
ATOM     80  C   UNL A   1      47.729  26.945  25.139  1.00  0.00     0.134 A 
ATOM     81  C   UNL A   1      48.375  26.368  27.373  1.00  0.00     0.134 A 
ATOM     82  F   UNL A   1      46.844  27.430  24.255  1.00  0.00    -0.206 F 
ATOM     83  C   UNL A   1      48.948  26.467  24.657  1.00  0.00     0.040 A 
ATOM     84  C   UNL A   1      49.606  25.908  26.907  1.00  0.00     0.040 A 
ATOM     85  F   UNL A   1      48.137  26.304  28.692  1.00  0.00    -0.206 F 
ATOM     86  C   UNL A   1      49.893  25.953  25.543  1.00  0.00     0.006 A 
ENDBRANCH  62  79
ENDBRANCH  36  37
ENDBRANCH  28  31
ENDBRANCH  26  27
ENDBRANCH  25  26
ENDBRANCH   1  25
TORSDOF 13
ENDMDL
MODEL 3
REMARK VINA RESULT:     -12.0      2.692      8.198
REMARK SMILES Cc1ccc(NS(=O)(=O)N2CCCC[C@@H]2C(=O)NCCCNC(=O)c2ccc(-c3c4nc(c(-c5c(F)cccc5F)c5ccc([nH]5)c(-c5c(F)cccc5F)c5nc(c(-c6c(F)cccc6F)c6ccc3[nH]6)C=C5)C=C4)cc2)c(C)n1
REMARK SMILES IDX 19 1 18 2 16 3 17 4 15 6 10 7 11 8 12 9 14 10 13 11 7 12
REMARK SMILES IDX 8 13 9 14 6 15 5 17 1 18 2 19 3 20 81 21 4 22 79 23 80 24
REMARK SMILES IDX 20 25 21 26 22 27 23 28 24 30 25 31 26 32 78 33 27 34 77 35
REMARK SMILES IDX 28 36 29 37 30 38 71 39 31 40 76 41 70 42 72 43 32 44 75 45
REMARK SMILES IDX 69 46 68 47 33 49 59 50 42 51 58 52 43 53 46 54 57 55 73 56
REMARK SMILES IDX 44 57 45 58 56 60 74 61 47 62 34 63 35 64 40 65 36 66 37 67
REMARK SMILES IDX 39 68 41 69 38 70 60 71 61 72 66 73 62 74 63 75 65 76 67 77
REMARK SMILES IDX 64 78 48 79 49 80 54 81 50 82 51 83 53 84 55 85 52 86
REMARK H PARENT 18 5 6 16 22 29 72 48 46 59
REMARK Flexibility Score: inf
ROOT
ATOM      1  C   UNL A   1      32.250  30.077  26.915  1.00  0.00     0.117 C 
ENDROOT
BRANCH   1   2
ATOM      2  N   UNL A   1      32.771  29.602  25.640  1.00  0.00    -0.355 N 
ATOM      3  C   UNL A   1      32.259  28.907  24.595  1.00  0.00     0.238 C 
ATOM      4  O   UNL A   1      32.988  28.900  23.592  1.00  0.00    -0.273 OA
ATOM      5  H   UNL A   1      33.716  29.843  25.507  1.00  0.00     0.163 HD
BRANCH   3   6
ATOM      6  C   UNL A   1      30.928  28.145  24.576  1.00  0.00     0.163 C 
ATOM      7  N   UNL A   1      30.954  26.676  24.931  1.00  0.00    -0.172 NA
ATOM      8  C   UNL A   1      29.562  26.120  25.007  1.00  0.00     0.105 C 
ATOM      9  C   UNL A   1      28.853  26.288  23.670  1.00  0.00     0.017 C 
ATOM     10  C   UNL A   1      30.138  28.387  23.279  1.00  0.00     0.030 C 
ATOM     11  C   UNL A   1      28.747  27.762  23.313  1.00  0.00     0.004 C 
BRANCH   7  12
ATOM     12  S   UNL A   1      31.825  26.285  26.350  1.00  0.00     0.302 S 
ATOM     13  O   UNL A   1      31.363  27.102  27.446  1.00  0.00    -0.189 OA
ATOM     14  O   UNL A   1      33.229  26.267  26.024  1.00  0.00    -0.189 OA
BRANCH  12  15
ATOM     15  N   UNL A   1      31.358  24.731  26.648  1.00  0.00    -0.269 N 
ATOM     16  H   UNL A   1      30.524  24.621  27.161  1.00  0.00     0.181 HD
BRANCH  15  17
ATOM     17  C   UNL A   1      32.021  23.517  26.249  1.00  0.00     0.071 A 
ATOM     18  C   UNL A   1      35.258  20.905  25.349  1.00  0.00     0.067 C 
ATOM     19  C   UNL A   1      34.020  21.652  25.734  1.00  0.00     0.038 A 
ATOM     20  C   UNL A   1      33.760  21.998  27.045  1.00  0.00     0.026 A 
ATOM     21  N   UNL A   1      33.261  22.108  24.720  1.00  0.00    -0.256 NA
ATOM     22  C   UNL A   1      32.772  22.948  27.293  1.00  0.00     0.030 A 
ATOM     23  C   UNL A   1      32.249  22.991  24.969  1.00  0.00     0.062 A 
ATOM     24  C   UNL A   1      31.504  23.300  23.715  1.00  0.00     0.069 C 
ENDBRANCH  15  17
ENDBRANCH  12  15
ENDBRANCH   7  12
ENDBRANCH   3   6
ENDBRANCH   1   2
BRANCH   1  25
ATOM     25  C   UNL A   1      31.801  31.542  26.879  1.00  0.00     0.042 C 
BRANCH  25  26
ATOM     26  C   UNL A   1      32.916  32.583  26.994  1.00  0.00     0.118 C 
BRANCH  26  27
ATOM     27  N   UNL A   1      32.524  33.842  27.610  1.00  0.00    -0.352 N 
ATOM     28  C   UNL A   1      33.086  34.592  28.615  1.00  0.00     0.251 C 
ATOM     29  H   UNL A   1      31.700  34.230  27.234  1.00  0.00     0.163 HD
ATOM     30  O   UNL A   1      32.522  35.618  28.989  1.00  0.00    -0.269 OA
BRANCH  28  31
ATOM     31  C   UNL A   1      34.336  34.181  29.285  1.00  0.00     0.039 A 
ATOM     32  C   UNL A   1      35.565  34.608  28.758  1.00  0.00     0.014 A 
ATOM     33  C   UNL A   1      34.318  33.310  30.370  1.00  0.00     0.014 A 
ATOM     34  C   UNL A   1      36.765  34.209  29.356  1.00  0.00     0.010 A 
ATOM     35  C   UNL A   1      35.502  32.982  31.016  1.00  0.00     0.010 A 
ATOM     36  C   UNL A   1      36.738  33.409  30.504  1.00  0.00    -0.014 A 
BRANCH  36  37
ATOM     37  C   UNL A   1      37.961  32.904  31.173  1.00  0.00     0.031 A 
ATOM     38  C   UNL A   1      38.641  31.690  30.599  1.00  0.00     0.074 A 
ATOM     39  C   UNL A   1      38.350  33.412  32.356  1.00  0.00     0.049 A 
ATOM     40  N   UNL A   1      39.484  30.865  31.159  1.00  0.00    -0.248 NA
ATOM     41  C   UNL A   1      38.261  31.325  29.223  1.00  0.00     0.031 C 
ATOM     42  C   UNL A   1      37.752  34.568  33.024  1.00  0.00     0.029 A 
ATOM     43  N   UNL A   1      39.313  32.980  33.234  1.00  0.00    -0.354 N 
ATOM     44  C   UNL A   1      39.680  29.847  30.233  1.00  0.00     0.074 A 
ATOM     45  C   UNL A   1      38.856  30.149  29.085  1.00  0.00     0.031 C 
ATOM     46  C   UNL A   1      38.345  34.741  34.216  1.00  0.00     0.029 A 
ATOM     47  C   UNL A   1      39.328  33.681  34.415  1.00  0.00     0.049 A 
ATOM     48  H   UNL A   1      39.930  32.239  33.037  1.00  0.00     0.167 HD
ATOM     49  C   UNL A   1      40.479  28.759  30.338  1.00  0.00     0.037 A 
ATOM     50  C   UNL A   1      40.031  33.466  35.544  1.00  0.00     0.037 A 
ATOM     51  C   UNL A   1      41.350  28.515  31.457  1.00  0.00     0.049 A 
ATOM     52  C   UNL A   1      40.970  32.292  35.606  1.00  0.00     0.074 A 
ATOM     53  C   UNL A   1      42.275  27.501  31.626  1.00  0.00     0.029 A 
ATOM     54  N   UNL A   1      41.412  29.311  32.590  1.00  0.00    -0.354 N 
ATOM     55  N   UNL A   1      41.175  31.351  34.715  1.00  0.00    -0.248 NA
ATOM     56  C   UNL A   1      41.776  32.151  36.826  1.00  0.00     0.031 C 
ATOM     57  C   UNL A   1      42.881  27.670  32.876  1.00  0.00     0.029 A 
ATOM     58  C   UNL A   1      42.358  28.810  33.467  1.00  0.00     0.049 A 
ATOM     59  H   UNL A   1      40.866  30.114  32.748  1.00  0.00     0.167 HD
ATOM     60  C   UNL A   1      42.146  30.520  35.256  1.00  0.00     0.074 A 
ATOM     61  C   UNL A   1      42.501  31.077  36.546  1.00  0.00     0.031 C 
ATOM     62  C   UNL A   1      42.697  29.395  34.738  1.00  0.00     0.037 A 
BRANCH  49  63
ATOM     63  C   UNL A   1      40.447  27.756  29.221  1.00  0.00     0.057 A 
ATOM     64  C   UNL A   1      39.577  26.660  29.229  1.00  0.00     0.134 A 
ATOM     65  C   UNL A   1      41.283  27.907  28.107  1.00  0.00     0.134 A 
ATOM     66  F   UNL A   1      38.761  26.448  30.272  1.00  0.00    -0.206 F 
ATOM     67  C   UNL A   1      39.555  25.736  28.183  1.00  0.00     0.040 A 
ATOM     68  C   UNL A   1      41.251  27.006  27.041  1.00  0.00     0.040 A 
ATOM     69  F   UNL A   1      42.139  28.937  28.031  1.00  0.00    -0.206 F 
ATOM     70  C   UNL A   1      40.389  25.912  27.080  1.00  0.00     0.006 A 
ENDBRANCH  49  63
BRANCH  50  71
ATOM     71  C   UNL A   1      39.875  34.378  36.704  1.00  0.00     0.057 A 
ATOM     72  C   UNL A   1      39.055  34.031  37.784  1.00  0.00     0.134 A 
ATOM     73  C   UNL A   1      40.536  35.610  36.767  1.00  0.00     0.134 A 
ATOM     74  F   UNL A   1      38.381  32.872  37.773  1.00  0.00    -0.206 F 
ATOM     75  C   UNL A   1      38.883  34.883  38.876  1.00  0.00     0.040 A 
ATOM     76  C   UNL A   1      40.391  36.462  37.863  1.00  0.00     0.040 A 
ATOM     77  F   UNL A   1      41.343  35.998  35.768  1.00  0.00    -0.206 F 
ATOM     78  C   UNL A   1      39.558  36.102  38.920  1.00  0.00     0.006 A 
ENDBRANCH  50  71
BRANCH  62  79
ATOM     79  C   UNL A   1      43.760  28.719  35.549  1.00  0.00     0.057 A 
ATOM     80  C   UNL A   1      43.450  27.728  36.489  1.00  0.00     0.134 A 
ATOM     81  C   UNL A   1      45.110  29.033  35.354  1.00  0.00     0.134 A 
ATOM     82  F   UNL A   1      42.172  27.395  36.727  1.00  0.00    -0.206 F 
ATOM     83  C   UNL A   1      44.448  27.083  37.220  1.00  0.00     0.040 A 
ATOM     84  C   UNL A   1      46.118  28.379  36.063  1.00  0.00     0.040 A 
ATOM     85  F   UNL A   1      45.471  29.967  34.462  1.00  0.00    -0.206 F 
ATOM     86  C   UNL A   1      45.786  27.404  37.002  1.00  0.00     0.006 A 
ENDBRANCH  62  79
ENDBRANCH  36  37
ENDBRANCH  28  31
ENDBRANCH  26  27
ENDBRANCH  25  26
ENDBRANCH   1  25
TORSDOF 13
ENDMDL
