MODEL 1
REMARK VINA RESULT:     -12.5      0.000      0.000
REMARK SMILES O=C(CCC(=O)N1Cc2[nH]cnc2C[C@H]1C(=O)NCc1ccccc1)NCCCNC(=O)c1ccc(-c2c3nc(c(-c4c(F)cccc4F)c4ccc([nH]4)c(-c4c(F)cccc4F)c4nc(c(-c5c(F)cccc5F)c5ccc2[nH]5)C=C4)C=C3)cc1
REMARK SMILES IDX 1 1 2 2 26 3 3 5 4 6 5 7 6 8 7 9 8 10 15 11 9 12 14 13 10 14
REMARK SMILES IDX 13 15 11 16 12 18 16 19 17 20 18 21 19 23 20 24 21 25 25 26
REMARK SMILES IDX 22 27 24 28 23 29 27 30 28 31 29 32 30 33 31 34 32 36 33 37
REMARK SMILES IDX 34 38 86 39 35 40 85 41 36 42 37 43 38 44 79 45 39 46 84 47
REMARK SMILES IDX 78 48 80 49 40 50 83 51 77 52 76 53 41 55 67 56 50 57 66 58
REMARK SMILES IDX 51 59 54 60 65 61 81 62 52 63 53 64 64 66 82 67 55 68 42 69
REMARK SMILES IDX 43 70 48 71 44 72 45 73 47 74 49 75 46 76 68 77 69 78 74 79
REMARK SMILES IDX 70 80 71 81 73 82 75 83 72 84 56 85 57 86 62 87 58 88 59 89
REMARK SMILES IDX 61 90 63 91 60 92
REMARK H PARENT 26 4 10 17 18 22 30 35 80 54 54 65
REMARK Flexibility Score: inf
ROOT
ATOM      1  O   UNL A   1      33.028  29.247  23.734  1.00  0.00    -0.275 OA
ATOM      2  C   UNL A   1      32.928  28.127  24.227  1.00  0.00     0.220 C 
ATOM      3  N   UNL A   1      32.171  27.880  25.376  1.00  0.00    -0.356 N 
ATOM      4  H   UNL A   1      31.914  26.959  25.608  1.00  0.00     0.163 HD
ENDROOT
BRANCH   2   5
ATOM      5  C   UNL A   1      33.729  26.936  23.675  1.00  0.00     0.110 C 
BRANCH   5   6
ATOM      6  C   UNL A   1      33.944  25.820  24.725  1.00  0.00     0.110 C 
BRANCH   6   7
ATOM      7  C   UNL A   1      34.453  24.465  24.203  1.00  0.00     0.224 C 
ATOM      8  O   UNL A   1      34.275  24.170  23.017  1.00  0.00    -0.275 OA
BRANCH   7   9
ATOM      9  N   UNL A   1      35.129  23.610  25.066  1.00  0.00    -0.324 N 
ATOM     10  C   UNL A   1      36.297  24.120  25.833  1.00  0.00     0.176 C 
ATOM     11  C   UNL A   1      34.898  22.145  25.060  1.00  0.00     0.180 C 
ATOM     12  C   UNL A   1      37.367  23.092  25.817  1.00  0.00     0.058 A 
ATOM     13  C   UNL A   1      36.103  21.420  24.481  1.00  0.00     0.093 C 
ATOM     14  N   UNL A   1      38.542  23.047  26.521  1.00  0.00    -0.347 N 
ATOM     15  C   UNL A   1      37.309  21.885  25.173  1.00  0.00     0.066 A 
ATOM     16  C   UNL A   1      39.146  21.853  26.220  1.00  0.00     0.197 A 
ATOM     17  H   UNL A   1      38.887  23.741  27.127  1.00  0.00     0.167 HD
ATOM     18  N   UNL A   1      38.410  21.131  25.408  1.00  0.00    -0.242 NA
BRANCH  11  19
ATOM     19  C   UNL A   1      34.011  21.488  26.137  1.00  0.00     0.243 C 
ATOM     20  O   UNL A   1      34.391  21.489  27.315  1.00  0.00    -0.273 OA
ATOM     21  N   UNL A   1      32.804  20.917  25.916  1.00  0.00    -0.350 N 
ATOM     22  H   UNL A   1      32.198  20.936  26.692  1.00  0.00     0.163 HD
BRANCH  21  23
ATOM     23  C   UNL A   1      32.245  20.286  24.739  1.00  0.00     0.151 C 
BRANCH  23  24
ATOM     24  C   UNL A   1      32.684  18.845  24.616  1.00  0.00    -0.029 A 
ATOM     25  C   UNL A   1      32.681  17.965  25.711  1.00  0.00     0.005 A 
ATOM     26  C   UNL A   1      33.167  18.373  23.391  1.00  0.00     0.005 A 
ATOM     27  C   UNL A   1      33.177  16.668  25.599  1.00  0.00     0.000 A 
ATOM     28  C   UNL A   1      33.638  17.063  23.270  1.00  0.00     0.000 A 
ATOM     29  C   UNL A   1      33.657  16.217  24.376  1.00  0.00     0.000 A 
ENDBRANCH  23  24
ENDBRANCH  21  23
ENDBRANCH  11  19
ENDBRANCH   7   9
ENDBRANCH   6   7
ENDBRANCH   5   6
ENDBRANCH   2   5
BRANCH   3  30
ATOM     30  C   UNL A   1      31.761  28.998  26.237  1.00  0.00     0.117 C 
BRANCH  30  31
ATOM     31  C   UNL A   1      32.778  29.555  27.253  1.00  0.00     0.042 C 
BRANCH  31  32
ATOM     32  C   UNL A   1      33.590  30.792  26.864  1.00  0.00     0.118 C 
BRANCH  32  33
ATOM     33  N   UNL A   1      33.803  31.819  27.907  1.00  0.00    -0.352 N 
ATOM     34  C   UNL A   1      34.722  31.901  28.974  1.00  0.00     0.251 C 
ATOM     35  H   UNL A   1      33.190  32.587  27.843  1.00  0.00     0.163 HD
ATOM     36  O   UNL A   1      34.465  32.641  29.911  1.00  0.00    -0.269 OA
BRANCH  34  37
ATOM     37  C   UNL A   1      36.002  31.126  28.968  1.00  0.00     0.039 A 
ATOM     38  C   UNL A   1      36.128  29.734  28.818  1.00  0.00     0.014 A 
ATOM     39  C   UNL A   1      37.146  31.826  29.264  1.00  0.00     0.014 A 
ATOM     40  C   UNL A   1      37.396  29.118  28.982  1.00  0.00     0.010 A 
ATOM     41  C   UNL A   1      38.389  31.284  29.230  1.00  0.00     0.010 A 
ATOM     42  C   UNL A   1      38.525  29.913  29.207  1.00  0.00    -0.014 A 
BRANCH  42  43
ATOM     43  C   UNL A   1      39.925  29.499  29.312  1.00  0.00     0.031 A 
ATOM     44  C   UNL A   1      40.292  29.111  30.706  1.00  0.00     0.074 A 
ATOM     45  C   UNL A   1      40.604  28.959  28.271  1.00  0.00     0.049 A 
ATOM     46  N   UNL A   1      40.939  29.813  31.579  1.00  0.00    -0.248 NA
ATOM     47  C   UNL A   1      39.631  27.918  31.286  1.00  0.00     0.031 C 
ATOM     48  C   UNL A   1      40.188  28.797  26.873  1.00  0.00     0.029 A 
ATOM     49  N   UNL A   1      41.799  28.301  28.300  1.00  0.00    -0.354 N 
ATOM     50  C   UNL A   1      40.896  29.046  32.739  1.00  0.00     0.074 A 
ATOM     51  C   UNL A   1      39.773  28.172  32.586  1.00  0.00     0.031 C 
ATOM     52  C   UNL A   1      41.035  27.942  26.246  1.00  0.00     0.029 A 
ATOM     53  C   UNL A   1      42.093  27.553  27.164  1.00  0.00     0.049 A 
ATOM     54  H   UNL A   1      42.410  28.353  29.071  1.00  0.00     0.167 HD
ATOM     55  C   UNL A   1      41.972  28.883  33.560  1.00  0.00     0.037 A 
ATOM     56  C   UNL A   1      43.096  26.638  27.046  1.00  0.00     0.037 A 
ATOM     57  C   UNL A   1      43.047  29.757  33.159  1.00  0.00     0.049 A 
ATOM     58  C   UNL A   1      44.024  26.851  28.192  1.00  0.00     0.074 A 
ATOM     59  C   UNL A   1      43.171  31.120  32.977  1.00  0.00     0.029 A 
ATOM     60  N   UNL A   1      44.094  29.188  32.470  1.00  0.00    -0.354 N 
ATOM     61  N   UNL A   1      44.782  27.904  28.332  1.00  0.00    -0.248 NA
ATOM     62  C   UNL A   1      43.756  26.116  29.423  1.00  0.00     0.031 C 
ATOM     63  C   UNL A   1      43.971  31.262  31.805  1.00  0.00     0.029 A 
ATOM     64  C   UNL A   1      44.358  29.988  31.388  1.00  0.00     0.049 A 
ATOM     65  H   UNL A   1      44.568  28.358  32.710  1.00  0.00     0.167 HD
ATOM     66  C   UNL A   1      44.723  28.210  29.684  1.00  0.00     0.074 A 
ATOM     67  C   UNL A   1      44.146  27.028  30.320  1.00  0.00     0.031 C 
ATOM     68  C   UNL A   1      44.853  29.499  30.122  1.00  0.00     0.037 A 
BRANCH  55  69
ATOM     69  C   UNL A   1      42.212  27.694  34.471  1.00  0.00     0.057 A 
ATOM     70  C   UNL A   1      41.886  27.828  35.832  1.00  0.00     0.134 A 
ATOM     71  C   UNL A   1      42.933  26.521  34.155  1.00  0.00     0.134 A 
ATOM     72  F   UNL A   1      41.202  28.895  36.273  1.00  0.00    -0.206 F 
ATOM     73  C   UNL A   1      42.307  26.912  36.804  1.00  0.00     0.040 A 
ATOM     74  C   UNL A   1      43.302  25.569  35.108  1.00  0.00     0.040 A 
ATOM     75  F   UNL A   1      43.412  26.259  32.935  1.00  0.00    -0.206 F 
ATOM     76  C   UNL A   1      43.021  25.779  36.444  1.00  0.00     0.006 A 
ENDBRANCH  55  69
BRANCH  56  77
ATOM     77  C   UNL A   1      43.185  25.429  26.185  1.00  0.00     0.057 A 
ATOM     78  C   UNL A   1      44.239  25.244  25.272  1.00  0.00     0.134 A 
ATOM     79  C   UNL A   1      42.375  24.301  26.410  1.00  0.00     0.134 A 
ATOM     80  F   UNL A   1      45.104  26.238  25.020  1.00  0.00    -0.206 F 
ATOM     81  C   UNL A   1      44.477  24.016  24.635  1.00  0.00     0.040 A 
ATOM     82  C   UNL A   1      42.594  23.073  25.771  1.00  0.00     0.040 A 
ATOM     83  F   UNL A   1      41.399  24.324  27.326  1.00  0.00    -0.206 F 
ATOM     84  C   UNL A   1      43.656  22.922  24.889  1.00  0.00     0.006 A 
ENDBRANCH  56  77
BRANCH  68  85
ATOM     85  C   UNL A   1      45.296  30.540  29.129  1.00  0.00     0.057 A 
ATOM     86  C   UNL A   1      44.414  31.311  28.355  1.00  0.00     0.134 A 
ATOM     87  C   UNL A   1      46.645  30.904  29.092  1.00  0.00     0.134 A 
ATOM     88  F   UNL A   1      43.094  31.112  28.400  1.00  0.00    -0.206 F 
ATOM     89  C   UNL A   1      44.858  32.368  27.555  1.00  0.00     0.040 A 
ATOM     90  C   UNL A   1      47.098  31.981  28.325  1.00  0.00     0.040 A 
ATOM     91  F   UNL A   1      47.542  30.252  29.850  1.00  0.00    -0.206 F 
ATOM     92  C   UNL A   1      46.205  32.712  27.546  1.00  0.00     0.006 A 
ENDBRANCH  68  85
ENDBRANCH  42  43
ENDBRANCH  34  37
ENDBRANCH  32  33
ENDBRANCH  31  32
ENDBRANCH  30  31
ENDBRANCH   3  30
TORSDOF 16
ENDMDL
MODEL 2
REMARK VINA RESULT:     -12.5      2.386      8.104
REMARK SMILES O=C(CCC(=O)N1Cc2[nH]cnc2C[C@H]1C(=O)NCc1ccccc1)NCCCNC(=O)c1ccc(-c2c3nc(c(-c4c(F)cccc4F)c4ccc([nH]4)c(-c4c(F)cccc4F)c4nc(c(-c5c(F)cccc5F)c5ccc2[nH]5)C=C4)C=C3)cc1
REMARK SMILES IDX 1 1 2 2 26 3 3 5 4 6 5 7 6 8 7 9 8 10 15 11 9 12 14 13 10 14
REMARK SMILES IDX 13 15 11 16 12 18 16 19 17 20 18 21 19 23 20 24 21 25 25 26
REMARK SMILES IDX 22 27 24 28 23 29 27 30 28 31 29 32 30 33 31 34 32 36 33 37
REMARK SMILES IDX 34 38 86 39 35 40 85 41 36 42 37 43 38 44 79 45 39 46 84 47
REMARK SMILES IDX 78 48 80 49 40 50 83 51 77 52 76 53 41 55 67 56 50 57 66 58
REMARK SMILES IDX 51 59 54 60 65 61 81 62 52 63 53 64 64 66 82 67 55 68 42 69
REMARK SMILES IDX 43 70 48 71 44 72 45 73 47 74 49 75 46 76 68 77 69 78 74 79
REMARK SMILES IDX 70 80 71 81 73 82 75 83 72 84 56 85 57 86 62 87 58 88 59 89
REMARK SMILES IDX 61 90 63 91 60 92
REMARK H PARENT 26 4 10 17 18 22 30 35 80 54 54 65
REMARK Flexibility Score: inf
ROOT
ATOM      1  O   UNL A   1      36.953  21.051  24.737  1.00  0.00    -0.275 OA
ATOM      2  C   UNL A   1      37.440  22.165  24.909  1.00  0.00     0.220 C 
ATOM      3  N   UNL A   1      38.724  22.347  25.431  1.00  0.00    -0.356 N 
ATOM      4  H   UNL A   1      39.175  23.216  25.337  1.00  0.00     0.163 HD
ENDROOT
BRANCH   2   5
ATOM      5  C   UNL A   1      36.619  23.443  24.670  1.00  0.00     0.110 C 
BRANCH   5   6
ATOM      6  C   UNL A   1      35.782  23.858  25.904  1.00  0.00     0.110 C 
BRANCH   6   7
ATOM      7  C   UNL A   1      34.283  24.116  25.670  1.00  0.00     0.224 C 
ATOM      8  O   UNL A   1      33.913  25.237  25.309  1.00  0.00    -0.275 OA
BRANCH   7   9
ATOM      9  N   UNL A   1      33.376  23.075  25.840  1.00  0.00    -0.324 N 
ATOM     10  C   UNL A   1      33.784  21.869  26.607  1.00  0.00     0.176 C 
ATOM     11  C   UNL A   1      32.110  23.006  25.071  1.00  0.00     0.180 C 
ATOM     12  C   UNL A   1      33.285  20.662  25.902  1.00  0.00     0.058 A 
ATOM     13  C   UNL A   1      32.173  21.884  24.046  1.00  0.00     0.093 C 
ATOM     14  N   UNL A   1      33.272  19.355  26.316  1.00  0.00    -0.347 N 
ATOM     15  C   UNL A   1      32.593  20.652  24.721  1.00  0.00     0.066 A 
ATOM     16  C   UNL A   1      32.630  18.632  25.343  1.00  0.00     0.197 A 
ATOM     17  H   UNL A   1      33.652  19.003  27.152  1.00  0.00     0.167 HD
ATOM     18  N   UNL A   1      32.205  19.402  24.370  1.00  0.00    -0.242 NA
BRANCH  11  19
ATOM     19  C   UNL A   1      30.774  23.419  25.722  1.00  0.00     0.243 C 
ATOM     20  O   UNL A   1      30.138  22.584  26.378  1.00  0.00    -0.273 OA
ATOM     21  N   UNL A   1      30.227  24.656  25.668  1.00  0.00    -0.350 N 
ATOM     22  H   UNL A   1      29.650  24.877  26.435  1.00  0.00     0.163 HD
BRANCH  21  23
ATOM     23  C   UNL A   1      30.340  25.711  24.684  1.00  0.00     0.151 C 
BRANCH  23  24
ATOM     24  C   UNL A   1      30.835  26.999  25.299  1.00  0.00    -0.029 A 
ATOM     25  C   UNL A   1      31.033  28.164  24.541  1.00  0.00     0.005 A 
ATOM     26  C   UNL A   1      31.168  27.031  26.658  1.00  0.00     0.005 A 
ATOM     27  C   UNL A   1      31.577  29.314  25.107  1.00  0.00     0.000 A 
ATOM     28  C   UNL A   1      31.688  28.193  27.235  1.00  0.00     0.000 A 
ATOM     29  C   UNL A   1      31.906  29.329  26.457  1.00  0.00     0.000 A 
ENDBRANCH  23  24
ENDBRANCH  21  23
ENDBRANCH  11  19
ENDBRANCH   7   9
ENDBRANCH   6   7
ENDBRANCH   5   6
ENDBRANCH   2   5
BRANCH   3  30
ATOM     30  C   UNL A   1      39.398  21.238  26.122  1.00  0.00     0.117 C 
BRANCH  30  31
ATOM     31  C   UNL A   1      40.353  21.570  27.286  1.00  0.00     0.042 C 
BRANCH  31  32
ATOM     32  C   UNL A   1      41.805  21.094  27.192  1.00  0.00     0.118 C 
BRANCH  32  33
ATOM     33  N   UNL A   1      42.632  21.653  26.102  1.00  0.00    -0.352 N 
ATOM     34  C   UNL A   1      42.728  22.954  25.565  1.00  0.00     0.251 C 
ATOM     35  H   UNL A   1      43.226  20.995  25.672  1.00  0.00     0.163 HD
ATOM     36  O   UNL A   1      43.189  23.091  24.442  1.00  0.00    -0.269 OA
BRANCH  34  37
ATOM     37  C   UNL A   1      42.303  24.158  26.346  1.00  0.00     0.039 A 
ATOM     38  C   UNL A   1      41.243  25.023  26.025  1.00  0.00     0.014 A 
ATOM     39  C   UNL A   1      43.104  24.521  27.401  1.00  0.00     0.014 A 
ATOM     40  C   UNL A   1      41.048  26.212  26.775  1.00  0.00     0.010 A 
ATOM     41  C   UNL A   1      42.817  25.543  28.246  1.00  0.00     0.010 A 
ATOM     42  C   UNL A   1      41.863  26.468  27.883  1.00  0.00    -0.014 A 
BRANCH  42  43
ATOM     43  C   UNL A   1      41.779  27.572  28.840  1.00  0.00     0.031 A 
ATOM     44  C   UNL A   1      42.795  28.631  28.566  1.00  0.00     0.074 A 
ATOM     45  C   UNL A   1      40.624  27.906  29.466  1.00  0.00     0.049 A 
ATOM     46  N   UNL A   1      43.919  28.827  29.178  1.00  0.00    -0.248 NA
ATOM     47  C   UNL A   1      42.680  29.387  27.297  1.00  0.00     0.031 C 
ATOM     48  C   UNL A   1      39.325  27.223  29.449  1.00  0.00     0.029 A 
ATOM     49  N   UNL A   1      40.346  29.047  30.162  1.00  0.00    -0.354 N 
ATOM     50  C   UNL A   1      44.532  29.844  28.454  1.00  0.00     0.074 A 
ATOM     51  C   UNL A   1      43.933  29.814  27.155  1.00  0.00     0.031 C 
ATOM     52  C   UNL A   1      38.373  28.049  29.951  1.00  0.00     0.029 A 
ATOM     53  C   UNL A   1      38.996  29.286  30.396  1.00  0.00     0.049 A 
ATOM     54  H   UNL A   1      41.053  29.657  30.475  1.00  0.00     0.167 HD
ATOM     55  C   UNL A   1      45.185  30.885  29.045  1.00  0.00     0.037 A 
ATOM     56  C   UNL A   1      38.457  30.450  30.854  1.00  0.00     0.037 A 
ATOM     57  C   UNL A   1      45.305  30.661  30.465  1.00  0.00     0.049 A 
ATOM     58  C   UNL A   1      39.576  31.269  31.400  1.00  0.00     0.074 A 
ATOM     59  C   UNL A   1      45.838  29.654  31.246  1.00  0.00     0.029 A 
ATOM     60  N   UNL A   1      44.448  31.360  31.285  1.00  0.00    -0.354 N 
ATOM     61  N   UNL A   1      40.245  30.965  32.478  1.00  0.00    -0.248 NA
ATOM     62  C   UNL A   1      40.262  32.170  30.481  1.00  0.00     0.031 C 
ATOM     63  C   UNL A   1      44.917  29.499  32.323  1.00  0.00     0.029 A 
ATOM     64  C   UNL A   1      43.924  30.470  32.187  1.00  0.00     0.049 A 
ATOM     65  H   UNL A   1      44.249  32.324  31.234  1.00  0.00     0.167 HD
ATOM     66  C   UNL A   1      41.566  31.267  32.175  1.00  0.00     0.074 A 
ATOM     67  C   UNL A   1      41.505  32.083  30.965  1.00  0.00     0.031 C 
ATOM     68  C   UNL A   1      42.596  30.574  32.747  1.00  0.00     0.037 A 
BRANCH  55  69
ATOM     69  C   UNL A   1      45.378  32.262  28.439  1.00  0.00     0.057 A 
ATOM     70  C   UNL A   1      46.693  32.711  28.225  1.00  0.00     0.134 A 
ATOM     71  C   UNL A   1      44.385  33.250  28.257  1.00  0.00     0.134 A 
ATOM     72  F   UNL A   1      47.735  31.877  28.362  1.00  0.00    -0.206 F 
ATOM     73  C   UNL A   1      46.998  34.045  27.929  1.00  0.00     0.040 A 
ATOM     74  C   UNL A   1      44.675  34.569  27.899  1.00  0.00     0.040 A 
ATOM     75  F   UNL A   1      43.087  33.043  28.502  1.00  0.00    -0.206 F 
ATOM     76  C   UNL A   1      45.987  34.981  27.769  1.00  0.00     0.006 A 
ENDBRANCH  55  69
BRANCH  56  77
ATOM     77  C   UNL A   1      37.106  31.029  30.627  1.00  0.00     0.057 A 
ATOM     78  C   UNL A   1      36.263  31.388  31.694  1.00  0.00     0.134 A 
ATOM     79  C   UNL A   1      36.700  31.480  29.358  1.00  0.00     0.134 A 
ATOM     80  F   UNL A   1      36.579  31.054  32.953  1.00  0.00    -0.206 F 
ATOM     81  C   UNL A   1      35.101  32.155  31.510  1.00  0.00     0.040 A 
ATOM     82  C   UNL A   1      35.537  32.234  29.159  1.00  0.00     0.040 A 
ATOM     83  F   UNL A   1      37.468  31.282  28.278  1.00  0.00    -0.206 F 
ATOM     84  C   UNL A   1      34.737  32.586  30.239  1.00  0.00     0.006 A 
ENDBRANCH  56  77
BRANCH  68  85
ATOM     85  C   UNL A   1      42.275  29.641  33.884  1.00  0.00     0.057 A 
ATOM     86  C   UNL A   1      41.999  28.274  33.723  1.00  0.00     0.134 A 
ATOM     87  C   UNL A   1      42.432  30.098  35.195  1.00  0.00     0.134 A 
ATOM     88  F   UNL A   1      41.932  27.717  32.510  1.00  0.00    -0.206 F 
ATOM     89  C   UNL A   1      41.851  27.413  34.813  1.00  0.00     0.040 A 
ATOM     90  C   UNL A   1      42.323  29.242  36.294  1.00  0.00     0.040 A 
ATOM     91  F   UNL A   1      42.755  31.381  35.429  1.00  0.00    -0.206 F 
ATOM     92  C   UNL A   1      42.023  27.895  36.105  1.00  0.00     0.006 A 
ENDBRANCH  68  85
ENDBRANCH  42  43
ENDBRANCH  34  37
ENDBRANCH  32  33
ENDBRANCH  31  32
ENDBRANCH  30  31
ENDBRANCH   3  30
TORSDOF 16
ENDMDL
MODEL 3
REMARK VINA RESULT:     -12.5      2.636      7.838
REMARK SMILES O=C(CCC(=O)N1Cc2[nH]cnc2C[C@H]1C(=O)NCc1ccccc1)NCCCNC(=O)c1ccc(-c2c3nc(c(-c4c(F)cccc4F)c4ccc([nH]4)c(-c4c(F)cccc4F)c4nc(c(-c5c(F)cccc5F)c5ccc2[nH]5)C=C4)C=C3)cc1
REMARK SMILES IDX 1 1 2 2 26 3 3 5 4 6 5 7 6 8 7 9 8 10 15 11 9 12 14 13 10 14
REMARK SMILES IDX 13 15 11 16 12 18 16 19 17 20 18 21 19 23 20 24 21 25 25 26
REMARK SMILES IDX 22 27 24 28 23 29 27 30 28 31 29 32 30 33 31 34 32 36 33 37
REMARK SMILES IDX 34 38 86 39 35 40 85 41 36 42 37 43 38 44 79 45 39 46 84 47
REMARK SMILES IDX 78 48 80 49 40 50 83 51 77 52 76 53 41 55 67 56 50 57 66 58
REMARK SMILES IDX 51 59 54 60 65 61 81 62 52 63 53 64 64 66 82 67 55 68 42 69
REMARK SMILES IDX 43 70 48 71 44 72 45 73 47 74 49 75 46 76 68 77 69 78 74 79
REMARK SMILES IDX 70 80 71 81 73 82 75 83 72 84 56 85 57 86 62 87 58 88 59 89
REMARK SMILES IDX 61 90 63 91 60 92
REMARK H PARENT 26 4 10 17 18 22 30 35 80 54 54 65
REMARK Flexibility Score: inf
ROOT
ATOM      1  O   UNL A   1      38.260  21.046  25.672  1.00  0.00    -0.275 OA
ATOM      2  C   UNL A   1      38.991  21.967  26.028  1.00  0.00     0.220 C 
ATOM      3  N   UNL A   1      40.302  21.755  26.464  1.00  0.00    -0.356 N 
ATOM      4  H   UNL A   1      40.933  22.509  26.512  1.00  0.00     0.163 HD
ENDROOT
BRANCH   2   5
ATOM      5  C   UNL A   1      38.469  23.410  26.128  1.00  0.00     0.110 C 
BRANCH   5   6
ATOM      6  C   UNL A   1      36.924  23.489  26.139  1.00  0.00     0.110 C 
BRANCH   6   7
ATOM      7  C   UNL A   1      36.215  23.409  24.775  1.00  0.00     0.224 C 
ATOM      8  O   UNL A   1      36.871  23.586  23.744  1.00  0.00    -0.275 OA
BRANCH   7   9
ATOM      9  N   UNL A   1      34.858  23.111  24.726  1.00  0.00    -0.324 N 
ATOM     10  C   UNL A   1      34.168  23.064  23.409  1.00  0.00     0.176 C 
ATOM     11  C   UNL A   1      34.015  23.092  25.945  1.00  0.00     0.180 C 
ATOM     12  C   UNL A   1      32.847  23.728  23.538  1.00  0.00     0.058 A 
ATOM     13  C   UNL A   1      33.064  24.279  25.951  1.00  0.00     0.093 C 
ATOM     14  N   UNL A   1      31.807  23.777  22.646  1.00  0.00    -0.347 N 
ATOM     15  C   UNL A   1      32.353  24.320  24.669  1.00  0.00     0.066 A 
ATOM     16  C   UNL A   1      30.777  24.438  23.266  1.00  0.00     0.197 A 
ATOM     17  H   UNL A   1      31.801  23.406  21.735  1.00  0.00     0.167 HD
ATOM     18  N   UNL A   1      31.087  24.771  24.496  1.00  0.00    -0.242 NA
BRANCH  11  19
ATOM     19  C   UNL A   1      33.628  21.755  26.609  1.00  0.00     0.243 C 
ATOM     20  O   UNL A   1      34.132  21.455  27.700  1.00  0.00    -0.273 OA
ATOM     21  N   UNL A   1      32.738  20.863  26.115  1.00  0.00    -0.350 N 
ATOM     22  H   UNL A   1      32.290  20.315  26.799  1.00  0.00     0.163 HD
BRANCH  21  23
ATOM     23  C   UNL A   1      32.329  20.573  24.757  1.00  0.00     0.151 C 
BRANCH  23  24
ATOM     24  C   UNL A   1      32.933  19.282  24.255  1.00  0.00    -0.029 A 
ATOM     25  C   UNL A   1      34.149  18.781  24.750  1.00  0.00     0.005 A 
ATOM     26  C   UNL A   1      32.302  18.581  23.222  1.00  0.00     0.005 A 
ATOM     27  C   UNL A   1      34.736  17.640  24.210  1.00  0.00     0.000 A 
ATOM     28  C   UNL A   1      32.876  17.419  22.698  1.00  0.00     0.000 A 
ATOM     29  C   UNL A   1      34.099  16.957  23.182  1.00  0.00     0.000 A 
ENDBRANCH  23  24
ENDBRANCH  21  23
ENDBRANCH  11  19
ENDBRANCH   7   9
ENDBRANCH   6   7
ENDBRANCH   5   6
ENDBRANCH   2   5
BRANCH   3  30
ATOM     30  C   UNL A   1      40.736  20.406  26.851  1.00  0.00     0.117 C 
BRANCH  30  31
ATOM     31  C   UNL A   1      42.238  20.067  26.774  1.00  0.00     0.042 C 
BRANCH  31  32
ATOM     32  C   UNL A   1      42.773  19.427  25.491  1.00  0.00     0.118 C 
BRANCH  32  33
ATOM     33  N   UNL A   1      44.155  19.766  25.089  1.00  0.00    -0.352 N 
ATOM     34  C   UNL A   1      44.803  21.005  24.903  1.00  0.00     0.251 C 
ATOM     35  H   UNL A   1      44.727  18.983  24.920  1.00  0.00     0.163 HD
ATOM     36  O   UNL A   1      45.812  21.040  24.215  1.00  0.00    -0.269 OA
BRANCH  34  37
ATOM     37  C   UNL A   1      44.298  22.259  25.546  1.00  0.00     0.039 A 
ATOM     38  C   UNL A   1      43.378  23.163  24.989  1.00  0.00     0.014 A 
ATOM     39  C   UNL A   1      44.886  22.622  26.732  1.00  0.00     0.014 A 
ATOM     40  C   UNL A   1      43.103  24.389  25.649  1.00  0.00     0.010 A 
ATOM     41  C   UNL A   1      44.493  23.690  27.471  1.00  0.00     0.010 A 
ATOM     42  C   UNL A   1      43.688  24.647  26.894  1.00  0.00    -0.014 A 
BRANCH  42  43
ATOM     43  C   UNL A   1      43.475  25.791  27.782  1.00  0.00     0.031 A 
ATOM     44  C   UNL A   1      44.394  26.924  27.468  1.00  0.00     0.074 A 
ATOM     45  C   UNL A   1      42.277  26.048  28.361  1.00  0.00     0.049 A 
ATOM     46  N   UNL A   1      45.477  27.261  28.091  1.00  0.00    -0.248 NA
ATOM     47  C   UNL A   1      44.243  27.592  26.154  1.00  0.00     0.031 C 
ATOM     48  C   UNL A   1      41.049  25.244  28.356  1.00  0.00     0.029 A 
ATOM     49  N   UNL A   1      41.874  27.195  28.982  1.00  0.00    -0.354 N 
ATOM     50  C   UNL A   1      46.012  28.289  27.322  1.00  0.00     0.074 A 
ATOM     51  C   UNL A   1      45.454  28.128  26.015  1.00  0.00     0.031 C 
ATOM     52  C   UNL A   1      40.010  26.003  28.787  1.00  0.00     0.029 A 
ATOM     53  C   UNL A   1      40.501  27.317  29.172  1.00  0.00     0.049 A 
ATOM     54  H   UNL A   1      42.511  27.887  29.274  1.00  0.00     0.167 HD
ATOM     55  C   UNL A   1      46.548  29.419  27.865  1.00  0.00     0.037 A 
ATOM     56  C   UNL A   1      39.843  28.449  29.549  1.00  0.00     0.037 A 
ATOM     57  C   UNL A   1      46.650  29.289  29.298  1.00  0.00     0.049 A 
ATOM     58  C   UNL A   1      40.865  29.400  30.069  1.00  0.00     0.074 A 
ATOM     59  C   UNL A   1      47.253  28.383  30.149  1.00  0.00     0.029 A 
ATOM     60  N   UNL A   1      45.709  29.949  30.056  1.00  0.00    -0.354 N 
ATOM     61  N   UNL A   1      41.530  29.223  31.177  1.00  0.00    -0.248 NA
ATOM     62  C   UNL A   1      41.488  30.309  29.114  1.00  0.00     0.031 C 
ATOM     63  C   UNL A   1      46.321  28.203  31.213  1.00  0.00     0.029 A 
ATOM     64  C   UNL A   1      45.246  29.065  30.998  1.00  0.00     0.049 A 
ATOM     65  H   UNL A   1      45.421  30.884  29.944  1.00  0.00     0.167 HD
ATOM     66  C   UNL A   1      42.824  29.632  30.887  1.00  0.00     0.074 A 
ATOM     67  C   UNL A   1      42.720  30.369  29.630  1.00  0.00     0.031 C 
ATOM     68  C   UNL A   1      43.899  29.074  31.521  1.00  0.00     0.037 A 
BRANCH  55  69
ATOM     69  C   UNL A   1      46.627  30.771  27.183  1.00  0.00     0.057 A 
ATOM     70  C   UNL A   1      47.879  31.409  27.125  1.00  0.00     0.134 A 
ATOM     71  C   UNL A   1      45.540  31.578  26.779  1.00  0.00     0.134 A 
ATOM     72  F   UNL A   1      48.998  30.760  27.479  1.00  0.00    -0.206 F 
ATOM     73  C   UNL A   1      48.026  32.756  26.768  1.00  0.00     0.040 A 
ATOM     74  C   UNL A   1      45.684  32.903  26.361  1.00  0.00     0.040 A 
ATOM     75  F   UNL A   1      44.265  31.184  26.851  1.00  0.00    -0.206 F 
ATOM     76  C   UNL A   1      46.925  33.509  26.388  1.00  0.00     0.006 A 
ENDBRANCH  55  69
BRANCH  56  77
ATOM     77  C   UNL A   1      38.451  28.882  29.258  1.00  0.00     0.057 A 
ATOM     78  C   UNL A   1      37.491  29.029  30.275  1.00  0.00     0.134 A 
ATOM     79  C   UNL A   1      38.088  29.407  28.004  1.00  0.00     0.134 A 
ATOM     80  F   UNL A   1      37.750  28.610  31.522  1.00  0.00    -0.206 F 
ATOM     81  C   UNL A   1      36.258  29.666  30.061  1.00  0.00     0.040 A 
ATOM     82  C   UNL A   1      36.856  30.034  27.774  1.00  0.00     0.040 A 
ATOM     83  F   UNL A   1      38.953  29.413  26.982  1.00  0.00    -0.206 F 
ATOM     84  C   UNL A   1      35.939  30.178  28.808  1.00  0.00     0.006 A 
ENDBRANCH  56  77
BRANCH  68  85
ATOM     85  C   UNL A   1      43.635  28.181  32.704  1.00  0.00     0.057 A 
ATOM     86  C   UNL A   1      43.621  26.779  32.640  1.00  0.00     0.134 A 
ATOM     87  C   UNL A   1      43.580  28.751  33.979  1.00  0.00     0.134 A 
ATOM     88  F   UNL A   1      43.773  26.134  31.479  1.00  0.00    -0.206 F 
ATOM     89  C   UNL A   1      43.519  25.984  33.785  1.00  0.00     0.040 A 
ATOM     90  C   UNL A   1      43.515  27.969  35.135  1.00  0.00     0.040 A 
ATOM     91  F   UNL A   1      43.648  30.084  34.126  1.00  0.00    -0.206 F 
ATOM     92  C   UNL A   1      43.475  26.580  35.040  1.00  0.00     0.006 A 
ENDBRANCH  68  85
ENDBRANCH  42  43
ENDBRANCH  34  37
ENDBRANCH  32  33
ENDBRANCH  31  32
ENDBRANCH  30  31
ENDBRANCH   3  30
TORSDOF 16
ENDMDL
