MODEL 1
REMARK VINA RESULT:     -12.8      0.000      0.000
REMARK SMILES Cc1cccc(NS(=O)(=O)c2ccc(Br)c(C(=O)NCCCNC(=O)c3ccc(-c4c5nc(c(-c6c(F)cccc6F)c6ccc([nH]6)c(-c6c(F)cccc6F)c6nc(c(-c7c(F)cccc7F)c7ccc4[nH]7)C=C6)C=C5)cc3)c2)c1
REMARK SMILES IDX 20 1 19 2 17 3 18 4 16 6 11 7 12 8 80 9 13 10 14 11 15 12
REMARK SMILES IDX 8 13 9 14 10 15 7 16 6 18 1 19 2 20 3 21 81 22 4 23 5 24
REMARK SMILES IDX 21 25 22 26 23 27 24 28 25 30 26 31 27 32 79 33 28 34 78 35
REMARK SMILES IDX 29 36 30 37 31 38 72 39 32 40 77 41 71 42 73 43 33 44 76 45
REMARK SMILES IDX 70 46 69 47 34 49 60 50 43 51 59 52 44 53 47 54 58 55 74 56
REMARK SMILES IDX 45 57 46 58 57 60 75 61 48 62 35 63 36 64 41 65 37 66 38 67
REMARK SMILES IDX 40 68 42 69 39 70 61 71 62 72 67 73 63 74 64 75 66 76 68 77
REMARK SMILES IDX 65 78 49 79 50 80 55 81 51 82 52 83 54 84 56 85 53 86
REMARK H PARENT 19 5 7 17 23 29 73 48 47 59
REMARK Flexibility Score: inf
ROOT
ATOM      1  C   UNL A   1      34.214  28.892  26.942  1.00  0.00     0.118 C 
ENDROOT
BRANCH   1   2
ATOM      2  N   UNL A   1      32.885  28.327  26.780  1.00  0.00    -0.352 N 
ATOM      3  C   UNL A   1      32.420  27.234  26.077  1.00  0.00     0.252 C 
ATOM      4  O   UNL A   1      31.241  26.914  26.234  1.00  0.00    -0.269 OA
ATOM      5  H   UNL A   1      32.182  28.817  27.264  1.00  0.00     0.163 HD
BRANCH   3   6
ATOM      6  C   UNL A   1      33.223  26.537  25.034  1.00  0.00     0.055 A 
ATOM      7  C   UNL A   1      34.446  24.547  24.413  1.00  0.00     0.088 A 
ATOM      8  C   UNL A   1      33.998  24.676  23.102  1.00  0.00     0.023 A 
ATOM      9  C   UNL A   1      33.942  25.396  25.406  1.00  0.00     0.037 A 
ATOM     10  C   UNL A   1      33.467  25.904  22.720  1.00  0.00     0.018 A 
ATOM     11  C   UNL A   1      33.263  26.887  23.689  1.00  0.00     0.030 A 
ATOM     12  Br  UNL A   1      33.694  28.687  23.167  1.00  0.00    -0.050 Br
BRANCH   7  13
ATOM     13  S   UNL A   1      35.752  23.408  24.795  1.00  0.00     0.261 S 
ATOM     14  O   UNL A   1      36.644  24.078  25.690  1.00  0.00    -0.201 OA
ATOM     15  O   UNL A   1      36.238  22.877  23.521  1.00  0.00    -0.201 OA
BRANCH  13  16
ATOM     16  N   UNL A   1      35.159  22.042  25.637  1.00  0.00    -0.280 N 
ATOM     17  H   UNL A   1      35.387  21.959  26.591  1.00  0.00     0.180 HD
BRANCH  16  18
ATOM     18  C   UNL A   1      34.353  21.006  25.053  1.00  0.00     0.049 A 
ATOM     19  C   UNL A   1      34.723  17.298  24.193  1.00  0.00     0.044 C 
ATOM     20  C   UNL A   1      34.137  18.670  24.365  1.00  0.00    -0.049 A 
ATOM     21  C   UNL A   1      32.837  18.928  23.922  1.00  0.00     0.003 A 
ATOM     22  C   UNL A   1      34.875  19.707  24.962  1.00  0.00     0.030 A 
ATOM     23  C   UNL A   1      32.344  20.231  23.940  1.00  0.00     0.002 A 
ATOM     24  C   UNL A   1      33.131  21.275  24.440  1.00  0.00     0.027 A 
ENDBRANCH  16  18
ENDBRANCH  13  16
ENDBRANCH   7  13
ENDBRANCH   3   6
ENDBRANCH   1   2
BRANCH   1  25
ATOM     25  C   UNL A   1      34.290  30.400  26.884  1.00  0.00     0.042 C 
BRANCH  25  26
ATOM     26  C   UNL A   1      34.264  31.026  28.265  1.00  0.00     0.118 C 
BRANCH  26  27
ATOM     27  N   UNL A   1      35.445  31.851  28.570  1.00  0.00    -0.352 N 
ATOM     28  C   UNL A   1      36.773  31.489  28.753  1.00  0.00     0.251 C 
ATOM     29  H   UNL A   1      35.265  32.815  28.656  1.00  0.00     0.163 HD
ATOM     30  O   UNL A   1      37.636  32.352  28.877  1.00  0.00    -0.269 OA
BRANCH  28  31
ATOM     31  C   UNL A   1      37.165  30.064  28.630  1.00  0.00     0.039 A 
ATOM     32  C   UNL A   1      37.232  29.312  29.808  1.00  0.00     0.014 A 
ATOM     33  C   UNL A   1      37.851  29.658  27.501  1.00  0.00     0.014 A 
ATOM     34  C   UNL A   1      38.269  28.398  29.955  1.00  0.00     0.010 A 
ATOM     35  C   UNL A   1      38.995  28.928  27.712  1.00  0.00     0.010 A 
ATOM     36  C   UNL A   1      39.240  28.348  28.964  1.00  0.00    -0.014 A 
BRANCH  36  37
ATOM     37  C   UNL A   1      40.571  27.784  29.138  1.00  0.00     0.031 A 
ATOM     38  C   UNL A   1      40.795  26.371  28.774  1.00  0.00     0.074 A 
ATOM     39  C   UNL A   1      41.615  28.593  29.431  1.00  0.00     0.049 A 
ATOM     40  N   UNL A   1      41.885  25.723  28.980  1.00  0.00    -0.248 NA
ATOM     41  C   UNL A   1      39.756  25.555  28.158  1.00  0.00     0.031 C 
ATOM     42  C   UNL A   1      43.039  28.310  29.256  1.00  0.00     0.029 A 
ATOM     43  N   UNL A   1      41.595  29.785  30.172  1.00  0.00    -0.354 N 
ATOM     44  C   UNL A   1      41.805  24.527  28.305  1.00  0.00     0.074 A 
ATOM     45  C   UNL A   1      40.440  24.456  27.846  1.00  0.00     0.031 C 
ATOM     46  C   UNL A   1      43.742  29.083  30.096  1.00  0.00     0.029 A 
ATOM     47  C   UNL A   1      42.785  29.763  30.946  1.00  0.00     0.049 A 
ATOM     48  H   UNL A   1      40.904  30.485  30.158  1.00  0.00     0.167 HD
ATOM     49  C   UNL A   1      42.947  23.801  28.140  1.00  0.00     0.037 A 
ATOM     50  C   UNL A   1      42.725  29.644  32.306  1.00  0.00     0.037 A 
ATOM     51  C   UNL A   1      44.028  24.346  28.966  1.00  0.00     0.049 A 
ATOM     52  C   UNL A   1      43.365  28.384  32.862  1.00  0.00     0.074 A 
ATOM     53  C   UNL A   1      45.129  25.158  28.746  1.00  0.00     0.029 A 
ATOM     54  N   UNL A   1      43.866  24.302  30.339  1.00  0.00    -0.354 N 
ATOM     55  N   UNL A   1      43.867  27.426  32.133  1.00  0.00    -0.248 NA
ATOM     56  C   UNL A   1      43.407  28.069  34.291  1.00  0.00     0.031 C 
ATOM     57  C   UNL A   1      45.601  25.620  30.013  1.00  0.00     0.029 A 
ATOM     58  C   UNL A   1      44.796  25.078  30.997  1.00  0.00     0.049 A 
ATOM     59  H   UNL A   1      43.167  23.778  30.793  1.00  0.00     0.167 HD
ATOM     60  C   UNL A   1      44.226  26.376  32.937  1.00  0.00     0.074 A 
ATOM     61  C   UNL A   1      43.926  26.829  34.283  1.00  0.00     0.031 C 
ATOM     62  C   UNL A   1      44.697  25.193  32.444  1.00  0.00     0.037 A 
BRANCH  49  63
ATOM     63  C   UNL A   1      43.146  22.712  27.107  1.00  0.00     0.057 A 
ATOM     64  C   UNL A   1      42.414  21.511  27.196  1.00  0.00     0.134 A 
ATOM     65  C   UNL A   1      44.073  22.733  26.048  1.00  0.00     0.134 A 
ATOM     66  F   UNL A   1      41.431  21.350  28.091  1.00  0.00    -0.206 F 
ATOM     67  C   UNL A   1      42.654  20.403  26.371  1.00  0.00     0.040 A 
ATOM     68  C   UNL A   1      44.356  21.618  25.246  1.00  0.00     0.040 A 
ATOM     69  F   UNL A   1      44.713  23.843  25.679  1.00  0.00    -0.206 F 
ATOM     70  C   UNL A   1      43.652  20.440  25.413  1.00  0.00     0.006 A 
ENDBRANCH  49  63
BRANCH  50  71
ATOM     71  C   UNL A   1      41.534  30.333  32.876  1.00  0.00     0.057 A 
ATOM     72  C   UNL A   1      41.565  31.735  32.990  1.00  0.00     0.134 A 
ATOM     73  C   UNL A   1      40.279  29.720  32.903  1.00  0.00     0.134 A 
ATOM     74  F   UNL A   1      42.740  32.387  32.978  1.00  0.00    -0.206 F 
ATOM     75  C   UNL A   1      40.399  32.501  32.981  1.00  0.00     0.040 A 
ATOM     76  C   UNL A   1      39.103  30.478  32.921  1.00  0.00     0.040 A 
ATOM     77  F   UNL A   1      40.165  28.390  32.775  1.00  0.00    -0.206 F 
ATOM     78  C   UNL A   1      39.161  31.872  32.907  1.00  0.00     0.006 A 
ENDBRANCH  50  71
BRANCH  62  79
ATOM     79  C   UNL A   1      45.081  24.024  33.310  1.00  0.00     0.057 A 
ATOM     80  C   UNL A   1      44.198  22.973  33.588  1.00  0.00     0.134 A 
ATOM     81  C   UNL A   1      46.311  23.984  33.996  1.00  0.00     0.134 A 
ATOM     82  F   UNL A   1      42.976  22.933  33.035  1.00  0.00    -0.206 F 
ATOM     83  C   UNL A   1      44.531  21.932  34.464  1.00  0.00     0.040 A 
ATOM     84  C   UNL A   1      46.634  22.981  34.913  1.00  0.00     0.040 A 
ATOM     85  F   UNL A   1      47.268  24.901  33.787  1.00  0.00    -0.206 F 
ATOM     86  C   UNL A   1      45.747  21.942  35.142  1.00  0.00     0.006 A 
ENDBRANCH  62  79
ENDBRANCH  36  37
ENDBRANCH  28  31
ENDBRANCH  26  27
ENDBRANCH  25  26
ENDBRANCH   1  25
TORSDOF 13
ENDMDL
MODEL 2
REMARK VINA RESULT:     -12.6      1.784      2.592
REMARK SMILES Cc1cccc(NS(=O)(=O)c2ccc(Br)c(C(=O)NCCCNC(=O)c3ccc(-c4c5nc(c(-c6c(F)cccc6F)c6ccc([nH]6)c(-c6c(F)cccc6F)c6nc(c(-c7c(F)cccc7F)c7ccc4[nH]7)C=C6)C=C5)cc3)c2)c1
REMARK SMILES IDX 20 1 19 2 17 3 18 4 16 6 11 7 12 8 80 9 13 10 14 11 15 12
REMARK SMILES IDX 8 13 9 14 10 15 7 16 6 18 1 19 2 20 3 21 81 22 4 23 5 24
REMARK SMILES IDX 21 25 22 26 23 27 24 28 25 30 26 31 27 32 79 33 28 34 78 35
REMARK SMILES IDX 29 36 30 37 31 38 72 39 32 40 77 41 71 42 73 43 33 44 76 45
REMARK SMILES IDX 70 46 69 47 34 49 60 50 43 51 59 52 44 53 47 54 58 55 74 56
REMARK SMILES IDX 45 57 46 58 57 60 75 61 48 62 35 63 36 64 41 65 37 66 38 67
REMARK SMILES IDX 40 68 42 69 39 70 61 71 62 72 67 73 63 74 64 75 66 76 68 77
REMARK SMILES IDX 65 78 49 79 50 80 55 81 51 82 52 83 54 84 56 85 53 86
REMARK H PARENT 19 5 7 17 23 29 73 48 47 59
REMARK Flexibility Score: inf
ROOT
ATOM      1  C   UNL A   1      32.163  30.198  26.329  1.00  0.00     0.118 C 
ENDROOT
BRANCH   1   2
ATOM      2  N   UNL A   1      32.832  29.932  25.066  1.00  0.00    -0.352 N 
ATOM      3  C   UNL A   1      32.824  28.841  24.222  1.00  0.00     0.252 C 
ATOM      4  O   UNL A   1      33.393  28.954  23.136  1.00  0.00    -0.269 OA
ATOM      5  H   UNL A   1      33.399  30.673  24.753  1.00  0.00     0.163 HD
BRANCH   3   6
ATOM      6  C   UNL A   1      32.305  27.505  24.628  1.00  0.00     0.055 A 
ATOM      7  C   UNL A   1      32.806  25.340  25.578  1.00  0.00     0.088 A 
ATOM      8  C   UNL A   1      31.568  25.327  26.212  1.00  0.00     0.023 A 
ATOM      9  C   UNL A   1      33.230  26.491  24.904  1.00  0.00     0.037 A 
ATOM     10  C   UNL A   1      30.605  26.227  25.766  1.00  0.00     0.018 A 
ATOM     11  C   UNL A   1      30.964  27.195  24.827  1.00  0.00     0.030 A 
ATOM     12  Br  UNL A   1      29.670  27.551  23.450  1.00  0.00    -0.050 Br
BRANCH   7  13
ATOM     13  S   UNL A   1      33.779  23.858  25.504  1.00  0.00     0.261 S 
ATOM     14  O   UNL A   1      33.174  23.006  24.527  1.00  0.00    -0.201 OA
ATOM     15  O   UNL A   1      33.958  23.398  26.881  1.00  0.00    -0.201 OA
BRANCH  13  16
ATOM     16  N   UNL A   1      35.364  24.182  24.945  1.00  0.00    -0.280 N 
ATOM     17  H   UNL A   1      35.497  24.982  24.387  1.00  0.00     0.180 HD
BRANCH  16  18
ATOM     18  C   UNL A   1      36.515  23.370  25.230  1.00  0.00     0.049 A 
ATOM     19  C   UNL A   1      37.625  19.756  24.653  1.00  0.00     0.044 C 
ATOM     20  C   UNL A   1      37.629  21.200  25.065  1.00  0.00    -0.049 A 
ATOM     21  C   UNL A   1      38.729  21.721  25.751  1.00  0.00     0.003 A 
ATOM     22  C   UNL A   1      36.541  22.042  24.778  1.00  0.00     0.030 A 
ATOM     23  C   UNL A   1      38.677  23.014  26.268  1.00  0.00     0.002 A 
ATOM     24  C   UNL A   1      37.541  23.807  26.066  1.00  0.00     0.027 A 
ENDBRANCH  16  18
ENDBRANCH  13  16
ENDBRANCH   7  13
ENDBRANCH   3   6
ENDBRANCH   1   2
BRANCH   1  25
ATOM     25  C   UNL A   1      32.949  31.028  27.318  1.00  0.00     0.042 C 
BRANCH  25  26
ATOM     26  C   UNL A   1      34.437  30.741  27.248  1.00  0.00     0.118 C 
BRANCH  26  27
ATOM     27  N   UNL A   1      35.243  31.526  28.198  1.00  0.00    -0.352 N 
ATOM     28  C   UNL A   1      36.414  31.199  28.868  1.00  0.00     0.251 C 
ATOM     29  H   UNL A   1      34.897  32.428  28.388  1.00  0.00     0.163 HD
ATOM     30  O   UNL A   1      37.004  32.049  29.528  1.00  0.00    -0.269 OA
BRANCH  28  31
ATOM     31  C   UNL A   1      37.036  29.871  28.647  1.00  0.00     0.039 A 
ATOM     32  C   UNL A   1      37.038  28.975  29.721  1.00  0.00     0.014 A 
ATOM     33  C   UNL A   1      37.942  29.725  27.613  1.00  0.00     0.014 A 
ATOM     34  C   UNL A   1      38.168  28.196  29.936  1.00  0.00     0.010 A 
ATOM     35  C   UNL A   1      39.139  29.132  27.930  1.00  0.00     0.010 A 
ATOM     36  C   UNL A   1      39.276  28.417  29.128  1.00  0.00    -0.014 A 
BRANCH  36  37
ATOM     37  C   UNL A   1      40.636  28.017  29.462  1.00  0.00     0.031 A 
ATOM     38  C   UNL A   1      41.158  26.753  28.905  1.00  0.00     0.074 A 
ATOM     39  C   UNL A   1      41.459  28.883  30.095  1.00  0.00     0.049 A 
ATOM     40  N   UNL A   1      42.293  26.231  29.206  1.00  0.00    -0.248 NA
ATOM     41  C   UNL A   1      40.395  25.947  27.960  1.00  0.00     0.031 C 
ATOM     42  C   UNL A   1      42.919  28.839  30.160  1.00  0.00     0.029 A 
ATOM     43  N   UNL A   1      41.109  29.882  31.015  1.00  0.00    -0.354 N 
ATOM     44  C   UNL A   1      42.536  25.201  28.328  1.00  0.00     0.074 A 
ATOM     45  C   UNL A   1      41.301  25.040  27.601  1.00  0.00     0.031 C 
ATOM     46  C   UNL A   1      43.327  29.511  31.246  1.00  0.00     0.029 A 
ATOM     47  C   UNL A   1      42.136  29.864  31.995  1.00  0.00     0.049 A 
ATOM     48  H   UNL A   1      40.320  30.469  30.988  1.00  0.00     0.167 HD
ATOM     49  C   UNL A   1      43.797  24.687  28.268  1.00  0.00     0.037 A 
ATOM     50  C   UNL A   1      41.870  29.461  33.273  1.00  0.00     0.037 A 
ATOM     51  C   UNL A   1      44.613  25.193  29.376  1.00  0.00     0.049 A 
ATOM     52  C   UNL A   1      42.614  28.212  33.713  1.00  0.00     0.074 A 
ATOM     53  C   UNL A   1      45.578  26.176  29.526  1.00  0.00     0.029 A 
ATOM     54  N   UNL A   1      44.232  24.845  30.659  1.00  0.00    -0.354 N 
ATOM     55  N   UNL A   1      43.390  27.502  32.941  1.00  0.00    -0.248 NA
ATOM     56  C   UNL A   1      42.468  27.618  35.043  1.00  0.00     0.031 C 
ATOM     57  C   UNL A   1      45.743  26.427  30.923  1.00  0.00     0.029 A 
ATOM     58  C   UNL A   1      44.888  25.588  31.616  1.00  0.00     0.049 A 
ATOM     59  H   UNL A   1      43.567  24.149  30.865  1.00  0.00     0.167 HD
ATOM     60  C   UNL A   1      43.784  26.369  33.601  1.00  0.00     0.074 A 
ATOM     61  C   UNL A   1      43.187  26.489  34.920  1.00  0.00     0.031 C 
ATOM     62  C   UNL A   1      44.529  25.388  33.012  1.00  0.00     0.037 A 
BRANCH  49  63
ATOM     63  C   UNL A   1      44.353  23.872  27.119  1.00  0.00     0.057 A 
ATOM     64  C   UNL A   1      45.322  24.430  26.262  1.00  0.00     0.134 A 
ATOM     65  C   UNL A   1      43.948  22.577  26.748  1.00  0.00     0.134 A 
ATOM     66  F   UNL A   1      45.883  25.621  26.512  1.00  0.00    -0.206 F 
ATOM     67  C   UNL A   1      45.770  23.797  25.094  1.00  0.00     0.040 A 
ATOM     68  C   UNL A   1      44.350  21.950  25.560  1.00  0.00     0.040 A 
ATOM     69  F   UNL A   1      43.194  21.809  27.537  1.00  0.00    -0.206 F 
ATOM     70  C   UNL A   1      45.258  22.566  24.719  1.00  0.00     0.006 A 
ENDBRANCH  49  63
BRANCH  50  71
ATOM     71  C   UNL A   1      40.498  29.847  33.707  1.00  0.00     0.057 A 
ATOM     72  C   UNL A   1      40.284  31.170  34.137  1.00  0.00     0.134 A 
ATOM     73  C   UNL A   1      39.375  29.114  33.319  1.00  0.00     0.134 A 
ATOM     74  F   UNL A   1      41.320  31.929  34.530  1.00  0.00    -0.206 F 
ATOM     75  C   UNL A   1      39.032  31.781  34.044  1.00  0.00     0.040 A 
ATOM     76  C   UNL A   1      38.110  29.709  33.248  1.00  0.00     0.040 A 
ATOM     77  F   UNL A   1      39.501  27.855  32.874  1.00  0.00    -0.206 F 
ATOM     78  C   UNL A   1      37.946  31.059  33.561  1.00  0.00     0.006 A 
ENDBRANCH  50  71
BRANCH  62  79
ATOM     79  C   UNL A   1      44.957  24.130  33.716  1.00  0.00     0.057 A 
ATOM     80  C   UNL A   1      46.298  23.851  34.007  1.00  0.00     0.134 A 
ATOM     81  C   UNL A   1      44.042  23.099  34.009  1.00  0.00     0.134 A 
ATOM     82  F   UNL A   1      47.265  24.736  33.722  1.00  0.00    -0.206 F 
ATOM     83  C   UNL A   1      46.698  22.638  34.584  1.00  0.00     0.040 A 
ATOM     84  C   UNL A   1      44.435  21.865  34.533  1.00  0.00     0.040 A 
ATOM     85  F   UNL A   1      42.722  23.251  33.825  1.00  0.00    -0.206 F 
ATOM     86  C   UNL A   1      45.768  21.635  34.835  1.00  0.00     0.006 A 
ENDBRANCH  62  79
ENDBRANCH  36  37
ENDBRANCH  28  31
ENDBRANCH  26  27
ENDBRANCH  25  26
ENDBRANCH   1  25
TORSDOF 13
ENDMDL
MODEL 3
REMARK VINA RESULT:     -12.4      3.990      9.560
REMARK SMILES Cc1cccc(NS(=O)(=O)c2ccc(Br)c(C(=O)NCCCNC(=O)c3ccc(-c4c5nc(c(-c6c(F)cccc6F)c6ccc([nH]6)c(-c6c(F)cccc6F)c6nc(c(-c7c(F)cccc7F)c7ccc4[nH]7)C=C6)C=C5)cc3)c2)c1
REMARK SMILES IDX 20 1 19 2 17 3 18 4 16 6 11 7 12 8 80 9 13 10 14 11 15 12
REMARK SMILES IDX 8 13 9 14 10 15 7 16 6 18 1 19 2 20 3 21 81 22 4 23 5 24
REMARK SMILES IDX 21 25 22 26 23 27 24 28 25 30 26 31 27 32 79 33 28 34 78 35
REMARK SMILES IDX 29 36 30 37 31 38 72 39 32 40 77 41 71 42 73 43 33 44 76 45
REMARK SMILES IDX 70 46 69 47 34 49 60 50 43 51 59 52 44 53 47 54 58 55 74 56
REMARK SMILES IDX 45 57 46 58 57 60 75 61 48 62 35 63 36 64 41 65 37 66 38 67
REMARK SMILES IDX 40 68 42 69 39 70 61 71 62 72 67 73 63 74 64 75 66 76 68 77
REMARK SMILES IDX 65 78 49 79 50 80 55 81 51 82 52 83 54 84 56 85 53 86
REMARK H PARENT 19 5 7 17 23 29 73 48 47 59
REMARK Flexibility Score: inf
ROOT
ATOM      1  C   UNL A   1      37.173  21.568  25.091  1.00  0.00     0.118 C 
ENDROOT
BRANCH   1   2
ATOM      2  N   UNL A   1      36.198  21.559  26.168  1.00  0.00    -0.352 N 
ATOM      3  C   UNL A   1      34.871  21.931  26.223  1.00  0.00     0.252 C 
ATOM      4  O   UNL A   1      34.250  21.683  27.257  1.00  0.00    -0.269 OA
ATOM      5  H   UNL A   1      36.552  21.221  27.023  1.00  0.00     0.163 HD
BRANCH   3   6
ATOM      6  C   UNL A   1      34.213  22.751  25.167  1.00  0.00     0.055 A 
ATOM      7  C   UNL A   1      33.790  24.962  24.288  1.00  0.00     0.088 A 
ATOM      8  C   UNL A   1      33.859  24.464  22.991  1.00  0.00     0.023 A 
ATOM      9  C   UNL A   1      34.109  24.132  25.369  1.00  0.00     0.037 A 
ATOM     10  C   UNL A   1      33.757  23.086  22.823  1.00  0.00     0.018 A 
ATOM     11  C   UNL A   1      33.750  22.263  23.949  1.00  0.00     0.030 A 
ATOM     12  Br  UNL A   1      32.533  20.776  23.899  1.00  0.00    -0.050 Br
BRANCH   7  13
ATOM     13  S   UNL A   1      33.165  26.597  24.578  1.00  0.00     0.261 S 
ATOM     14  O   UNL A   1      31.752  26.552  24.359  1.00  0.00    -0.201 OA
ATOM     15  O   UNL A   1      34.007  27.516  23.810  1.00  0.00    -0.201 OA
BRANCH  13  16
ATOM     16  N   UNL A   1      33.386  27.067  26.208  1.00  0.00    -0.280 N 
ATOM     17  H   UNL A   1      33.429  26.356  26.887  1.00  0.00     0.180 HD
BRANCH  16  18
ATOM     18  C   UNL A   1      33.511  28.427  26.659  1.00  0.00     0.049 A 
ATOM     19  C   UNL A   1      31.423  31.629  26.563  1.00  0.00     0.044 C 
ATOM     20  C   UNL A   1      32.534  30.659  26.848  1.00  0.00    -0.049 A 
ATOM     21  C   UNL A   1      33.683  31.098  27.510  1.00  0.00     0.003 A 
ATOM     22  C   UNL A   1      32.442  29.312  26.458  1.00  0.00     0.030 A 
ATOM     23  C   UNL A   1      34.776  30.245  27.644  1.00  0.00     0.002 A 
ATOM     24  C   UNL A   1      34.710  28.935  27.154  1.00  0.00     0.027 A 
ENDBRANCH  16  18
ENDBRANCH  13  16
ENDBRANCH   7  13
ENDBRANCH   3   6
ENDBRANCH   1   2
BRANCH   1  25
ATOM     25  C   UNL A   1      38.620  21.629  25.525  1.00  0.00     0.042 C 
BRANCH  25  26
ATOM     26  C   UNL A   1      38.861  22.713  26.558  1.00  0.00     0.118 C 
BRANCH  26  27
ATOM     27  N   UNL A   1      40.284  22.968  26.837  1.00  0.00    -0.352 N 
ATOM     28  C   UNL A   1      40.932  24.139  27.206  1.00  0.00     0.251 C 
ATOM     29  H   UNL A   1      40.869  22.182  26.750  1.00  0.00     0.163 HD
ATOM     30  O   UNL A   1      42.118  24.114  27.517  1.00  0.00    -0.269 OA
BRANCH  28  31
ATOM     31  C   UNL A   1      40.146  25.384  27.383  1.00  0.00     0.039 A 
ATOM     32  C   UNL A   1      40.418  26.445  26.512  1.00  0.00     0.014 A 
ATOM     33  C   UNL A   1      39.536  25.618  28.601  1.00  0.00     0.014 A 
ATOM     34  C   UNL A   1      40.431  27.737  27.022  1.00  0.00     0.010 A 
ATOM     35  C   UNL A   1      39.755  26.850  29.166  1.00  0.00     0.010 A 
ATOM     36  C   UNL A   1      40.266  27.900  28.391  1.00  0.00    -0.014 A 
BRANCH  36  37
ATOM     37  C   UNL A   1      40.659  29.089  29.136  1.00  0.00     0.031 A 
ATOM     38  C   UNL A   1      39.644  30.130  29.392  1.00  0.00     0.074 A 
ATOM     39  C   UNL A   1      41.864  29.136  29.748  1.00  0.00     0.049 A 
ATOM     40  N   UNL A   1      39.881  31.269  29.937  1.00  0.00    -0.248 NA
ATOM     41  C   UNL A   1      38.247  29.963  29.011  1.00  0.00     0.031 C 
ATOM     42  C   UNL A   1      42.277  30.022  30.835  1.00  0.00     0.029 A 
ATOM     43  N   UNL A   1      43.056  28.517  29.343  1.00  0.00    -0.354 N 
ATOM     44  C   UNL A   1      38.676  31.866  30.225  1.00  0.00     0.074 A 
ATOM     45  C   UNL A   1      37.692  31.027  29.587  1.00  0.00     0.031 C 
ATOM     46  C   UNL A   1      43.613  30.136  30.819  1.00  0.00     0.029 A 
ATOM     47  C   UNL A   1      44.080  29.459  29.625  1.00  0.00     0.049 A 
ATOM     48  H   UNL A   1      43.160  27.622  28.948  1.00  0.00     0.167 HD
ATOM     49  C   UNL A   1      38.671  32.944  31.059  1.00  0.00     0.037 A 
ATOM     50  C   UNL A   1      44.772  30.056  28.609  1.00  0.00     0.037 A 
ATOM     51  C   UNL A   1      40.038  33.421  31.291  1.00  0.00     0.049 A 
ATOM     52  C   UNL A   1      44.599  31.562  28.524  1.00  0.00     0.074 A 
ATOM     53  C   UNL A   1      40.972  33.292  32.306  1.00  0.00     0.029 A 
ATOM     54  N   UNL A   1      40.735  33.914  30.203  1.00  0.00    -0.354 N 
ATOM     55  N   UNL A   1      43.801  32.261  29.283  1.00  0.00    -0.248 NA
ATOM     56  C   UNL A   1      45.255  32.389  27.508  1.00  0.00     0.031 C 
ATOM     57  C   UNL A   1      42.244  33.690  31.793  1.00  0.00     0.029 A 
ATOM     58  C   UNL A   1      42.078  34.071  30.474  1.00  0.00     0.049 A 
ATOM     59  H   UNL A   1      40.321  34.126  29.336  1.00  0.00     0.167 HD
ATOM     60  C   UNL A   1      43.772  33.560  28.849  1.00  0.00     0.074 A 
ATOM     61  C   UNL A   1      44.706  33.594  27.739  1.00  0.00     0.031 C 
ATOM     62  C   UNL A   1      42.952  34.505  29.395  1.00  0.00     0.037 A 
BRANCH  49  63
ATOM     63  C   UNL A   1      37.461  33.463  31.807  1.00  0.00     0.057 A 
ATOM     64  C   UNL A   1      36.379  34.020  31.099  1.00  0.00     0.134 A 
ATOM     65  C   UNL A   1      37.311  33.515  33.205  1.00  0.00     0.134 A 
ATOM     66  F   UNL A   1      36.316  33.979  29.761  1.00  0.00    -0.206 F 
ATOM     67  C   UNL A   1      35.298  34.657  31.725  1.00  0.00     0.040 A 
ATOM     68  C   UNL A   1      36.260  34.188  33.846  1.00  0.00     0.040 A 
ATOM     69  F   UNL A   1      38.126  32.867  34.038  1.00  0.00    -0.206 F 
ATOM     70  C   UNL A   1      35.251  34.773  33.104  1.00  0.00     0.006 A 
ENDBRANCH  49  63
BRANCH  50  71
ATOM     71  C   UNL A   1      44.966  29.141  27.450  1.00  0.00     0.057 A 
ATOM     72  C   UNL A   1      45.987  28.177  27.526  1.00  0.00     0.134 A 
ATOM     73  C   UNL A   1      43.952  28.922  26.515  1.00  0.00     0.134 A 
ATOM     74  F   UNL A   1      46.996  28.329  28.400  1.00  0.00    -0.206 F 
ATOM     75  C   UNL A   1      45.925  26.979  26.811  1.00  0.00     0.040 A 
ATOM     76  C   UNL A   1      43.894  27.737  25.773  1.00  0.00     0.040 A 
ATOM     77  F   UNL A   1      42.930  29.784  26.400  1.00  0.00    -0.206 F 
ATOM     78  C   UNL A   1      44.853  26.740  25.958  1.00  0.00     0.006 A 
ENDBRANCH  50  71
BRANCH  62  79
ATOM     79  C   UNL A   1      42.895  35.932  28.922  1.00  0.00     0.057 A 
ATOM     80  C   UNL A   1      43.428  36.992  29.666  1.00  0.00     0.134 A 
ATOM     81  C   UNL A   1      42.187  36.298  27.760  1.00  0.00     0.134 A 
ATOM     82  F   UNL A   1      44.076  36.770  30.819  1.00  0.00    -0.206 F 
ATOM     83  C   UNL A   1      43.294  38.327  29.261  1.00  0.00     0.040 A 
ATOM     84  C   UNL A   1      42.000  37.628  27.374  1.00  0.00     0.040 A 
ATOM     85  F   UNL A   1      41.667  35.381  26.930  1.00  0.00    -0.206 F 
ATOM     86  C   UNL A   1      42.565  38.649  28.121  1.00  0.00     0.006 A 
ENDBRANCH  62  79
ENDBRANCH  36  37
ENDBRANCH  28  31
ENDBRANCH  26  27
ENDBRANCH  25  26
ENDBRANCH   1  25
TORSDOF 13
ENDMDL
