MODEL 1
REMARK VINA RESULT:     -11.7      0.000      0.000
REMARK SMILES COC(=O)c1ccccc1N1C(=O)/C(=C\c2ccc(-c3ccc(Cl)c(C(=O)NCCCNC(=O)c4ccc(-c5c6nc(c(-c7c(F)cccc7F)c7ccc([nH]7)c(-c7c(F)cccc7F)c7nc(c(-c8c(F)cccc8F)c8ccc5[nH]8)C=C7)C=C6)cc4)c3)o2)SC1=S
REMARK SMILES IDX 26 1 27 2 28 3 25 5 20 6 21 7 89 8 22 9 23 10 24 11 19 12
REMARK SMILES IDX 16 13 17 14 90 15 18 16 15 17 11 18 12 19 92 20 13 21 14 22
REMARK SMILES IDX 91 23 93 24 10 25 5 26 6 27 7 28 9 29 8 30 3 31 4 32 2 33
REMARK SMILES IDX 1 34 29 35 30 36 31 37 32 38 33 39 34 41 35 42 36 43 88 44
REMARK SMILES IDX 37 45 87 46 38 47 39 48 40 49 81 50 41 51 86 52 80 53 82 54
REMARK SMILES IDX 42 55 85 56 79 57 78 58 43 60 69 61 52 62 68 63 53 64 56 65
REMARK SMILES IDX 67 66 83 67 54 68 55 69 66 71 84 72 57 73 44 74 45 75 50 76
REMARK SMILES IDX 46 77 47 78 49 79 51 80 48 81 70 82 71 83 76 84 72 85 73 86
REMARK SMILES IDX 75 87 77 88 74 89 58 90 59 91 64 92 60 93 61 94 63 95 65 96
REMARK SMILES IDX 62 97
REMARK H PARENT 28 4 32 40 82 59 56 70
REMARK Flexibility Score: inf
ROOT
ATOM      1  C   UNL A   1      40.012  25.079  27.520  1.00  0.00     0.252 C 
ATOM      2  O   UNL A   1      39.721  25.264  28.699  1.00  0.00    -0.269 OA
ATOM      3  N   UNL A   1      40.573  26.147  26.840  1.00  0.00    -0.352 N 
ATOM      4  H   UNL A   1      40.588  26.974  27.374  1.00  0.00     0.163 HD
ENDROOT
BRANCH   1   5
ATOM      5  C   UNL A   1      39.743  23.764  26.870  1.00  0.00     0.059 A 
ATOM      6  C   UNL A   1      38.087  22.390  25.735  1.00  0.00     0.018 A 
ATOM      7  C   UNL A   1      38.854  21.253  25.977  1.00  0.00     0.013 A 
ATOM      8  C   UNL A   1      38.630  23.641  26.041  1.00  0.00     0.027 A 
ATOM      9  C   UNL A   1      40.098  21.378  26.601  1.00  0.00     0.022 A 
ATOM     10  C   UNL A   1      40.522  22.621  27.098  1.00  0.00     0.053 A 
ATOM     11  Cl  UNL A   1      41.988  22.618  28.012  1.00  0.00    -0.083 Cl
BRANCH   6  12
ATOM     12  C   UNL A   1      36.681  22.335  25.363  1.00  0.00     0.134 A 
ATOM     13  C   UNL A   1      35.019  22.703  23.937  1.00  0.00     0.128 A 
ATOM     14  C   UNL A   1      34.581  21.770  24.871  1.00  0.00     0.051 A 
ATOM     15  O   UNL A   1      36.326  23.012  24.232  1.00  0.00    -0.457 OA
ATOM     16  C   UNL A   1      35.620  21.574  25.802  1.00  0.00     0.051 A 
BRANCH  13  17
ATOM     17  C   UNL A   1      34.290  23.283  22.867  1.00  0.00     0.068 C 
ATOM     18  N   UNL A   1      32.730  26.337  24.107  1.00  0.00    -0.260 N 
ATOM     19  C   UNL A   1      33.644  25.302  24.237  1.00  0.00     0.270 C 
ATOM     20  C   UNL A   1      32.081  26.445  22.890  1.00  0.00     0.152 C 
ATOM     21  O   UNL A   1      34.378  25.118  25.200  1.00  0.00    -0.268 OA
ATOM     22  C   UNL A   1      33.623  24.435  23.025  1.00  0.00     0.084 C 
ATOM     23  S   UNL A   1      32.580  25.116  21.837  1.00  0.00    -0.054 SA
ATOM     24  S   UNL A   1      31.056  27.648  22.346  1.00  0.00    -0.051 S 
BRANCH  18  25
ATOM     25  C   UNL A   1      32.564  27.218  25.216  1.00  0.00     0.065 A 
ATOM     26  C   UNL A   1      31.693  26.973  26.292  1.00  0.00     0.084 A 
ATOM     27  C   UNL A   1      31.654  27.877  27.370  1.00  0.00     0.018 A 
ATOM     28  C   UNL A   1      32.491  28.994  27.401  1.00  0.00     0.001 A 
ATOM     29  C   UNL A   1      33.403  28.352  25.269  1.00  0.00     0.028 A 
ATOM     30  C   UNL A   1      33.369  29.229  26.351  1.00  0.00     0.002 A 
BRANCH  26  31
ATOM     31  C   UNL A   1      30.849  25.758  26.455  1.00  0.00     0.339 C 
ATOM     32  O   UNL A   1      29.670  25.720  26.159  1.00  0.00    -0.246 OA
BRANCH  31  33
ATOM     33  O   UNL A   1      31.552  24.761  27.056  1.00  0.00    -0.465 OA
ATOM     34  C   UNL A   1      31.106  23.453  26.689  1.00  0.00     0.282 C 
ENDBRANCH  31  33
ENDBRANCH  26  31
ENDBRANCH  18  25
ENDBRANCH  13  17
ENDBRANCH   6  12
ENDBRANCH   1   5
BRANCH   3  35
ATOM     35  C   UNL A   1      41.149  26.321  25.507  1.00  0.00     0.118 C 
BRANCH  35  36
ATOM     36  C   UNL A   1      42.656  26.143  25.429  1.00  0.00     0.042 C 
BRANCH  36  37
ATOM     37  C   UNL A   1      43.130  24.702  25.345  1.00  0.00     0.118 C 
BRANCH  37  38
ATOM     38  N   UNL A   1      44.556  24.550  25.611  1.00  0.00    -0.352 N 
ATOM     39  C   UNL A   1      45.367  25.081  26.586  1.00  0.00     0.251 C 
ATOM     40  H   UNL A   1      45.023  23.961  24.976  1.00  0.00     0.163 HD
ATOM     41  O   UNL A   1      46.584  24.944  26.490  1.00  0.00    -0.269 OA
BRANCH  39  42
ATOM     42  C   UNL A   1      44.810  25.836  27.733  1.00  0.00     0.039 A 
ATOM     43  C   UNL A   1      45.072  27.208  27.832  1.00  0.00     0.014 A 
ATOM     44  C   UNL A   1      44.075  25.206  28.736  1.00  0.00     0.014 A 
ATOM     45  C   UNL A   1      44.529  27.954  28.883  1.00  0.00     0.010 A 
ATOM     46  C   UNL A   1      43.451  25.963  29.725  1.00  0.00     0.010 A 
ATOM     47  C   UNL A   1      43.674  27.344  29.813  1.00  0.00    -0.014 A 
BRANCH  47  48
ATOM     48  C   UNL A   1      43.006  28.118  30.892  1.00  0.00     0.031 A 
ATOM     49  C   UNL A   1      41.694  28.805  30.629  1.00  0.00     0.074 A 
ATOM     50  C   UNL A   1      43.624  28.281  32.079  1.00  0.00     0.049 A 
ATOM     51  N   UNL A   1      41.024  29.634  31.389  1.00  0.00    -0.248 NA
ATOM     52  C   UNL A   1      41.069  28.556  29.319  1.00  0.00     0.031 C 
ATOM     53  C   UNL A   1      44.922  27.711  32.445  1.00  0.00     0.029 A 
ATOM     54  N   UNL A   1      43.250  28.995  33.191  1.00  0.00    -0.354 N 
ATOM     55  C   UNL A   1      39.921  30.027  30.641  1.00  0.00     0.074 A 
ATOM     56  C   UNL A   1      40.034  29.382  29.350  1.00  0.00     0.031 C 
ATOM     57  C   UNL A   1      45.227  28.081  33.699  1.00  0.00     0.029 A 
ATOM     58  C   UNL A   1      44.171  28.948  34.211  1.00  0.00     0.049 A 
ATOM     59  H   UNL A   1      42.403  29.493  33.251  1.00  0.00     0.167 HD
ATOM     60  C   UNL A   1      38.895  30.833  31.002  1.00  0.00     0.037 A 
ATOM     61  C   UNL A   1      44.169  29.547  35.417  1.00  0.00     0.037 A 
ATOM     62  C   UNL A   1      38.761  31.437  32.302  1.00  0.00     0.049 A 
ATOM     63  C   UNL A   1      43.011  30.423  35.802  1.00  0.00     0.074 A 
ATOM     64  C   UNL A   1      37.721  32.210  32.790  1.00  0.00     0.029 A 
ATOM     65  N   UNL A   1      39.696  31.332  33.320  1.00  0.00    -0.354 N 
ATOM     66  N   UNL A   1      41.945  30.736  35.105  1.00  0.00    -0.248 NA
ATOM     67  C   UNL A   1      43.052  31.027  37.142  1.00  0.00     0.031 C 
ATOM     68  C   UNL A   1      38.044  32.602  34.094  1.00  0.00     0.029 A 
ATOM     69  C   UNL A   1      39.265  32.040  34.430  1.00  0.00     0.049 A 
ATOM     70  H   UNL A   1      40.540  30.829  33.263  1.00  0.00     0.167 HD
ATOM     71  C   UNL A   1      41.178  31.549  35.930  1.00  0.00     0.074 A 
ATOM     72  C   UNL A   1      41.895  31.671  37.183  1.00  0.00     0.031 C 
ATOM     73  C   UNL A   1      39.986  32.142  35.673  1.00  0.00     0.037 A 
BRANCH  60  74
ATOM     74  C   UNL A   1      37.830  31.102  29.979  1.00  0.00     0.057 A 
ATOM     75  C   UNL A   1      36.787  30.196  29.743  1.00  0.00     0.134 A 
ATOM     76  C   UNL A   1      37.829  32.293  29.242  1.00  0.00     0.134 A 
ATOM     77  F   UNL A   1      36.735  29.031  30.407  1.00  0.00    -0.206 F 
ATOM     78  C   UNL A   1      35.798  30.453  28.792  1.00  0.00     0.040 A 
ATOM     79  C   UNL A   1      36.831  32.573  28.308  1.00  0.00     0.040 A 
ATOM     80  F   UNL A   1      38.795  33.206  29.424  1.00  0.00    -0.206 F 
ATOM     81  C   UNL A   1      35.815  31.648  28.076  1.00  0.00     0.006 A 
ENDBRANCH  60  74
BRANCH  61  82
ATOM     82  C   UNL A   1      45.294  29.320  36.359  1.00  0.00     0.057 A 
ATOM     83  C   UNL A   1      46.432  30.135  36.327  1.00  0.00     0.134 A 
ATOM     84  C   UNL A   1      45.265  28.290  37.304  1.00  0.00     0.134 A 
ATOM     85  F   UNL A   1      46.527  31.128  35.430  1.00  0.00    -0.206 F 
ATOM     86  C   UNL A   1      47.508  29.923  37.190  1.00  0.00     0.040 A 
ATOM     87  C   UNL A   1      46.323  28.081  38.190  1.00  0.00     0.040 A 
ATOM     88  F   UNL A   1      44.199  27.481  37.392  1.00  0.00    -0.206 F 
ATOM     89  C   UNL A   1      47.452  28.895  38.129  1.00  0.00     0.006 A 
ENDBRANCH  61  82
BRANCH  73  90
ATOM     90  C   UNL A   1      39.367  32.945  36.777  1.00  0.00     0.057 A 
ATOM     91  C   UNL A   1      38.369  32.416  37.605  1.00  0.00     0.134 A 
ATOM     92  C   UNL A   1      39.807  34.248  37.041  1.00  0.00     0.134 A 
ATOM     93  F   UNL A   1      37.896  31.179  37.394  1.00  0.00    -0.206 F 
ATOM     94  C   UNL A   1      37.818  33.164  38.646  1.00  0.00     0.040 A 
ATOM     95  C   UNL A   1      39.280  34.996  38.094  1.00  0.00     0.040 A 
ATOM     96  F   UNL A   1      40.766  34.810  36.288  1.00  0.00    -0.206 F 
ATOM     97  C   UNL A   1      38.279  34.455  38.897  1.00  0.00     0.006 A 
ENDBRANCH  73  90
ENDBRANCH  47  48
ENDBRANCH  39  42
ENDBRANCH  37  38
ENDBRANCH  36  37
ENDBRANCH  35  36
ENDBRANCH   3  35
TORSDOF 15
ENDMDL
MODEL 2
REMARK VINA RESULT:     -11.6      3.161      8.831
REMARK SMILES COC(=O)c1ccccc1N1C(=O)/C(=C\c2ccc(-c3ccc(Cl)c(C(=O)NCCCNC(=O)c4ccc(-c5c6nc(c(-c7c(F)cccc7F)c7ccc([nH]7)c(-c7c(F)cccc7F)c7nc(c(-c8c(F)cccc8F)c8ccc5[nH]8)C=C7)C=C6)cc4)c3)o2)SC1=S
REMARK SMILES IDX 26 1 27 2 28 3 25 5 20 6 21 7 89 8 22 9 23 10 24 11 19 12
REMARK SMILES IDX 16 13 17 14 90 15 18 16 15 17 11 18 12 19 92 20 13 21 14 22
REMARK SMILES IDX 91 23 93 24 10 25 5 26 6 27 7 28 9 29 8 30 3 31 4 32 2 33
REMARK SMILES IDX 1 34 29 35 30 36 31 37 32 38 33 39 34 41 35 42 36 43 88 44
REMARK SMILES IDX 37 45 87 46 38 47 39 48 40 49 81 50 41 51 86 52 80 53 82 54
REMARK SMILES IDX 42 55 85 56 79 57 78 58 43 60 69 61 52 62 68 63 53 64 56 65
REMARK SMILES IDX 67 66 83 67 54 68 55 69 66 71 84 72 57 73 44 74 45 75 50 76
REMARK SMILES IDX 46 77 47 78 49 79 51 80 48 81 70 82 71 83 76 84 72 85 73 86
REMARK SMILES IDX 75 87 77 88 74 89 58 90 59 91 64 92 60 93 61 94 63 95 65 96
REMARK SMILES IDX 62 97
REMARK H PARENT 28 4 32 40 82 59 56 70
REMARK Flexibility Score: inf
ROOT
ATOM      1  C   UNL A   1      32.285  26.358  25.016  1.00  0.00     0.252 C 
ATOM      2  O   UNL A   1      32.151  26.286  23.797  1.00  0.00    -0.269 OA
ATOM      3  N   UNL A   1      32.026  27.585  25.602  1.00  0.00    -0.352 N 
ATOM      4  H   UNL A   1      31.848  28.294  24.942  1.00  0.00     0.163 HD
ENDROOT
BRANCH   1   5
ATOM      5  C   UNL A   1      32.729  25.170  25.801  1.00  0.00     0.059 A 
ATOM      6  C   UNL A   1      34.545  23.605  26.214  1.00  0.00     0.018 A 
ATOM      7  C   UNL A   1      33.657  22.725  26.826  1.00  0.00     0.013 A 
ATOM      8  C   UNL A   1      34.091  24.880  25.865  1.00  0.00     0.027 A 
ATOM      9  C   UNL A   1      32.319  23.094  26.991  1.00  0.00     0.022 A 
ATOM     10  C   UNL A   1      31.839  24.290  26.432  1.00  0.00     0.053 A 
ATOM     11  Cl  UNL A   1      30.135  24.552  26.538  1.00  0.00    -0.083 Cl
BRANCH   6  12
ATOM     12  C   UNL A   1      35.864  23.204  25.744  1.00  0.00     0.134 A 
ATOM     13  C   UNL A   1      37.377  21.656  25.254  1.00  0.00     0.128 A 
ATOM     14  C   UNL A   1      37.754  22.837  24.623  1.00  0.00     0.051 A 
ATOM     15  O   UNL A   1      36.192  21.889  25.910  1.00  0.00    -0.457 OA
ATOM     16  C   UNL A   1      36.819  23.829  24.974  1.00  0.00     0.051 A 
BRANCH  13  17
ATOM     17  C   UNL A   1      38.062  20.413  25.272  1.00  0.00     0.068 C 
ATOM     18  N   UNL A   1      41.337  20.966  26.778  1.00  0.00    -0.260 N 
ATOM     19  C   UNL A   1      40.042  21.380  26.503  1.00  0.00     0.270 C 
ATOM     20  C   UNL A   1      41.650  19.655  26.467  1.00  0.00     0.152 C 
ATOM     21  O   UNL A   1      39.564  22.467  26.803  1.00  0.00    -0.268 OA
ATOM     22  C   UNL A   1      39.293  20.306  25.792  1.00  0.00     0.084 C 
ATOM     23  S   UNL A   1      40.257  18.883  25.701  1.00  0.00    -0.054 SA
ATOM     24  S   UNL A   1      43.042  18.796  26.808  1.00  0.00    -0.051 S 
BRANCH  18  25
ATOM     25  C   UNL A   1      42.218  21.907  27.388  1.00  0.00     0.065 A 
ATOM     26  C   UNL A   1      43.348  22.453  26.752  1.00  0.00     0.084 A 
ATOM     27  C   UNL A   1      44.115  23.425  27.421  1.00  0.00     0.018 A 
ATOM     28  C   UNL A   1      43.752  23.878  28.690  1.00  0.00     0.001 A 
ATOM     29  C   UNL A   1      41.869  22.381  28.670  1.00  0.00     0.028 A 
ATOM     30  C   UNL A   1      42.625  23.358  29.314  1.00  0.00     0.002 A 
BRANCH  26  31
ATOM     31  C   UNL A   1      43.770  22.165  25.355  1.00  0.00     0.339 C 
ATOM     32  O   UNL A   1      43.117  22.486  24.381  1.00  0.00    -0.246 OA
BRANCH  31  33
ATOM     33  O   UNL A   1      44.913  21.427  25.340  1.00  0.00    -0.465 OA
ATOM     34  C   UNL A   1      45.004  20.545  24.218  1.00  0.00     0.282 C 
ENDBRANCH  31  33
ENDBRANCH  26  31
ENDBRANCH  18  25
ENDBRANCH  13  17
ENDBRANCH   6  12
ENDBRANCH   1   5
BRANCH   3  35
ATOM     35  C   UNL A   1      31.957  28.065  26.982  1.00  0.00     0.118 C 
BRANCH  35  36
ATOM     36  C   UNL A   1      31.561  29.524  27.137  1.00  0.00     0.042 C 
BRANCH  36  37
ATOM     37  C   UNL A   1      32.228  30.478  26.161  1.00  0.00     0.118 C 
BRANCH  37  38
ATOM     38  N   UNL A   1      32.064  31.880  26.526  1.00  0.00    -0.352 N 
ATOM     39  C   UNL A   1      32.779  32.695  27.372  1.00  0.00     0.251 C 
ATOM     40  H   UNL A   1      31.303  32.324  26.087  1.00  0.00     0.163 HD
ATOM     41  O   UNL A   1      32.330  33.804  27.653  1.00  0.00    -0.269 OA
BRANCH  39  42
ATOM     42  C   UNL A   1      34.060  32.258  27.973  1.00  0.00     0.039 A 
ATOM     43  C   UNL A   1      35.083  33.200  28.145  1.00  0.00     0.014 A 
ATOM     44  C   UNL A   1      34.288  30.929  28.326  1.00  0.00     0.014 A 
ATOM     45  C   UNL A   1      36.290  32.825  28.743  1.00  0.00     0.010 A 
ATOM     46  C   UNL A   1      35.448  30.577  29.012  1.00  0.00     0.010 A 
ATOM     47  C   UNL A   1      36.464  31.519  29.225  1.00  0.00    -0.014 A 
BRANCH  47  48
ATOM     48  C   UNL A   1      37.696  31.103  29.945  1.00  0.00     0.031 A 
ATOM     49  C   UNL A   1      38.693  30.195  29.276  1.00  0.00     0.074 A 
ATOM     50  C   UNL A   1      37.873  31.463  31.232  1.00  0.00     0.049 A 
ATOM     51  N   UNL A   1      39.752  29.613  29.779  1.00  0.00    -0.248 NA
ATOM     52  C   UNL A   1      38.444  29.869  27.863  1.00  0.00     0.031 C 
ATOM     53  C   UNL A   1      36.957  32.298  32.013  1.00  0.00     0.029 A 
ATOM     54  N   UNL A   1      38.875  31.154  32.118  1.00  0.00    -0.354 N 
ATOM     55  C   UNL A   1      40.275  28.832  28.757  1.00  0.00     0.074 A 
ATOM     56  C   UNL A   1      39.392  28.977  27.619  1.00  0.00     0.031 C 
ATOM     57  C   UNL A   1      37.449  32.449  33.253  1.00  0.00     0.029 A 
ATOM     58  C   UNL A   1      38.689  31.689  33.370  1.00  0.00     0.049 A 
ATOM     59  H   UNL A   1      39.654  30.601  31.878  1.00  0.00     0.167 HD
ATOM     60  C   UNL A   1      41.400  28.078  28.756  1.00  0.00     0.037 A 
ATOM     61  C   UNL A   1      39.428  31.571  34.489  1.00  0.00     0.037 A 
ATOM     62  C   UNL A   1      42.301  27.970  29.873  1.00  0.00     0.049 A 
ATOM     63  C   UNL A   1      40.682  30.744  34.459  1.00  0.00     0.074 A 
ATOM     64  C   UNL A   1      43.506  27.292  29.947  1.00  0.00     0.029 A 
ATOM     65  N   UNL A   1      42.096  28.561  31.111  1.00  0.00    -0.354 N 
ATOM     66  N   UNL A   1      41.196  30.059  33.466  1.00  0.00    -0.248 NA
ATOM     67  C   UNL A   1      41.461  30.674  35.704  1.00  0.00     0.031 C 
ATOM     68  C   UNL A   1      44.013  27.443  31.243  1.00  0.00     0.029 A 
ATOM     69  C   UNL A   1      43.144  28.249  31.961  1.00  0.00     0.049 A 
ATOM     70  H   UNL A   1      41.321  29.119  31.350  1.00  0.00     0.167 HD
ATOM     71  C   UNL A   1      42.369  29.501  33.956  1.00  0.00     0.074 A 
ATOM     72  C   UNL A   1      42.498  29.937  35.332  1.00  0.00     0.031 C 
ATOM     73  C   UNL A   1      43.261  28.700  33.324  1.00  0.00     0.037 A 
BRANCH  60  74
ATOM     74  C   UNL A   1      41.725  27.317  27.503  1.00  0.00     0.057 A 
ATOM     75  C   UNL A   1      42.648  27.799  26.565  1.00  0.00     0.134 A 
ATOM     76  C   UNL A   1      41.132  26.074  27.246  1.00  0.00     0.134 A 
ATOM     77  F   UNL A   1      43.243  28.988  26.745  1.00  0.00    -0.206 F 
ATOM     78  C   UNL A   1      42.948  27.085  25.403  1.00  0.00     0.040 A 
ATOM     79  C   UNL A   1      41.445  25.339  26.102  1.00  0.00     0.040 A 
ATOM     80  F   UNL A   1      40.246  25.553  28.107  1.00  0.00    -0.206 F 
ATOM     81  C   UNL A   1      42.350  25.848  25.173  1.00  0.00     0.006 A 
ENDBRANCH  60  74
BRANCH  61  82
ATOM     82  C   UNL A   1      39.012  32.271  35.730  1.00  0.00     0.057 A 
ATOM     83  C   UNL A   1      39.365  33.608  35.952  1.00  0.00     0.134 A 
ATOM     84  C   UNL A   1      38.261  31.629  36.720  1.00  0.00     0.134 A 
ATOM     85  F   UNL A   1      40.101  34.271  35.048  1.00  0.00    -0.206 F 
ATOM     86  C   UNL A   1      39.001  34.275  37.122  1.00  0.00     0.040 A 
ATOM     87  C   UNL A   1      37.869  32.292  37.885  1.00  0.00     0.040 A 
ATOM     88  F   UNL A   1      37.882  30.353  36.563  1.00  0.00    -0.206 F 
ATOM     89  C   UNL A   1      38.246  33.617  38.091  1.00  0.00     0.006 A 
ENDBRANCH  61  82
BRANCH  73  90
ATOM     90  C   UNL A   1      44.470  28.271  34.101  1.00  0.00     0.057 A 
ATOM     91  C   UNL A   1      44.497  27.070  34.820  1.00  0.00     0.134 A 
ATOM     92  C   UNL A   1      45.634  29.050  34.091  1.00  0.00     0.134 A 
ATOM     93  F   UNL A   1      43.409  26.288  34.879  1.00  0.00    -0.206 F 
ATOM     94  C   UNL A   1      45.636  26.668  35.519  1.00  0.00     0.040 A 
ATOM     95  C   UNL A   1      46.786  28.646  34.766  1.00  0.00     0.040 A 
ATOM     96  F   UNL A   1      45.674  30.208  33.415  1.00  0.00    -0.206 F 
ATOM     97  C   UNL A   1      46.788  27.453  35.486  1.00  0.00     0.006 A 
ENDBRANCH  73  90
ENDBRANCH  47  48
ENDBRANCH  39  42
ENDBRANCH  37  38
ENDBRANCH  36  37
ENDBRANCH  35  36
ENDBRANCH   3  35
TORSDOF 15
ENDMDL
MODEL 3
REMARK VINA RESULT:     -11.6      5.811      9.698
REMARK SMILES COC(=O)c1ccccc1N1C(=O)/C(=C\c2ccc(-c3ccc(Cl)c(C(=O)NCCCNC(=O)c4ccc(-c5c6nc(c(-c7c(F)cccc7F)c7ccc([nH]7)c(-c7c(F)cccc7F)c7nc(c(-c8c(F)cccc8F)c8ccc5[nH]8)C=C7)C=C6)cc4)c3)o2)SC1=S
REMARK SMILES IDX 26 1 27 2 28 3 25 5 20 6 21 7 89 8 22 9 23 10 24 11 19 12
REMARK SMILES IDX 16 13 17 14 90 15 18 16 15 17 11 18 12 19 92 20 13 21 14 22
REMARK SMILES IDX 91 23 93 24 10 25 5 26 6 27 7 28 9 29 8 30 3 31 4 32 2 33
REMARK SMILES IDX 1 34 29 35 30 36 31 37 32 38 33 39 34 41 35 42 36 43 88 44
REMARK SMILES IDX 37 45 87 46 38 47 39 48 40 49 81 50 41 51 86 52 80 53 82 54
REMARK SMILES IDX 42 55 85 56 79 57 78 58 43 60 69 61 52 62 68 63 53 64 56 65
REMARK SMILES IDX 67 66 83 67 54 68 55 69 66 71 84 72 57 73 44 74 45 75 50 76
REMARK SMILES IDX 46 77 47 78 49 79 51 80 48 81 70 82 71 83 76 84 72 85 73 86
REMARK SMILES IDX 75 87 77 88 74 89 58 90 59 91 64 92 60 93 61 94 63 95 65 96
REMARK SMILES IDX 62 97
REMARK H PARENT 28 4 32 40 82 59 56 70
REMARK Flexibility Score: inf
ROOT
ATOM      1  C   UNL A   1      37.509  28.893  30.488  1.00  0.00     0.252 C 
ATOM      2  O   UNL A   1      37.245  28.779  31.682  1.00  0.00    -0.269 OA
ATOM      3  N   UNL A   1      38.475  28.043  29.979  1.00  0.00    -0.352 N 
ATOM      4  H   UNL A   1      38.910  27.497  30.674  1.00  0.00     0.163 HD
ENDROOT
BRANCH   1   5
ATOM      5  C   UNL A   1      36.821  29.921  29.655  1.00  0.00     0.059 A 
ATOM      6  C   UNL A   1      35.117  30.320  27.966  1.00  0.00     0.018 A 
ATOM      7  C   UNL A   1      35.668  31.570  27.695  1.00  0.00     0.013 A 
ATOM      8  C   UNL A   1      35.606  29.595  29.056  1.00  0.00     0.027 A 
ATOM      9  C   UNL A   1      36.750  32.028  28.451  1.00  0.00     0.022 A 
ATOM     10  C   UNL A   1      37.364  31.187  29.393  1.00  0.00     0.053 A 
ATOM     11  Cl  UNL A   1      38.804  31.791  30.132  1.00  0.00    -0.083 Cl
BRANCH   6  12
ATOM     12  C   UNL A   1      34.195  29.646  27.062  1.00  0.00     0.134 A 
ATOM     13  C   UNL A   1      32.544  28.218  26.662  1.00  0.00     0.128 A 
ATOM     14  C   UNL A   1      32.647  29.069  25.567  1.00  0.00     0.051 A 
ATOM     15  O   UNL A   1      33.480  28.609  27.589  1.00  0.00    -0.457 OA
ATOM     16  C   UNL A   1      33.725  29.943  25.803  1.00  0.00     0.051 A 
BRANCH  13  17
ATOM     17  C   UNL A   1      31.668  27.115  26.837  1.00  0.00     0.068 C 
ATOM     18  N   UNL A   1      33.335  24.148  25.527  1.00  0.00    -0.260 N 
ATOM     19  C   UNL A   1      33.363  25.468  25.952  1.00  0.00     0.270 C 
ATOM     20  C   UNL A   1      32.164  23.447  25.753  1.00  0.00     0.152 C 
ATOM     21  O   UNL A   1      34.343  26.203  25.926  1.00  0.00    -0.268 OA
ATOM     22  C   UNL A   1      32.025  25.878  26.463  1.00  0.00     0.084 C 
ATOM     23  S   UNL A   1      30.965  24.522  26.483  1.00  0.00    -0.054 SA
ATOM     24  S   UNL A   1      31.848  21.822  25.520  1.00  0.00    -0.051 S 
BRANCH  18  25
ATOM     25  C   UNL A   1      34.518  23.617  24.934  1.00  0.00     0.065 A 
ATOM     26  C   UNL A   1      34.704  23.469  23.547  1.00  0.00     0.084 A 
ATOM     27  C   UNL A   1      35.937  22.995  23.061  1.00  0.00     0.018 A 
ATOM     28  C   UNL A   1      36.986  22.702  23.933  1.00  0.00     0.001 A 
ATOM     29  C   UNL A   1      35.594  23.317  25.795  1.00  0.00     0.028 A 
ATOM     30  C   UNL A   1      36.816  22.867  25.301  1.00  0.00     0.002 A 
BRANCH  26  31
ATOM     31  C   UNL A   1      33.724  23.871  22.502  1.00  0.00     0.339 C 
ATOM     32  O   UNL A   1      32.975  23.086  21.953  1.00  0.00    -0.246 OA
BRANCH  31  33
ATOM     33  O   UNL A   1      33.860  25.189  22.195  1.00  0.00    -0.465 OA
ATOM     34  C   UNL A   1      32.834  25.678  21.327  1.00  0.00     0.282 C 
ENDBRANCH  31  33
ENDBRANCH  26  31
ENDBRANCH  18  25
ENDBRANCH  13  17
ENDBRANCH   6  12
ENDBRANCH   1   5
BRANCH   3  35
ATOM     35  C   UNL A   1      38.996  27.773  28.638  1.00  0.00     0.118 C 
BRANCH  35  36
ATOM     36  C   UNL A   1      39.635  26.406  28.459  1.00  0.00     0.042 C 
BRANCH  36  37
ATOM     37  C   UNL A   1      39.595  25.859  27.043  1.00  0.00     0.118 C 
BRANCH  37  38
ATOM     38  N   UNL A   1      40.159  24.519  26.929  1.00  0.00    -0.352 N 
ATOM     39  C   UNL A   1      41.442  24.082  26.698  1.00  0.00     0.251 C 
ATOM     40  H   UNL A   1      39.501  23.794  27.038  1.00  0.00     0.163 HD
ATOM     41  O   UNL A   1      41.634  22.891  26.465  1.00  0.00    -0.269 OA
BRANCH  39  42
ATOM     42  C   UNL A   1      42.591  25.016  26.696  1.00  0.00     0.039 A 
ATOM     43  C   UNL A   1      43.009  25.572  25.480  1.00  0.00     0.014 A 
ATOM     44  C   UNL A   1      43.292  25.317  27.862  1.00  0.00     0.014 A 
ATOM     45  C   UNL A   1      44.068  26.486  25.452  1.00  0.00     0.010 A 
ATOM     46  C   UNL A   1      44.278  26.301  27.851  1.00  0.00     0.010 A 
ATOM     47  C   UNL A   1      44.681  26.894  26.646  1.00  0.00    -0.014 A 
BRANCH  47  48
ATOM     48  C   UNL A   1      45.748  27.928  26.669  1.00  0.00     0.031 A 
ATOM     49  C   UNL A   1      45.387  29.385  26.767  1.00  0.00     0.074 A 
ATOM     50  C   UNL A   1      47.035  27.564  26.507  1.00  0.00     0.049 A 
ATOM     51  N   UNL A   1      46.156  30.440  26.664  1.00  0.00    -0.248 NA
ATOM     52  C   UNL A   1      43.963  29.701  26.969  1.00  0.00     0.031 C 
ATOM     53  C   UNL A   1      47.516  26.189  26.351  1.00  0.00     0.029 A 
ATOM     54  N   UNL A   1      48.176  28.324  26.426  1.00  0.00    -0.354 N 
ATOM     55  C   UNL A   1      45.310  31.537  26.759  1.00  0.00     0.074 A 
ATOM     56  C   UNL A   1      43.963  31.022  26.880  1.00  0.00     0.031 C 
ATOM     57  C   UNL A   1      48.851  26.202  26.211  1.00  0.00     0.029 A 
ATOM     58  C   UNL A   1      49.318  27.585  26.225  1.00  0.00     0.049 A 
ATOM     59  H   UNL A   1      48.176  29.305  26.505  1.00  0.00     0.167 HD
ATOM     60  C   UNL A   1      45.626  32.854  26.766  1.00  0.00     0.037 A 
ATOM     61  C   UNL A   1      50.595  27.978  26.058  1.00  0.00     0.037 A 
ATOM     62  C   UNL A   1      46.970  33.363  26.691  1.00  0.00     0.049 A 
ATOM     63  C   UNL A   1      50.924  29.444  26.088  1.00  0.00     0.074 A 
ATOM     64  C   UNL A   1      47.400  34.676  26.765  1.00  0.00     0.029 A 
ATOM     65  N   UNL A   1      48.101  32.578  26.528  1.00  0.00    -0.354 N 
ATOM     66  N   UNL A   1      50.118  30.468  26.239  1.00  0.00    -0.248 NA
ATOM     67  C   UNL A   1      52.338  29.810  25.928  1.00  0.00     0.031 C 
ATOM     68  C   UNL A   1      48.791  34.689  26.611  1.00  0.00     0.029 A 
ATOM     69  C   UNL A   1      49.229  33.382  26.483  1.00  0.00     0.049 A 
ATOM     70  H   UNL A   1      48.104  31.596  26.455  1.00  0.00     0.167 HD
ATOM     71  C   UNL A   1      50.929  31.595  26.218  1.00  0.00     0.074 A 
ATOM     72  C   UNL A   1      52.291  31.129  26.053  1.00  0.00     0.031 C 
ATOM     73  C   UNL A   1      50.578  32.900  26.328  1.00  0.00     0.037 A 
BRANCH  60  74
ATOM     74  C   UNL A   1      44.497  33.838  26.868  1.00  0.00     0.057 A 
ATOM     75  C   UNL A   1      44.050  34.324  28.104  1.00  0.00     0.134 A 
ATOM     76  C   UNL A   1      43.868  34.328  25.716  1.00  0.00     0.134 A 
ATOM     77  F   UNL A   1      44.602  33.887  29.246  1.00  0.00    -0.206 F 
ATOM     78  C   UNL A   1      43.002  35.242  28.192  1.00  0.00     0.040 A 
ATOM     79  C   UNL A   1      42.837  35.266  25.790  1.00  0.00     0.040 A 
ATOM     80  F   UNL A   1      44.252  33.909  24.501  1.00  0.00    -0.206 F 
ATOM     81  C   UNL A   1      42.396  35.720  27.031  1.00  0.00     0.006 A 
ENDBRANCH  60  74
BRANCH  61  82
ATOM     82  C   UNL A   1      51.664  26.966  25.869  1.00  0.00     0.057 A 
ATOM     83  C   UNL A   1      51.985  26.491  24.591  1.00  0.00     0.134 A 
ATOM     84  C   UNL A   1      52.384  26.447  26.950  1.00  0.00     0.134 A 
ATOM     85  F   UNL A   1      51.316  26.937  23.518  1.00  0.00    -0.206 F 
ATOM     86  C   UNL A   1      52.972  25.523  24.398  1.00  0.00     0.040 A 
ATOM     87  C   UNL A   1      53.390  25.496  26.768  1.00  0.00     0.040 A 
ATOM     88  F   UNL A   1      52.131  26.868  28.198  1.00  0.00    -0.206 F 
ATOM     89  C   UNL A   1      53.681  25.027  25.489  1.00  0.00     0.006 A 
ENDBRANCH  61  82
BRANCH  73  90
ATOM     90  C   UNL A   1      51.684  33.912  26.307  1.00  0.00     0.057 A 
ATOM     91  C   UNL A   1      52.310  34.346  27.482  1.00  0.00     0.134 A 
ATOM     92  C   UNL A   1      52.156  34.424  25.092  1.00  0.00     0.134 A 
ATOM     93  F   UNL A   1      51.893  33.903  28.678  1.00  0.00    -0.206 F 
ATOM     94  C   UNL A   1      53.355  35.269  27.450  1.00  0.00     0.040 A 
ATOM     95  C   UNL A   1      53.216  35.329  25.046  1.00  0.00     0.040 A 
ATOM     96  F   UNL A   1      51.603  34.043  23.931  1.00  0.00    -0.206 F 
ATOM     97  C   UNL A   1      53.817  35.757  26.228  1.00  0.00     0.006 A 
ENDBRANCH  73  90
ENDBRANCH  47  48
ENDBRANCH  39  42
ENDBRANCH  37  38
ENDBRANCH  36  37
ENDBRANCH  35  36
ENDBRANCH   3  35
TORSDOF 15
ENDMDL
