MODEL 1
REMARK VINA RESULT:     -11.4      0.000      0.000
REMARK SMILES COc1ccc(CCn2cc(C(=O)NCCCNC(=O)c3ccc(-c4c5nc(c(-c6c(F)cccc6F)c6ccc([nH]6)c(-c6c(F)cccc6F)c6nc(c(-c7c(F)cccc7F)c7ccc4[nH]7)C=C6)C=C5)cc3)ccc2=O)cc1OC
REMARK SMILES IDX 15 1 14 2 12 3 13 4 11 6 9 7 10 8 77 9 76 10 78 11 75 12
REMARK SMILES IDX 8 13 7 14 6 15 3 16 4 17 80 18 5 19 79 20 2 21 1 22 81 23
REMARK SMILES IDX 82 24 16 25 17 26 18 27 19 28 20 30 21 31 22 32 74 33 23 34
REMARK SMILES IDX 73 35 24 36 25 37 26 38 67 39 27 40 72 41 66 42 68 43 28 44
REMARK SMILES IDX 71 45 65 46 64 47 29 49 55 50 38 51 54 52 39 53 42 54 53 55
REMARK SMILES IDX 69 56 40 57 41 58 52 60 70 61 43 62 30 63 31 64 36 65 32 66
REMARK SMILES IDX 33 67 35 68 37 69 34 70 56 71 57 72 62 73 58 74 59 75 61 76
REMARK SMILES IDX 63 77 60 78 44 79 45 80 50 81 46 82 47 83 49 84 51 85 48 86
REMARK H PARENT 14 5 18 29 68 48 42 59
REMARK Flexibility Score: inf
ROOT
ATOM      1  C   UNL A   1      36.250  20.354  24.969  1.00  0.00     0.118 C 
ENDROOT
BRANCH   1   2
ATOM      2  N   UNL A   1      36.599  21.761  24.980  1.00  0.00    -0.352 N 
ATOM      3  C   UNL A   1      35.926  22.903  25.274  1.00  0.00     0.252 C 
ATOM      4  O   UNL A   1      36.565  23.953  25.153  1.00  0.00    -0.269 OA
ATOM      5  H   UNL A   1      37.532  21.926  24.715  1.00  0.00     0.163 HD
BRANCH   3   6
ATOM      6  C   UNL A   1      34.508  22.958  25.778  1.00  0.00     0.056 A 
ATOM      7  N   UNL A   1      32.138  23.260  25.577  1.00  0.00    -0.314 N 
ATOM      8  C   UNL A   1      33.427  23.290  25.055  1.00  0.00     0.103 A 
ATOM      9  C   UNL A   1      31.888  23.048  26.929  1.00  0.00     0.250 A 
ATOM     10  C   UNL A   1      33.072  22.697  27.748  1.00  0.00     0.072 A 
ATOM     11  O   UNL A   1      30.781  23.099  27.465  1.00  0.00    -0.269 OA
ATOM     12  C   UNL A   1      34.287  22.638  27.186  1.00  0.00     0.021 A 
BRANCH   7  13
ATOM     13  C   UNL A   1      31.002  23.319  24.647  1.00  0.00     0.130 C 
BRANCH  13  14
ATOM     14  C   UNL A   1      31.376  24.017  23.319  1.00  0.00     0.057 C 
BRANCH  14  15
ATOM     15  C   UNL A   1      31.031  25.488  23.300  1.00  0.00    -0.042 A 
ATOM     16  C   UNL A   1      30.525  28.254  23.491  1.00  0.00     0.160 A 
ATOM     17  C   UNL A   1      29.555  27.324  23.886  1.00  0.00     0.051 A 
ATOM     18  C   UNL A   1      31.741  27.803  22.962  1.00  0.00     0.160 A 
ATOM     19  C   UNL A   1      29.795  25.952  23.764  1.00  0.00     0.008 A 
ATOM     20  C   UNL A   1      31.987  26.426  22.886  1.00  0.00     0.054 A 
BRANCH  16  21
ATOM     21  O   UNL A   1      30.347  29.591  23.729  1.00  0.00    -0.493 OA
ATOM     22  C   UNL A   1      29.151  30.129  23.175  1.00  0.00     0.278 C 
ENDBRANCH  16  21
BRANCH  18  23
ATOM     23  O   UNL A   1      32.789  28.563  22.509  1.00  0.00    -0.493 OA
ATOM     24  C   UNL A   1      34.009  28.474  23.231  1.00  0.00     0.278 C 
ENDBRANCH  18  23
ENDBRANCH  14  15
ENDBRANCH  13  14
ENDBRANCH   7  13
ENDBRANCH   3   6
ENDBRANCH   1   2
BRANCH   1  25
ATOM     25  C   UNL A   1      37.501  19.472  24.974  1.00  0.00     0.042 C 
BRANCH  25  26
ATOM     26  C   UNL A   1      38.769  20.230  25.376  1.00  0.00     0.118 C 
BRANCH  26  27
ATOM     27  N   UNL A   1      39.875  19.321  25.639  1.00  0.00    -0.352 N 
ATOM     28  C   UNL A   1      41.156  19.572  26.052  1.00  0.00     0.251 C 
ATOM     29  H   UNL A   1      39.669  18.369  25.494  1.00  0.00     0.163 HD
ATOM     30  O   UNL A   1      41.986  18.665  25.994  1.00  0.00    -0.269 OA
BRANCH  28  31
ATOM     31  C   UNL A   1      41.562  20.900  26.565  1.00  0.00     0.039 A 
ATOM     32  C   UNL A   1      41.370  21.168  27.926  1.00  0.00     0.014 A 
ATOM     33  C   UNL A   1      42.036  21.907  25.720  1.00  0.00     0.014 A 
ATOM     34  C   UNL A   1      41.672  22.430  28.440  1.00  0.00     0.010 A 
ATOM     35  C   UNL A   1      42.393  23.150  26.245  1.00  0.00     0.010 A 
ATOM     36  C   UNL A   1      42.199  23.429  27.607  1.00  0.00    -0.014 A 
BRANCH  36  37
ATOM     37  C   UNL A   1      42.528  24.769  28.153  1.00  0.00     0.031 A 
ATOM     38  C   UNL A   1      43.942  25.112  28.536  1.00  0.00     0.074 A 
ATOM     39  C   UNL A   1      41.545  25.672  28.328  1.00  0.00     0.049 A 
ATOM     40  N   UNL A   1      44.417  26.227  29.032  1.00  0.00    -0.248 NA
ATOM     41  C   UNL A   1      44.952  24.057  28.358  1.00  0.00     0.031 C 
ATOM     42  C   UNL A   1      40.128  25.444  28.038  1.00  0.00     0.029 A 
ATOM     43  N   UNL A   1      41.588  26.962  28.793  1.00  0.00    -0.354 N 
ATOM     44  C   UNL A   1      45.773  26.004  29.238  1.00  0.00     0.074 A 
ATOM     45  C   UNL A   1      46.036  24.633  28.855  1.00  0.00     0.031 C 
ATOM     46  C   UNL A   1      39.439  26.565  28.308  1.00  0.00     0.029 A 
ATOM     47  C   UNL A   1      40.361  27.580  28.811  1.00  0.00     0.049 A 
ATOM     48  H   UNL A   1      42.418  27.402  29.086  1.00  0.00     0.167 HD
ATOM     49  C   UNL A   1      46.716  26.868  29.684  1.00  0.00     0.037 A 
ATOM     50  C   UNL A   1      40.020  28.826  29.185  1.00  0.00     0.037 A 
ATOM     51  C   UNL A   1      46.457  28.239  30.039  1.00  0.00     0.049 A 
ATOM     52  C   UNL A   1      41.088  29.774  29.649  1.00  0.00     0.074 A 
ATOM     53  C   UNL A   1      47.353  29.208  30.459  1.00  0.00     0.029 A 
ATOM     54  N   UNL A   1      45.207  28.837  30.014  1.00  0.00    -0.354 N 
ATOM     55  N   UNL A   1      42.376  29.568  29.781  1.00  0.00    -0.248 NA
ATOM     56  C   UNL A   1      40.658  31.135  30.000  1.00  0.00     0.031 C 
ATOM     57  C   UNL A   1      46.640  30.384  30.716  1.00  0.00     0.029 A 
ATOM     58  C   UNL A   1      45.305  30.159  30.418  1.00  0.00     0.049 A 
ATOM     59  H   UNL A   1      44.371  28.390  29.749  1.00  0.00     0.167 HD
ATOM     60  C   UNL A   1      42.914  30.776  30.203  1.00  0.00     0.074 A 
ATOM     61  C   UNL A   1      41.814  31.716  30.290  1.00  0.00     0.031 C 
ATOM     62  C   UNL A   1      44.203  31.082  30.491  1.00  0.00     0.037 A 
BRANCH  49  63
ATOM     63  C   UNL A   1      48.121  26.353  29.809  1.00  0.00     0.057 A 
ATOM     64  C   UNL A   1      49.046  26.471  28.762  1.00  0.00     0.134 A 
ATOM     65  C   UNL A   1      48.563  25.757  30.996  1.00  0.00     0.134 A 
ATOM     66  F   UNL A   1      48.682  27.021  27.594  1.00  0.00    -0.206 F 
ATOM     67  C   UNL A   1      50.351  25.994  28.883  1.00  0.00     0.040 A 
ATOM     68  C   UNL A   1      49.874  25.298  31.139  1.00  0.00     0.040 A 
ATOM     69  F   UNL A   1      47.732  25.618  32.040  1.00  0.00    -0.206 F 
ATOM     70  C   UNL A   1      50.771  25.410  30.078  1.00  0.00     0.006 A 
ENDBRANCH  49  63
BRANCH  50  71
ATOM     71  C   UNL A   1      38.605  29.264  29.094  1.00  0.00     0.057 A 
ATOM     72  C   UNL A   1      38.065  29.709  27.882  1.00  0.00     0.134 A 
ATOM     73  C   UNL A   1      37.761  29.248  30.210  1.00  0.00     0.134 A 
ATOM     74  F   UNL A   1      38.830  29.762  26.782  1.00  0.00    -0.206 F 
ATOM     75  C   UNL A   1      36.742  30.140  27.785  1.00  0.00     0.040 A 
ATOM     76  C   UNL A   1      36.429  29.654  30.124  1.00  0.00     0.040 A 
ATOM     77  F   UNL A   1      38.218  28.823  31.398  1.00  0.00    -0.206 F 
ATOM     78  C   UNL A   1      35.918  30.109  28.910  1.00  0.00     0.006 A 
ENDBRANCH  50  71
BRANCH  62  79
ATOM     79  C   UNL A   1      44.492  32.498  30.890  1.00  0.00     0.057 A 
ATOM     80  C   UNL A   1      44.791  33.487  29.944  1.00  0.00     0.134 A 
ATOM     81  C   UNL A   1      44.456  32.879  32.238  1.00  0.00     0.134 A 
ATOM     82  F   UNL A   1      44.855  33.182  28.639  1.00  0.00    -0.206 F 
ATOM     83  C   UNL A   1      45.074  34.799  30.327  1.00  0.00     0.040 A 
ATOM     84  C   UNL A   1      44.712  34.193  32.630  1.00  0.00     0.040 A 
ATOM     85  F   UNL A   1      44.168  31.982  33.192  1.00  0.00    -0.206 F 
ATOM     86  C   UNL A   1      45.030  35.156  31.674  1.00  0.00     0.006 A 
ENDBRANCH  62  79
ENDBRANCH  36  37
ENDBRANCH  28  31
ENDBRANCH  26  27
ENDBRANCH  25  26
ENDBRANCH   1  25
TORSDOF 15
ENDMDL
MODEL 2
REMARK VINA RESULT:     -11.4      0.895      6.234
REMARK SMILES COc1ccc(CCn2cc(C(=O)NCCCNC(=O)c3ccc(-c4c5nc(c(-c6c(F)cccc6F)c6ccc([nH]6)c(-c6c(F)cccc6F)c6nc(c(-c7c(F)cccc7F)c7ccc4[nH]7)C=C6)C=C5)cc3)ccc2=O)cc1OC
REMARK SMILES IDX 15 1 14 2 12 3 13 4 11 6 9 7 10 8 77 9 76 10 78 11 75 12
REMARK SMILES IDX 8 13 7 14 6 15 3 16 4 17 80 18 5 19 79 20 2 21 1 22 81 23
REMARK SMILES IDX 82 24 16 25 17 26 18 27 19 28 20 30 21 31 22 32 74 33 23 34
REMARK SMILES IDX 73 35 24 36 25 37 26 38 67 39 27 40 72 41 66 42 68 43 28 44
REMARK SMILES IDX 71 45 65 46 64 47 29 49 55 50 38 51 54 52 39 53 42 54 53 55
REMARK SMILES IDX 69 56 40 57 41 58 52 60 70 61 43 62 30 63 31 64 36 65 32 66
REMARK SMILES IDX 33 67 35 68 37 69 34 70 56 71 57 72 62 73 58 74 59 75 61 76
REMARK SMILES IDX 63 77 60 78 44 79 45 80 50 81 46 82 47 83 49 84 51 85 48 86
REMARK H PARENT 14 5 18 29 68 48 42 59
REMARK Flexibility Score: inf
ROOT
ATOM      1  C   UNL A   1      36.333  20.509  24.953  1.00  0.00     0.118 C 
ENDROOT
BRANCH   1   2
ATOM      2  N   UNL A   1      36.627  21.872  25.349  1.00  0.00    -0.352 N 
ATOM      3  C   UNL A   1      35.939  23.042  25.307  1.00  0.00     0.252 C 
ATOM      4  O   UNL A   1      36.535  24.036  25.734  1.00  0.00    -0.269 OA
ATOM      5  H   UNL A   1      37.527  21.973  25.735  1.00  0.00     0.163 HD
BRANCH   3   6
ATOM      6  C   UNL A   1      34.514  23.184  24.837  1.00  0.00     0.056 A 
ATOM      7  N   UNL A   1      32.183  23.688  25.081  1.00  0.00    -0.314 N 
ATOM      8  C   UNL A   1      33.463  23.518  25.601  1.00  0.00     0.103 A 
ATOM      9  C   UNL A   1      31.865  23.360  23.766  1.00  0.00     0.250 A 
ATOM     10  C   UNL A   1      33.012  22.972  22.912  1.00  0.00     0.072 A 
ATOM     11  O   UNL A   1      30.737  23.402  23.276  1.00  0.00    -0.269 OA
ATOM     12  C   UNL A   1      34.248  22.918  23.426  1.00  0.00     0.021 A 
BRANCH   7  13
ATOM     13  C   UNL A   1      31.172  24.360  25.909  1.00  0.00     0.130 C 
BRANCH  13  14
ATOM     14  C   UNL A   1      31.428  25.881  26.013  1.00  0.00     0.057 C 
BRANCH  14  15
ATOM     15  C   UNL A   1      31.002  26.644  24.780  1.00  0.00    -0.042 A 
ATOM     16  C   UNL A   1      30.192  28.283  22.635  1.00  0.00     0.160 A 
ATOM     17  C   UNL A   1      29.269  27.454  23.286  1.00  0.00     0.051 A 
ATOM     18  C   UNL A   1      31.535  28.268  23.032  1.00  0.00     0.160 A 
ATOM     19  C   UNL A   1      29.677  26.619  24.330  1.00  0.00     0.008 A 
ATOM     20  C   UNL A   1      31.923  27.460  24.109  1.00  0.00     0.054 A 
BRANCH  16  21
ATOM     21  O   UNL A   1      29.774  29.195  21.703  1.00  0.00    -0.493 OA
ATOM     22  C   UNL A   1      29.310  30.423  22.253  1.00  0.00     0.278 C 
ENDBRANCH  16  21
BRANCH  18  23
ATOM     23  O   UNL A   1      32.572  28.992  22.501  1.00  0.00    -0.493 OA
ATOM     24  C   UNL A   1      33.878  28.684  22.967  1.00  0.00     0.278 C 
ENDBRANCH  18  23
ENDBRANCH  14  15
ENDBRANCH  13  14
ENDBRANCH   7  13
ENDBRANCH   3   6
ENDBRANCH   1   2
BRANCH   1  25
ATOM     25  C   UNL A   1      37.599  19.649  24.946  1.00  0.00     0.042 C 
BRANCH  25  26
ATOM     26  C   UNL A   1      38.760  20.280  25.719  1.00  0.00     0.118 C 
BRANCH  26  27
ATOM     27  N   UNL A   1      39.907  19.387  25.786  1.00  0.00    -0.352 N 
ATOM     28  C   UNL A   1      41.228  19.651  26.034  1.00  0.00     0.251 C 
ATOM     29  H   UNL A   1      39.701  18.438  25.625  1.00  0.00     0.163 HD
ATOM     30  O   UNL A   1      42.059  18.767  25.821  1.00  0.00    -0.269 OA
BRANCH  28  31
ATOM     31  C   UNL A   1      41.676  20.964  26.550  1.00  0.00     0.039 A 
ATOM     32  C   UNL A   1      41.587  21.196  27.927  1.00  0.00     0.014 A 
ATOM     33  C   UNL A   1      42.091  21.991  25.698  1.00  0.00     0.014 A 
ATOM     34  C   UNL A   1      41.932  22.444  28.450  1.00  0.00     0.010 A 
ATOM     35  C   UNL A   1      42.491  23.220  26.227  1.00  0.00     0.010 A 
ATOM     36  C   UNL A   1      42.399  23.463  27.606  1.00  0.00    -0.014 A 
BRANCH  36  37
ATOM     37  C   UNL A   1      42.774  24.788  28.161  1.00  0.00     0.031 A 
ATOM     38  C   UNL A   1      41.727  25.842  28.395  1.00  0.00     0.074 A 
ATOM     39  C   UNL A   1      44.067  25.051  28.430  1.00  0.00     0.049 A 
ATOM     40  N   UNL A   1      41.866  27.056  28.866  1.00  0.00    -0.248 NA
ATOM     41  C   UNL A   1      40.344  25.496  28.032  1.00  0.00     0.031 C 
ATOM     42  C   UNL A   1      45.181  24.129  28.203  1.00  0.00     0.029 A 
ATOM     43  N   UNL A   1      44.661  26.172  28.952  1.00  0.00    -0.354 N 
ATOM     44  C   UNL A   1      40.597  27.620  28.843  1.00  0.00     0.074 A 
ATOM     45  C   UNL A   1      39.708  26.633  28.270  1.00  0.00     0.031 C 
ATOM     46  C   UNL A   1      46.322  24.712  28.608  1.00  0.00     0.029 A 
ATOM     47  C   UNL A   1      46.022  26.054  29.098  1.00  0.00     0.049 A 
ATOM     48  H   UNL A   1      44.161  26.983  29.198  1.00  0.00     0.167 HD
ATOM     49  C   UNL A   1      40.204  28.841  29.281  1.00  0.00     0.037 A 
ATOM     50  C   UNL A   1      46.925  26.927  29.580  1.00  0.00     0.037 A 
ATOM     51  C   UNL A   1      41.085  29.813  29.874  1.00  0.00     0.049 A 
ATOM     52  C   UNL A   1      46.460  28.263  30.085  1.00  0.00     0.074 A 
ATOM     53  C   UNL A   1      40.776  31.060  30.390  1.00  0.00     0.029 A 
ATOM     54  N   UNL A   1      42.452  29.643  30.034  1.00  0.00    -0.354 N 
ATOM     55  N   UNL A   1      45.247  28.760  30.113  1.00  0.00    -0.248 NA
ATOM     56  C   UNL A   1      47.488  29.154  30.640  1.00  0.00     0.031 C 
ATOM     57  C   UNL A   1      41.960  31.657  30.835  1.00  0.00     0.029 A 
ATOM     58  C   UNL A   1      43.002  30.766  30.633  1.00  0.00     0.049 A 
ATOM     59  H   UNL A   1      42.958  28.844  29.763  1.00  0.00     0.167 HD
ATOM     60  C   UNL A   1      45.360  30.007  30.712  1.00  0.00     0.074 A 
ATOM     61  C   UNL A   1      46.759  30.185  31.046  1.00  0.00     0.031 C 
ATOM     62  C   UNL A   1      44.394  30.923  30.965  1.00  0.00     0.037 A 
BRANCH  49  63
ATOM     63  C   UNL A   1      38.752  29.192  29.134  1.00  0.00     0.057 A 
ATOM     64  C   UNL A   1      37.867  29.140  30.220  1.00  0.00     0.134 A 
ATOM     65  C   UNL A   1      38.236  29.614  27.902  1.00  0.00     0.134 A 
ATOM     66  F   UNL A   1      38.294  28.732  31.425  1.00  0.00    -0.206 F 
ATOM     67  C   UNL A   1      36.518  29.470  30.081  1.00  0.00     0.040 A 
ATOM     68  C   UNL A   1      36.894  29.972  27.755  1.00  0.00     0.040 A 
ATOM     69  F   UNL A   1      39.029  29.694  26.822  1.00  0.00    -0.206 F 
ATOM     70  C   UNL A   1      36.029  29.894  28.845  1.00  0.00     0.006 A 
ENDBRANCH  49  63
BRANCH  50  71
ATOM     71  C   UNL A   1      48.358  26.547  29.649  1.00  0.00     0.057 A 
ATOM     72  C   UNL A   1      49.244  26.892  28.623  1.00  0.00     0.134 A 
ATOM     73  C   UNL A   1      48.875  25.836  30.738  1.00  0.00     0.134 A 
ATOM     74  F   UNL A   1      48.803  27.559  27.547  1.00  0.00    -0.206 F 
ATOM     75  C   UNL A   1      50.590  26.527  28.666  1.00  0.00     0.040 A 
ATOM     76  C   UNL A   1      50.223  25.484  30.806  1.00  0.00     0.040 A 
ATOM     77  F   UNL A   1      48.077  25.486  31.758  1.00  0.00    -0.206 F 
ATOM     78  C   UNL A   1      51.083  25.824  29.763  1.00  0.00     0.006 A 
ENDBRANCH  50  71
BRANCH  62  79
ATOM     79  C   UNL A   1      44.814  32.178  31.668  1.00  0.00     0.057 A 
ATOM     80  C   UNL A   1      45.224  33.319  30.966  1.00  0.00     0.134 A 
ATOM     81  C   UNL A   1      44.796  32.250  33.068  1.00  0.00     0.134 A 
ATOM     82  F   UNL A   1      45.277  33.309  29.626  1.00  0.00    -0.206 F 
ATOM     83  C   UNL A   1      45.627  34.477  31.631  1.00  0.00     0.040 A 
ATOM     84  C   UNL A   1      45.172  33.411  33.743  1.00  0.00     0.040 A 
ATOM     85  F   UNL A   1      44.406  31.195  33.798  1.00  0.00    -0.206 F 
ATOM     86  C   UNL A   1      45.598  34.527  33.025  1.00  0.00     0.006 A 
ENDBRANCH  62  79
ENDBRANCH  36  37
ENDBRANCH  28  31
ENDBRANCH  26  27
ENDBRANCH  25  26
ENDBRANCH   1  25
TORSDOF 15
ENDMDL
MODEL 3
REMARK VINA RESULT:     -11.3      3.979      9.100
REMARK SMILES COc1ccc(CCn2cc(C(=O)NCCCNC(=O)c3ccc(-c4c5nc(c(-c6c(F)cccc6F)c6ccc([nH]6)c(-c6c(F)cccc6F)c6nc(c(-c7c(F)cccc7F)c7ccc4[nH]7)C=C6)C=C5)cc3)ccc2=O)cc1OC
REMARK SMILES IDX 15 1 14 2 12 3 13 4 11 6 9 7 10 8 77 9 76 10 78 11 75 12
REMARK SMILES IDX 8 13 7 14 6 15 3 16 4 17 80 18 5 19 79 20 2 21 1 22 81 23
REMARK SMILES IDX 82 24 16 25 17 26 18 27 19 28 20 30 21 31 22 32 74 33 23 34
REMARK SMILES IDX 73 35 24 36 25 37 26 38 67 39 27 40 72 41 66 42 68 43 28 44
REMARK SMILES IDX 71 45 65 46 64 47 29 49 55 50 38 51 54 52 39 53 42 54 53 55
REMARK SMILES IDX 69 56 40 57 41 58 52 60 70 61 43 62 30 63 31 64 36 65 32 66
REMARK SMILES IDX 33 67 35 68 37 69 34 70 56 71 57 72 62 73 58 74 59 75 61 76
REMARK SMILES IDX 63 77 60 78 44 79 45 80 50 81 46 82 47 83 49 84 51 85 48 86
REMARK H PARENT 14 5 18 29 68 48 42 59
REMARK Flexibility Score: inf
ROOT
ATOM      1  C   UNL A   1      31.188  30.075  25.029  1.00  0.00     0.118 C 
ENDROOT
BRANCH   1   2
ATOM      2  N   UNL A   1      30.546  30.169  23.733  1.00  0.00    -0.352 N 
ATOM      3  C   UNL A   1      30.208  29.269  22.773  1.00  0.00     0.252 C 
ATOM      4  O   UNL A   1      29.670  29.733  21.763  1.00  0.00    -0.269 OA
ATOM      5  H   UNL A   1      30.299  31.092  23.494  1.00  0.00     0.163 HD
BRANCH   3   6
ATOM      6  C   UNL A   1      30.395  27.779  22.890  1.00  0.00     0.056 A 
ATOM      7  N   UNL A   1      31.445  25.675  22.422  1.00  0.00    -0.314 N 
ATOM      8  C   UNL A   1      31.291  27.042  22.215  1.00  0.00     0.103 A 
ATOM      9  C   UNL A   1      30.570  24.941  23.218  1.00  0.00     0.250 A 
ATOM     10  C   UNL A   1      29.562  25.736  23.958  1.00  0.00     0.072 A 
ATOM     11  O   UNL A   1      30.599  23.719  23.367  1.00  0.00    -0.269 OA
ATOM     12  C   UNL A   1      29.511  27.066  23.809  1.00  0.00     0.021 A 
BRANCH   7  13
ATOM     13  C   UNL A   1      32.645  25.015  21.893  1.00  0.00     0.130 C 
BRANCH  13  14
ATOM     14  C   UNL A   1      33.925  25.452  22.642  1.00  0.00     0.057 C 
BRANCH  14  15
ATOM     15  C   UNL A   1      34.181  24.655  23.901  1.00  0.00    -0.042 A 
ATOM     16  C   UNL A   1      34.454  23.017  26.178  1.00  0.00     0.160 A 
ATOM     17  C   UNL A   1      33.801  24.254  26.265  1.00  0.00     0.051 A 
ATOM     18  C   UNL A   1      35.007  22.611  24.957  1.00  0.00     0.160 A 
ATOM     19  C   UNL A   1      33.692  25.080  25.142  1.00  0.00     0.008 A 
ATOM     20  C   UNL A   1      34.851  23.427  23.829  1.00  0.00     0.054 A 
BRANCH  16  21
ATOM     21  O   UNL A   1      34.449  22.150  27.239  1.00  0.00    -0.493 OA
ATOM     22  C   UNL A   1      33.270  22.205  28.033  1.00  0.00     0.278 C 
ENDBRANCH  16  21
BRANCH  18  23
ATOM     23  O   UNL A   1      35.691  21.452  24.693  1.00  0.00    -0.493 OA
ATOM     24  C   UNL A   1      37.058  21.579  24.328  1.00  0.00     0.278 C 
ENDBRANCH  18  23
ENDBRANCH  14  15
ENDBRANCH  13  14
ENDBRANCH   7  13
ENDBRANCH   3   6
ENDBRANCH   1   2
BRANCH   1  25
ATOM     25  C   UNL A   1      31.007  31.365  25.832  1.00  0.00     0.042 C 
BRANCH  25  26
ATOM     26  C   UNL A   1      32.205  31.690  26.727  1.00  0.00     0.118 C 
BRANCH  26  27
ATOM     27  N   UNL A   1      32.238  33.100  27.088  1.00  0.00    -0.352 N 
ATOM     28  C   UNL A   1      33.061  33.781  27.944  1.00  0.00     0.251 C 
ATOM     29  H   UNL A   1      31.556  33.654  26.645  1.00  0.00     0.163 HD
ATOM     30  O   UNL A   1      32.763  34.933  28.263  1.00  0.00    -0.269 OA
BRANCH  28  31
ATOM     31  C   UNL A   1      34.294  33.171  28.490  1.00  0.00     0.039 A 
ATOM     32  C   UNL A   1      34.175  31.979  29.214  1.00  0.00     0.014 A 
ATOM     33  C   UNL A   1      35.540  33.795  28.383  1.00  0.00     0.014 A 
ATOM     34  C   UNL A   1      35.300  31.404  29.809  1.00  0.00     0.010 A 
ATOM     35  C   UNL A   1      36.674  33.191  28.927  1.00  0.00     0.010 A 
ATOM     36  C   UNL A   1      36.563  31.999  29.659  1.00  0.00    -0.014 A 
BRANCH  36  37
ATOM     37  C   UNL A   1      37.762  31.386  30.283  1.00  0.00     0.031 A 
ATOM     38  C   UNL A   1      38.147  31.727  31.696  1.00  0.00     0.074 A 
ATOM     39  C   UNL A   1      38.522  30.538  29.564  1.00  0.00     0.049 A 
ATOM     40  N   UNL A   1      39.160  31.296  32.405  1.00  0.00    -0.248 NA
ATOM     41  C   UNL A   1      37.293  32.697  32.400  1.00  0.00     0.031 C 
ATOM     42  C   UNL A   1      38.280  30.163  28.170  1.00  0.00     0.029 A 
ATOM     43  N   UNL A   1      39.651  29.840  29.907  1.00  0.00    -0.354 N 
ATOM     44  C   UNL A   1      39.075  31.950  33.627  1.00  0.00     0.074 A 
ATOM     45  C   UNL A   1      37.936  32.840  33.549  1.00  0.00     0.031 C 
ATOM     46  C   UNL A   1      39.218  29.283  27.783  1.00  0.00     0.029 A 
ATOM     47  C   UNL A   1      40.138  29.052  28.893  1.00  0.00     0.049 A 
ATOM     48  H   UNL A   1      40.073  29.898  30.795  1.00  0.00     0.167 HD
ATOM     49  C   UNL A   1      39.859  31.806  34.723  1.00  0.00     0.037 A 
ATOM     50  C   UNL A   1      41.203  28.230  28.864  1.00  0.00     0.037 A 
ATOM     51  C   UNL A   1      40.975  30.900  34.808  1.00  0.00     0.049 A 
ATOM     52  C   UNL A   1      42.040  28.065  30.100  1.00  0.00     0.074 A 
ATOM     53  C   UNL A   1      41.804  30.648  35.888  1.00  0.00     0.029 A 
ATOM     54  N   UNL A   1      41.418  30.095  33.770  1.00  0.00    -0.354 N 
ATOM     55  N   UNL A   1      41.911  28.645  31.269  1.00  0.00    -0.248 NA
ATOM     56  C   UNL A   1      43.162  27.120  30.018  1.00  0.00     0.031 C 
ATOM     57  C   UNL A   1      42.766  29.712  35.494  1.00  0.00     0.029 A 
ATOM     58  C   UNL A   1      42.512  29.351  34.180  1.00  0.00     0.049 A 
ATOM     59  H   UNL A   1      41.015  30.057  32.872  1.00  0.00     0.167 HD
ATOM     60  C   UNL A   1      42.915  28.116  32.069  1.00  0.00     0.074 A 
ATOM     61  C   UNL A   1      43.635  27.157  31.256  1.00  0.00     0.031 C 
ATOM     62  C   UNL A   1      43.213  28.396  33.361  1.00  0.00     0.037 A 
BRANCH  49  63
ATOM     63  C   UNL A   1      39.532  32.648  35.922  1.00  0.00     0.057 A 
ATOM     64  C   UNL A   1      40.116  33.906  36.121  1.00  0.00     0.134 A 
ATOM     65  C   UNL A   1      38.603  32.211  36.874  1.00  0.00     0.134 A 
ATOM     66  F   UNL A   1      41.024  34.378  35.253  1.00  0.00    -0.206 F 
ATOM     67  C   UNL A   1      39.808  34.688  37.235  1.00  0.00     0.040 A 
ATOM     68  C   UNL A   1      38.266  32.994  37.980  1.00  0.00     0.040 A 
ATOM     69  F   UNL A   1      38.000  31.019  36.742  1.00  0.00    -0.206 F 
ATOM     70  C   UNL A   1      38.875  34.234  38.166  1.00  0.00     0.006 A 
ENDBRANCH  49  63
BRANCH  50  71
ATOM     71  C   UNL A   1      41.513  27.464  27.631  1.00  0.00     0.057 A 
ATOM     72  C   UNL A   1      41.027  26.165  27.449  1.00  0.00     0.134 A 
ATOM     73  C   UNL A   1      42.297  28.010  26.609  1.00  0.00     0.134 A 
ATOM     74  F   UNL A   1      40.284  25.583  28.401  1.00  0.00    -0.206 F 
ATOM     75  C   UNL A   1      41.325  25.427  26.303  1.00  0.00     0.040 A 
ATOM     76  C   UNL A   1      42.584  27.293  25.447  1.00  0.00     0.040 A 
ATOM     77  F   UNL A   1      42.784  29.256  26.721  1.00  0.00    -0.206 F 
ATOM     78  C   UNL A   1      42.103  25.994  25.295  1.00  0.00     0.006 A 
ENDBRANCH  50  71
BRANCH  62  79
ATOM     79  C   UNL A   1      44.341  27.629  33.980  1.00  0.00     0.057 A 
ATOM     80  C   UNL A   1      45.658  28.108  33.970  1.00  0.00     0.134 A 
ATOM     81  C   UNL A   1      44.105  26.399  34.609  1.00  0.00     0.134 A 
ATOM     82  F   UNL A   1      45.952  29.272  33.371  1.00  0.00    -0.206 F 
ATOM     83  C   UNL A   1      46.703  27.378  34.536  1.00  0.00     0.040 A 
ATOM     84  C   UNL A   1      45.138  25.672  35.201  1.00  0.00     0.040 A 
ATOM     85  F   UNL A   1      42.866  25.888  34.661  1.00  0.00    -0.206 F 
ATOM     86  C   UNL A   1      46.443  26.158  35.159  1.00  0.00     0.006 A 
ENDBRANCH  62  79
ENDBRANCH  36  37
ENDBRANCH  28  31
ENDBRANCH  26  27
ENDBRANCH  25  26
ENDBRANCH   1  25
TORSDOF 15
ENDMDL
