MODEL 1
REMARK VINA RESULT:     -11.9      0.000      0.000
REMARK SMILES COc1ccc(-c2ccc(S(=O)(=O)NC(C)(C)C)cc2)c(C(=O)NCCCNC(=O)c2ccc(-c3c4nc(c(-c5c(F)cccc5F)c5ccc([nH]5)c(-c5c(F)cccc5F)c5nc(c(-c6c(F)cccc6F)c6ccc3[nH]6)C=C5)C=C4)cc2)c1
REMARK SMILES IDX 25 1 24 2 22 3 23 4 21 6 3 7 4 8 85 9 5 10 6 11 2 12 1 13
REMARK SMILES IDX 7 14 8 15 20 16 9 17 19 18 10 19 11 20 12 21 13 22 14 23
REMARK SMILES IDX 15 25 16 26 17 27 18 28 26 29 27 30 28 31 29 32 30 34 31 35
REMARK SMILES IDX 32 36 84 37 33 38 83 39 34 40 35 41 36 42 77 43 37 44 82 45
REMARK SMILES IDX 76 46 78 47 38 48 81 49 75 50 74 51 39 53 65 54 48 55 64 56
REMARK SMILES IDX 49 57 52 58 63 59 79 60 50 61 51 62 62 64 80 65 53 66 40 67
REMARK SMILES IDX 41 68 46 69 42 70 43 71 45 72 47 73 44 74 66 75 67 76 72 77
REMARK SMILES IDX 68 78 69 79 71 80 73 81 70 82 54 83 55 84 60 85 56 86 57 87
REMARK SMILES IDX 59 88 61 89 58 90
REMARK H PARENT 24 5 14 24 28 33 78 52 52 63
REMARK Flexibility Score: inf
ROOT
ATOM      1  C   UNL A   1      33.796  28.853  24.895  1.00  0.00     0.118 C 
ENDROOT
BRANCH   1   2
ATOM      2  N   UNL A   1      34.051  28.049  23.707  1.00  0.00    -0.352 N 
ATOM      3  C   UNL A   1      33.214  27.413  22.811  1.00  0.00     0.252 C 
ATOM      4  O   UNL A   1      33.720  26.976  21.782  1.00  0.00    -0.269 OA
ATOM      5  H   UNL A   1      35.008  27.936  23.504  1.00  0.00     0.163 HD
BRANCH   3   6
ATOM      6  C   UNL A   1      31.758  27.228  23.088  1.00  0.00     0.051 A 
ATOM      7  C   UNL A   1      29.486  28.042  22.717  1.00  0.00     0.119 A 
ATOM      8  C   UNL A   1      29.019  27.154  23.677  1.00  0.00     0.047 A 
ATOM      9  C   UNL A   1      30.840  28.038  22.395  1.00  0.00     0.060 A 
ATOM     10  C   UNL A   1      29.895  26.249  24.277  1.00  0.00     0.013 A 
ATOM     11  C   UNL A   1      31.275  26.237  23.976  1.00  0.00    -0.005 A 
BRANCH   7  12
ATOM     12  O   UNL A   1      28.538  28.856  22.165  1.00  0.00    -0.497 OA
ATOM     13  C   UNL A   1      27.395  29.138  22.964  1.00  0.00     0.278 C 
ENDBRANCH   7  12
BRANCH  11  14
ATOM     14  C   UNL A   1      32.080  25.122  24.524  1.00  0.00    -0.018 A 
ATOM     15  C   UNL A   1      32.283  23.974  23.729  1.00  0.00     0.010 A 
ATOM     16  C   UNL A   1      32.662  25.146  25.800  1.00  0.00     0.010 A 
ATOM     17  C   UNL A   1      33.021  22.886  24.191  1.00  0.00     0.022 A 
ATOM     18  C   UNL A   1      33.447  24.077  26.254  1.00  0.00     0.022 A 
ATOM     19  C   UNL A   1      33.600  22.940  25.457  1.00  0.00     0.082 A 
BRANCH  19  20
ATOM     20  S   UNL A   1      34.497  21.522  26.022  1.00  0.00     0.241 S 
ATOM     21  O   UNL A   1      33.945  21.122  27.295  1.00  0.00    -0.207 OA
ATOM     22  O   UNL A   1      34.555  20.602  24.906  1.00  0.00    -0.207 OA
BRANCH  20  23
ATOM     23  N   UNL A   1      36.076  22.030  26.250  1.00  0.00    -0.206 NA
ATOM     24  H   UNL A   1      36.420  21.474  27.035  1.00  0.00     0.141 HD
BRANCH  23  25
ATOM     25  C   UNL A   1      37.172  22.005  25.257  1.00  0.00     0.025 C 
ATOM     26  C   UNL A   1      36.825  22.778  23.984  1.00  0.00     0.028 C 
ATOM     27  C   UNL A   1      38.370  22.699  25.935  1.00  0.00     0.028 C 
ATOM     28  C   UNL A   1      37.579  20.571  24.912  1.00  0.00     0.028 C 
ENDBRANCH  23  25
ENDBRANCH  20  23
ENDBRANCH  19  20
ENDBRANCH  11  14
ENDBRANCH   3   6
ENDBRANCH   1   2
BRANCH   1  29
ATOM     29  C   UNL A   1      34.302  28.266  26.204  1.00  0.00     0.042 C 
BRANCH  29  30
ATOM     30  C   UNL A   1      33.497  28.599  27.451  1.00  0.00     0.118 C 
BRANCH  30  31
ATOM     31  N   UNL A   1      33.574  29.997  27.844  1.00  0.00    -0.352 N 
ATOM     32  C   UNL A   1      34.584  30.760  28.377  1.00  0.00     0.251 C 
ATOM     33  H   UNL A   1      32.737  30.494  27.698  1.00  0.00     0.163 HD
ATOM     34  O   UNL A   1      34.319  31.909  28.729  1.00  0.00    -0.269 OA
BRANCH  32  35
ATOM     35  C   UNL A   1      35.962  30.248  28.576  1.00  0.00     0.039 A 
ATOM     36  C   UNL A   1      36.874  30.390  27.522  1.00  0.00     0.014 A 
ATOM     37  C   UNL A   1      36.366  29.577  29.731  1.00  0.00     0.014 A 
ATOM     38  C   UNL A   1      38.186  29.926  27.651  1.00  0.00     0.010 A 
ATOM     39  C   UNL A   1      37.700  29.200  29.899  1.00  0.00     0.010 A 
ATOM     40  C   UNL A   1      38.624  29.361  28.859  1.00  0.00    -0.014 A 
BRANCH  40  41
ATOM     41  C   UNL A   1      40.040  28.937  29.034  1.00  0.00     0.031 A 
ATOM     42  C   UNL A   1      41.054  29.866  29.648  1.00  0.00     0.074 A 
ATOM     43  C   UNL A   1      40.426  27.722  28.596  1.00  0.00     0.049 A 
ATOM     44  N   UNL A   1      42.332  29.669  29.864  1.00  0.00    -0.248 NA
ATOM     45  C   UNL A   1      40.581  31.200  30.046  1.00  0.00     0.031 C 
ATOM     46  C   UNL A   1      39.562  26.752  27.922  1.00  0.00     0.029 A 
ATOM     47  N   UNL A   1      41.647  27.096  28.654  1.00  0.00    -0.354 N 
ATOM     48  C   UNL A   1      42.815  30.856  30.401  1.00  0.00     0.074 A 
ATOM     49  C   UNL A   1      41.705  31.785  30.432  1.00  0.00     0.031 C 
ATOM     50  C   UNL A   1      40.268  25.639  27.664  1.00  0.00     0.029 A 
ATOM     51  C   UNL A   1      41.639  25.827  28.128  1.00  0.00     0.049 A 
ATOM     52  H   UNL A   1      42.450  27.515  29.037  1.00  0.00     0.167 HD
ATOM     53  C   UNL A   1      44.060  31.142  30.852  1.00  0.00     0.037 A 
ATOM     54  C   UNL A   1      42.622  24.912  28.036  1.00  0.00     0.037 A 
ATOM     55  C   UNL A   1      45.156  30.208  30.858  1.00  0.00     0.049 A 
ATOM     56  C   UNL A   1      43.982  25.234  28.587  1.00  0.00     0.074 A 
ATOM     57  C   UNL A   1      46.437  30.381  31.355  1.00  0.00     0.029 A 
ATOM     58  N   UNL A   1      45.098  28.921  30.347  1.00  0.00    -0.354 N 
ATOM     59  N   UNL A   1      44.403  26.338  29.155  1.00  0.00    -0.248 NA
ATOM     60  C   UNL A   1      45.000  24.179  28.494  1.00  0.00     0.031 C 
ATOM     61  C   UNL A   1      47.162  29.208  31.118  1.00  0.00     0.029 A 
ATOM     62  C   UNL A   1      46.322  28.292  30.506  1.00  0.00     0.049 A 
ATOM     63  H   UNL A   1      44.303  28.512  29.932  1.00  0.00     0.167 HD
ATOM     64  C   UNL A   1      45.726  26.104  29.503  1.00  0.00     0.074 A 
ATOM     65  C   UNL A   1      46.031  24.746  29.103  1.00  0.00     0.031 C 
ATOM     66  C   UNL A   1      46.611  26.941  30.098  1.00  0.00     0.037 A 
BRANCH  53  67
ATOM     67  C   UNL A   1      44.300  32.523  31.388  1.00  0.00     0.057 A 
ATOM     68  C   UNL A   1      44.099  32.833  32.741  1.00  0.00     0.134 A 
ATOM     69  C   UNL A   1      44.764  33.547  30.554  1.00  0.00     0.134 A 
ATOM     70  F   UNL A   1      43.644  31.900  33.591  1.00  0.00    -0.206 F 
ATOM     71  C   UNL A   1      44.324  34.117  33.237  1.00  0.00     0.040 A 
ATOM     72  C   UNL A   1      45.017  34.830  31.044  1.00  0.00     0.040 A 
ATOM     73  F   UNL A   1      44.984  33.317  29.251  1.00  0.00    -0.206 F 
ATOM     74  C   UNL A   1      44.790  35.120  32.387  1.00  0.00     0.006 A 
ENDBRANCH  53  67
BRANCH  54  75
ATOM     75  C   UNL A   1      42.343  23.583  27.440  1.00  0.00     0.057 A 
ATOM     76  C   UNL A   1      42.011  22.489  28.248  1.00  0.00     0.134 A 
ATOM     77  C   UNL A   1      42.400  23.372  26.059  1.00  0.00     0.134 A 
ATOM     78  F   UNL A   1      41.959  22.626  29.581  1.00  0.00    -0.206 F 
ATOM     79  C   UNL A   1      41.763  21.227  27.705  1.00  0.00     0.040 A 
ATOM     80  C   UNL A   1      42.133  22.122  25.499  1.00  0.00     0.040 A 
ATOM     81  F   UNL A   1      42.705  24.383  25.232  1.00  0.00    -0.206 F 
ATOM     82  C   UNL A   1      41.819  21.043  26.325  1.00  0.00     0.006 A 
ENDBRANCH  54  75
BRANCH  66  83
ATOM     83  C   UNL A   1      47.983  26.398  30.363  1.00  0.00     0.057 A 
ATOM     84  C   UNL A   1      49.003  26.473  29.407  1.00  0.00     0.134 A 
ATOM     85  C   UNL A   1      48.290  25.802  31.593  1.00  0.00     0.134 A 
ATOM     86  F   UNL A   1      48.768  27.020  28.204  1.00  0.00    -0.206 F 
ATOM     87  C   UNL A   1      50.272  25.947  29.651  1.00  0.00     0.040 A 
ATOM     88  C   UNL A   1      49.563  25.292  31.857  1.00  0.00     0.040 A 
ATOM     89  F   UNL A   1      47.360  25.704  32.555  1.00  0.00    -0.206 F 
ATOM     90  C   UNL A   1      50.555  25.358  30.882  1.00  0.00     0.006 A 
ENDBRANCH  66  83
ENDBRANCH  40  41
ENDBRANCH  32  35
ENDBRANCH  30  31
ENDBRANCH  29  30
ENDBRANCH   1  29
TORSDOF 15
ENDMDL
MODEL 2
REMARK VINA RESULT:     -11.6      0.430      6.026
REMARK SMILES COc1ccc(-c2ccc(S(=O)(=O)NC(C)(C)C)cc2)c(C(=O)NCCCNC(=O)c2ccc(-c3c4nc(c(-c5c(F)cccc5F)c5ccc([nH]5)c(-c5c(F)cccc5F)c5nc(c(-c6c(F)cccc6F)c6ccc3[nH]6)C=C5)C=C4)cc2)c1
REMARK SMILES IDX 25 1 24 2 22 3 23 4 21 6 3 7 4 8 85 9 5 10 6 11 2 12 1 13
REMARK SMILES IDX 7 14 8 15 20 16 9 17 19 18 10 19 11 20 12 21 13 22 14 23
REMARK SMILES IDX 15 25 16 26 17 27 18 28 26 29 27 30 28 31 29 32 30 34 31 35
REMARK SMILES IDX 32 36 84 37 33 38 83 39 34 40 35 41 36 42 77 43 37 44 82 45
REMARK SMILES IDX 76 46 78 47 38 48 81 49 75 50 74 51 39 53 65 54 48 55 64 56
REMARK SMILES IDX 49 57 52 58 63 59 79 60 50 61 51 62 62 64 80 65 53 66 40 67
REMARK SMILES IDX 41 68 46 69 42 70 43 71 45 72 47 73 44 74 66 75 67 76 72 77
REMARK SMILES IDX 68 78 69 79 71 80 73 81 70 82 54 83 55 84 60 85 56 86 57 87
REMARK SMILES IDX 59 88 61 89 58 90
REMARK H PARENT 24 5 14 24 28 33 78 52 52 63
REMARK Flexibility Score: inf
ROOT
ATOM      1  C   UNL A   1      33.694  28.877  24.843  1.00  0.00     0.118 C 
ENDROOT
BRANCH   1   2
ATOM      2  N   UNL A   1      33.935  28.100  23.634  1.00  0.00    -0.352 N 
ATOM      3  C   UNL A   1      33.087  27.483  22.735  1.00  0.00     0.252 C 
ATOM      4  O   UNL A   1      33.581  27.070  21.690  1.00  0.00    -0.269 OA
ATOM      5  H   UNL A   1      34.889  27.993  23.417  1.00  0.00     0.163 HD
BRANCH   3   6
ATOM      6  C   UNL A   1      31.635  27.290  23.026  1.00  0.00     0.051 A 
ATOM      7  C   UNL A   1      29.355  28.090  22.676  1.00  0.00     0.119 A 
ATOM      8  C   UNL A   1      28.903  27.200  23.641  1.00  0.00     0.047 A 
ATOM      9  C   UNL A   1      30.706  28.093  22.340  1.00  0.00     0.060 A 
ATOM     10  C   UNL A   1      29.790  26.301  24.234  1.00  0.00     0.013 A 
ATOM     11  C   UNL A   1      31.167  26.297  23.920  1.00  0.00    -0.005 A 
BRANCH   7  12
ATOM     12  O   UNL A   1      28.397  28.897  22.132  1.00  0.00    -0.497 OA
ATOM     13  C   UNL A   1      27.789  29.843  23.004  1.00  0.00     0.278 C 
ENDBRANCH   7  12
BRANCH  11  14
ATOM     14  C   UNL A   1      31.984  25.187  24.461  1.00  0.00    -0.018 A 
ATOM     15  C   UNL A   1      32.227  24.060  23.647  1.00  0.00     0.010 A 
ATOM     16  C   UNL A   1      32.540  25.197  25.749  1.00  0.00     0.010 A 
ATOM     17  C   UNL A   1      32.978  22.978  24.102  1.00  0.00     0.022 A 
ATOM     18  C   UNL A   1      33.337  24.134  26.197  1.00  0.00     0.022 A 
ATOM     19  C   UNL A   1      33.530  23.017  25.381  1.00  0.00     0.082 A 
BRANCH  19  20
ATOM     20  S   UNL A   1      34.445  21.606  25.935  1.00  0.00     0.241 S 
ATOM     21  O   UNL A   1      33.834  21.128  27.153  1.00  0.00    -0.207 OA
ATOM     22  O   UNL A   1      34.602  20.743  24.785  1.00  0.00    -0.207 OA
BRANCH  20  23
ATOM     23  N   UNL A   1      35.988  22.157  26.280  1.00  0.00    -0.206 NA
ATOM     24  H   UNL A   1      36.316  21.559  27.040  1.00  0.00     0.141 HD
BRANCH  23  25
ATOM     25  C   UNL A   1      37.130  22.250  25.346  1.00  0.00     0.025 C 
ATOM     26  C   UNL A   1      36.751  22.914  24.021  1.00  0.00     0.028 C 
ATOM     27  C   UNL A   1      38.178  23.136  26.050  1.00  0.00     0.028 C 
ATOM     28  C   UNL A   1      37.754  20.877  25.091  1.00  0.00     0.028 C 
ENDBRANCH  23  25
ENDBRANCH  20  23
ENDBRANCH  19  20
ENDBRANCH  11  14
ENDBRANCH   3   6
ENDBRANCH   1   2
BRANCH   1  29
ATOM     29  C   UNL A   1      34.384  28.365  26.099  1.00  0.00     0.042 C 
BRANCH  29  30
ATOM     30  C   UNL A   1      33.650  28.588  27.413  1.00  0.00     0.118 C 
BRANCH  30  31
ATOM     31  N   UNL A   1      33.701  29.961  27.888  1.00  0.00    -0.352 N 
ATOM     32  C   UNL A   1      34.693  30.705  28.478  1.00  0.00     0.251 C 
ATOM     33  H   UNL A   1      32.859  30.453  27.763  1.00  0.00     0.163 HD
ATOM     34  O   UNL A   1      34.407  31.828  28.894  1.00  0.00    -0.269 OA
BRANCH  32  35
ATOM     35  C   UNL A   1      36.077  30.203  28.661  1.00  0.00     0.039 A 
ATOM     36  C   UNL A   1      36.964  30.312  27.582  1.00  0.00     0.014 A 
ATOM     37  C   UNL A   1      36.510  29.572  29.828  1.00  0.00     0.014 A 
ATOM     38  C   UNL A   1      38.280  29.855  27.696  1.00  0.00     0.010 A 
ATOM     39  C   UNL A   1      37.849  29.203  29.977  1.00  0.00     0.010 A 
ATOM     40  C   UNL A   1      38.748  29.332  28.911  1.00  0.00    -0.014 A 
BRANCH  40  41
ATOM     41  C   UNL A   1      40.168  28.917  29.067  1.00  0.00     0.031 A 
ATOM     42  C   UNL A   1      40.623  27.545  28.643  1.00  0.00     0.074 A 
ATOM     43  C   UNL A   1      41.048  29.765  29.636  1.00  0.00     0.049 A 
ATOM     44  N   UNL A   1      41.817  27.009  28.717  1.00  0.00    -0.248 NA
ATOM     45  C   UNL A   1      39.600  26.646  28.087  1.00  0.00     0.031 C 
ATOM     46  C   UNL A   1      40.726  31.096  30.154  1.00  0.00     0.029 A 
ATOM     47  N   UNL A   1      42.394  29.633  29.874  1.00  0.00    -0.354 N 
ATOM     48  C   UNL A   1      41.682  25.711  28.240  1.00  0.00     0.074 A 
ATOM     49  C   UNL A   1      40.282  25.522  27.925  1.00  0.00     0.031 C 
ATOM     50  C   UNL A   1      41.849  31.672  30.612  1.00  0.00     0.029 A 
ATOM     51  C   UNL A   1      42.963  30.744  30.447  1.00  0.00     0.049 A 
ATOM     52  H   UNL A   1      42.903  28.820  29.653  1.00  0.00     0.167 HD
ATOM     53  C   UNL A   1      42.638  24.769  28.056  1.00  0.00     0.037 A 
ATOM     54  C   UNL A   1      44.240  30.993  30.793  1.00  0.00     0.037 A 
ATOM     55  C   UNL A   1      44.037  24.966  28.331  1.00  0.00     0.049 A 
ATOM     56  C   UNL A   1      45.290  29.951  30.534  1.00  0.00     0.074 A 
ATOM     57  C   UNL A   1      45.093  24.096  28.115  1.00  0.00     0.029 A 
ATOM     58  N   UNL A   1      44.578  26.119  28.880  1.00  0.00    -0.354 N 
ATOM     59  N   UNL A   1      45.156  28.754  30.018  1.00  0.00    -0.248 NA
ATOM     60  C   UNL A   1      46.670  30.300  30.895  1.00  0.00     0.031 C 
ATOM     61  C   UNL A   1      46.268  24.712  28.560  1.00  0.00     0.029 A 
ATOM     62  C   UNL A   1      45.949  25.979  29.020  1.00  0.00     0.049 A 
ATOM     63  H   UNL A   1      44.063  26.920  29.133  1.00  0.00     0.167 HD
ATOM     64  C   UNL A   1      46.434  28.215  29.975  1.00  0.00     0.074 A 
ATOM     65  C   UNL A   1      47.332  29.224  30.497  1.00  0.00     0.031 C 
ATOM     66  C   UNL A   1      46.829  26.991  29.545  1.00  0.00     0.037 A 
BRANCH  53  67
ATOM     67  C   UNL A   1      42.201  23.438  27.517  1.00  0.00     0.057 A 
ATOM     68  C   UNL A   1      41.848  22.379  28.366  1.00  0.00     0.134 A 
ATOM     69  C   UNL A   1      42.102  23.219  26.138  1.00  0.00     0.134 A 
ATOM     70  F   UNL A   1      41.932  22.520  29.697  1.00  0.00    -0.206 F 
ATOM     71  C   UNL A   1      41.441  21.143  27.863  1.00  0.00     0.040 A 
ATOM     72  C   UNL A   1      41.672  21.994  25.622  1.00  0.00     0.040 A 
ATOM     73  F   UNL A   1      42.418  24.190  25.269  1.00  0.00    -0.206 F 
ATOM     74  C   UNL A   1      41.347  20.950  26.485  1.00  0.00     0.006 A 
ENDBRANCH  53  67
BRANCH  54  75
ATOM     75  C   UNL A   1      44.605  32.306  31.379  1.00  0.00     0.057 A 
ATOM     76  C   UNL A   1      44.972  33.380  30.560  1.00  0.00     0.134 A 
ATOM     77  C   UNL A   1      44.597  32.520  32.761  1.00  0.00     0.134 A 
ATOM     78  F   UNL A   1      45.015  33.230  29.227  1.00  0.00    -0.206 F 
ATOM     79  C   UNL A   1      45.335  34.617  31.095  1.00  0.00     0.040 A 
ATOM     80  C   UNL A   1      44.937  33.758  33.310  1.00  0.00     0.040 A 
ATOM     81  F   UNL A   1      44.247  31.532  33.596  1.00  0.00    -0.206 F 
ATOM     82  C   UNL A   1      45.313  34.810  32.475  1.00  0.00     0.006 A 
ENDBRANCH  54  75
BRANCH  66  83
ATOM     83  C   UNL A   1      48.297  26.692  29.609  1.00  0.00     0.057 A 
ATOM     84  C   UNL A   1      49.167  27.050  28.573  1.00  0.00     0.134 A 
ATOM     85  C   UNL A   1      48.846  26.045  30.724  1.00  0.00     0.134 A 
ATOM     86  F   UNL A   1      48.699  27.658  27.472  1.00  0.00    -0.206 F 
ATOM     87  C   UNL A   1      50.528  26.750  28.627  1.00  0.00     0.040 A 
ATOM     88  C   UNL A   1      50.211  25.760  30.800  1.00  0.00     0.040 A 
ATOM     89  F   UNL A   1      48.068  25.681  31.754  1.00  0.00    -0.206 F 
ATOM     90  C   UNL A   1      51.054  26.106  29.747  1.00  0.00     0.006 A 
ENDBRANCH  66  83
ENDBRANCH  40  41
ENDBRANCH  32  35
ENDBRANCH  30  31
ENDBRANCH  29  30
ENDBRANCH   1  29
TORSDOF 15
ENDMDL
MODEL 3
REMARK VINA RESULT:     -11.6      2.020      6.550
REMARK SMILES COc1ccc(-c2ccc(S(=O)(=O)NC(C)(C)C)cc2)c(C(=O)NCCCNC(=O)c2ccc(-c3c4nc(c(-c5c(F)cccc5F)c5ccc([nH]5)c(-c5c(F)cccc5F)c5nc(c(-c6c(F)cccc6F)c6ccc3[nH]6)C=C5)C=C4)cc2)c1
REMARK SMILES IDX 25 1 24 2 22 3 23 4 21 6 3 7 4 8 85 9 5 10 6 11 2 12 1 13
REMARK SMILES IDX 7 14 8 15 20 16 9 17 19 18 10 19 11 20 12 21 13 22 14 23
REMARK SMILES IDX 15 25 16 26 17 27 18 28 26 29 27 30 28 31 29 32 30 34 31 35
REMARK SMILES IDX 32 36 84 37 33 38 83 39 34 40 35 41 36 42 77 43 37 44 82 45
REMARK SMILES IDX 76 46 78 47 38 48 81 49 75 50 74 51 39 53 65 54 48 55 64 56
REMARK SMILES IDX 49 57 52 58 63 59 79 60 50 61 51 62 62 64 80 65 53 66 40 67
REMARK SMILES IDX 41 68 46 69 42 70 43 71 45 72 47 73 44 74 66 75 67 76 72 77
REMARK SMILES IDX 68 78 69 79 71 80 73 81 70 82 54 83 55 84 60 85 56 86 57 87
REMARK SMILES IDX 59 88 61 89 58 90
REMARK H PARENT 24 5 14 24 28 33 78 52 52 63
REMARK Flexibility Score: inf
ROOT
ATOM      1  C   UNL A   1      32.540  29.515  25.506  1.00  0.00     0.118 C 
ENDROOT
BRANCH   1   2
ATOM      2  N   UNL A   1      33.033  28.880  24.292  1.00  0.00    -0.352 N 
ATOM      3  C   UNL A   1      32.456  28.642  23.059  1.00  0.00     0.252 C 
ATOM      4  O   UNL A   1      33.196  28.264  22.156  1.00  0.00    -0.269 OA
ATOM      5  H   UNL A   1      33.960  28.555  24.364  1.00  0.00     0.163 HD
BRANCH   3   6
ATOM      6  C   UNL A   1      30.989  28.802  22.833  1.00  0.00     0.051 A 
ATOM      7  C   UNL A   1      29.206  30.148  21.847  1.00  0.00     0.119 A 
ATOM      8  C   UNL A   1      28.264  29.366  22.501  1.00  0.00     0.047 A 
ATOM      9  C   UNL A   1      30.555  29.831  21.977  1.00  0.00     0.060 A 
ATOM     10  C   UNL A   1      28.670  28.258  23.246  1.00  0.00     0.013 A 
ATOM     11  C   UNL A   1      30.034  27.926  23.403  1.00  0.00    -0.005 A 
BRANCH   7  12
ATOM     12  O   UNL A   1      28.698  31.183  21.115  1.00  0.00    -0.497 OA
ATOM     13  C   UNL A   1      28.429  32.391  21.818  1.00  0.00     0.278 C 
ENDBRANCH   7  12
BRANCH  11  14
ATOM     14  C   UNL A   1      30.348  26.633  24.052  1.00  0.00    -0.018 A 
ATOM     15  C   UNL A   1      30.383  26.568  25.461  1.00  0.00     0.010 A 
ATOM     16  C   UNL A   1      30.608  25.455  23.335  1.00  0.00     0.010 A 
ATOM     17  C   UNL A   1      30.684  25.383  26.131  1.00  0.00     0.022 A 
ATOM     18  C   UNL A   1      30.863  24.248  24.002  1.00  0.00     0.022 A 
ATOM     19  C   UNL A   1      30.926  24.224  25.397  1.00  0.00     0.082 A 
BRANCH  19  20
ATOM     20  S   UNL A   1      31.342  22.750  26.284  1.00  0.00     0.241 S 
ATOM     21  O   UNL A   1      31.754  23.130  27.615  1.00  0.00    -0.207 OA
ATOM     22  O   UNL A   1      30.252  21.822  26.071  1.00  0.00    -0.207 OA
BRANCH  20  23
ATOM     23  N   UNL A   1      32.649  22.077  25.482  1.00  0.00    -0.206 NA
ATOM     24  H   UNL A   1      32.566  22.410  24.520  1.00  0.00     0.141 HD
BRANCH  23  25
ATOM     25  C   UNL A   1      34.080  22.237  25.819  1.00  0.00     0.025 C 
ATOM     26  C   UNL A   1      34.998  21.506  24.837  1.00  0.00     0.028 C 
ATOM     27  C   UNL A   1      34.369  23.748  25.720  1.00  0.00     0.028 C 
ATOM     28  C   UNL A   1      34.369  21.785  27.251  1.00  0.00     0.028 C 
ENDBRANCH  23  25
ENDBRANCH  20  23
ENDBRANCH  19  20
ENDBRANCH  11  14
ENDBRANCH   3   6
ENDBRANCH   1   2
BRANCH   1  29
ATOM     29  C   UNL A   1      32.968  28.858  26.810  1.00  0.00     0.042 C 
BRANCH  29  30
ATOM     30  C   UNL A   1      34.395  29.123  27.264  1.00  0.00     0.118 C 
BRANCH  30  31
ATOM     31  N   UNL A   1      34.503  30.138  28.299  1.00  0.00    -0.352 N 
ATOM     32  C   UNL A   1      35.539  30.536  29.108  1.00  0.00     0.251 C 
ATOM     33  H   UNL A   1      33.669  30.639  28.449  1.00  0.00     0.163 HD
ATOM     34  O   UNL A   1      35.300  31.356  29.995  1.00  0.00    -0.269 OA
BRANCH  32  35
ATOM     35  C   UNL A   1      36.915  29.999  28.978  1.00  0.00     0.039 A 
ATOM     36  C   UNL A   1      37.533  30.070  27.723  1.00  0.00     0.014 A 
ATOM     37  C   UNL A   1      37.590  29.371  30.027  1.00  0.00     0.014 A 
ATOM     38  C   UNL A   1      38.829  29.578  27.541  1.00  0.00     0.010 A 
ATOM     39  C   UNL A   1      38.918  28.967  29.872  1.00  0.00     0.010 A 
ATOM     40  C   UNL A   1      39.551  29.058  28.626  1.00  0.00    -0.014 A 
BRANCH  40  41
ATOM     41  C   UNL A   1      40.959  28.606  28.460  1.00  0.00     0.031 A 
ATOM     42  C   UNL A   1      41.275  27.174  28.117  1.00  0.00     0.074 A 
ATOM     43  C   UNL A   1      41.964  29.481  28.663  1.00  0.00     0.049 A 
ATOM     44  N   UNL A   1      42.442  26.602  27.947  1.00  0.00    -0.248 NA
ATOM     45  C   UNL A   1      40.134  26.256  27.970  1.00  0.00     0.031 C 
ATOM     46  C   UNL A   1      41.801  30.878  29.067  1.00  0.00     0.029 A 
ATOM     47  N   UNL A   1      43.324  29.323  28.557  1.00  0.00    -0.354 N 
ATOM     48  C   UNL A   1      42.176  25.261  27.697  1.00  0.00     0.074 A 
ATOM     49  C   UNL A   1      40.741  25.094  27.786  1.00  0.00     0.031 C 
ATOM     50  C   UNL A   1      43.009  31.460  29.137  1.00  0.00     0.029 A 
ATOM     51  C   UNL A   1      44.032  30.472  28.811  1.00  0.00     0.049 A 
ATOM     52  H   UNL A   1      43.751  28.468  28.321  1.00  0.00     0.167 HD
ATOM     53  C   UNL A   1      43.042  24.264  27.396  1.00  0.00     0.037 A 
ATOM     54  C   UNL A   1      45.357  30.709  28.776  1.00  0.00     0.037 A 
ATOM     55  C   UNL A   1      44.466  24.435  27.269  1.00  0.00     0.049 A 
ATOM     56  C   UNL A   1      46.293  29.599  28.393  1.00  0.00     0.074 A 
ATOM     57  C   UNL A   1      45.420  23.501  26.902  1.00  0.00     0.029 A 
ATOM     58  N   UNL A   1      45.141  25.623  27.501  1.00  0.00    -0.354 N 
ATOM     59  N   UNL A   1      46.019  28.353  28.092  1.00  0.00    -0.248 NA
ATOM     60  C   UNL A   1      47.723  29.932  28.333  1.00  0.00     0.031 C 
ATOM     61  C   UNL A   1      46.675  24.117  26.941  1.00  0.00     0.029 A 
ATOM     62  C   UNL A   1      46.500  25.444  27.297  1.00  0.00     0.049 A 
ATOM     63  H   UNL A   1      44.717  26.471  27.772  1.00  0.00     0.167 HD
ATOM     64  C   UNL A   1      47.237  27.759  27.789  1.00  0.00     0.074 A 
ATOM     65  C   UNL A   1      48.248  28.787  27.921  1.00  0.00     0.031 C 
ATOM     66  C   UNL A   1      47.494  26.476  27.437  1.00  0.00     0.037 A 
BRANCH  53  67
ATOM     67  C   UNL A   1      42.468  22.895  27.171  1.00  0.00     0.057 A 
ATOM     68  C   UNL A   1      42.315  22.364  25.882  1.00  0.00     0.134 A 
ATOM     69  C   UNL A   1      42.090  22.088  28.251  1.00  0.00     0.134 A 
ATOM     70  F   UNL A   1      42.646  23.090  24.805  1.00  0.00    -0.206 F 
ATOM     71  C   UNL A   1      41.782  21.091  25.675  1.00  0.00     0.040 A 
ATOM     72  C   UNL A   1      41.578  20.803  28.057  1.00  0.00     0.040 A 
ATOM     73  F   UNL A   1      42.215  22.532  29.510  1.00  0.00    -0.206 F 
ATOM     74  C   UNL A   1      41.416  20.304  26.767  1.00  0.00     0.006 A 
ENDBRANCH  53  67
BRANCH  54  75
ATOM     75  C   UNL A   1      45.874  32.068  29.069  1.00  0.00     0.057 A 
ATOM     76  C   UNL A   1      46.027  33.012  28.047  1.00  0.00     0.134 A 
ATOM     77  C   UNL A   1      46.226  32.455  30.365  1.00  0.00     0.134 A 
ATOM     78  F   UNL A   1      45.722  32.693  26.780  1.00  0.00    -0.206 F 
ATOM     79  C   UNL A   1      46.528  34.290  28.301  1.00  0.00     0.040 A 
ATOM     80  C   UNL A   1      46.708  33.737  30.639  1.00  0.00     0.040 A 
ATOM     81  F   UNL A   1      46.094  31.598  31.387  1.00  0.00    -0.206 F 
ATOM     82  C   UNL A   1      46.866  34.656  29.603  1.00  0.00     0.006 A 
ENDBRANCH  54  75
BRANCH  66  83
ATOM     83  C   UNL A   1      48.925  26.125  27.155  1.00  0.00     0.057 A 
ATOM     84  C   UNL A   1      49.792  25.701  28.168  1.00  0.00     0.134 A 
ATOM     85  C   UNL A   1      49.437  26.205  25.854  1.00  0.00     0.134 A 
ATOM     86  F   UNL A   1      49.366  25.618  29.438  1.00  0.00    -0.206 F 
ATOM     87  C   UNL A   1      51.128  25.396  27.904  1.00  0.00     0.040 A 
ATOM     88  C   UNL A   1      50.765  25.881  25.573  1.00  0.00     0.040 A 
ATOM     89  F   UNL A   1      48.656  26.598  24.836  1.00  0.00    -0.206 F 
ATOM     90  C   UNL A   1      51.616  25.483  26.601  1.00  0.00     0.006 A 
ENDBRANCH  66  83
ENDBRANCH  40  41
ENDBRANCH  32  35
ENDBRANCH  30  31
ENDBRANCH  29  30
ENDBRANCH   1  29
TORSDOF 15
ENDMDL
