MODEL 1
REMARK VINA RESULT:     -10.8      0.000      0.000
REMARK SMILES Cc1noc(C)c1[C@@H](C)NC(=O)N(CC(=O)NCCCNC(=O)c1ccc(-c2c3nc(c(-c4c(F)cccc4F)c4ccc([nH]4)c(-c4c(F)cccc4F)c4nc(c(-c5c(F)cccc5F)c5ccc2[nH]5)C=C4)C=C3)cc1)C(C)C
REMARK SMILES IDX 18 1 17 2 15 3 16 4 14 6 13 7 11 8 10 9 12 11 8 12 9 13 7 14
REMARK SMILES IDX 1 15 2 16 3 17 4 18 5 19 6 20 78 21 79 22 80 23 19 24 20 25
REMARK SMILES IDX 21 26 22 27 23 29 24 30 25 31 77 32 26 33 76 34 27 35 28 36
REMARK SMILES IDX 29 37 70 38 30 39 75 40 69 41 71 42 31 43 74 44 68 45 67 46
REMARK SMILES IDX 32 48 58 49 41 50 57 51 42 52 45 53 56 54 72 55 43 56 44 57
REMARK SMILES IDX 55 59 73 60 46 61 33 62 34 63 39 64 35 65 36 66 38 67 40 68
REMARK SMILES IDX 37 69 59 70 60 71 65 72 61 73 62 74 64 75 66 76 63 77 47 78
REMARK SMILES IDX 48 79 53 80 49 81 50 82 52 83 54 84 51 85
REMARK H PARENT 17 5 10 10 21 28 71 47 45 58
REMARK Flexibility Score: inf
ROOT
ATOM      1  C   UNL A   1      31.884  30.583  26.743  1.00  0.00     0.117 C 
ENDROOT
BRANCH   1   2
ATOM      2  N   UNL A   1      32.995  30.121  27.539  1.00  0.00    -0.354 N 
ATOM      3  C   UNL A   1      33.929  29.172  27.241  1.00  0.00     0.239 C 
ATOM      4  O   UNL A   1      34.945  29.144  27.941  1.00  0.00    -0.273 OA
ATOM      5  H   UNL A   1      33.094  30.550  28.419  1.00  0.00     0.163 HD
BRANCH   3   6
ATOM      6  C   UNL A   1      33.817  28.268  25.998  1.00  0.00     0.221 C 
BRANCH   6   7
ATOM      7  N   UNL A   1      32.855  27.167  26.080  1.00  0.00    -0.313 N 
BRANCH   7   8
ATOM      8  C   UNL A   1      31.491  27.214  25.994  1.00  0.00     0.318 C 
ATOM      9  N   UNL A   1      30.775  27.459  24.886  1.00  0.00    -0.331 N 
ATOM     10  H   UNL A   1      29.818  27.382  25.100  1.00  0.00     0.165 HD
ATOM     11  O   UNL A   1      30.779  27.034  26.989  1.00  0.00    -0.249 OA
BRANCH   9  12
ATOM     12  C   UNL A   1      30.920  27.800  23.470  1.00  0.00     0.116 C 
ATOM     13  C   UNL A   1      29.548  27.853  22.782  1.00  0.00     0.036 C 
BRANCH  12  14
ATOM     14  C   UNL A   1      31.850  26.812  22.841  1.00  0.00     0.040 A 
ATOM     15  C   UNL A   1      30.609  24.499  23.087  1.00  0.00     0.071 C 
ATOM     16  C   UNL A   1      31.711  25.400  22.669  1.00  0.00     0.086 A 
ATOM     17  N   UNL A   1      32.754  24.881  22.014  1.00  0.00    -0.085 NA
ATOM     18  O   UNL A   1      33.607  25.930  21.764  1.00  0.00    -0.361 OA
ATOM     19  C   UNL A   1      33.074  27.077  22.255  1.00  0.00     0.139 A 
ATOM     20  C   UNL A   1      33.885  28.294  22.061  1.00  0.00     0.091 C 
ENDBRANCH  12  14
ENDBRANCH   9  12
ENDBRANCH   7   8
BRANCH   7  21
ATOM     21  C   UNL A   1      33.515  25.832  26.217  1.00  0.00     0.081 C 
ATOM     22  C   UNL A   1      32.539  24.658  26.295  1.00  0.00     0.031 C 
ATOM     23  C   UNL A   1      34.606  25.582  25.170  1.00  0.00     0.031 C 
ENDBRANCH   7  21
ENDBRANCH   6   7
ENDBRANCH   3   6
ENDBRANCH   1   2
BRANCH   1  24
ATOM     24  C   UNL A   1      31.543  32.055  26.913  1.00  0.00     0.042 C 
BRANCH  24  25
ATOM     25  C   UNL A   1      32.758  32.966  26.887  1.00  0.00     0.118 C 
BRANCH  25  26
ATOM     26  N   UNL A   1      32.561  34.163  27.692  1.00  0.00    -0.352 N 
ATOM     27  C   UNL A   1      33.187  34.551  28.849  1.00  0.00     0.251 C 
ATOM     28  H   UNL A   1      31.878  34.786  27.356  1.00  0.00     0.163 HD
ATOM     29  O   UNL A   1      32.739  35.501  29.484  1.00  0.00    -0.269 OA
BRANCH  27  30
ATOM     30  C   UNL A   1      34.381  33.827  29.345  1.00  0.00     0.039 A 
ATOM     31  C   UNL A   1      35.644  34.280  28.956  1.00  0.00     0.014 A 
ATOM     32  C   UNL A   1      34.267  32.692  30.153  1.00  0.00     0.014 A 
ATOM     33  C   UNL A   1      36.788  33.619  29.406  1.00  0.00     0.010 A 
ATOM     34  C   UNL A   1      35.410  32.086  30.670  1.00  0.00     0.010 A 
ATOM     35  C   UNL A   1      36.682  32.530  30.287  1.00  0.00    -0.014 A 
BRANCH  35  36
ATOM     36  C   UNL A   1      37.898  31.846  30.794  1.00  0.00     0.031 A 
ATOM     37  C   UNL A   1      38.456  32.185  32.151  1.00  0.00     0.074 A 
ATOM     38  C   UNL A   1      38.522  30.941  30.015  1.00  0.00     0.049 A 
ATOM     39  N   UNL A   1      39.496  31.679  32.765  1.00  0.00    -0.248 NA
ATOM     40  C   UNL A   1      37.775  33.248  32.907  1.00  0.00     0.031 C 
ATOM     41  C   UNL A   1      38.127  30.584  28.650  1.00  0.00     0.029 A 
ATOM     42  N   UNL A   1      39.621  30.157  30.258  1.00  0.00    -0.354 N 
ATOM     43  C   UNL A   1      39.602  32.372  33.965  1.00  0.00     0.074 A 
ATOM     44  C   UNL A   1      38.555  33.369  33.972  1.00  0.00     0.031 C 
ATOM     45  C   UNL A   1      38.952  29.629  28.190  1.00  0.00     0.029 A 
ATOM     46  C   UNL A   1      39.946  29.326  29.214  1.00  0.00     0.049 A 
ATOM     47  H   UNL A   1      40.129  30.188  31.101  1.00  0.00     0.167 HD
ATOM     48  C   UNL A   1      40.478  32.179  34.980  1.00  0.00     0.037 A 
ATOM     49  C   UNL A   1      40.930  28.414  29.099  1.00  0.00     0.037 A 
ATOM     50  C   UNL A   1      41.494  31.160  34.988  1.00  0.00     0.049 A 
ATOM     51  C   UNL A   1      41.852  28.182  30.263  1.00  0.00     0.074 A 
ATOM     52  C   UNL A   1      42.375  30.829  36.004  1.00  0.00     0.029 A 
ATOM     53  N   UNL A   1      41.764  30.307  33.929  1.00  0.00    -0.354 N 
ATOM     54  N   UNL A   1      41.879  28.780  31.430  1.00  0.00    -0.248 NA
ATOM     55  C   UNL A   1      42.870  27.135  30.101  1.00  0.00     0.031 C 
ATOM     56  C   UNL A   1      43.205  29.801  35.543  1.00  0.00     0.029 A 
ATOM     57  C   UNL A   1      42.811  29.462  34.260  1.00  0.00     0.049 A 
ATOM     58  H   UNL A   1      41.284  30.303  33.070  1.00  0.00     0.167 HD
ATOM     59  C   UNL A   1      42.898  28.168  32.147  1.00  0.00     0.074 A 
ATOM     60  C   UNL A   1      43.447  27.135  31.293  1.00  0.00     0.031 C 
ATOM     61  C   UNL A   1      43.345  28.440  33.398  1.00  0.00     0.037 A 
BRANCH  48  62
ATOM     62  C   UNL A   1      40.369  33.080  36.175  1.00  0.00     0.057 A 
ATOM     63  C   UNL A   1      41.153  34.235  36.305  1.00  0.00     0.134 A 
ATOM     64  C   UNL A   1      39.432  32.820  37.184  1.00  0.00     0.134 A 
ATOM     65  F   UNL A   1      42.079  34.535  35.382  1.00  0.00    -0.206 F 
ATOM     66  C   UNL A   1      41.023  35.087  37.403  1.00  0.00     0.040 A 
ATOM     67  C   UNL A   1      39.275  33.678  38.274  1.00  0.00     0.040 A 
ATOM     68  F   UNL A   1      38.646  31.735  37.120  1.00  0.00    -0.206 F 
ATOM     69  C   UNL A   1      40.075  34.814  38.388  1.00  0.00     0.006 A 
ENDBRANCH  48  62
BRANCH  49  70
ATOM     70  C   UNL A   1      41.077  27.629  27.848  1.00  0.00     0.057 A 
ATOM     71  C   UNL A   1      40.479  26.372  27.707  1.00  0.00     0.134 A 
ATOM     72  C   UNL A   1      41.834  28.107  26.772  1.00  0.00     0.134 A 
ATOM     73  F   UNL A   1      39.755  25.852  28.709  1.00  0.00    -0.206 F 
ATOM     74  C   UNL A   1      40.650  25.605  26.553  1.00  0.00     0.040 A 
ATOM     75  C   UNL A   1      41.991  27.364  25.602  1.00  0.00     0.040 A 
ATOM     76  F   UNL A   1      42.424  29.310  26.841  1.00  0.00    -0.206 F 
ATOM     77  C   UNL A   1      41.407  26.103  25.494  1.00  0.00     0.006 A 
ENDBRANCH  49  70
BRANCH  61  78
ATOM     78  C   UNL A   1      44.464  27.587  33.919  1.00  0.00     0.057 A 
ATOM     79  C   UNL A   1      44.224  26.367  34.567  1.00  0.00     0.134 A 
ATOM     80  C   UNL A   1      45.798  27.985  33.763  1.00  0.00     0.134 A 
ATOM     81  F   UNL A   1      42.969  25.935  34.759  1.00  0.00    -0.206 F 
ATOM     82  C   UNL A   1      45.270  25.594  35.073  1.00  0.00     0.040 A 
ATOM     83  C   UNL A   1      46.852  27.207  34.239  1.00  0.00     0.040 A 
ATOM     84  F   UNL A   1      46.096  29.137  33.142  1.00  0.00    -0.206 F 
ATOM     85  C   UNL A   1      46.588  26.012  34.907  1.00  0.00     0.006 A 
ENDBRANCH  61  78
ENDBRANCH  35  36
ENDBRANCH  27  30
ENDBRANCH  25  26
ENDBRANCH  24  25
ENDBRANCH   1  24
TORSDOF 15
ENDMDL
MODEL 2
REMARK VINA RESULT:     -10.6      1.268      2.239
REMARK SMILES Cc1noc(C)c1[C@@H](C)NC(=O)N(CC(=O)NCCCNC(=O)c1ccc(-c2c3nc(c(-c4c(F)cccc4F)c4ccc([nH]4)c(-c4c(F)cccc4F)c4nc(c(-c5c(F)cccc5F)c5ccc2[nH]5)C=C4)C=C3)cc1)C(C)C
REMARK SMILES IDX 18 1 17 2 15 3 16 4 14 6 13 7 11 8 10 9 12 11 8 12 9 13 7 14
REMARK SMILES IDX 1 15 2 16 3 17 4 18 5 19 6 20 78 21 79 22 80 23 19 24 20 25
REMARK SMILES IDX 21 26 22 27 23 29 24 30 25 31 77 32 26 33 76 34 27 35 28 36
REMARK SMILES IDX 29 37 70 38 30 39 75 40 69 41 71 42 31 43 74 44 68 45 67 46
REMARK SMILES IDX 32 48 58 49 41 50 57 51 42 52 45 53 56 54 72 55 43 56 44 57
REMARK SMILES IDX 55 59 73 60 46 61 33 62 34 63 39 64 35 65 36 66 38 67 40 68
REMARK SMILES IDX 37 69 59 70 60 71 65 72 61 73 62 74 64 75 66 76 63 77 47 78
REMARK SMILES IDX 48 79 53 80 49 81 50 82 52 83 54 84 51 85
REMARK H PARENT 17 5 10 10 21 28 71 47 45 58
REMARK Flexibility Score: inf
ROOT
ATOM      1  C   UNL A   1      31.279  30.699  25.471  1.00  0.00     0.117 C 
ENDROOT
BRANCH   1   2
ATOM      2  N   UNL A   1      32.377  29.806  25.747  1.00  0.00    -0.354 N 
ATOM      3  C   UNL A   1      33.131  29.076  24.873  1.00  0.00     0.239 C 
ATOM      4  O   UNL A   1      34.191  28.610  25.300  1.00  0.00    -0.273 OA
ATOM      5  H   UNL A   1      32.618  29.709  26.696  1.00  0.00     0.163 HD
BRANCH   3   6
ATOM      6  C   UNL A   1      32.775  28.957  23.379  1.00  0.00     0.221 C 
BRANCH   6   7
ATOM      7  N   UNL A   1      32.336  27.638  22.919  1.00  0.00    -0.313 N 
BRANCH   7   8
ATOM      8  C   UNL A   1      33.097  26.552  22.585  1.00  0.00     0.318 C 
ATOM      9  N   UNL A   1      33.319  25.474  23.352  1.00  0.00    -0.331 N 
ATOM     10  H   UNL A   1      33.858  24.826  22.844  1.00  0.00     0.165 HD
ATOM     11  O   UNL A   1      33.675  26.485  21.494  1.00  0.00    -0.249 OA
BRANCH   9  12
ATOM     12  C   UNL A   1      33.040  24.925  24.680  1.00  0.00     0.116 C 
ATOM     13  C   UNL A   1      34.039  25.469  25.711  1.00  0.00     0.036 C 
BRANCH  12  14
ATOM     14  C   UNL A   1      33.056  23.432  24.584  1.00  0.00     0.040 A 
ATOM     15  C   UNL A   1      30.816  22.679  25.754  1.00  0.00     0.071 C 
ATOM     16  C   UNL A   1      32.098  22.473  25.037  1.00  0.00     0.086 A 
ATOM     17  N   UNL A   1      32.465  21.227  24.719  1.00  0.00    -0.085 NA
ATOM     18  O   UNL A   1      33.676  21.339  24.077  1.00  0.00    -0.361 OA
ATOM     19  C   UNL A   1      34.030  22.646  23.997  1.00  0.00     0.139 A 
ATOM     20  C   UNL A   1      35.317  22.921  23.331  1.00  0.00     0.091 C 
ENDBRANCH  12  14
ENDBRANCH   9  12
ENDBRANCH   7   8
BRANCH   7  21
ATOM     21  C   UNL A   1      30.847  27.502  22.888  1.00  0.00     0.081 C 
ATOM     22  C   UNL A   1      30.237  27.012  24.202  1.00  0.00     0.031 C 
ATOM     23  C   UNL A   1      30.132  28.756  22.375  1.00  0.00     0.031 C 
ENDBRANCH   7  21
ENDBRANCH   6   7
ENDBRANCH   3   6
ENDBRANCH   1   2
BRANCH   1  24
ATOM     24  C   UNL A   1      31.154  31.874  26.427  1.00  0.00     0.042 C 
BRANCH  24  25
ATOM     25  C   UNL A   1      32.492  32.432  26.881  1.00  0.00     0.118 C 
BRANCH  25  26
ATOM     26  N   UNL A   1      32.370  33.784  27.406  1.00  0.00    -0.352 N 
ATOM     27  C   UNL A   1      33.082  34.403  28.401  1.00  0.00     0.251 C 
ATOM     28  H   UNL A   1      31.674  34.336  26.982  1.00  0.00     0.163 HD
ATOM     29  O   UNL A   1      32.694  35.485  28.833  1.00  0.00    -0.269 OA
BRANCH  27  30
ATOM     30  C   UNL A   1      34.297  33.774  28.969  1.00  0.00     0.039 A 
ATOM     31  C   UNL A   1      34.141  32.711  29.863  1.00  0.00     0.014 A 
ATOM     32  C   UNL A   1      35.577  34.243  28.662  1.00  0.00     0.014 A 
ATOM     33  C   UNL A   1      35.267  32.099  30.415  1.00  0.00     0.010 A 
ATOM     34  C   UNL A   1      36.700  33.576  29.146  1.00  0.00     0.010 A 
ATOM     35  C   UNL A   1      36.558  32.510  30.043  1.00  0.00    -0.014 A 
BRANCH  35  36
ATOM     36  C   UNL A   1      37.757  31.837  30.604  1.00  0.00     0.031 A 
ATOM     37  C   UNL A   1      38.255  32.187  31.981  1.00  0.00     0.074 A 
ATOM     38  C   UNL A   1      38.419  30.933  29.856  1.00  0.00     0.049 A 
ATOM     39  N   UNL A   1      39.273  31.692  32.640  1.00  0.00    -0.248 NA
ATOM     40  C   UNL A   1      37.537  33.249  32.702  1.00  0.00     0.031 C 
ATOM     41  C   UNL A   1      38.083  30.566  28.478  1.00  0.00     0.029 A 
ATOM     42  N   UNL A   1      39.513  30.159  30.149  1.00  0.00    -0.354 N 
ATOM     43  C   UNL A   1      39.325  32.392  33.839  1.00  0.00     0.074 A 
ATOM     44  C   UNL A   1      38.271  33.381  33.798  1.00  0.00     0.031 C 
ATOM     45  C   UNL A   1      38.934  29.615  28.057  1.00  0.00     0.029 A 
ATOM     46  C   UNL A   1      39.886  29.324  29.123  1.00  0.00     0.049 A 
ATOM     47  H   UNL A   1      39.985  30.197  31.012  1.00  0.00     0.167 HD
ATOM     48  C   UNL A   1      40.159  32.211  34.891  1.00  0.00     0.037 A 
ATOM     49  C   UNL A   1      40.881  28.420  29.054  1.00  0.00     0.037 A 
ATOM     50  C   UNL A   1      41.182  31.199  34.946  1.00  0.00     0.049 A 
ATOM     51  C   UNL A   1      41.756  28.200  30.256  1.00  0.00     0.074 A 
ATOM     52  C   UNL A   1      42.022  30.880  35.999  1.00  0.00     0.029 A 
ATOM     53  N   UNL A   1      41.501  30.343  33.904  1.00  0.00    -0.354 N 
ATOM     54  N   UNL A   1      41.730  28.804  31.420  1.00  0.00    -0.248 NA
ATOM     55  C   UNL A   1      42.787  27.160  30.141  1.00  0.00     0.031 C 
ATOM     56  C   UNL A   1      42.878  29.855  35.579  1.00  0.00     0.029 A 
ATOM     57  C   UNL A   1      42.540  29.507  34.282  1.00  0.00     0.049 A 
ATOM     58  H   UNL A   1      41.057  30.331  33.026  1.00  0.00     0.167 HD
ATOM     59  C   UNL A   1      42.723  28.203  32.182  1.00  0.00     0.074 A 
ATOM     60  C   UNL A   1      43.315  27.170  31.356  1.00  0.00     0.031 C 
ATOM     61  C   UNL A   1      43.116  28.484  33.449  1.00  0.00     0.037 A 
BRANCH  48  62
ATOM     62  C   UNL A   1      39.995  33.116  36.076  1.00  0.00     0.057 A 
ATOM     63  C   UNL A   1      40.715  34.313  36.198  1.00  0.00     0.134 A 
ATOM     64  C   UNL A   1      39.067  32.817  37.082  1.00  0.00     0.134 A 
ATOM     65  F   UNL A   1      41.628  34.653  35.277  1.00  0.00    -0.206 F 
ATOM     66  C   UNL A   1      40.532  35.168  37.286  1.00  0.00     0.040 A 
ATOM     67  C   UNL A   1      38.857  33.676  38.162  1.00  0.00     0.040 A 
ATOM     68  F   UNL A   1      38.341  31.690  37.025  1.00  0.00    -0.206 F 
ATOM     69  C   UNL A   1      39.594  34.855  38.268  1.00  0.00     0.006 A 
ENDBRANCH  48  62
BRANCH  49  70
ATOM     70  C   UNL A   1      41.085  27.630  27.814  1.00  0.00     0.057 A 
ATOM     71  C   UNL A   1      40.479  26.379  27.643  1.00  0.00     0.134 A 
ATOM     72  C   UNL A   1      41.904  28.095  26.780  1.00  0.00     0.134 A 
ATOM     73  F   UNL A   1      39.696  25.871  28.606  1.00  0.00    -0.206 F 
ATOM     74  C   UNL A   1      40.703  25.608  26.502  1.00  0.00     0.040 A 
ATOM     75  C   UNL A   1      42.115  27.346  25.621  1.00  0.00     0.040 A 
ATOM     76  F   UNL A   1      42.505  29.290  26.877  1.00  0.00    -0.206 F 
ATOM     77  C   UNL A   1      41.522  26.093  25.484  1.00  0.00     0.006 A 
ENDBRANCH  49  70
BRANCH  61  78
ATOM     78  C   UNL A   1      44.219  27.643  34.020  1.00  0.00     0.057 A 
ATOM     79  C   UNL A   1      43.962  26.423  34.661  1.00  0.00     0.134 A 
ATOM     80  C   UNL A   1      45.555  28.052  33.919  1.00  0.00     0.134 A 
ATOM     81  F   UNL A   1      42.703  25.981  34.801  1.00  0.00    -0.206 F 
ATOM     82  C   UNL A   1      44.991  25.660  35.214  1.00  0.00     0.040 A 
ATOM     83  C   UNL A   1      46.594  27.283  34.443  1.00  0.00     0.040 A 
ATOM     84  F   UNL A   1      45.870  29.203  33.307  1.00  0.00    -0.206 F 
ATOM     85  C   UNL A   1      46.312  26.088  35.102  1.00  0.00     0.006 A 
ENDBRANCH  61  78
ENDBRANCH  35  36
ENDBRANCH  27  30
ENDBRANCH  25  26
ENDBRANCH  24  25
ENDBRANCH   1  24
TORSDOF 15
ENDMDL
MODEL 3
REMARK VINA RESULT:     -10.6      4.531      9.424
REMARK SMILES Cc1noc(C)c1[C@@H](C)NC(=O)N(CC(=O)NCCCNC(=O)c1ccc(-c2c3nc(c(-c4c(F)cccc4F)c4ccc([nH]4)c(-c4c(F)cccc4F)c4nc(c(-c5c(F)cccc5F)c5ccc2[nH]5)C=C4)C=C3)cc1)C(C)C
REMARK SMILES IDX 18 1 17 2 15 3 16 4 14 6 13 7 11 8 10 9 12 11 8 12 9 13 7 14
REMARK SMILES IDX 1 15 2 16 3 17 4 18 5 19 6 20 78 21 79 22 80 23 19 24 20 25
REMARK SMILES IDX 21 26 22 27 23 29 24 30 25 31 77 32 26 33 76 34 27 35 28 36
REMARK SMILES IDX 29 37 70 38 30 39 75 40 69 41 71 42 31 43 74 44 68 45 67 46
REMARK SMILES IDX 32 48 58 49 41 50 57 51 42 52 45 53 56 54 72 55 43 56 44 57
REMARK SMILES IDX 55 59 73 60 46 61 33 62 34 63 39 64 35 65 36 66 38 67 40 68
REMARK SMILES IDX 37 69 59 70 60 71 65 72 61 73 62 74 64 75 66 76 63 77 47 78
REMARK SMILES IDX 48 79 53 80 49 81 50 82 52 83 54 84 51 85
REMARK H PARENT 17 5 10 10 21 28 71 47 45 58
REMARK Flexibility Score: inf
ROOT
ATOM      1  C   UNL A   1      36.584  20.490  24.976  1.00  0.00     0.117 C 
ENDROOT
BRANCH   1   2
ATOM      2  N   UNL A   1      36.746  21.879  25.330  1.00  0.00    -0.354 N 
ATOM      3  C   UNL A   1      36.202  22.984  24.742  1.00  0.00     0.239 C 
ATOM      4  O   UNL A   1      36.246  24.039  25.382  1.00  0.00    -0.273 OA
ATOM      5  H   UNL A   1      37.329  22.054  26.103  1.00  0.00     0.163 HD
BRANCH   3   6
ATOM      6  C   UNL A   1      35.425  22.912  23.413  1.00  0.00     0.221 C 
BRANCH   6   7
ATOM      7  N   UNL A   1      33.968  22.806  23.518  1.00  0.00    -0.313 N 
BRANCH   7   8
ATOM      8  C   UNL A   1      33.226  21.965  24.299  1.00  0.00     0.318 C 
ATOM      9  N   UNL A   1      32.858  22.181  25.571  1.00  0.00    -0.331 N 
ATOM     10  H   UNL A   1      32.287  21.437  25.870  1.00  0.00     0.165 HD
ATOM     11  O   UNL A   1      32.824  20.877  23.867  1.00  0.00    -0.249 OA
BRANCH   9  12
ATOM     12  C   UNL A   1      33.009  23.137  26.669  1.00  0.00     0.116 C 
ATOM     13  C   UNL A   1      33.100  22.404  28.015  1.00  0.00     0.036 C 
BRANCH  12  14
ATOM     14  C   UNL A   1      31.872  24.106  26.608  1.00  0.00     0.040 A 
ATOM     15  C   UNL A   1      33.028  26.446  26.234  1.00  0.00     0.071 C 
ATOM     16  C   UNL A   1      31.882  25.523  26.412  1.00  0.00     0.086 A 
ATOM     17  N   UNL A   1      30.642  26.021  26.379  1.00  0.00    -0.085 NA
ATOM     18  O   UNL A   1      29.797  24.953  26.574  1.00  0.00    -0.361 OA
ATOM     19  C   UNL A   1      30.524  23.817  26.712  1.00  0.00     0.139 A 
ATOM     20  C   UNL A   1      29.747  22.583  26.933  1.00  0.00     0.091 C 
ENDBRANCH  12  14
ENDBRANCH   9  12
ENDBRANCH   7   8
BRANCH   7  21
ATOM     21  C   UNL A   1      33.254  23.820  22.682  1.00  0.00     0.081 C 
ATOM     22  C   UNL A   1      33.752  25.252  22.876  1.00  0.00     0.031 C 
ATOM     23  C   UNL A   1      33.190  23.448  21.197  1.00  0.00     0.031 C 
ENDBRANCH   7  21
ENDBRANCH   6   7
ENDBRANCH   3   6
ENDBRANCH   1   2
BRANCH   1  24
ATOM     24  C   UNL A   1      37.879  19.704  24.858  1.00  0.00     0.042 C 
BRANCH  24  25
ATOM     25  C   UNL A   1      38.923  20.097  25.890  1.00  0.00     0.118 C 
BRANCH  25  26
ATOM     26  N   UNL A   1      40.100  19.242  25.830  1.00  0.00    -0.352 N 
ATOM     27  C   UNL A   1      41.422  19.559  26.012  1.00  0.00     0.251 C 
ATOM     28  H   UNL A   1      39.920  18.296  25.629  1.00  0.00     0.163 HD
ATOM     29  O   UNL A   1      42.283  18.733  25.723  1.00  0.00    -0.269 OA
BRANCH  27  30
ATOM     30  C   UNL A   1      41.818  20.887  26.535  1.00  0.00     0.039 A 
ATOM     31  C   UNL A   1      42.119  21.901  25.622  1.00  0.00     0.014 A 
ATOM     32  C   UNL A   1      41.932  21.131  27.907  1.00  0.00     0.014 A 
ATOM     33  C   UNL A   1      42.497  23.162  26.084  1.00  0.00     0.010 A 
ATOM     34  C   UNL A   1      42.225  22.413  28.367  1.00  0.00     0.010 A 
ATOM     35  C   UNL A   1      42.530  23.437  27.461  1.00  0.00    -0.014 A 
BRANCH  35  36
ATOM     36  C   UNL A   1      42.898  24.788  27.954  1.00  0.00     0.031 A 
ATOM     37  C   UNL A   1      44.344  25.177  28.109  1.00  0.00     0.074 A 
ATOM     38  C   UNL A   1      41.926  25.656  28.297  1.00  0.00     0.049 A 
ATOM     39  N   UNL A   1      44.854  26.315  28.507  1.00  0.00    -0.248 NA
ATOM     40  C   UNL A   1      45.350  24.147  27.803  1.00  0.00     0.031 C 
ATOM     41  C   UNL A   1      40.489  25.371  28.269  1.00  0.00     0.029 A 
ATOM     42  N   UNL A   1      41.998  26.953  28.738  1.00  0.00    -0.354 N 
ATOM     43  C   UNL A   1      46.232  26.132  28.516  1.00  0.00     0.074 A 
ATOM     44  C   UNL A   1      46.478  24.759  28.134  1.00  0.00     0.031 C 
ATOM     45  C   UNL A   1      39.816  26.471  28.644  1.00  0.00     0.029 A 
ATOM     46  C   UNL A   1      40.771  27.527  28.961  1.00  0.00     0.049 A 
ATOM     47  H   UNL A   1      42.849  27.427  28.880  1.00  0.00     0.167 HD
ATOM     48  C   UNL A   1      47.205  27.032  28.793  1.00  0.00     0.037 A 
ATOM     49  C   UNL A   1      40.451  28.769  29.369  1.00  0.00     0.037 A 
ATOM     50  C   UNL A   1      46.959  28.409  29.135  1.00  0.00     0.049 A 
ATOM     51  C   UNL A   1      41.550  29.765  29.615  1.00  0.00     0.074 A 
ATOM     52  C   UNL A   1      47.879  29.421  29.350  1.00  0.00     0.029 A 
ATOM     53  N   UNL A   1      45.701  28.966  29.308  1.00  0.00    -0.354 N 
ATOM     54  N   UNL A   1      42.849  29.603  29.525  1.00  0.00    -0.248 NA
ATOM     55  C   UNL A   1      41.139  31.121  30.002  1.00  0.00     0.031 C 
ATOM     56  C   UNL A   1      47.177  30.582  29.695  1.00  0.00     0.029 A 
ATOM     57  C   UNL A   1      45.821  30.304  29.648  1.00  0.00     0.049 A 
ATOM     58  H   UNL A   1      44.850  28.482  29.207  1.00  0.00     0.167 HD
ATOM     59  C   UNL A   1      43.407  30.839  29.821  1.00  0.00     0.074 A 
ATOM     60  C   UNL A   1      42.305  31.746  30.068  1.00  0.00     0.031 C 
ATOM     61  C   UNL A   1      44.714  31.192  29.890  1.00  0.00     0.037 A 
BRANCH  48  62
ATOM     62  C   UNL A   1      48.629  26.563  28.727  1.00  0.00     0.057 A 
ATOM     63  C   UNL A   1      49.385  26.659  27.550  1.00  0.00     0.134 A 
ATOM     64  C   UNL A   1      49.270  26.060  29.866  1.00  0.00     0.134 A 
ATOM     65  F   UNL A   1      48.828  27.120  26.420  1.00  0.00    -0.206 F 
ATOM     66  C   UNL A   1      50.720  26.253  27.504  1.00  0.00     0.040 A 
ATOM     67  C   UNL A   1      50.611  25.674  29.839  1.00  0.00     0.040 A 
ATOM     68  F   UNL A   1      48.606  25.946  31.026  1.00  0.00    -0.206 F 
ATOM     69  C   UNL A   1      51.339  25.767  28.654  1.00  0.00     0.006 A 
ENDBRANCH  48  62
BRANCH  49  70
ATOM     70  C   UNL A   1      39.028  29.155  29.541  1.00  0.00     0.057 A 
ATOM     71  C   UNL A   1      38.391  29.040  30.782  1.00  0.00     0.134 A 
ATOM     72  C   UNL A   1      38.266  29.629  28.467  1.00  0.00     0.134 A 
ATOM     73  F   UNL A   1      39.063  28.576  31.846  1.00  0.00    -0.206 F 
ATOM     74  C   UNL A   1      37.041  29.355  30.944  1.00  0.00     0.040 A 
ATOM     75  C   UNL A   1      36.923  29.974  28.620  1.00  0.00     0.040 A 
ATOM     76  F   UNL A   1      38.821  29.773  27.254  1.00  0.00    -0.206 F 
ATOM     77  C   UNL A   1      36.303  29.827  29.859  1.00  0.00     0.006 A 
ENDBRANCH  49  70
BRANCH  61  78
ATOM     78  C   UNL A   1      45.014  32.625  30.220  1.00  0.00     0.057 A 
ATOM     79  C   UNL A   1      45.121  33.606  29.224  1.00  0.00     0.134 A 
ATOM     80  C   UNL A   1      45.190  33.029  31.549  1.00  0.00     0.134 A 
ATOM     81  F   UNL A   1      44.975  33.280  27.931  1.00  0.00    -0.206 F 
ATOM     82  C   UNL A   1      45.427  34.930  29.538  1.00  0.00     0.040 A 
ATOM     83  C   UNL A   1      45.468  34.356  31.877  1.00  0.00     0.040 A 
ATOM     84  F   UNL A   1      45.089  32.142  32.550  1.00  0.00    -0.206 F 
ATOM     85  C   UNL A   1      45.598  35.309  30.868  1.00  0.00     0.006 A 
ENDBRANCH  61  78
ENDBRANCH  35  36
ENDBRANCH  27  30
ENDBRANCH  25  26
ENDBRANCH  24  25
ENDBRANCH   1  24
TORSDOF 15
ENDMDL
