MODEL 1
REMARK VINA RESULT:     -11.4      0.000      0.000
REMARK SMILES CC(=O)Oc1c(Cl)cc(-c2ccccc2)cc1C(=O)NCCCNC(=O)c1ccc(-c2c3nc(c(-c4c(F)cccc4F)c4ccc([nH]4)c(-c4c(F)cccc4F)c4nc(c(-c5c(F)cccc5F)c5ccc2[nH]5)C=C4)C=C3)cc1
REMARK SMILES IDX 22 1 21 2 20 3 18 4 19 5 17 7 5 8 6 9 7 10 8 11 16 12 9 13
REMARK SMILES IDX 4 14 2 15 1 16 3 17 10 18 11 19 15 20 12 21 14 22 13 23
REMARK SMILES IDX 23 24 24 25 25 26 26 28 27 29 28 30 80 31 29 32 79 33 30 34
REMARK SMILES IDX 31 35 32 36 73 37 33 38 78 39 72 40 74 41 34 42 77 43 71 44
REMARK SMILES IDX 70 45 35 47 61 48 44 49 60 50 45 51 48 52 59 53 75 54 46 55
REMARK SMILES IDX 47 56 58 58 76 59 49 60 36 61 37 62 42 63 38 64 39 65 41 66
REMARK SMILES IDX 43 67 40 68 62 69 63 70 68 71 64 72 65 73 67 74 69 75 66 76
REMARK SMILES IDX 50 77 51 78 56 79 52 80 53 81 55 82 57 83 54 84
REMARK H PARENT 20 6 24 27 74 46 48 57
REMARK Flexibility Score: inf
ROOT
ATOM      1  C   UNL A   1      34.019  28.150  25.991  1.00  0.00     0.042 C 
ENDROOT
BRANCH   1   2
ATOM      2  C   UNL A   1      33.296  28.781  24.805  1.00  0.00     0.118 C 
BRANCH   2   3
ATOM      3  N   UNL A   1      33.458  27.993  23.611  1.00  0.00    -0.352 N 
ATOM      4  C   UNL A   1      33.487  26.680  23.259  1.00  0.00     0.255 C 
ATOM      5  O   UNL A   1      33.671  26.531  22.042  1.00  0.00    -0.269 OA
ATOM      6  H   UNL A   1      33.583  28.570  22.823  1.00  0.00     0.163 HD
BRANCH   4   7
ATOM      7  C   UNL A   1      33.321  25.445  24.100  1.00  0.00     0.084 A 
ATOM      8  C   UNL A   1      32.180  24.789  24.585  1.00  0.00     0.162 A 
ATOM      9  C   UNL A   1      32.301  23.551  25.265  1.00  0.00     0.085 A 
ATOM     10  Cl  UNL A   1      30.911  22.633  25.752  1.00  0.00    -0.080 Cl
ATOM     11  C   UNL A   1      33.545  22.980  25.519  1.00  0.00     0.033 A 
ATOM     12  C   UNL A   1      34.570  24.827  24.391  1.00  0.00     0.026 A 
ATOM     13  C   UNL A   1      34.705  23.610  25.082  1.00  0.00    -0.016 A 
BRANCH   8  14
ATOM     14  O   UNL A   1      30.877  25.221  24.327  1.00  0.00    -0.424 OA
BRANCH  14  15
ATOM     15  C   UNL A   1      30.447  26.277  25.130  1.00  0.00     0.308 C 
ATOM     16  C   UNL A   1      29.893  27.367  24.255  1.00  0.00     0.139 C 
ATOM     17  O   UNL A   1      30.545  26.339  26.348  1.00  0.00    -0.252 OA
ENDBRANCH  14  15
ENDBRANCH   8  14
BRANCH  13  18
ATOM     18  C   UNL A   1      36.025  22.999  25.290  1.00  0.00    -0.018 A 
ATOM     19  C   UNL A   1      36.282  21.688  24.855  1.00  0.00     0.009 A 
ATOM     20  C   UNL A   1      37.062  23.705  25.920  1.00  0.00     0.009 A 
ATOM     21  C   UNL A   1      37.529  21.094  25.058  1.00  0.00     0.001 A 
ATOM     22  C   UNL A   1      38.310  23.110  26.126  1.00  0.00     0.001 A 
ATOM     23  C   UNL A   1      38.541  21.804  25.697  1.00  0.00     0.000 A 
ENDBRANCH  13  18
ENDBRANCH   4   7
ENDBRANCH   2   3
ENDBRANCH   1   2
BRANCH   1  24
ATOM     24  C   UNL A   1      33.428  28.577  27.333  1.00  0.00     0.118 C 
BRANCH  24  25
ATOM     25  N   UNL A   1      33.570  30.013  27.573  1.00  0.00    -0.352 N 
ATOM     26  C   UNL A   1      34.581  30.762  28.121  1.00  0.00     0.251 C 
ATOM     27  H   UNL A   1      32.792  30.543  27.286  1.00  0.00     0.163 HD
ATOM     28  O   UNL A   1      34.355  31.922  28.445  1.00  0.00    -0.269 OA
BRANCH  26  29
ATOM     29  C   UNL A   1      35.924  30.189  28.335  1.00  0.00     0.039 A 
ATOM     30  C   UNL A   1      36.837  30.182  27.275  1.00  0.00     0.014 A 
ATOM     31  C   UNL A   1      36.277  29.619  29.557  1.00  0.00     0.014 A 
ATOM     32  C   UNL A   1      38.127  29.686  27.472  1.00  0.00     0.010 A 
ATOM     33  C   UNL A   1      37.589  29.230  29.786  1.00  0.00     0.010 A 
ATOM     34  C   UNL A   1      38.528  29.256  28.746  1.00  0.00    -0.014 A 
BRANCH  34  35
ATOM     35  C   UNL A   1      39.920  28.830  29.030  1.00  0.00     0.031 A 
ATOM     36  C   UNL A   1      40.891  29.801  29.643  1.00  0.00     0.074 A 
ATOM     37  C   UNL A   1      40.333  27.612  28.631  1.00  0.00     0.049 A 
ATOM     38  N   UNL A   1      42.181  29.681  29.820  1.00  0.00    -0.248 NA
ATOM     39  C   UNL A   1      40.344  31.097  30.078  1.00  0.00     0.031 C 
ATOM     40  C   UNL A   1      39.498  26.604  27.974  1.00  0.00     0.029 A 
ATOM     41  N   UNL A   1      41.569  27.021  28.701  1.00  0.00    -0.354 N 
ATOM     42  C   UNL A   1      42.603  30.893  30.353  1.00  0.00     0.074 A 
ATOM     43  C   UNL A   1      41.442  31.753  30.421  1.00  0.00     0.031 C 
ATOM     44  C   UNL A   1      40.238  25.514  27.722  1.00  0.00     0.029 A 
ATOM     45  C   UNL A   1      41.609  25.763  28.152  1.00  0.00     0.049 A 
ATOM     46  H   UNL A   1      42.353  27.458  29.106  1.00  0.00     0.167 HD
ATOM     47  C   UNL A   1      43.840  31.246  30.772  1.00  0.00     0.037 A 
ATOM     48  C   UNL A   1      42.641  24.911  27.997  1.00  0.00     0.037 A 
ATOM     49  C   UNL A   1      44.979  30.368  30.739  1.00  0.00     0.049 A 
ATOM     50  C   UNL A   1      44.003  25.325  28.476  1.00  0.00     0.074 A 
ATOM     51  C   UNL A   1      46.260  30.599  31.207  1.00  0.00     0.029 A 
ATOM     52  N   UNL A   1      44.970  29.086  30.208  1.00  0.00    -0.354 N 
ATOM     53  N   UNL A   1      44.375  26.449  29.039  1.00  0.00    -0.248 NA
ATOM     54  C   UNL A   1      45.090  24.351  28.300  1.00  0.00     0.031 C 
ATOM     55  C   UNL A   1      47.038  29.472  30.923  1.00  0.00     0.029 A 
ATOM     56  C   UNL A   1      46.229  28.522  30.319  1.00  0.00     0.049 A 
ATOM     57  H   UNL A   1      44.186  28.643  29.811  1.00  0.00     0.167 HD
ATOM     58  C   UNL A   1      45.730  26.310  29.307  1.00  0.00     0.074 A 
ATOM     59  C   UNL A   1      46.111  24.987  28.857  1.00  0.00     0.031 C 
ATOM     60  C   UNL A   1      46.584  27.198  29.872  1.00  0.00     0.037 A 
BRANCH  47  61
ATOM     61  C   UNL A   1      44.020  32.636  31.307  1.00  0.00     0.057 A 
ATOM     62  C   UNL A   1      44.374  33.708  30.477  1.00  0.00     0.134 A 
ATOM     63  C   UNL A   1      43.812  32.914  32.664  1.00  0.00     0.134 A 
ATOM     64  F   UNL A   1      44.601  33.511  29.170  1.00  0.00    -0.206 F 
ATOM     65  C   UNL A   1      44.544  34.999  30.982  1.00  0.00     0.040 A 
ATOM     66  C   UNL A   1      43.950  34.206  33.176  1.00  0.00     0.040 A 
ATOM     67  F   UNL A   1      43.466  31.936  33.516  1.00  0.00    -0.206 F 
ATOM     68  C   UNL A   1      44.324  35.252  32.335  1.00  0.00     0.006 A 
ENDBRANCH  47  61
BRANCH  48  69
ATOM     69  C   UNL A   1      42.419  23.580  27.380  1.00  0.00     0.057 A 
ATOM     70  C   UNL A   1      42.122  22.463  28.168  1.00  0.00     0.134 A 
ATOM     71  C   UNL A   1      42.497  23.389  25.996  1.00  0.00     0.134 A 
ATOM     72  F   UNL A   1      42.049  22.579  29.503  1.00  0.00    -0.206 F 
ATOM     73  C   UNL A   1      41.927  21.200  27.606  1.00  0.00     0.040 A 
ATOM     74  C   UNL A   1      42.279  22.138  25.416  1.00  0.00     0.040 A 
ATOM     75  F   UNL A   1      42.770  24.422  25.184  1.00  0.00    -0.206 F 
ATOM     76  C   UNL A   1      42.001  21.037  26.224  1.00  0.00     0.006 A 
ENDBRANCH  48  69
BRANCH  60  77
ATOM     77  C   UNL A   1      48.002  26.756  30.068  1.00  0.00     0.057 A 
ATOM     78  C   UNL A   1      48.407  26.065  31.217  1.00  0.00     0.134 A 
ATOM     79  C   UNL A   1      48.962  26.982  29.074  1.00  0.00     0.134 A 
ATOM     80  F   UNL A   1      47.539  25.831  32.212  1.00  0.00    -0.206 F 
ATOM     81  C   UNL A   1      49.723  25.628  31.376  1.00  0.00     0.040 A 
ATOM     82  C   UNL A   1      50.273  26.527  29.210  1.00  0.00     0.040 A 
ATOM     83  F   UNL A   1      48.635  27.630  27.946  1.00  0.00    -0.206 F 
ATOM     84  C   UNL A   1      50.658  25.852  30.366  1.00  0.00     0.006 A 
ENDBRANCH  60  77
ENDBRANCH  34  35
ENDBRANCH  26  29
ENDBRANCH  24  25
ENDBRANCH   1  24
TORSDOF 13
ENDMDL
MODEL 2
REMARK VINA RESULT:     -11.3      2.842      8.035
REMARK SMILES CC(=O)Oc1c(Cl)cc(-c2ccccc2)cc1C(=O)NCCCNC(=O)c1ccc(-c2c3nc(c(-c4c(F)cccc4F)c4ccc([nH]4)c(-c4c(F)cccc4F)c4nc(c(-c5c(F)cccc5F)c5ccc2[nH]5)C=C4)C=C3)cc1
REMARK SMILES IDX 22 1 21 2 20 3 18 4 19 5 17 7 5 8 6 9 7 10 8 11 16 12 9 13
REMARK SMILES IDX 4 14 2 15 1 16 3 17 10 18 11 19 15 20 12 21 14 22 13 23
REMARK SMILES IDX 23 24 24 25 25 26 26 28 27 29 28 30 80 31 29 32 79 33 30 34
REMARK SMILES IDX 31 35 32 36 73 37 33 38 78 39 72 40 74 41 34 42 77 43 71 44
REMARK SMILES IDX 70 45 35 47 61 48 44 49 60 50 45 51 48 52 59 53 75 54 46 55
REMARK SMILES IDX 47 56 58 58 76 59 49 60 36 61 37 62 42 63 38 64 39 65 41 66
REMARK SMILES IDX 43 67 40 68 62 69 63 70 68 71 64 72 65 73 67 74 69 75 66 76
REMARK SMILES IDX 50 77 51 78 56 79 52 80 53 81 55 82 57 83 54 84
REMARK H PARENT 20 6 24 27 74 46 48 57
REMARK Flexibility Score: inf
ROOT
ATOM      1  C   UNL A   1      36.007  23.675  26.145  1.00  0.00     0.042 C 
ENDROOT
BRANCH   1   2
ATOM      2  C   UNL A   1      35.057  22.482  26.093  1.00  0.00     0.118 C 
BRANCH   2   3
ATOM      3  N   UNL A   1      33.772  22.807  26.655  1.00  0.00    -0.352 N 
ATOM      4  C   UNL A   1      32.790  23.730  26.473  1.00  0.00     0.255 C 
ATOM      5  O   UNL A   1      31.849  23.565  27.262  1.00  0.00    -0.269 OA
ATOM      6  H   UNL A   1      33.537  22.182  27.378  1.00  0.00     0.163 HD
BRANCH   4   7
ATOM      7  C   UNL A   1      32.690  24.858  25.485  1.00  0.00     0.084 A 
ATOM      8  C   UNL A   1      32.328  24.887  24.130  1.00  0.00     0.162 A 
ATOM      9  C   UNL A   1      32.195  26.124  23.451  1.00  0.00     0.085 A 
ATOM     10  Cl  UNL A   1      31.609  26.216  21.820  1.00  0.00    -0.080 Cl
ATOM     11  C   UNL A   1      32.467  27.333  24.084  1.00  0.00     0.033 A 
ATOM     12  C   UNL A   1      32.966  26.119  26.086  1.00  0.00     0.026 A 
ATOM     13  C   UNL A   1      32.857  27.351  25.419  1.00  0.00    -0.016 A 
BRANCH   8  14
ATOM     14  O   UNL A   1      31.956  23.750  23.410  1.00  0.00    -0.424 OA
BRANCH  14  15
ATOM     15  C   UNL A   1      33.023  22.977  22.954  1.00  0.00     0.308 C 
ATOM     16  C   UNL A   1      32.775  21.537  23.305  1.00  0.00     0.139 C 
ATOM     17  O   UNL A   1      34.030  23.398  22.399  1.00  0.00    -0.252 OA
ENDBRANCH  14  15
ENDBRANCH   8  14
BRANCH  13  18
ATOM     18  C   UNL A   1      33.096  28.618  26.124  1.00  0.00    -0.018 A 
ATOM     19  C   UNL A   1      34.288  28.825  26.838  1.00  0.00     0.009 A 
ATOM     20  C   UNL A   1      32.149  29.654  26.099  1.00  0.00     0.009 A 
ATOM     21  C   UNL A   1      34.520  30.021  27.520  1.00  0.00     0.001 A 
ATOM     22  C   UNL A   1      32.378  30.850  26.784  1.00  0.00     0.001 A 
ATOM     23  C   UNL A   1      33.563  31.031  27.496  1.00  0.00     0.000 A 
ENDBRANCH  13  18
ENDBRANCH   4   7
ENDBRANCH   2   3
ENDBRANCH   1   2
BRANCH   1  24
ATOM     24  C   UNL A   1      37.115  23.590  25.099  1.00  0.00     0.118 C 
BRANCH  24  25
ATOM     25  N   UNL A   1      38.221  22.734  25.528  1.00  0.00    -0.352 N 
ATOM     26  C   UNL A   1      39.399  23.004  26.179  1.00  0.00     0.251 C 
ATOM     27  H   UNL A   1      38.098  21.782  25.308  1.00  0.00     0.163 HD
ATOM     28  O   UNL A   1      40.279  22.152  26.199  1.00  0.00    -0.269 OA
BRANCH  26  29
ATOM     29  C   UNL A   1      39.623  24.305  26.841  1.00  0.00     0.039 A 
ATOM     30  C   UNL A   1      39.147  24.496  28.142  1.00  0.00     0.014 A 
ATOM     31  C   UNL A   1      40.259  25.351  26.174  1.00  0.00     0.014 A 
ATOM     32  C   UNL A   1      39.389  25.703  28.800  1.00  0.00     0.010 A 
ATOM     33  C   UNL A   1      40.598  26.506  26.864  1.00  0.00     0.010 A 
ATOM     34  C   UNL A   1      40.164  26.696  28.184  1.00  0.00    -0.014 A 
BRANCH  34  35
ATOM     35  C   UNL A   1      40.545  27.946  28.886  1.00  0.00     0.031 A 
ATOM     36  C   UNL A   1      41.902  28.064  29.523  1.00  0.00     0.074 A 
ATOM     37  C   UNL A   1      39.629  28.921  29.045  1.00  0.00     0.049 A 
ATOM     38  N   UNL A   1      42.366  28.996  30.315  1.00  0.00    -0.248 NA
ATOM     39  C   UNL A   1      42.850  26.966  29.270  1.00  0.00     0.031 C 
ATOM     40  C   UNL A   1      38.262  28.895  28.523  1.00  0.00     0.029 A 
ATOM     41  N   UNL A   1      39.705  30.116  29.714  1.00  0.00    -0.354 N 
ATOM     42  C   UNL A   1      43.642  28.581  30.677  1.00  0.00     0.074 A 
ATOM     43  C   UNL A   1      43.858  27.289  30.065  1.00  0.00     0.031 C 
ATOM     44  C   UNL A   1      37.636  30.030  28.869  1.00  0.00     0.029 A 
ATOM     45  C   UNL A   1      38.537  30.840  29.681  1.00  0.00     0.049 A 
ATOM     46  H   UNL A   1      40.518  30.427  30.174  1.00  0.00     0.167 HD
ATOM     47  C   UNL A   1      44.558  29.231  31.432  1.00  0.00     0.037 A 
ATOM     48  C   UNL A   1      38.224  32.016  30.255  1.00  0.00     0.037 A 
ATOM     49  C   UNL A   1      44.349  30.535  32.002  1.00  0.00     0.049 A 
ATOM     50  C   UNL A   1      39.261  32.721  31.083  1.00  0.00     0.074 A 
ATOM     51  C   UNL A   1      45.237  31.316  32.719  1.00  0.00     0.029 A 
ATOM     52  N   UNL A   1      43.164  31.252  31.915  1.00  0.00    -0.354 N 
ATOM     53  N   UNL A   1      40.487  32.348  31.364  1.00  0.00    -0.248 NA
ATOM     54  C   UNL A   1      38.874  34.010  31.672  1.00  0.00     0.031 C 
ATOM     55  C   UNL A   1      44.577  32.488  33.101  1.00  0.00     0.029 A 
ATOM     56  C   UNL A   1      43.293  32.457  32.583  1.00  0.00     0.049 A 
ATOM     57  H   UNL A   1      42.352  30.948  31.448  1.00  0.00     0.167 HD
ATOM     58  C   UNL A   1      41.024  33.365  32.141  1.00  0.00     0.074 A 
ATOM     59  C   UNL A   1      39.996  34.377  32.274  1.00  0.00     0.031 C 
ATOM     60  C   UNL A   1      42.257  33.454  32.696  1.00  0.00     0.037 A 
BRANCH  47  61
ATOM     61  C   UNL A   1      45.870  28.543  31.675  1.00  0.00     0.057 A 
ATOM     62  C   UNL A   1      46.055  27.661  32.748  1.00  0.00     0.134 A 
ATOM     63  C   UNL A   1      46.955  28.744  30.812  1.00  0.00     0.134 A 
ATOM     64  F   UNL A   1      45.062  27.433  33.620  1.00  0.00    -0.206 F 
ATOM     65  C   UNL A   1      47.278  27.026  32.970  1.00  0.00     0.040 A 
ATOM     66  C   UNL A   1      48.175  28.093  31.007  1.00  0.00     0.040 A 
ATOM     67  F   UNL A   1      46.847  29.572  29.761  1.00  0.00    -0.206 F 
ATOM     68  C   UNL A   1      48.341  27.237  32.094  1.00  0.00     0.006 A 
ENDBRANCH  47  61
BRANCH  48  69
ATOM     69  C   UNL A   1      36.878  32.608  30.051  1.00  0.00     0.057 A 
ATOM     70  C   UNL A   1      36.640  33.507  29.006  1.00  0.00     0.134 A 
ATOM     71  C   UNL A   1      35.801  32.293  30.888  1.00  0.00     0.134 A 
ATOM     72  F   UNL A   1      37.636  33.860  28.180  1.00  0.00    -0.206 F 
ATOM     73  C   UNL A   1      35.385  34.086  28.809  1.00  0.00     0.040 A 
ATOM     74  C   UNL A   1      34.535  32.843  30.689  1.00  0.00     0.040 A 
ATOM     75  F   UNL A   1      35.962  31.430  31.903  1.00  0.00    -0.206 F 
ATOM     76  C   UNL A   1      34.326  33.749  29.651  1.00  0.00     0.006 A 
ENDBRANCH  48  69
BRANCH  60  77
ATOM     77  C   UNL A   1      42.574  34.699  33.467  1.00  0.00     0.057 A 
ATOM     78  C   UNL A   1      43.065  35.850  32.838  1.00  0.00     0.134 A 
ATOM     79  C   UNL A   1      42.339  34.763  34.846  1.00  0.00     0.134 A 
ATOM     80  F   UNL A   1      43.326  35.849  31.523  1.00  0.00    -0.206 F 
ATOM     81  C   UNL A   1      43.326  37.017  33.559  1.00  0.00     0.040 A 
ATOM     82  C   UNL A   1      42.571  35.931  35.572  1.00  0.00     0.040 A 
ATOM     83  F   UNL A   1      41.861  33.696  35.504  1.00  0.00    -0.206 F 
ATOM     84  C   UNL A   1      43.070  37.061  34.929  1.00  0.00     0.006 A 
ENDBRANCH  60  77
ENDBRANCH  34  35
ENDBRANCH  26  29
ENDBRANCH  24  25
ENDBRANCH   1  24
TORSDOF 13
ENDMDL
MODEL 3
REMARK VINA RESULT:     -11.2      2.816      7.841
REMARK SMILES CC(=O)Oc1c(Cl)cc(-c2ccccc2)cc1C(=O)NCCCNC(=O)c1ccc(-c2c3nc(c(-c4c(F)cccc4F)c4ccc([nH]4)c(-c4c(F)cccc4F)c4nc(c(-c5c(F)cccc5F)c5ccc2[nH]5)C=C4)C=C3)cc1
REMARK SMILES IDX 22 1 21 2 20 3 18 4 19 5 17 7 5 8 6 9 7 10 8 11 16 12 9 13
REMARK SMILES IDX 4 14 2 15 1 16 3 17 10 18 11 19 15 20 12 21 14 22 13 23
REMARK SMILES IDX 23 24 24 25 25 26 26 28 27 29 28 30 80 31 29 32 79 33 30 34
REMARK SMILES IDX 31 35 32 36 73 37 33 38 78 39 72 40 74 41 34 42 77 43 71 44
REMARK SMILES IDX 70 45 35 47 61 48 44 49 60 50 45 51 48 52 59 53 75 54 46 55
REMARK SMILES IDX 47 56 58 58 76 59 49 60 36 61 37 62 42 63 38 64 39 65 41 66
REMARK SMILES IDX 43 67 40 68 62 69 63 70 68 71 64 72 65 73 67 74 69 75 66 76
REMARK SMILES IDX 50 77 51 78 56 79 52 80 53 81 55 82 57 83 54 84
REMARK H PARENT 20 6 24 27 74 46 48 57
REMARK Flexibility Score: inf
ROOT
ATOM      1  C   UNL A   1      35.872  23.381  26.148  1.00  0.00     0.042 C 
ENDROOT
BRANCH   1   2
ATOM      2  C   UNL A   1      34.812  22.284  26.116  1.00  0.00     0.118 C 
BRANCH   2   3
ATOM      3  N   UNL A   1      33.581  22.725  26.717  1.00  0.00    -0.352 N 
ATOM      4  C   UNL A   1      32.676  23.727  26.559  1.00  0.00     0.255 C 
ATOM      5  O   UNL A   1      31.753  23.652  27.382  1.00  0.00    -0.269 OA
ATOM      6  H   UNL A   1      33.319  22.129  27.456  1.00  0.00     0.163 HD
BRANCH   4   7
ATOM      7  C   UNL A   1      32.638  24.851  25.560  1.00  0.00     0.084 A 
ATOM      8  C   UNL A   1      32.313  24.880  24.196  1.00  0.00     0.162 A 
ATOM      9  C   UNL A   1      32.237  26.116  23.505  1.00  0.00     0.085 A 
ATOM     10  Cl  UNL A   1      31.696  26.214  21.859  1.00  0.00    -0.080 Cl
ATOM     11  C   UNL A   1      32.532  27.321  24.137  1.00  0.00     0.033 A 
ATOM     12  C   UNL A   1      32.939  26.106  26.159  1.00  0.00     0.026 A 
ATOM     13  C   UNL A   1      32.887  27.336  25.482  1.00  0.00    -0.016 A 
BRANCH   8  14
ATOM     14  O   UNL A   1      31.922  23.751  23.474  1.00  0.00    -0.424 OA
BRANCH  14  15
ATOM     15  C   UNL A   1      32.978  22.974  22.999  1.00  0.00     0.308 C 
ATOM     16  C   UNL A   1      32.675  21.523  23.253  1.00  0.00     0.139 C 
ATOM     17  O   UNL A   1      34.011  23.395  22.497  1.00  0.00    -0.252 OA
ENDBRANCH  14  15
ENDBRANCH   8  14
BRANCH  13  18
ATOM     18  C   UNL A   1      33.149  28.601  26.183  1.00  0.00    -0.018 A 
ATOM     19  C   UNL A   1      32.173  29.610  26.226  1.00  0.00     0.009 A 
ATOM     20  C   UNL A   1      34.373  28.833  26.831  1.00  0.00     0.009 A 
ATOM     21  C   UNL A   1      32.416  30.819  26.880  1.00  0.00     0.001 A 
ATOM     22  C   UNL A   1      34.618  30.044  27.483  1.00  0.00     0.001 A 
ATOM     23  C   UNL A   1      33.641  31.037  27.504  1.00  0.00     0.000 A 
ENDBRANCH  13  18
ENDBRANCH   4   7
ENDBRANCH   2   3
ENDBRANCH   1   2
BRANCH   1  24
ATOM     24  C   UNL A   1      37.056  23.082  25.231  1.00  0.00     0.118 C 
BRANCH  24  25
ATOM     25  N   UNL A   1      38.080  22.271  25.890  1.00  0.00    -0.352 N 
ATOM     26  C   UNL A   1      39.246  22.601  26.534  1.00  0.00     0.251 C 
ATOM     27  H   UNL A   1      37.898  21.304  25.867  1.00  0.00     0.163 HD
ATOM     28  O   UNL A   1      40.061  21.721  26.781  1.00  0.00    -0.269 OA
BRANCH  26  29
ATOM     29  C   UNL A   1      39.534  23.997  26.921  1.00  0.00     0.039 A 
ATOM     30  C   UNL A   1      39.255  24.412  28.227  1.00  0.00     0.014 A 
ATOM     31  C   UNL A   1      40.035  24.910  25.995  1.00  0.00     0.014 A 
ATOM     32  C   UNL A   1      39.563  25.715  28.622  1.00  0.00     0.010 A 
ATOM     33  C   UNL A   1      40.444  26.168  26.416  1.00  0.00     0.010 A 
ATOM     34  C   UNL A   1      40.211  26.585  27.733  1.00  0.00    -0.014 A 
BRANCH  34  35
ATOM     35  C   UNL A   1      40.661  27.937  28.144  1.00  0.00     0.031 A 
ATOM     36  C   UNL A   1      42.130  28.257  28.189  1.00  0.00     0.074 A 
ATOM     37  C   UNL A   1      39.755  28.832  28.583  1.00  0.00     0.049 A 
ATOM     38  N   UNL A   1      42.733  29.313  28.669  1.00  0.00    -0.248 NA
ATOM     39  C   UNL A   1      43.046  27.232  27.659  1.00  0.00     0.031 C 
ATOM     40  C   UNL A   1      38.307  28.616  28.641  1.00  0.00     0.029 A 
ATOM     41  N   UNL A   1      39.920  30.097  29.086  1.00  0.00    -0.354 N 
ATOM     42  C   UNL A   1      44.093  29.066  28.530  1.00  0.00     0.074 A 
ATOM     43  C   UNL A   1      44.229  27.739  27.972  1.00  0.00     0.031 C 
ATOM     44  C   UNL A   1      37.716  29.717  29.127  1.00  0.00     0.029 A 
ATOM     45  C   UNL A   1      38.743  30.697  29.464  1.00  0.00     0.049 A 
ATOM     46  H   UNL A   1      40.798  30.534  29.167  1.00  0.00     0.167 HD
ATOM     47  C   UNL A   1      45.133  29.882  28.819  1.00  0.00     0.037 A 
ATOM     48  C   UNL A   1      38.520  31.896  30.034  1.00  0.00     0.037 A 
ATOM     49  C   UNL A   1      44.985  31.217  29.336  1.00  0.00     0.049 A 
ATOM     50  C   UNL A   1      39.691  32.786  30.339  1.00  0.00     0.074 A 
ATOM     51  C   UNL A   1      45.968  32.156  29.593  1.00  0.00     0.029 A 
ATOM     52  N   UNL A   1      43.773  31.802  29.672  1.00  0.00    -0.354 N 
ATOM     53  N   UNL A   1      40.969  32.566  30.142  1.00  0.00    -0.248 NA
ATOM     54  C   UNL A   1      39.390  34.091  30.944  1.00  0.00     0.031 C 
ATOM     55  C   UNL A   1      45.355  33.295  30.123  1.00  0.00     0.029 A 
ATOM     56  C   UNL A   1      43.986  33.083  30.153  1.00  0.00     0.049 A 
ATOM     57  H   UNL A   1      42.893  31.371  29.582  1.00  0.00     0.167 HD
ATOM     58  C   UNL A   1      41.621  33.713  30.575  1.00  0.00     0.074 A 
ATOM     59  C   UNL A   1      40.597  34.630  31.031  1.00  0.00     0.031 C 
ATOM     60  C   UNL A   1      42.949  33.982  30.594  1.00  0.00     0.037 A 
BRANCH  47  61
ATOM     61  C   UNL A   1      46.517  29.356  28.575  1.00  0.00     0.057 A 
ATOM     62  C   UNL A   1      47.162  29.516  27.341  1.00  0.00     0.134 A 
ATOM     63  C   UNL A   1      47.226  28.704  29.592  1.00  0.00     0.134 A 
ATOM     64  F   UNL A   1      46.535  30.118  26.319  1.00  0.00    -0.206 F 
ATOM     65  C   UNL A   1      48.448  29.021  27.118  1.00  0.00     0.040 A 
ATOM     66  C   UNL A   1      48.524  28.231  29.391  1.00  0.00     0.040 A 
ATOM     67  F   UNL A   1      46.671  28.521  30.801  1.00  0.00    -0.206 F 
ATOM     68  C   UNL A   1      49.135  28.382  28.148  1.00  0.00     0.006 A 
ENDBRANCH  47  61
BRANCH  48  69
ATOM     69  C   UNL A   1      37.132  32.329  30.334  1.00  0.00     0.057 A 
ATOM     70  C   UNL A   1      36.397  33.076  29.408  1.00  0.00     0.134 A 
ATOM     71  C   UNL A   1      36.507  32.008  31.545  1.00  0.00     0.134 A 
ATOM     72  F   UNL A   1      36.947  33.428  28.236  1.00  0.00    -0.206 F 
ATOM     73  C   UNL A   1      35.097  33.506  29.680  1.00  0.00     0.040 A 
ATOM     74  C   UNL A   1      35.199  32.408  31.821  1.00  0.00     0.040 A 
ATOM     75  F   UNL A   1      37.155  31.286  32.471  1.00  0.00    -0.206 F 
ATOM     76  C   UNL A   1      34.493  33.167  30.889  1.00  0.00     0.006 A 
ENDBRANCH  48  69
BRANCH  60  77
ATOM     77  C   UNL A   1      43.368  35.332  31.093  1.00  0.00     0.057 A 
ATOM     78  C   UNL A   1      43.588  35.579  32.454  1.00  0.00     0.134 A 
ATOM     79  C   UNL A   1      43.602  36.381  30.196  1.00  0.00     0.134 A 
ATOM     80  F   UNL A   1      43.367  34.620  33.365  1.00  0.00    -0.206 F 
ATOM     81  C   UNL A   1      44.009  36.830  32.906  1.00  0.00     0.040 A 
ATOM     82  C   UNL A   1      44.049  37.628  30.634  1.00  0.00     0.040 A 
ATOM     83  F   UNL A   1      43.418  36.205  28.879  1.00  0.00    -0.206 F 
ATOM     84  C   UNL A   1      44.250  37.856  31.993  1.00  0.00     0.006 A 
ENDBRANCH  60  77
ENDBRANCH  34  35
ENDBRANCH  26  29
ENDBRANCH  24  25
ENDBRANCH   1  24
TORSDOF 13
ENDMDL
