MODEL 1
REMARK VINA RESULT:     -12.9      0.000      0.000
REMARK SMILES Cc1cccc(NC(=O)C[C@H]([NH2+]C(C)C)C(=O)NCCCNC(=O)c2ccc(-c3c4nc(c(-c5c(F)cccc5F)c5ccc([nH]5)c(-c5c(F)cccc5F)c5nc(c(-c6c(F)cccc6F)c6ccc3[nH]6)C=C5)C=C4)cc2)c1
REMARK SMILES IDX 19 1 18 2 16 3 17 4 11 6 10 7 8 8 7 9 9 11 6 12 1 13 2 14
REMARK SMILES IDX 3 15 79 16 4 17 5 18 12 19 13 22 14 23 15 24 20 25 21 26
REMARK SMILES IDX 22 27 23 28 24 30 25 31 26 32 78 33 27 34 77 35 28 36 29 37
REMARK SMILES IDX 30 38 71 39 31 40 76 41 70 42 72 43 32 44 75 45 69 46 68 47
REMARK SMILES IDX 33 49 59 50 42 51 58 52 43 53 46 54 57 55 73 56 44 57 45 58
REMARK SMILES IDX 56 60 74 61 47 62 34 63 35 64 40 65 36 66 37 67 39 68 41 69
REMARK SMILES IDX 38 70 60 71 61 72 66 73 62 74 63 75 65 76 67 77 64 78 48 79
REMARK SMILES IDX 49 80 54 81 50 82 51 83 53 84 55 85 52 86
REMARK H PARENT 18 5 7 10 12 20 12 21 22 29 72 48 46 59
REMARK Flexibility Score: inf
ROOT
ATOM      1  C   UNL A   1      37.131  23.374  25.549  1.00  0.00     0.118 C 
ENDROOT
BRANCH   1   2
ATOM      2  N   UNL A   1      35.486  22.582  26.550  1.00  0.00    -0.351 N 
ATOM      3  C   UNL A   1      34.156  22.229  26.762  1.00  0.00     0.278 C 
ATOM      4  O   UNL A   1      34.027  21.451  27.729  1.00  0.00    -0.268 OA
ATOM      5  H   UNL A   1      35.904  22.262  27.381  1.00  0.00     0.163 HD
BRANCH   3   6
ATOM      6  C   UNL A   1      32.867  22.672  26.059  1.00  0.00     0.282 C 
BRANCH   6   7
ATOM      7  C   UNL A   1      32.238  23.999  26.552  1.00  0.00     0.175 C 
BRANCH   7   8
ATOM      8  C   UNL A   1      30.707  24.078  26.663  1.00  0.00     0.230 C 
ATOM      9  N   UNL A   1      29.972  25.108  26.138  1.00  0.00    -0.326 N 
ATOM     10  H   UNL A   1      29.031  25.183  26.418  1.00  0.00     0.169 HD
ATOM     11  O   UNL A   1      30.090  23.187  27.257  1.00  0.00    -0.274 OA
BRANCH   9  12
ATOM     12  C   UNL A   1      30.451  26.064  25.232  1.00  0.00     0.041 A 
ATOM     13  C   UNL A   1      32.075  30.144  26.023  1.00  0.00     0.044 C 
ATOM     14  C   UNL A   1      31.403  29.056  25.288  1.00  0.00    -0.049 A 
ATOM     15  C   UNL A   1      30.325  29.411  23.876  1.00  0.00     0.003 A 
ATOM     16  C   UNL A   1      31.441  27.376  25.988  1.00  0.00     0.029 A 
ATOM     17  C   UNL A   1      29.396  28.070  23.084  1.00  0.00     0.002 A 
ATOM     18  C   UNL A   1      29.497  26.391  23.724  1.00  0.00     0.026 A 
ENDBRANCH   9  12
ENDBRANCH   7   8
ENDBRANCH   6   7
BRANCH   6  19
ATOM     19  N   UNL A   1      31.910  21.524  25.826  1.00  0.00    -0.334 N 
ATOM     20  H   UNL A   1      30.967  21.908  25.770  1.00  0.00     0.347 HD
ATOM     21  H   UNL A   1      32.050  20.882  26.606  1.00  0.00     0.347 HD
BRANCH  19  22
ATOM     22  C   UNL A   1      32.153  20.728  24.596  1.00  0.00     0.176 C 
ATOM     23  C   UNL A   1      32.633  21.653  23.466  1.00  0.00     0.075 C 
ATOM     24  C   UNL A   1      33.057  19.508  24.710  1.00  0.00     0.075 C 
ENDBRANCH  19  22
ENDBRANCH   6  19
ENDBRANCH   3   6
ENDBRANCH   1   2
BRANCH   1  25
ATOM     25  C   UNL A   1      38.646  24.032  26.120  1.00  0.00     0.042 C 
BRANCH  25  26
ATOM     26  C   UNL A   1      38.682  24.398  27.601  1.00  0.00     0.118 C 
BRANCH  26  27
ATOM     27  N   UNL A   1      39.979  24.808  28.090  1.00  0.00    -0.352 N 
ATOM     28  C   UNL A   1      40.502  26.067  28.295  1.00  0.00     0.251 C 
ATOM     29  H   UNL A   1      40.587  24.068  28.315  1.00  0.00     0.163 HD
ATOM     30  O   UNL A   1      41.710  26.154  28.518  1.00  0.00    -0.269 OA
BRANCH  28  31
ATOM     31  C   UNL A   1      39.638  27.273  28.476  1.00  0.00     0.039 A 
ATOM     32  C   UNL A   1      40.026  28.382  27.709  1.00  0.00     0.014 A 
ATOM     33  C   UNL A   1      38.959  27.487  29.661  1.00  0.00     0.014 A 
ATOM     34  C   UNL A   1      40.152  29.618  28.323  1.00  0.00     0.010 A 
ATOM     35  C   UNL A   1      39.242  28.643  30.337  1.00  0.00     0.010 A 
ATOM     36  C   UNL A   1      39.914  29.680  29.685  1.00  0.00    -0.014 A 
BRANCH  36  37
ATOM     37  C   UNL A   1      40.101  30.862  30.493  1.00  0.00     0.031 A 
ATOM     38  C   UNL A   1      41.158  30.709  31.505  1.00  0.00     0.074 A 
ATOM     39  C   UNL A   1      39.413  32.003  30.262  1.00  0.00     0.049 A 
ATOM     40  N   UNL A   1      41.238  31.430  32.554  1.00  0.00    -0.248 NA
ATOM     41  C   UNL A   1      42.177  29.655  31.471  1.00  0.00     0.031 C 
ATOM     42  C   UNL A   1      39.644  33.342  30.795  1.00  0.00     0.029 A 
ATOM     43  N   UNL A   1      38.191  32.126  29.597  1.00  0.00    -0.354 N 
ATOM     44  C   UNL A   1      42.441  31.155  33.164  1.00  0.00     0.074 A 
ATOM     45  C   UNL A   1      42.940  29.978  32.515  1.00  0.00     0.031 C 
ATOM     46  C   UNL A   1      38.505  34.056  30.711  1.00  0.00     0.029 A 
ATOM     47  C   UNL A   1      37.473  33.166  30.214  1.00  0.00     0.049 A 
ATOM     48  H   UNL A   1      37.889  31.583  28.834  1.00  0.00     0.167 HD
ATOM     49  C   UNL A   1      42.894  32.069  34.060  1.00  0.00     0.037 A 
ATOM     50  C   UNL A   1      36.283  32.885  30.818  1.00  0.00     0.037 A 
ATOM     51  C   UNL A   1      41.867  33.092  34.240  1.00  0.00     0.049 A 
ATOM     52  C   UNL A   1      36.401  33.060  32.313  1.00  0.00     0.074 A 
ATOM     53  C   UNL A   1      41.649  34.321  33.641  1.00  0.00     0.029 A 
ATOM     54  N   UNL A   1      40.654  32.701  34.789  1.00  0.00    -0.354 N 
ATOM     55  N   UNL A   1      37.531  32.993  32.969  1.00  0.00    -0.248 NA
ATOM     56  C   UNL A   1      35.283  33.444  33.165  1.00  0.00     0.031 C 
ATOM     57  C   UNL A   1      40.284  34.667  33.845  1.00  0.00     0.029 A 
ATOM     58  C   UNL A   1      39.682  33.654  34.575  1.00  0.00     0.049 A 
ATOM     59  H   UNL A   1      40.506  31.854  35.268  1.00  0.00     0.167 HD
ATOM     60  C   UNL A   1      37.333  33.381  34.273  1.00  0.00     0.074 A 
ATOM     61  C   UNL A   1      35.907  33.645  34.339  1.00  0.00     0.031 C 
ATOM     62  C   UNL A   1      38.364  33.483  35.172  1.00  0.00     0.037 A 
BRANCH  49  63
ATOM     63  C   UNL A   1      44.294  32.188  34.596  1.00  0.00     0.057 A 
ATOM     64  C   UNL A   1      44.688  31.378  35.683  1.00  0.00     0.134 A 
ATOM     65  C   UNL A   1      45.292  33.066  34.140  1.00  0.00     0.134 A 
ATOM     66  F   UNL A   1      43.864  30.466  36.217  1.00  0.00    -0.206 F 
ATOM     67  C   UNL A   1      45.946  31.464  36.287  1.00  0.00     0.040 A 
ATOM     68  C   UNL A   1      46.550  33.179  34.751  1.00  0.00     0.040 A 
ATOM     69  F   UNL A   1      45.131  33.835  33.060  1.00  0.00    -0.206 F 
ATOM     70  C   UNL A   1      46.881  32.376  35.830  1.00  0.00     0.006 A 
ENDBRANCH  49  63
BRANCH  50  71
ATOM     71  C   UNL A   1      35.531  31.843  30.040  1.00  0.00     0.057 A 
ATOM     72  C   UNL A   1      34.965  32.285  28.821  1.00  0.00     0.134 A 
ATOM     73  C   UNL A   1      35.903  30.497  30.102  1.00  0.00     0.134 A 
ATOM     74  F   UNL A   1      34.536  33.552  28.703  1.00  0.00    -0.206 F 
ATOM     75  C   UNL A   1      35.025  31.514  27.655  1.00  0.00     0.040 A 
ATOM     76  C   UNL A   1      35.921  29.704  28.945  1.00  0.00     0.040 A 
ATOM     77  F   UNL A   1      36.429  29.985  31.224  1.00  0.00    -0.206 F 
ATOM     78  C   UNL A   1      35.567  30.236  27.705  1.00  0.00     0.006 A 
ENDBRANCH  50  71
BRANCH  62  79
ATOM     79  C   UNL A   1      38.282  33.492  36.697  1.00  0.00     0.057 A 
ATOM     80  C   UNL A   1      37.842  32.426  37.489  1.00  0.00     0.134 A 
ATOM     81  C   UNL A   1      38.810  34.580  37.450  1.00  0.00     0.134 A 
ATOM     82  F   UNL A   1      37.403  31.278  36.967  1.00  0.00    -0.206 F 
ATOM     83  C   UNL A   1      37.881  32.452  38.892  1.00  0.00     0.040 A 
ATOM     84  C   UNL A   1      38.937  34.577  38.841  1.00  0.00     0.040 A 
ATOM     85  F   UNL A   1      39.262  35.707  36.886  1.00  0.00    -0.206 F 
ATOM     86  C   UNL A   1      38.450  33.516  39.573  1.00  0.00     0.006 A 
ENDBRANCH  62  79
ENDBRANCH  36  37
ENDBRANCH  28  31
ENDBRANCH  26  27
ENDBRANCH  25  26
ENDBRANCH   1  25
TORSDOF 15
ENDMDL
MODEL 2
REMARK VINA RESULT:     -12.9      3.228      7.964
REMARK SMILES Cc1cccc(NC(=O)C[C@H]([NH2+]C(C)C)C(=O)NCCCNC(=O)c2ccc(-c3c4nc(c(-c5c(F)cccc5F)c5ccc([nH]5)c(-c5c(F)cccc5F)c5nc(c(-c6c(F)cccc6F)c6ccc3[nH]6)C=C5)C=C4)cc2)c1
REMARK SMILES IDX 19 1 18 2 16 3 17 4 11 6 10 7 8 8 7 9 9 11 6 12 1 13 2 14
REMARK SMILES IDX 3 15 79 16 4 17 5 18 12 19 13 22 14 23 15 24 20 25 21 26
REMARK SMILES IDX 22 27 23 28 24 30 25 31 26 32 78 33 27 34 77 35 28 36 29 37
REMARK SMILES IDX 30 38 71 39 31 40 76 41 70 42 72 43 32 44 75 45 69 46 68 47
REMARK SMILES IDX 33 49 59 50 42 51 58 52 43 53 46 54 57 55 73 56 44 57 45 58
REMARK SMILES IDX 56 60 74 61 47 62 34 63 35 64 40 65 36 66 37 67 39 68 41 69
REMARK SMILES IDX 38 70 60 71 61 72 66 73 62 74 63 75 65 76 67 77 64 78 48 79
REMARK SMILES IDX 49 80 54 81 50 82 51 83 53 84 55 85 52 86
REMARK H PARENT 18 5 7 10 12 20 12 21 22 29 72 48 46 59
REMARK Flexibility Score: inf
ROOT
ATOM      1  C   UNL A   1      34.718  30.263  27.658  1.00  0.00     0.118 C 
ENDROOT
BRANCH   1   2
ATOM      2  N   UNL A   1      33.017  29.063  27.667  1.00  0.00    -0.351 N 
ATOM      3  C   UNL A   1      32.191  27.999  27.316  1.00  0.00     0.278 C 
ATOM      4  O   UNL A   1      31.219  27.887  28.091  1.00  0.00    -0.268 OA
ATOM      5  H   UNL A   1      32.451  29.540  28.316  1.00  0.00     0.163 HD
BRANCH   3   6
ATOM      6  C   UNL A   1      32.251  27.015  26.141  1.00  0.00     0.282 C 
BRANCH   6   7
ATOM      7  C   UNL A   1      33.658  26.726  25.560  1.00  0.00     0.175 C 
BRANCH   7   8
ATOM      8  C   UNL A   1      33.764  26.350  24.074  1.00  0.00     0.230 C 
ATOM      9  N   UNL A   1      34.074  25.087  23.643  1.00  0.00    -0.326 N 
ATOM     10  H   UNL A   1      34.312  24.978  22.693  1.00  0.00     0.169 HD
ATOM     11  O   UNL A   1      33.574  27.213  23.209  1.00  0.00    -0.274 OA
BRANCH   9  12
ATOM     12  C   UNL A   1      34.079  23.938  24.443  1.00  0.00     0.041 A 
ATOM     13  C   UNL A   1      37.265  20.853  24.944  1.00  0.00     0.044 C 
ATOM     14  C   UNL A   1      35.905  21.425  24.902  1.00  0.00    -0.049 A 
ATOM     15  C   UNL A   1      34.450  20.356  24.754  1.00  0.00     0.003 A 
ATOM     16  C   UNL A   1      35.719  23.226  24.715  1.00  0.00     0.029 A 
ATOM     17  C   UNL A   1      32.802  21.090  24.556  1.00  0.00     0.002 A 
ATOM     18  C   UNL A   1      32.607  22.876  24.454  1.00  0.00     0.026 A 
ENDBRANCH   9  12
ENDBRANCH   7   8
ENDBRANCH   6   7
BRANCH   6  19
ATOM     19  N   UNL A   1      31.145  27.246  25.136  1.00  0.00    -0.334 N 
ATOM     20  H   UNL A   1      31.573  27.329  24.214  1.00  0.00     0.347 HD
ATOM     21  H   UNL A   1      30.660  28.088  25.444  1.00  0.00     0.347 HD
BRANCH  19  22
ATOM     22  C   UNL A   1      30.112  26.182  25.065  1.00  0.00     0.176 C 
ATOM     23  C   UNL A   1      30.118  25.544  23.666  1.00  0.00     0.075 C 
ATOM     24  C   UNL A   1      30.130  25.106  26.143  1.00  0.00     0.075 C 
ENDBRANCH  19  22
ENDBRANCH   6  19
ENDBRANCH   3   6
ENDBRANCH   1   2
BRANCH   1  25
ATOM     25  C   UNL A   1      35.032  31.859  28.298  1.00  0.00     0.042 C 
BRANCH  25  26
ATOM     26  C   UNL A   1      35.120  31.945  29.819  1.00  0.00     0.118 C 
BRANCH  26  27
ATOM     27  N   UNL A   1      34.296  32.973  30.414  1.00  0.00    -0.352 N 
ATOM     28  C   UNL A   1      34.402  33.614  31.630  1.00  0.00     0.251 C 
ATOM     29  H   UNL A   1      33.536  33.264  29.861  1.00  0.00     0.163 HD
ATOM     30  O   UNL A   1      33.450  34.303  31.998  1.00  0.00    -0.269 OA
BRANCH  28  31
ATOM     31  C   UNL A   1      35.688  33.681  32.390  1.00  0.00     0.039 A 
ATOM     32  C   UNL A   1      36.673  34.481  31.791  1.00  0.00     0.014 A 
ATOM     33  C   UNL A   1      36.084  32.637  33.206  1.00  0.00     0.014 A 
ATOM     34  C   UNL A   1      37.953  33.975  31.633  1.00  0.00     0.010 A 
ATOM     35  C   UNL A   1      37.279  32.039  32.910  1.00  0.00     0.010 A 
ATOM     36  C   UNL A   1      38.180  32.676  32.055  1.00  0.00    -0.014 A 
BRANCH  36  37
ATOM     37  C   UNL A   1      39.423  31.964  31.870  1.00  0.00     0.031 A 
ATOM     38  C   UNL A   1      39.294  30.794  30.988  1.00  0.00     0.074 A 
ATOM     39  C   UNL A   1      40.586  32.405  32.403  1.00  0.00     0.049 A 
ATOM     40  N   UNL A   1      40.114  29.818  30.987  1.00  0.00    -0.248 NA
ATOM     41  C   UNL A   1      38.161  30.574  30.083  1.00  0.00     0.031 C 
ATOM     42  C   UNL A   1      41.951  31.971  32.121  1.00  0.00     0.029 A 
ATOM     43  N   UNL A   1      40.737  33.255  33.500  1.00  0.00    -0.354 N 
ATOM     44  C   UNL A   1      39.808  29.010  29.917  1.00  0.00     0.074 A 
ATOM     45  C   UNL A   1      38.530  29.462  29.447  1.00  0.00     0.031 C 
ATOM     46  C   UNL A   1      42.743  32.294  33.161  1.00  0.00     0.029 A 
ATOM     47  C   UNL A   1      41.893  32.855  34.194  1.00  0.00     0.049 A 
ATOM     48  H   UNL A   1      40.142  34.001  33.742  1.00  0.00     0.167 HD
ATOM     49  C   UNL A   1      40.772  28.146  29.508  1.00  0.00     0.037 A 
ATOM     50  C   UNL A   1      41.779  32.415  35.479  1.00  0.00     0.037 A 
ATOM     51  C   UNL A   1      41.891  28.221  30.446  1.00  0.00     0.049 A 
ATOM     52  C   UNL A   1      42.104  30.942  35.559  1.00  0.00     0.074 A 
ATOM     53  C   UNL A   1      43.062  28.960  30.455  1.00  0.00     0.029 A 
ATOM     54  N   UNL A   1      41.663  27.828  31.756  1.00  0.00    -0.354 N 
ATOM     55  N   UNL A   1      42.014  30.119  34.545  1.00  0.00    -0.248 NA
ATOM     56  C   UNL A   1      42.668  30.309  36.743  1.00  0.00     0.031 C 
ATOM     57  C   UNL A   1      43.539  28.998  31.795  1.00  0.00     0.029 A 
ATOM     58  C   UNL A   1      42.664  28.276  32.590  1.00  0.00     0.049 A 
ATOM     59  H   UNL A   1      40.888  27.299  32.053  1.00  0.00     0.167 HD
ATOM     60  C   UNL A   1      42.555  28.902  34.888  1.00  0.00     0.074 A 
ATOM     61  C   UNL A   1      42.942  29.079  36.276  1.00  0.00     0.031 C 
ATOM     62  C   UNL A   1      42.668  27.872  33.990  1.00  0.00     0.037 A 
BRANCH  49  63
ATOM     63  C   UNL A   1      40.832  27.418  28.194  1.00  0.00     0.057 A 
ATOM     64  C   UNL A   1      40.143  26.194  28.051  1.00  0.00     0.134 A 
ATOM     65  C   UNL A   1      41.544  27.815  27.049  1.00  0.00     0.134 A 
ATOM     66  F   UNL A   1      39.391  25.690  29.039  1.00  0.00    -0.206 F 
ATOM     67  C   UNL A   1      40.192  25.418  26.889  1.00  0.00     0.040 A 
ATOM     68  C   UNL A   1      41.621  27.034  25.886  1.00  0.00     0.040 A 
ATOM     69  F   UNL A   1      42.172  28.991  26.969  1.00  0.00    -0.206 F 
ATOM     70  C   UNL A   1      40.944  25.829  25.803  1.00  0.00     0.006 A 
ENDBRANCH  49  63
BRANCH  50  71
ATOM     71  C   UNL A   1      40.725  33.196  36.210  1.00  0.00     0.057 A 
ATOM     72  C   UNL A   1      39.534  32.489  36.499  1.00  0.00     0.134 A 
ATOM     73  C   UNL A   1      41.078  34.212  37.104  1.00  0.00     0.134 A 
ATOM     74  F   UNL A   1      39.103  31.534  35.658  1.00  0.00    -0.206 F 
ATOM     75  C   UNL A   1      38.892  32.595  37.738  1.00  0.00     0.040 A 
ATOM     76  C   UNL A   1      40.407  34.354  38.328  1.00  0.00     0.040 A 
ATOM     77  F   UNL A   1      42.179  34.948  36.899  1.00  0.00    -0.206 F 
ATOM     78  C   UNL A   1      39.372  33.491  38.684  1.00  0.00     0.006 A 
ENDBRANCH  50  71
BRANCH  62  79
ATOM     79  C   UNL A   1      42.849  26.384  34.287  1.00  0.00     0.057 A 
ATOM     80  C   UNL A   1      43.932  25.603  33.869  1.00  0.00     0.134 A 
ATOM     81  C   UNL A   1      41.964  25.704  35.172  1.00  0.00     0.134 A 
ATOM     82  F   UNL A   1      44.920  26.092  33.115  1.00  0.00    -0.206 F 
ATOM     83  C   UNL A   1      44.098  24.264  34.255  1.00  0.00     0.040 A 
ATOM     84  C   UNL A   1      42.171  24.401  35.633  1.00  0.00     0.040 A 
ATOM     85  F   UNL A   1      40.854  26.264  35.668  1.00  0.00    -0.206 F 
ATOM     86  C   UNL A   1      43.233  23.665  35.157  1.00  0.00     0.006 A 
ENDBRANCH  62  79
ENDBRANCH  36  37
ENDBRANCH  28  31
ENDBRANCH  26  27
ENDBRANCH  25  26
ENDBRANCH   1  25
TORSDOF 15
ENDMDL
MODEL 3
REMARK VINA RESULT:     -12.7      3.138      7.060
REMARK SMILES Cc1cccc(NC(=O)C[C@H]([NH2+]C(C)C)C(=O)NCCCNC(=O)c2ccc(-c3c4nc(c(-c5c(F)cccc5F)c5ccc([nH]5)c(-c5c(F)cccc5F)c5nc(c(-c6c(F)cccc6F)c6ccc3[nH]6)C=C5)C=C4)cc2)c1
REMARK SMILES IDX 19 1 18 2 16 3 17 4 11 6 10 7 8 8 7 9 9 11 6 12 1 13 2 14
REMARK SMILES IDX 3 15 79 16 4 17 5 18 12 19 13 22 14 23 15 24 20 25 21 26
REMARK SMILES IDX 22 27 23 28 24 30 25 31 26 32 78 33 27 34 77 35 28 36 29 37
REMARK SMILES IDX 30 38 71 39 31 40 76 41 70 42 72 43 32 44 75 45 69 46 68 47
REMARK SMILES IDX 33 49 59 50 42 51 58 52 43 53 46 54 57 55 73 56 44 57 45 58
REMARK SMILES IDX 56 60 74 61 47 62 34 63 35 64 40 65 36 66 37 67 39 68 41 69
REMARK SMILES IDX 38 70 60 71 61 72 66 73 62 74 63 75 65 76 67 77 64 78 48 79
REMARK SMILES IDX 49 80 54 81 50 82 51 83 53 84 55 85 52 86
REMARK H PARENT 18 5 7 10 12 20 12 21 22 29 72 48 46 59
REMARK Flexibility Score: inf
ROOT
ATOM      1  C   UNL A   1      37.473  22.672  25.903  1.00  0.00     0.118 C 
ENDROOT
BRANCH   1   2
ATOM      2  N   UNL A   1      35.568  22.344  26.675  1.00  0.00    -0.351 N 
ATOM      3  C   UNL A   1      34.196  22.519  26.835  1.00  0.00     0.278 C 
ATOM      4  O   UNL A   1      33.679  21.591  27.491  1.00  0.00    -0.268 OA
ATOM      5  H   UNL A   1      35.746  21.626  27.324  1.00  0.00     0.163 HD
BRANCH   3   6
ATOM      6  C   UNL A   1      33.263  23.656  26.401  1.00  0.00     0.282 C 
BRANCH   6   7
ATOM      7  C   UNL A   1      31.849  23.239  25.925  1.00  0.00     0.175 C 
BRANCH   7   8
ATOM      8  C   UNL A   1      30.635  23.818  26.669  1.00  0.00     0.230 C 
ATOM      9  N   UNL A   1      30.227  25.119  26.534  1.00  0.00    -0.326 N 
ATOM     10  H   UNL A   1      29.570  25.459  27.185  1.00  0.00     0.169 HD
ATOM     11  O   UNL A   1      29.988  23.099  27.439  1.00  0.00    -0.274 OA
BRANCH   9  12
ATOM     12  C   UNL A   1      30.666  26.006  25.543  1.00  0.00     0.041 A 
ATOM     13  C   UNL A   1      32.163  30.190  25.953  1.00  0.00     0.044 C 
ATOM     14  C   UNL A   1      31.521  29.020  25.324  1.00  0.00    -0.049 A 
ATOM     15  C   UNL A   1      30.421  29.215  23.899  1.00  0.00     0.003 A 
ATOM     16  C   UNL A   1      31.619  27.410  26.169  1.00  0.00     0.029 A 
ATOM     17  C   UNL A   1      29.528  27.780  23.239  1.00  0.00     0.002 A 
ATOM     18  C   UNL A   1      29.689  26.168  24.022  1.00  0.00     0.026 A 
ENDBRANCH   9  12
ENDBRANCH   7   8
ENDBRANCH   6   7
BRANCH   6  19
ATOM     19  N   UNL A   1      33.971  24.699  25.565  1.00  0.00    -0.334 N 
ATOM     20  H   UNL A   1      34.966  24.654  25.784  1.00  0.00     0.347 HD
ATOM     21  H   UNL A   1      33.535  25.589  25.802  1.00  0.00     0.347 HD
BRANCH  19  22
ATOM     22  C   UNL A   1      33.820  24.550  24.095  1.00  0.00     0.176 C 
ATOM     23  C   UNL A   1      33.714  25.937  23.441  1.00  0.00     0.075 C 
ATOM     24  C   UNL A   1      34.843  23.691  23.363  1.00  0.00     0.075 C 
ENDBRANCH  19  22
ENDBRANCH   6  19
ENDBRANCH   3   6
ENDBRANCH   1   2
BRANCH   1  25
ATOM     25  C   UNL A   1      38.864  21.629  25.728  1.00  0.00     0.042 C 
BRANCH  25  26
ATOM     26  C   UNL A   1      39.876  21.695  26.868  1.00  0.00     0.118 C 
BRANCH  26  27
ATOM     27  N   UNL A   1      41.126  22.337  26.529  1.00  0.00    -0.352 N 
ATOM     28  C   UNL A   1      41.399  23.645  26.190  1.00  0.00     0.251 C 
ATOM     29  H   UNL A   1      41.911  21.744  26.543  1.00  0.00     0.163 HD
ATOM     30  O   UNL A   1      42.515  23.897  25.735  1.00  0.00    -0.269 OA
BRANCH  28  31
ATOM     31  C   UNL A   1      40.488  24.773  26.557  1.00  0.00     0.039 A 
ATOM     32  C   UNL A   1      40.863  26.015  26.023  1.00  0.00     0.014 A 
ATOM     33  C   UNL A   1      39.765  24.744  27.735  1.00  0.00     0.014 A 
ATOM     34  C   UNL A   1      40.927  27.119  26.858  1.00  0.00     0.010 A 
ATOM     35  C   UNL A   1      39.988  25.763  28.622  1.00  0.00     0.010 A 
ATOM     36  C   UNL A   1      40.644  26.920  28.198  1.00  0.00    -0.014 A 
BRANCH  36  37
ATOM     37  C   UNL A   1      40.766  27.937  29.217  1.00  0.00     0.031 A 
ATOM     38  C   UNL A   1      39.730  28.977  29.123  1.00  0.00     0.074 A 
ATOM     39  C   UNL A   1      41.702  27.865  30.191  1.00  0.00     0.049 A 
ATOM     40  N   UNL A   1      39.852  30.141  29.630  1.00  0.00    -0.248 NA
ATOM     41  C   UNL A   1      38.488  28.828  28.357  1.00  0.00     0.031 C 
ATOM     42  C   UNL A   1      41.812  28.643  31.422  1.00  0.00     0.029 A 
ATOM     43  N   UNL A   1      42.899  27.149  30.153  1.00  0.00    -0.354 N 
ATOM     44  C   UNL A   1      38.635  30.775  29.529  1.00  0.00     0.074 A 
ATOM     45  C   UNL A   1      37.851  29.963  28.643  1.00  0.00     0.031 C 
ATOM     46  C   UNL A   1      43.086  28.607  31.856  1.00  0.00     0.029 A 
ATOM     47  C   UNL A   1      43.862  27.889  30.863  1.00  0.00     0.049 A 
ATOM     48  H   UNL A   1      43.043  26.282  29.710  1.00  0.00     0.167 HD
ATOM     49  C   UNL A   1      38.437  31.849  30.336  1.00  0.00     0.037 A 
ATOM     50  C   UNL A   1      44.965  28.348  30.207  1.00  0.00     0.037 A 
ATOM     51  C   UNL A   1      39.684  32.135  31.042  1.00  0.00     0.049 A 
ATOM     52  C   UNL A   1      44.931  29.855  30.117  1.00  0.00     0.074 A 
ATOM     53  C   UNL A   1      40.174  31.751  32.278  1.00  0.00     0.029 A 
ATOM     54  N   UNL A   1      40.781  32.519  30.285  1.00  0.00    -0.354 N 
ATOM     55  N   UNL A   1      43.835  30.566  30.190  1.00  0.00    -0.248 NA
ATOM     56  C   UNL A   1      46.130  30.681  30.065  1.00  0.00     0.031 C 
ATOM     57  C   UNL A   1      41.587  31.917  32.255  1.00  0.00     0.029 A 
ATOM     58  C   UNL A   1      41.947  32.411  31.011  1.00  0.00     0.049 A 
ATOM     59  H   UNL A   1      40.735  32.829  29.352  1.00  0.00     0.167 HD
ATOM     60  C   UNL A   1      44.154  31.902  30.266  1.00  0.00     0.074 A 
ATOM     61  C   UNL A   1      45.603  31.913  30.178  1.00  0.00     0.031 C 
ATOM     62  C   UNL A   1      43.201  32.874  30.431  1.00  0.00     0.037 A 
BRANCH  49  63
ATOM     63  C   UNL A   1      37.120  32.494  30.670  1.00  0.00     0.057 A 
ATOM     64  C   UNL A   1      36.375  32.014  31.767  1.00  0.00     0.134 A 
ATOM     65  C   UNL A   1      36.506  33.549  29.973  1.00  0.00     0.134 A 
ATOM     66  F   UNL A   1      36.833  31.031  32.555  1.00  0.00    -0.206 F 
ATOM     67  C   UNL A   1      35.114  32.510  32.114  1.00  0.00     0.040 A 
ATOM     68  C   UNL A   1      35.232  34.041  30.295  1.00  0.00     0.040 A 
ATOM     69  F   UNL A   1      37.110  34.192  28.970  1.00  0.00    -0.206 F 
ATOM     70  C   UNL A   1      34.530  33.520  31.370  1.00  0.00     0.006 A 
ENDBRANCH  49  63
BRANCH  50  71
ATOM     71  C   UNL A   1      45.425  27.346  29.187  1.00  0.00     0.057 A 
ATOM     72  C   UNL A   1      46.012  26.171  29.710  1.00  0.00     0.134 A 
ATOM     73  C   UNL A   1      44.766  27.220  27.960  1.00  0.00     0.134 A 
ATOM     74  F   UNL A   1      46.707  26.225  30.858  1.00  0.00    -0.206 F 
ATOM     75  C   UNL A   1      45.722  24.904  29.191  1.00  0.00     0.040 A 
ATOM     76  C   UNL A   1      44.513  25.955  27.409  1.00  0.00     0.040 A 
ATOM     77  F   UNL A   1      44.198  28.286  27.378  1.00  0.00    -0.206 F 
ATOM     78  C   UNL A   1      44.913  24.792  28.068  1.00  0.00     0.006 A 
ENDBRANCH  50  71
BRANCH  62  79
ATOM     79  C   UNL A   1      43.323  34.367  30.132  1.00  0.00     0.057 A 
ATOM     80  C   UNL A   1      43.434  35.377  31.094  1.00  0.00     0.134 A 
ATOM     81  C   UNL A   1      43.487  34.833  28.797  1.00  0.00     0.134 A 
ATOM     82  F   UNL A   1      43.405  35.125  32.405  1.00  0.00    -0.206 F 
ATOM     83  C   UNL A   1      43.644  36.724  30.763  1.00  0.00     0.040 A 
ATOM     84  C   UNL A   1      43.788  36.157  28.464  1.00  0.00     0.040 A 
ATOM     85  F   UNL A   1      43.394  34.033  27.727  1.00  0.00    -0.206 F 
ATOM     86  C   UNL A   1      43.846  37.117  29.449  1.00  0.00     0.006 A 
ENDBRANCH  62  79
ENDBRANCH  36  37
ENDBRANCH  28  31
ENDBRANCH  26  27
ENDBRANCH  25  26
ENDBRANCH   1  25
TORSDOF 15
ENDMDL
