MODEL 1
REMARK VINA RESULT:     -12.5      0.000      0.000
REMARK SMILES O=C(NCCCNC(=O)c1ccc(-c2ccc(F)c(C(F)(F)F)c2)cc1[N+](=O)[O-])c1ccc(-c2c3nc(c(-c4c(F)cccc4F)c4ccc([nH]4)c(-c4c(F)cccc4F)c4nc(c(-c5c(F)cccc5F)c5ccc2[nH]5)C=C4)C=C3)cc1
REMARK SMILES IDX 5 1 4 2 3 3 1 4 2 5 30 7 31 8 83 9 32 10 82 11 33 12 34 13
REMARK SMILES IDX 35 14 76 15 36 16 81 17 75 18 77 19 37 20 80 21 74 22 73 23
REMARK SMILES IDX 38 25 64 26 47 27 63 28 48 29 51 30 62 31 78 32 49 33 50 34
REMARK SMILES IDX 61 36 79 37 52 38 39 39 40 40 45 41 41 42 42 43 44 44 46 45
REMARK SMILES IDX 43 46 65 47 66 48 71 49 67 50 68 51 70 52 72 53 69 54 53 55
REMARK SMILES IDX 54 56 59 57 55 58 56 59 58 60 60 61 57 62 6 63 7 64 8 65
REMARK SMILES IDX 9 67 10 68 11 69 26 70 12 71 25 72 13 73 27 74 28 75 29 76
REMARK SMILES IDX 14 77 15 78 24 79 16 80 19 81 17 82 18 83 20 84 21 85 22 86
REMARK SMILES IDX 23 87
REMARK H PARENT 3 6 77 24 51 35 7 66
REMARK Flexibility Score: inf
ROOT
ATOM      1  C   UNL A   1      37.260  19.745  24.901  1.00  0.00     0.042 C 
ENDROOT
BRANCH   1   2
ATOM      2  C   UNL A   1      38.479  20.307  25.616  1.00  0.00     0.118 C 
BRANCH   2   3
ATOM      3  N   UNL A   1      39.576  19.354  25.688  1.00  0.00    -0.352 N 
ATOM      4  O   UNL A   1      41.713  18.655  25.831  1.00  0.00    -0.269 OA
ATOM      5  C   UNL A   1      40.896  19.554  26.005  1.00  0.00     0.251 C 
ATOM      6  H   UNL A   1      39.335  18.423  25.477  1.00  0.00     0.163 HD
BRANCH   5   7
ATOM      7  C   UNL A   1      41.341  20.856  26.544  1.00  0.00     0.039 A 
ATOM      8  C   UNL A   1      41.788  21.866  25.691  1.00  0.00     0.014 A 
ATOM      9  C   UNL A   1      41.267  21.083  27.922  1.00  0.00     0.014 A 
ATOM     10  C   UNL A   1      42.286  23.050  26.219  1.00  0.00     0.010 A 
ATOM     11  C   UNL A   1      41.680  22.310  28.446  1.00  0.00     0.010 A 
ATOM     12  C   UNL A   1      42.206  23.296  27.598  1.00  0.00    -0.014 A 
BRANCH  12  13
ATOM     13  C   UNL A   1      42.562  24.641  28.108  1.00  0.00     0.031 A 
ATOM     14  C   UNL A   1      41.518  25.690  28.347  1.00  0.00     0.074 A 
ATOM     15  C   UNL A   1      43.862  24.896  28.356  1.00  0.00     0.049 A 
ATOM     16  N   UNL A   1      41.675  26.916  28.777  1.00  0.00    -0.248 NA
ATOM     17  C   UNL A   1      40.121  25.327  28.062  1.00  0.00     0.031 C 
ATOM     18  C   UNL A   1      44.962  23.954  28.132  1.00  0.00     0.029 A 
ATOM     19  N   UNL A   1      44.479  26.014  28.853  1.00  0.00    -0.354 N 
ATOM     20  C   UNL A   1      40.406  27.480  28.790  1.00  0.00     0.074 A 
ATOM     21  C   UNL A   1      39.488  26.465  28.318  1.00  0.00     0.031 C 
ATOM     22  C   UNL A   1      46.113  24.518  28.523  1.00  0.00     0.029 A 
ATOM     23  C   UNL A   1      45.842  25.881  28.962  1.00  0.00     0.049 A 
ATOM     24  H   UNL A   1      43.994  26.831  29.108  1.00  0.00     0.167 HD
ATOM     25  C   UNL A   1      40.050  28.731  29.165  1.00  0.00     0.037 A 
ATOM     26  C   UNL A   1      46.778  26.767  29.343  1.00  0.00     0.037 A 
ATOM     27  C   UNL A   1      40.968  29.720  29.668  1.00  0.00     0.049 A 
ATOM     28  C   UNL A   1      46.350  28.147  29.737  1.00  0.00     0.074 A 
ATOM     29  C   UNL A   1      40.689  30.980  30.165  1.00  0.00     0.029 A 
ATOM     30  N   UNL A   1      42.344  29.562  29.726  1.00  0.00    -0.354 N 
ATOM     31  N   UNL A   1      45.139  28.646  29.800  1.00  0.00    -0.248 NA
ATOM     32  C   UNL A   1      47.414  29.094  30.093  1.00  0.00     0.031 C 
ATOM     33  C   UNL A   1      41.900  31.603  30.486  1.00  0.00     0.029 A 
ATOM     34  C   UNL A   1      42.931  30.717  30.214  1.00  0.00     0.049 A 
ATOM     35  H   UNL A   1      42.832  28.750  29.460  1.00  0.00     0.167 HD
ATOM     36  C   UNL A   1      45.295  29.965  30.196  1.00  0.00     0.074 A 
ATOM     37  C   UNL A   1      46.716  30.182  30.387  1.00  0.00     0.031 C 
ATOM     38  C   UNL A   1      44.348  30.916  30.374  1.00  0.00     0.037 A 
BRANCH  25  39
ATOM     39  C   UNL A   1      38.608  29.119  29.041  1.00  0.00     0.057 A 
ATOM     40  C   UNL A   1      37.737  29.089  30.135  1.00  0.00     0.134 A 
ATOM     41  C   UNL A   1      38.111  29.611  27.827  1.00  0.00     0.134 A 
ATOM     42  F   UNL A   1      38.151  28.622  31.322  1.00  0.00    -0.206 F 
ATOM     43  C   UNL A   1      36.417  29.535  30.027  1.00  0.00     0.040 A 
ATOM     44  C   UNL A   1      36.798  30.072  27.710  1.00  0.00     0.040 A 
ATOM     45  F   UNL A   1      38.897  29.669  26.742  1.00  0.00    -0.206 F 
ATOM     46  C   UNL A   1      35.948  30.037  28.814  1.00  0.00     0.006 A 
ENDBRANCH  25  39
BRANCH  26  47
ATOM     47  C   UNL A   1      48.208  26.380  29.324  1.00  0.00     0.057 A 
ATOM     48  C   UNL A   1      49.007  26.609  28.200  1.00  0.00     0.134 A 
ATOM     49  C   UNL A   1      48.812  25.790  30.441  1.00  0.00     0.134 A 
ATOM     50  F   UNL A   1      48.479  27.156  27.095  1.00  0.00    -0.206 F 
ATOM     51  C   UNL A   1      50.358  26.259  28.186  1.00  0.00     0.040 A 
ATOM     52  C   UNL A   1      50.166  25.457  30.448  1.00  0.00     0.040 A 
ATOM     53  F   UNL A   1      48.097  25.552  31.551  1.00  0.00    -0.206 F 
ATOM     54  C   UNL A   1      50.943  25.687  29.315  1.00  0.00     0.006 A 
ENDBRANCH  26  47
BRANCH  38  55
ATOM     55  C   UNL A   1      44.827  32.274  30.779  1.00  0.00     0.057 A 
ATOM     56  C   UNL A   1      45.017  32.604  32.127  1.00  0.00     0.134 A 
ATOM     57  C   UNL A   1      45.120  33.250  29.820  1.00  0.00     0.134 A 
ATOM     58  F   UNL A   1      44.734  31.714  33.091  1.00  0.00    -0.206 F 
ATOM     59  C   UNL A   1      45.467  33.867  32.508  1.00  0.00     0.040 A 
ATOM     60  C   UNL A   1      45.591  34.511  30.189  1.00  0.00     0.040 A 
ATOM     61  F   UNL A   1      44.962  32.991  28.514  1.00  0.00    -0.206 F 
ATOM     62  C   UNL A   1      45.761  34.823  31.537  1.00  0.00     0.006 A 
ENDBRANCH  38  55
ENDBRANCH  12  13
ENDBRANCH   5   7
ENDBRANCH   2   3
ENDBRANCH   1   2
BRANCH   1  63
ATOM     63  C   UNL A   1      36.045  20.655  24.955  1.00  0.00     0.118 C 
BRANCH  63  64
ATOM     64  N   UNL A   1      34.795  19.911  25.040  1.00  0.00    -0.352 N 
ATOM     65  C   UNL A   1      33.513  20.371  25.175  1.00  0.00     0.258 C 
ATOM     66  H   UNL A   1      34.886  18.932  24.994  1.00  0.00     0.163 HD
ATOM     67  O   UNL A   1      32.583  19.605  25.401  1.00  0.00    -0.269 OA
BRANCH  65  68
ATOM     68  C   UNL A   1      33.260  21.817  25.103  1.00  0.00     0.117 A 
ATOM     69  C   UNL A   1      33.046  22.378  23.843  1.00  0.00     0.022 A 
ATOM     70  C   UNL A   1      33.170  22.626  26.234  1.00  0.00     0.282 A 
ATOM     71  C   UNL A   1      32.680  23.725  23.733  1.00  0.00     0.010 A 
ATOM     72  C   UNL A   1      32.778  23.965  26.132  1.00  0.00     0.095 A 
ATOM     73  C   UNL A   1      32.517  24.534  24.874  1.00  0.00    -0.012 A 
BRANCH  70  74
ATOM     74  N   UNL A   1      33.450  22.095  27.553  1.00  0.00     0.063 N 
ATOM     75  O   UNL A   1      32.558  22.224  28.404  1.00  0.00    -0.258 OA
ATOM     76  O   UNL A   1      34.552  21.570  27.740  1.00  0.00    -0.258 OA
ENDBRANCH  70  74
BRANCH  73  77
ATOM     77  C   UNL A   1      32.082  25.937  24.766  1.00  0.00    -0.017 A 
ATOM     78  C   UNL A   1      31.199  26.354  23.756  1.00  0.00     0.012 A 
ATOM     79  C   UNL A   1      32.515  26.896  25.701  1.00  0.00     0.025 A 
ATOM     80  C   UNL A   1      30.763  27.678  23.687  1.00  0.00     0.040 A 
ATOM     81  C   UNL A   1      32.073  28.228  25.647  1.00  0.00     0.092 A 
ATOM     82  C   UNL A   1      31.200  28.600  24.631  1.00  0.00     0.135 A 
ATOM     83  F   UNL A   1      30.762  29.862  24.553  1.00  0.00    -0.206 F 
BRANCH  81  84
ATOM     84  C   UNL A   1      32.512  29.246  26.654  1.00  0.00     0.419 C 
ATOM     85  F   UNL A   1      33.181  30.291  26.097  1.00  0.00    -0.166 F 
ATOM     86  F   UNL A   1      31.477  29.779  27.357  1.00  0.00    -0.166 F 
ATOM     87  F   UNL A   1      33.359  28.729  27.592  1.00  0.00    -0.166 F 
ENDBRANCH  81  84
ENDBRANCH  73  77
ENDBRANCH  65  68
ENDBRANCH  63  64
ENDBRANCH   1  63
TORSDOF 13
ENDMDL
MODEL 2
REMARK VINA RESULT:     -12.3      4.515      9.021
REMARK SMILES O=C(NCCCNC(=O)c1ccc(-c2ccc(F)c(C(F)(F)F)c2)cc1[N+](=O)[O-])c1ccc(-c2c3nc(c(-c4c(F)cccc4F)c4ccc([nH]4)c(-c4c(F)cccc4F)c4nc(c(-c5c(F)cccc5F)c5ccc2[nH]5)C=C4)C=C3)cc1
REMARK SMILES IDX 5 1 4 2 3 3 1 4 2 5 30 7 31 8 83 9 32 10 82 11 33 12 34 13
REMARK SMILES IDX 35 14 76 15 36 16 81 17 75 18 77 19 37 20 80 21 74 22 73 23
REMARK SMILES IDX 38 25 64 26 47 27 63 28 48 29 51 30 62 31 78 32 49 33 50 34
REMARK SMILES IDX 61 36 79 37 52 38 39 39 40 40 45 41 41 42 42 43 44 44 46 45
REMARK SMILES IDX 43 46 65 47 66 48 71 49 67 50 68 51 70 52 72 53 69 54 53 55
REMARK SMILES IDX 54 56 59 57 55 58 56 59 58 60 60 61 57 62 6 63 7 64 8 65
REMARK SMILES IDX 9 67 10 68 11 69 26 70 12 71 25 72 13 73 27 74 28 75 29 76
REMARK SMILES IDX 14 77 15 78 24 79 16 80 19 81 17 82 18 83 20 84 21 85 22 86
REMARK SMILES IDX 23 87
REMARK H PARENT 3 6 77 24 51 35 7 66
REMARK Flexibility Score: inf
ROOT
ATOM      1  C   UNL A   1      31.217  31.294  26.116  1.00  0.00     0.042 C 
ENDROOT
BRANCH   1   2
ATOM      2  C   UNL A   1      32.408  31.855  26.878  1.00  0.00     0.118 C 
BRANCH   2   3
ATOM      3  N   UNL A   1      32.227  33.250  27.253  1.00  0.00    -0.352 N 
ATOM      4  O   UNL A   1      32.544  35.138  28.440  1.00  0.00    -0.269 OA
ATOM      5  C   UNL A   1      32.962  34.033  28.108  1.00  0.00     0.251 C 
ATOM      6  H   UNL A   1      31.461  33.700  26.830  1.00  0.00     0.163 HD
BRANCH   5   7
ATOM      7  C   UNL A   1      34.251  33.545  28.639  1.00  0.00     0.039 A 
ATOM      8  C   UNL A   1      34.293  32.734  29.775  1.00  0.00     0.014 A 
ATOM      9  C   UNL A   1      35.432  33.868  27.964  1.00  0.00     0.014 A 
ATOM     10  C   UNL A   1      35.516  32.357  30.314  1.00  0.00     0.010 A 
ATOM     11  C   UNL A   1      36.658  33.410  28.453  1.00  0.00     0.010 A 
ATOM     12  C   UNL A   1      36.708  32.663  29.640  1.00  0.00    -0.014 A 
BRANCH  12  13
ATOM     13  C   UNL A   1      37.979  32.082  30.132  1.00  0.00     0.031 A 
ATOM     14  C   UNL A   1      38.517  30.795  29.581  1.00  0.00     0.074 A 
ATOM     15  C   UNL A   1      38.646  32.749  31.094  1.00  0.00     0.049 A 
ATOM     16  N   UNL A   1      39.606  30.154  29.919  1.00  0.00    -0.248 NA
ATOM     17  C   UNL A   1      37.734  30.135  28.525  1.00  0.00     0.031 C 
ATOM     18  C   UNL A   1      38.196  33.998  31.718  1.00  0.00     0.029 A 
ATOM     19  N   UNL A   1      39.839  32.482  31.711  1.00  0.00    -0.354 N 
ATOM     20  C   UNL A   1      39.629  29.005  29.139  1.00  0.00     0.074 A 
ATOM     21  C   UNL A   1      38.439  29.031  28.314  1.00  0.00     0.031 C 
ATOM     22  C   UNL A   1      39.117  34.406  32.602  1.00  0.00     0.029 A 
ATOM     23  C   UNL A   1      40.187  33.417  32.654  1.00  0.00     0.049 A 
ATOM     24  H   UNL A   1      40.393  31.697  31.498  1.00  0.00     0.167 HD
ATOM     25  C   UNL A   1      40.562  28.025  29.120  1.00  0.00     0.037 A 
ATOM     26  C   UNL A   1      41.235  33.462  33.494  1.00  0.00     0.037 A 
ATOM     27  C   UNL A   1      41.760  28.029  29.920  1.00  0.00     0.049 A 
ATOM     28  C   UNL A   1      42.241  32.353  33.456  1.00  0.00     0.074 A 
ATOM     29  C   UNL A   1      42.812  27.131  29.899  1.00  0.00     0.029 A 
ATOM     30  N   UNL A   1      42.057  28.972  30.890  1.00  0.00    -0.354 N 
ATOM     31  N   UNL A   1      42.279  31.304  32.671  1.00  0.00    -0.248 NA
ATOM     32  C   UNL A   1      43.338  32.420  34.430  1.00  0.00     0.031 C 
ATOM     33  C   UNL A   1      43.729  27.507  30.887  1.00  0.00     0.029 A 
ATOM     34  C   UNL A   1      43.259  28.656  31.503  1.00  0.00     0.049 A 
ATOM     35  H   UNL A   1      41.498  29.751  31.113  1.00  0.00     0.167 HD
ATOM     36  C   UNL A   1      43.396  30.582  33.060  1.00  0.00     0.074 A 
ATOM     37  C   UNL A   1      44.027  31.328  34.131  1.00  0.00     0.031 C 
ATOM     38  C   UNL A   1      43.854  29.401  32.581  1.00  0.00     0.037 A 
BRANCH  25  39
ATOM     39  C   UNL A   1      40.332  26.852  28.216  1.00  0.00     0.057 A 
ATOM     40  C   UNL A   1      39.486  25.796  28.574  1.00  0.00     0.134 A 
ATOM     41  C   UNL A   1      40.900  26.824  26.936  1.00  0.00     0.134 A 
ATOM     42  F   UNL A   1      38.918  25.762  29.788  1.00  0.00    -0.206 F 
ATOM     43  C   UNL A   1      39.212  24.751  27.689  1.00  0.00     0.040 A 
ATOM     44  C   UNL A   1      40.624  25.792  26.038  1.00  0.00     0.040 A 
ATOM     45  F   UNL A   1      41.718  27.808  26.532  1.00  0.00    -0.206 F 
ATOM     46  C   UNL A   1      39.776  24.752  26.413  1.00  0.00     0.006 A 
ENDBRANCH  25  39
BRANCH  26  47
ATOM     47  C   UNL A   1      41.352  34.575  34.465  1.00  0.00     0.057 A 
ATOM     48  C   UNL A   1      40.808  34.480  35.749  1.00  0.00     0.134 A 
ATOM     49  C   UNL A   1      42.033  35.754  34.134  1.00  0.00     0.134 A 
ATOM     50  F   UNL A   1      40.131  33.381  36.116  1.00  0.00    -0.206 F 
ATOM     51  C   UNL A   1      40.929  35.522  36.669  1.00  0.00     0.040 A 
ATOM     52  C   UNL A   1      42.182  36.793  35.053  1.00  0.00     0.040 A 
ATOM     53  F   UNL A   1      42.582  35.901  32.920  1.00  0.00    -0.206 F 
ATOM     54  C   UNL A   1      41.625  36.679  36.324  1.00  0.00     0.006 A 
ENDBRANCH  26  47
BRANCH  38  55
ATOM     55  C   UNL A   1      45.083  28.845  33.228  1.00  0.00     0.057 A 
ATOM     56  C   UNL A   1      46.361  29.202  32.782  1.00  0.00     0.134 A 
ATOM     57  C   UNL A   1      44.991  27.966  34.312  1.00  0.00     0.134 A 
ATOM     58  F   UNL A   1      46.511  30.027  31.735  1.00  0.00    -0.206 F 
ATOM     59  C   UNL A   1      47.509  28.689  33.384  1.00  0.00     0.040 A 
ATOM     60  C   UNL A   1      46.133  27.461  34.936  1.00  0.00     0.040 A 
ATOM     61  F   UNL A   1      43.793  27.590  34.785  1.00  0.00    -0.206 F 
ATOM     62  C   UNL A   1      47.396  27.820  34.468  1.00  0.00     0.006 A 
ENDBRANCH  38  55
ENDBRANCH  12  13
ENDBRANCH   5   7
ENDBRANCH   2   3
ENDBRANCH   1   2
BRANCH   1  63
ATOM     63  C   UNL A   1      31.500  29.971  25.427  1.00  0.00     0.118 C 
BRANCH  63  64
ATOM     64  N   UNL A   1      30.836  29.862  24.135  1.00  0.00    -0.352 N 
ATOM     65  C   UNL A   1      30.876  28.849  23.215  1.00  0.00     0.258 C 
ATOM     66  H   UNL A   1      30.275  30.632  23.885  1.00  0.00     0.163 HD
ATOM     67  O   UNL A   1      30.391  28.986  22.097  1.00  0.00    -0.269 OA
BRANCH  65  68
ATOM     68  C   UNL A   1      31.563  27.597  23.558  1.00  0.00     0.117 A 
ATOM     69  C   UNL A   1      30.815  26.592  24.176  1.00  0.00     0.022 A 
ATOM     70  C   UNL A   1      32.900  27.357  23.245  1.00  0.00     0.282 A 
ATOM     71  C   UNL A   1      31.393  25.339  24.410  1.00  0.00     0.010 A 
ATOM     72  C   UNL A   1      33.473  26.098  23.452  1.00  0.00     0.095 A 
ATOM     73  C   UNL A   1      32.720  25.063  24.033  1.00  0.00    -0.012 A 
BRANCH  70  74
ATOM     74  N   UNL A   1      33.726  28.396  22.664  1.00  0.00     0.063 N 
ATOM     75  O   UNL A   1      34.154  28.191  21.520  1.00  0.00    -0.258 OA
ATOM     76  O   UNL A   1      33.957  29.398  23.349  1.00  0.00    -0.258 OA
ENDBRANCH  70  74
BRANCH  73  77
ATOM     77  C   UNL A   1      33.316  23.731  24.231  1.00  0.00    -0.017 A 
ATOM     78  C   UNL A   1      32.536  22.563  24.165  1.00  0.00     0.012 A 
ATOM     79  C   UNL A   1      34.697  23.588  24.458  1.00  0.00     0.025 A 
ATOM     80  C   UNL A   1      33.117  21.303  24.317  1.00  0.00     0.040 A 
ATOM     81  C   UNL A   1      35.294  22.324  24.599  1.00  0.00     0.092 A 
ATOM     82  C   UNL A   1      34.486  21.194  24.529  1.00  0.00     0.135 A 
ATOM     83  F   UNL A   1      35.025  19.976  24.661  1.00  0.00    -0.206 F 
BRANCH  81  84
ATOM     84  C   UNL A   1      36.767  22.167  24.816  1.00  0.00     0.419 C 
ATOM     85  F   UNL A   1      37.441  23.348  24.758  1.00  0.00    -0.166 F 
ATOM     86  F   UNL A   1      37.071  21.607  26.018  1.00  0.00    -0.166 F 
ATOM     87  F   UNL A   1      37.356  21.365  23.882  1.00  0.00    -0.166 F 
ENDBRANCH  81  84
ENDBRANCH  73  77
ENDBRANCH  65  68
ENDBRANCH  63  64
ENDBRANCH   1  63
TORSDOF 13
ENDMDL
MODEL 3
REMARK VINA RESULT:     -12.0      3.934      8.558
REMARK SMILES O=C(NCCCNC(=O)c1ccc(-c2ccc(F)c(C(F)(F)F)c2)cc1[N+](=O)[O-])c1ccc(-c2c3nc(c(-c4c(F)cccc4F)c4ccc([nH]4)c(-c4c(F)cccc4F)c4nc(c(-c5c(F)cccc5F)c5ccc2[nH]5)C=C4)C=C3)cc1
REMARK SMILES IDX 5 1 4 2 3 3 1 4 2 5 30 7 31 8 83 9 32 10 82 11 33 12 34 13
REMARK SMILES IDX 35 14 76 15 36 16 81 17 75 18 77 19 37 20 80 21 74 22 73 23
REMARK SMILES IDX 38 25 64 26 47 27 63 28 48 29 51 30 62 31 78 32 49 33 50 34
REMARK SMILES IDX 61 36 79 37 52 38 39 39 40 40 45 41 41 42 42 43 44 44 46 45
REMARK SMILES IDX 43 46 65 47 66 48 71 49 67 50 68 51 70 52 72 53 69 54 53 55
REMARK SMILES IDX 54 56 59 57 55 58 56 59 58 60 60 61 57 62 6 63 7 64 8 65
REMARK SMILES IDX 9 67 10 68 11 69 26 70 12 71 25 72 13 73 27 74 28 75 29 76
REMARK SMILES IDX 14 77 15 78 24 79 16 80 19 81 17 82 18 83 20 84 21 85 22 86
REMARK SMILES IDX 23 87
REMARK H PARENT 3 6 77 24 51 35 7 66
REMARK Flexibility Score: inf
ROOT
ATOM      1  C   UNL A   1      32.538  27.950  24.436  1.00  0.00     0.042 C 
ENDROOT
BRANCH   1   2
ATOM      2  C   UNL A   1      33.416  28.902  25.233  1.00  0.00     0.118 C 
BRANCH   2   3
ATOM      3  N   UNL A   1      32.702  30.091  25.672  1.00  0.00    -0.352 N 
ATOM      4  O   UNL A   1      32.121  31.773  27.054  1.00  0.00    -0.269 OA
ATOM      5  C   UNL A   1      32.947  30.923  26.736  1.00  0.00     0.251 C 
ATOM      6  H   UNL A   1      31.923  30.338  25.122  1.00  0.00     0.163 HD
BRANCH   5   7
ATOM      7  C   UNL A   1      34.199  30.789  27.509  1.00  0.00     0.039 A 
ATOM      8  C   UNL A   1      34.599  29.548  28.010  1.00  0.00     0.014 A 
ATOM      9  C   UNL A   1      35.006  31.915  27.698  1.00  0.00     0.014 A 
ATOM     10  C   UNL A   1      35.731  29.456  28.810  1.00  0.00     0.010 A 
ATOM     11  C   UNL A   1      36.195  31.803  28.423  1.00  0.00     0.010 A 
ATOM     12  C   UNL A   1      36.556  30.575  28.996  1.00  0.00    -0.014 A 
BRANCH  12  13
ATOM     13  C   UNL A   1      37.855  30.400  29.687  1.00  0.00     0.031 A 
ATOM     14  C   UNL A   1      38.998  29.679  29.037  1.00  0.00     0.074 A 
ATOM     15  C   UNL A   1      37.982  30.913  30.927  1.00  0.00     0.049 A 
ATOM     16  N   UNL A   1      40.190  29.434  29.520  1.00  0.00    -0.248 NA
ATOM     17  C   UNL A   1      38.781  29.159  27.679  1.00  0.00     0.031 C 
ATOM     18  C   UNL A   1      36.923  31.609  31.662  1.00  0.00     0.029 A 
ATOM     19  N   UNL A   1      39.051  30.936  31.784  1.00  0.00    -0.354 N 
ATOM     20  C   UNL A   1      40.855  28.710  28.539  1.00  0.00     0.074 A 
ATOM     21  C   UNL A   1      39.933  28.548  27.434  1.00  0.00     0.031 C 
ATOM     22  C   UNL A   1      37.403  32.022  32.843  1.00  0.00     0.029 A 
ATOM     23  C   UNL A   1      38.780  31.564  32.975  1.00  0.00     0.049 A 
ATOM     24  H   UNL A   1      39.927  30.543  31.567  1.00  0.00     0.167 HD
ATOM     25  C   UNL A   1      42.121  28.230  28.567  1.00  0.00     0.037 A 
ATOM     26  C   UNL A   1      39.544  31.728  34.069  1.00  0.00     0.037 A 
ATOM     27  C   UNL A   1      43.041  28.430  29.657  1.00  0.00     0.049 A 
ATOM     28  C   UNL A   1      40.934  31.171  34.071  1.00  0.00     0.074 A 
ATOM     29  C   UNL A   1      44.373  28.067  29.736  1.00  0.00     0.029 A 
ATOM     30  N   UNL A   1      42.718  29.035  30.860  1.00  0.00    -0.354 N 
ATOM     31  N   UNL A   1      41.569  30.541  33.112  1.00  0.00    -0.248 NA
ATOM     32  C   UNL A   1      41.709  31.329  35.309  1.00  0.00     0.031 C 
ATOM     33  C   UNL A   1      44.847  28.416  31.005  1.00  0.00     0.029 A 
ATOM     34  C   UNL A   1      43.816  29.022  31.705  1.00  0.00     0.049 A 
ATOM     35  H   UNL A   1      41.839  29.418  31.084  1.00  0.00     0.167 HD
ATOM     36  C   UNL A   1      42.813  30.220  33.632  1.00  0.00     0.074 A 
ATOM     37  C   UNL A   1      42.856  30.751  34.980  1.00  0.00     0.031 C 
ATOM     38  C   UNL A   1      43.827  29.537  33.049  1.00  0.00     0.037 A 
BRANCH  25  39
ATOM     39  C   UNL A   1      42.596  27.430  27.392  1.00  0.00     0.057 A 
ATOM     40  C   UNL A   1      43.023  28.039  26.206  1.00  0.00     0.134 A 
ATOM     41  C   UNL A   1      42.708  26.037  27.485  1.00  0.00     0.134 A 
ATOM     42  F   UNL A   1      42.934  29.368  26.054  1.00  0.00    -0.206 F 
ATOM     43  C   UNL A   1      43.544  27.288  25.150  1.00  0.00     0.040 A 
ATOM     44  C   UNL A   1      43.240  25.277  26.441  1.00  0.00     0.040 A 
ATOM     45  F   UNL A   1      42.319  25.395  28.596  1.00  0.00    -0.206 F 
ATOM     46  C   UNL A   1      43.662  25.904  25.270  1.00  0.00     0.006 A 
ENDBRANCH  25  39
BRANCH  26  47
ATOM     47  C   UNL A   1      38.986  32.411  35.260  1.00  0.00     0.057 A 
ATOM     48  C   UNL A   1      38.340  31.696  36.272  1.00  0.00     0.134 A 
ATOM     49  C   UNL A   1      39.106  33.797  35.420  1.00  0.00     0.134 A 
ATOM     50  F   UNL A   1      38.181  30.368  36.165  1.00  0.00    -0.206 F 
ATOM     51  C   UNL A   1      37.827  32.335  37.401  1.00  0.00     0.040 A 
ATOM     52  C   UNL A   1      38.619  34.446  36.554  1.00  0.00     0.040 A 
ATOM     53  F   UNL A   1      39.722  34.536  34.485  1.00  0.00    -0.206 F 
ATOM     54  C   UNL A   1      37.973  33.714  37.548  1.00  0.00     0.006 A 
ENDBRANCH  26  47
BRANCH  38  55
ATOM     55  C   UNL A   1      45.052  29.315  33.878  1.00  0.00     0.057 A 
ATOM     56  C   UNL A   1      46.080  30.265  33.920  1.00  0.00     0.134 A 
ATOM     57  C   UNL A   1      45.198  28.160  34.653  1.00  0.00     0.134 A 
ATOM     58  F   UNL A   1      46.003  31.384  33.183  1.00  0.00    -0.206 F 
ATOM     59  C   UNL A   1      47.222  30.065  34.694  1.00  0.00     0.040 A 
ATOM     60  C   UNL A   1      46.327  27.958  35.448  1.00  0.00     0.040 A 
ATOM     61  F   UNL A   1      44.245  27.216  34.657  1.00  0.00    -0.206 F 
ATOM     62  C   UNL A   1      47.345  28.911  35.466  1.00  0.00     0.006 A 
ENDBRANCH  38  55
ENDBRANCH  12  13
ENDBRANCH   5   7
ENDBRANCH   2   3
ENDBRANCH   1   2
BRANCH   1  63
ATOM     63  C   UNL A   1      31.572  27.148  25.290  1.00  0.00     0.118 C 
BRANCH  63  64
ATOM     64  N   UNL A   1      30.718  26.274  24.495  1.00  0.00    -0.352 N 
ATOM     65  C   UNL A   1      30.993  25.053  23.943  1.00  0.00     0.258 C 
ATOM     66  H   UNL A   1      29.809  26.614  24.330  1.00  0.00     0.163 HD
ATOM     67  O   UNL A   1      30.216  24.521  23.157  1.00  0.00    -0.269 OA
BRANCH  65  68
ATOM     68  C   UNL A   1      32.268  24.395  24.257  1.00  0.00     0.117 A 
ATOM     69  C   UNL A   1      33.316  24.536  23.344  1.00  0.00     0.022 A 
ATOM     70  C   UNL A   1      32.487  23.692  25.440  1.00  0.00     0.282 A 
ATOM     71  C   UNL A   1      34.584  24.032  23.655  1.00  0.00     0.010 A 
ATOM     72  C   UNL A   1      33.758  23.211  25.769  1.00  0.00     0.095 A 
ATOM     73  C   UNL A   1      34.833  23.383  24.879  1.00  0.00    -0.012 A 
BRANCH  70  74
ATOM     74  N   UNL A   1      31.408  23.468  26.382  1.00  0.00     0.063 N 
ATOM     75  O   UNL A   1      30.727  22.447  26.214  1.00  0.00    -0.258 OA
ATOM     76  O   UNL A   1      31.233  24.311  27.268  1.00  0.00    -0.258 OA
ENDBRANCH  70  74
BRANCH  73  77
ATOM     77  C   UNL A   1      36.177  22.897  25.233  1.00  0.00    -0.017 A 
ATOM     78  C   UNL A   1      36.596  21.597  24.903  1.00  0.00     0.012 A 
ATOM     79  C   UNL A   1      37.098  23.740  25.883  1.00  0.00     0.025 A 
ATOM     80  C   UNL A   1      37.885  21.159  25.210  1.00  0.00     0.040 A 
ATOM     81  C   UNL A   1      38.401  23.314  26.185  1.00  0.00     0.092 A 
ATOM     82  C   UNL A   1      38.775  22.019  25.843  1.00  0.00     0.135 A 
ATOM     83  F   UNL A   1      40.010  21.584  26.118  1.00  0.00    -0.206 F 
BRANCH  81  84
ATOM     84  C   UNL A   1      39.391  24.217  26.855  1.00  0.00     0.419 C 
ATOM     85  F   UNL A   1      40.367  23.539  27.516  1.00  0.00    -0.166 F 
ATOM     86  F   UNL A   1      40.021  25.053  25.985  1.00  0.00    -0.166 F 
ATOM     87  F   UNL A   1      38.816  25.030  27.788  1.00  0.00    -0.166 F 
ENDBRANCH  81  84
ENDBRANCH  73  77
ENDBRANCH  65  68
ENDBRANCH  63  64
ENDBRANCH   1  63
TORSDOF 13
ENDMDL
