MODEL 1
REMARK VINA RESULT:     -10.7      0.000      0.000
REMARK SMILES [NH3+][C@H](CCC(=O)NCCCNC(=O)c1ccc(-c2c3nc(c(-c4c(F)cccc4F)c4ccc([nH]4)c(-c4c(F)cccc4F)c4nc(c(-c5c(F)cccc5F)c5ccc2[nH]5)C=C4)C=C3)cc1)c1nccc2[nH]ccc12
REMARK SMILES IDX 8 1 7 2 5 3 6 4 4 6 3 7 2 8 1 9 68 13 69 14 76 15 70 16
REMARK SMILES IDX 72 17 75 18 71 19 73 20 74 21 9 23 10 24 11 25 12 26 13 28
REMARK SMILES IDX 14 29 15 30 67 31 16 32 66 33 17 34 18 35 19 36 60 37 20 38
REMARK SMILES IDX 65 39 59 40 61 41 21 42 64 43 58 44 57 45 22 47 48 48 31 49
REMARK SMILES IDX 47 50 32 51 35 52 46 53 62 54 33 55 34 56 45 58 63 59 36 60
REMARK SMILES IDX 23 61 24 62 29 63 25 64 26 65 28 66 30 67 27 68 49 69 50 70
REMARK SMILES IDX 55 71 51 72 52 73 54 74 56 75 53 76 37 77 38 78 43 79 39 80
REMARK SMILES IDX 40 81 42 82 44 83 41 84
REMARK H PARENT 7 5 1 10 1 11 1 12 73 22 11 27 61 46 35 57
REMARK Flexibility Score: inf
ROOT
ATOM      1  C   UNL A   1      36.594  20.342  24.844  1.00  0.00     0.117 C 
ENDROOT
BRANCH   1   2
ATOM      2  N   UNL A   1      36.874  21.656  25.390  1.00  0.00    -0.356 N 
ATOM      3  C   UNL A   1      37.056  22.841  24.742  1.00  0.00     0.220 C 
ATOM      4  O   UNL A   1      37.517  23.783  25.391  1.00  0.00    -0.275 OA
ATOM      5  H   UNL A   1      36.942  21.699  26.371  1.00  0.00     0.163 HD
BRANCH   3   6
ATOM      6  C   UNL A   1      36.630  23.020  23.297  1.00  0.00     0.106 C 
BRANCH   6   7
ATOM      7  C   UNL A   1      35.117  23.021  23.064  1.00  0.00     0.082 C 
BRANCH   7   8
ATOM      8  C   UNL A   1      34.205  23.814  24.025  1.00  0.00     0.232 C 
BRANCH   8   9
ATOM      9  N   UNL A   1      33.079  24.442  23.297  1.00  0.00    -0.350 N 
ATOM     10  H   UNL A   1      32.254  24.458  23.897  1.00  0.00     0.345 HD
ATOM     11  H   UNL A   1      32.876  23.904  22.455  1.00  0.00     0.345 HD
ATOM     12  H   UNL A   1      33.332  25.396  23.039  1.00  0.00     0.345 HD
ENDBRANCH   8   9
BRANCH   8  13
ATOM     13  C   UNL A   1      33.622  23.095  25.244  1.00  0.00     0.107 A 
ATOM     14  N   UNL A   1      33.952  23.647  26.460  1.00  0.00    -0.254 NA
ATOM     15  C   UNL A   1      33.190  21.746  25.230  1.00  0.00     0.027 A 
ATOM     16  C   UNL A   1      34.029  22.877  27.564  1.00  0.00     0.114 A 
ATOM     17  C   UNL A   1      33.401  20.972  26.377  1.00  0.00     0.049 A 
ATOM     18  C   UNL A   1      32.622  20.869  24.258  1.00  0.00     0.030 A 
ATOM     19  C   UNL A   1      33.863  21.509  27.573  1.00  0.00     0.047 A 
ATOM     20  N   UNL A   1      33.132  19.664  26.047  1.00  0.00    -0.361 N 
ATOM     21  C   UNL A   1      32.572  19.603  24.801  1.00  0.00     0.083 A 
ATOM     22  H   UNL A   1      33.315  18.888  26.623  1.00  0.00     0.166 HD
ENDBRANCH   8  13
ENDBRANCH   7   8
ENDBRANCH   6   7
ENDBRANCH   3   6
ENDBRANCH   1   2
BRANCH   1  23
ATOM     23  C   UNL A   1      37.824  19.445  24.962  1.00  0.00     0.042 C 
BRANCH  23  24
ATOM     24  C   UNL A   1      38.991  20.139  25.654  1.00  0.00     0.118 C 
BRANCH  24  25
ATOM     25  N   UNL A   1      40.133  19.246  25.793  1.00  0.00    -0.352 N 
ATOM     26  C   UNL A   1      41.444  19.533  26.078  1.00  0.00     0.251 C 
ATOM     27  H   UNL A   1      39.934  18.291  25.662  1.00  0.00     0.163 HD
ATOM     28  O   UNL A   1      42.300  18.671  25.902  1.00  0.00    -0.269 OA
BRANCH  26  29
ATOM     29  C   UNL A   1      41.843  20.866  26.589  1.00  0.00     0.039 A 
ATOM     30  C   UNL A   1      41.752  21.112  27.964  1.00  0.00     0.014 A 
ATOM     31  C   UNL A   1      42.236  21.895  25.728  1.00  0.00     0.014 A 
ATOM     32  C   UNL A   1      42.091  22.369  28.475  1.00  0.00     0.010 A 
ATOM     33  C   UNL A   1      42.638  23.127  26.245  1.00  0.00     0.010 A 
ATOM     34  C   UNL A   1      42.554  23.382  27.622  1.00  0.00    -0.014 A 
BRANCH  34  35
ATOM     35  C   UNL A   1      42.927  24.721  28.147  1.00  0.00     0.031 A 
ATOM     36  C   UNL A   1      41.867  25.764  28.379  1.00  0.00     0.074 A 
ATOM     37  C   UNL A   1      44.221  25.020  28.366  1.00  0.00     0.049 A 
ATOM     38  N   UNL A   1      42.000  27.009  28.761  1.00  0.00    -0.248 NA
ATOM     39  C   UNL A   1      40.475  25.360  28.125  1.00  0.00     0.031 C 
ATOM     40  C   UNL A   1      45.349  24.114  28.145  1.00  0.00     0.029 A 
ATOM     41  N   UNL A   1      44.808  26.178  28.813  1.00  0.00    -0.354 N 
ATOM     42  C   UNL A   1      40.717  27.541  28.771  1.00  0.00     0.074 A 
ATOM     43  C   UNL A   1      39.823  26.497  28.318  1.00  0.00     0.031 C 
ATOM     44  C   UNL A   1      46.490  24.743  28.473  1.00  0.00     0.029 A 
ATOM     45  C   UNL A   1      46.177  26.106  28.894  1.00  0.00     0.049 A 
ATOM     46  H   UNL A   1      44.295  26.984  29.052  1.00  0.00     0.167 HD
ATOM     47  C   UNL A   1      40.315  28.781  29.143  1.00  0.00     0.037 A 
ATOM     48  C   UNL A   1      47.080  27.035  29.262  1.00  0.00     0.037 A 
ATOM     49  C   UNL A   1      41.198  29.809  29.626  1.00  0.00     0.049 A 
ATOM     50  C   UNL A   1      46.609  28.400  29.679  1.00  0.00     0.074 A 
ATOM     51  C   UNL A   1      40.878  31.076  30.084  1.00  0.00     0.029 A 
ATOM     52  N   UNL A   1      42.576  29.688  29.717  1.00  0.00    -0.354 N 
ATOM     53  N   UNL A   1      45.387  28.871  29.736  1.00  0.00    -0.248 NA
ATOM     54  C   UNL A   1      47.643  29.362  30.087  1.00  0.00     0.031 C 
ATOM     55  C   UNL A   1      42.065  31.733  30.421  1.00  0.00     0.029 A 
ATOM     56  C   UNL A   1      43.121  30.862  30.209  1.00  0.00     0.049 A 
ATOM     57  H   UNL A   1      43.090  28.886  29.468  1.00  0.00     0.167 HD
ATOM     58  C   UNL A   1      45.502  30.172  30.209  1.00  0.00     0.074 A 
ATOM     59  C   UNL A   1      46.912  30.412  30.434  1.00  0.00     0.031 C 
ATOM     60  C   UNL A   1      44.526  31.084  30.436  1.00  0.00     0.037 A 
BRANCH  47  61
ATOM     61  C   UNL A   1      38.850  29.090  29.045  1.00  0.00     0.057 A 
ATOM     62  C   UNL A   1      37.998  28.983  30.151  1.00  0.00     0.134 A 
ATOM     63  C   UNL A   1      38.291  29.532  27.839  1.00  0.00     0.134 A 
ATOM     64  F   UNL A   1      38.468  28.555  31.333  1.00  0.00    -0.206 F 
ATOM     65  C   UNL A   1      36.637  29.280  30.056  1.00  0.00     0.040 A 
ATOM     66  C   UNL A   1      36.938  29.855  27.737  1.00  0.00     0.040 A 
ATOM     67  F   UNL A   1      39.053  29.663  26.742  1.00  0.00    -0.206 F 
ATOM     68  C   UNL A   1      36.105  29.724  28.846  1.00  0.00     0.006 A 
ENDBRANCH  47  61
BRANCH  48  69
ATOM     69  C   UNL A   1      48.524  26.698  29.274  1.00  0.00     0.057 A 
ATOM     70  C   UNL A   1      49.338  26.980  28.172  1.00  0.00     0.134 A 
ATOM     71  C   UNL A   1      49.124  26.086  30.381  1.00  0.00     0.134 A 
ATOM     72  F   UNL A   1      48.815  27.548  27.074  1.00  0.00    -0.206 F 
ATOM     73  C   UNL A   1      50.695  26.652  28.161  1.00  0.00     0.040 A 
ATOM     74  C   UNL A   1      50.483  25.772  30.393  1.00  0.00     0.040 A 
ATOM     75  F   UNL A   1      48.397  25.795  31.470  1.00  0.00    -0.206 F 
ATOM     76  C   UNL A   1      51.271  26.050  29.278  1.00  0.00     0.006 A 
ENDBRANCH  48  69
BRANCH  60  77
ATOM     77  C   UNL A   1      44.948  32.414  30.983  1.00  0.00     0.057 A 
ATOM     78  C   UNL A   1      45.240  33.497  30.147  1.00  0.00     0.134 A 
ATOM     79  C   UNL A   1      45.026  32.624  32.367  1.00  0.00     0.134 A 
ATOM     80  F   UNL A   1      45.197  33.357  28.813  1.00  0.00    -0.206 F 
ATOM     81  C   UNL A   1      45.615  34.738  30.666  1.00  0.00     0.040 A 
ATOM     82  C   UNL A   1      45.376  33.865  32.898  1.00  0.00     0.040 A 
ATOM     83  F   UNL A   1      44.750  31.627  33.222  1.00  0.00    -0.206 F 
ATOM     84  C   UNL A   1      45.678  34.926  32.045  1.00  0.00     0.006 A 
ENDBRANCH  60  77
ENDBRANCH  34  35
ENDBRANCH  26  29
ENDBRANCH  24  25
ENDBRANCH  23  24
ENDBRANCH   1  23
TORSDOF 14
ENDMDL
MODEL 2
REMARK VINA RESULT:     -10.7      1.152      2.219
REMARK SMILES [NH3+][C@H](CCC(=O)NCCCNC(=O)c1ccc(-c2c3nc(c(-c4c(F)cccc4F)c4ccc([nH]4)c(-c4c(F)cccc4F)c4nc(c(-c5c(F)cccc5F)c5ccc2[nH]5)C=C4)C=C3)cc1)c1nccc2[nH]ccc12
REMARK SMILES IDX 8 1 7 2 5 3 6 4 4 6 3 7 2 8 1 9 68 13 69 14 76 15 70 16
REMARK SMILES IDX 72 17 75 18 71 19 73 20 74 21 9 23 10 24 11 25 12 26 13 28
REMARK SMILES IDX 14 29 15 30 67 31 16 32 66 33 17 34 18 35 19 36 60 37 20 38
REMARK SMILES IDX 65 39 59 40 61 41 21 42 64 43 58 44 57 45 22 47 48 48 31 49
REMARK SMILES IDX 47 50 32 51 35 52 46 53 62 54 33 55 34 56 45 58 63 59 36 60
REMARK SMILES IDX 23 61 24 62 29 63 25 64 26 65 28 66 30 67 27 68 49 69 50 70
REMARK SMILES IDX 55 71 51 72 52 73 54 74 56 75 53 76 37 77 38 78 43 79 39 80
REMARK SMILES IDX 40 81 42 82 44 83 41 84
REMARK H PARENT 7 5 1 10 1 11 1 12 73 22 11 27 61 46 35 57
REMARK Flexibility Score: inf
ROOT
ATOM      1  C   UNL A   1      36.002  20.430  24.927  1.00  0.00     0.117 C 
ENDROOT
BRANCH   1   2
ATOM      2  N   UNL A   1      34.805  19.683  25.262  1.00  0.00    -0.356 N 
ATOM      3  C   UNL A   1      33.522  19.874  24.847  1.00  0.00     0.220 C 
ATOM      4  O   UNL A   1      32.631  19.266  25.445  1.00  0.00    -0.275 OA
ATOM      5  H   UNL A   1      34.940  18.927  25.880  1.00  0.00     0.163 HD
BRANCH   3   6
ATOM      6  C   UNL A   1      33.206  20.737  23.640  1.00  0.00     0.106 C 
BRANCH   6   7
ATOM      7  C   UNL A   1      31.888  21.510  23.724  1.00  0.00     0.082 C 
BRANCH   7   8
ATOM      8  C   UNL A   1      31.920  23.048  23.851  1.00  0.00     0.232 C 
BRANCH   8   9
ATOM      9  N   UNL A   1      30.598  23.578  24.252  1.00  0.00    -0.350 N 
ATOM     10  H   UNL A   1      30.120  23.953  23.433  1.00  0.00     0.345 HD
ATOM     11  H   UNL A   1      30.723  24.320  24.941  1.00  0.00     0.345 HD
ATOM     12  H   UNL A   1      30.040  22.827  24.658  1.00  0.00     0.345 HD
ENDBRANCH   8   9
BRANCH   8  13
ATOM     13  C   UNL A   1      32.970  23.687  24.764  1.00  0.00     0.107 A 
ATOM     14  N   UNL A   1      33.957  24.392  24.115  1.00  0.00    -0.254 NA
ATOM     15  C   UNL A   1      33.236  23.249  26.085  1.00  0.00     0.027 A 
ATOM     16  C   UNL A   1      35.188  24.503  24.653  1.00  0.00     0.114 A 
ATOM     17  C   UNL A   1      34.558  23.291  26.541  1.00  0.00     0.049 A 
ATOM     18  C   UNL A   1      32.471  22.657  27.134  1.00  0.00     0.030 A 
ATOM     19  C   UNL A   1      35.585  23.889  25.821  1.00  0.00     0.047 A 
ATOM     20  N   UNL A   1      34.605  22.602  27.731  1.00  0.00    -0.361 N 
ATOM     21  C   UNL A   1      33.337  22.297  28.144  1.00  0.00     0.083 A 
ATOM     22  H   UNL A   1      35.429  22.365  28.214  1.00  0.00     0.166 HD
ENDBRANCH   8  13
ENDBRANCH   7   8
ENDBRANCH   6   7
ENDBRANCH   3   6
ENDBRANCH   1   2
BRANCH   1  23
ATOM     23  C   UNL A   1      37.222  19.511  24.938  1.00  0.00     0.042 C 
BRANCH  23  24
ATOM     24  C   UNL A   1      38.494  20.233  25.364  1.00  0.00     0.118 C 
BRANCH  24  25
ATOM     25  N   UNL A   1      39.581  19.294  25.608  1.00  0.00    -0.352 N 
ATOM     26  C   UNL A   1      40.867  19.527  26.028  1.00  0.00     0.251 C 
ATOM     27  H   UNL A   1      39.359  18.349  25.447  1.00  0.00     0.163 HD
ATOM     28  O   UNL A   1      41.702  18.633  25.929  1.00  0.00    -0.269 OA
BRANCH  26  29
ATOM     29  C   UNL A   1      41.263  20.839  26.591  1.00  0.00     0.039 A 
ATOM     30  C   UNL A   1      41.775  21.814  25.727  1.00  0.00     0.014 A 
ATOM     31  C   UNL A   1      41.202  21.097  27.965  1.00  0.00     0.014 A 
ATOM     32  C   UNL A   1      42.187  23.052  26.231  1.00  0.00     0.010 A 
ATOM     33  C   UNL A   1      41.548  22.356  28.457  1.00  0.00     0.010 A 
ATOM     34  C   UNL A   1      42.060  23.340  27.598  1.00  0.00    -0.014 A 
BRANCH  34  35
ATOM     35  C   UNL A   1      42.484  24.653  28.151  1.00  0.00     0.031 A 
ATOM     36  C   UNL A   1      41.470  25.742  28.373  1.00  0.00     0.074 A 
ATOM     37  C   UNL A   1      43.785  24.886  28.404  1.00  0.00     0.049 A 
ATOM     38  N   UNL A   1      41.652  26.975  28.776  1.00  0.00    -0.248 NA
ATOM     39  C   UNL A   1      40.066  25.409  28.081  1.00  0.00     0.031 C 
ATOM     40  C   UNL A   1      44.873  23.930  28.196  1.00  0.00     0.029 A 
ATOM     41  N   UNL A   1      44.415  26.008  28.881  1.00  0.00    -0.354 N 
ATOM     42  C   UNL A   1      40.397  27.568  28.764  1.00  0.00     0.074 A 
ATOM     43  C   UNL A   1      39.464  26.574  28.276  1.00  0.00     0.031 C 
ATOM     44  C   UNL A   1      46.034  24.499  28.559  1.00  0.00     0.029 A 
ATOM     45  C   UNL A   1      45.777  25.869  28.993  1.00  0.00     0.049 A 
ATOM     46  H   UNL A   1      43.937  26.834  29.120  1.00  0.00     0.167 HD
ATOM     47  C   UNL A   1      40.046  28.820  29.145  1.00  0.00     0.037 A 
ATOM     48  C   UNL A   1      46.715  26.749  29.395  1.00  0.00     0.037 A 
ATOM     49  C   UNL A   1      40.966  29.798  29.663  1.00  0.00     0.049 A 
ATOM     50  C   UNL A   1      46.300  28.130  29.820  1.00  0.00     0.074 A 
ATOM     51  C   UNL A   1      40.695  31.073  30.132  1.00  0.00     0.029 A 
ATOM     52  N   UNL A   1      42.333  29.610  29.784  1.00  0.00    -0.354 N 
ATOM     53  N   UNL A   1      45.101  28.657  29.856  1.00  0.00    -0.248 NA
ATOM     54  C   UNL A   1      47.369  29.035  30.266  1.00  0.00     0.031 C 
ATOM     55  C   UNL A   1      41.905  31.667  30.506  1.00  0.00     0.029 A 
ATOM     56  C   UNL A   1      42.923  30.750  30.306  1.00  0.00     0.049 A 
ATOM     57  H   UNL A   1      42.814  28.787  29.535  1.00  0.00     0.167 HD
ATOM     58  C   UNL A   1      45.267  29.945  30.350  1.00  0.00     0.074 A 
ATOM     59  C   UNL A   1      46.681  30.114  30.611  1.00  0.00     0.031 C 
ATOM     60  C   UNL A   1      44.331  30.900  30.568  1.00  0.00     0.037 A 
BRANCH  47  61
ATOM     61  C   UNL A   1      38.601  29.201  29.017  1.00  0.00     0.057 A 
ATOM     62  C   UNL A   1      37.728  29.164  30.112  1.00  0.00     0.134 A 
ATOM     63  C   UNL A   1      38.082  29.642  27.793  1.00  0.00     0.134 A 
ATOM     64  F   UNL A   1      38.159  28.742  31.311  1.00  0.00    -0.206 F 
ATOM     65  C   UNL A   1      36.386  29.528  29.990  1.00  0.00     0.040 A 
ATOM     66  C   UNL A   1      36.748  30.030  27.663  1.00  0.00     0.040 A 
ATOM     67  F   UNL A   1      38.864  29.707  26.705  1.00  0.00    -0.206 F 
ATOM     68  C   UNL A   1      35.895  29.968  28.763  1.00  0.00     0.006 A 
ENDBRANCH  47  61
BRANCH  48  69
ATOM     69  C   UNL A   1      48.141  26.342  29.436  1.00  0.00     0.057 A 
ATOM     70  C   UNL A   1      48.684  25.739  30.575  1.00  0.00     0.134 A 
ATOM     71  C   UNL A   1      48.993  26.549  28.345  1.00  0.00     0.134 A 
ATOM     72  F   UNL A   1      47.919  25.533  31.659  1.00  0.00    -0.206 F 
ATOM     73  C   UNL A   1      50.028  25.367  30.636  1.00  0.00     0.040 A 
ATOM     74  C   UNL A   1      50.333  26.163  28.383  1.00  0.00     0.040 A 
ATOM     75  F   UNL A   1      48.530  27.119  27.223  1.00  0.00    -0.206 F 
ATOM     76  C   UNL A   1      50.855  25.575  29.534  1.00  0.00     0.006 A 
ENDBRANCH  48  69
BRANCH  60  77
ATOM     77  C   UNL A   1      44.802  32.201  31.143  1.00  0.00     0.057 A 
ATOM     78  C   UNL A   1      44.897  32.407  32.524  1.00  0.00     0.134 A 
ATOM     79  C   UNL A   1      45.202  33.250  30.302  1.00  0.00     0.134 A 
ATOM     80  F   UNL A   1      44.517  31.447  33.381  1.00  0.00    -0.206 F 
ATOM     81  C   UNL A   1      45.355  33.616  33.051  1.00  0.00     0.040 A 
ATOM     82  C   UNL A   1      45.682  34.454  30.817  1.00  0.00     0.040 A 
ATOM     83  F   UNL A   1      45.142  33.113  28.969  1.00  0.00    -0.206 F 
ATOM     84  C   UNL A   1      45.754  34.641  32.197  1.00  0.00     0.006 A 
ENDBRANCH  60  77
ENDBRANCH  34  35
ENDBRANCH  26  29
ENDBRANCH  24  25
ENDBRANCH  23  24
ENDBRANCH   1  23
TORSDOF 14
ENDMDL
MODEL 3
REMARK VINA RESULT:     -10.6      1.517      2.772
REMARK SMILES [NH3+][C@H](CCC(=O)NCCCNC(=O)c1ccc(-c2c3nc(c(-c4c(F)cccc4F)c4ccc([nH]4)c(-c4c(F)cccc4F)c4nc(c(-c5c(F)cccc5F)c5ccc2[nH]5)C=C4)C=C3)cc1)c1nccc2[nH]ccc12
REMARK SMILES IDX 8 1 7 2 5 3 6 4 4 6 3 7 2 8 1 9 68 13 69 14 76 15 70 16
REMARK SMILES IDX 72 17 75 18 71 19 73 20 74 21 9 23 10 24 11 25 12 26 13 28
REMARK SMILES IDX 14 29 15 30 67 31 16 32 66 33 17 34 18 35 19 36 60 37 20 38
REMARK SMILES IDX 65 39 59 40 61 41 21 42 64 43 58 44 57 45 22 47 48 48 31 49
REMARK SMILES IDX 47 50 32 51 35 52 46 53 62 54 33 55 34 56 45 58 63 59 36 60
REMARK SMILES IDX 23 61 24 62 29 63 25 64 26 65 28 66 30 67 27 68 49 69 50 70
REMARK SMILES IDX 55 71 51 72 52 73 54 74 56 75 53 76 37 77 38 78 43 79 39 80
REMARK SMILES IDX 40 81 42 82 44 83 41 84
REMARK H PARENT 7 5 1 10 1 11 1 12 73 22 11 27 61 46 35 57
REMARK Flexibility Score: inf
ROOT
ATOM      1  C   UNL A   1      36.109  20.704  24.732  1.00  0.00     0.117 C 
ENDROOT
BRANCH   1   2
ATOM      2  N   UNL A   1      35.178  20.687  25.843  1.00  0.00    -0.356 N 
ATOM      3  C   UNL A   1      34.750  21.715  26.628  1.00  0.00     0.220 C 
ATOM      4  O   UNL A   1      34.141  21.430  27.662  1.00  0.00    -0.275 OA
ATOM      5  H   UNL A   1      34.801  19.805  26.062  1.00  0.00     0.163 HD
BRANCH   3   6
ATOM      6  C   UNL A   1      34.940  23.160  26.205  1.00  0.00     0.106 C 
BRANCH   6   7
ATOM      7  C   UNL A   1      33.851  23.712  25.283  1.00  0.00     0.082 C 
BRANCH   7   8
ATOM      8  C   UNL A   1      34.258  24.480  24.006  1.00  0.00     0.232 C 
BRANCH   8   9
ATOM      9  N   UNL A   1      34.018  23.666  22.794  1.00  0.00    -0.350 N 
ATOM     10  H   UNL A   1      34.656  23.962  22.054  1.00  0.00     0.345 HD
ATOM     11  H   UNL A   1      33.056  23.792  22.483  1.00  0.00     0.345 HD
ATOM     12  H   UNL A   1      34.181  22.682  23.008  1.00  0.00     0.345 HD
ENDBRANCH   8   9
BRANCH   8  13
ATOM     13  C   UNL A   1      33.654  25.864  23.759  1.00  0.00     0.107 A 
ATOM     14  N   UNL A   1      33.517  26.215  22.436  1.00  0.00    -0.254 NA
ATOM     15  C   UNL A   1      33.660  26.908  24.718  1.00  0.00     0.027 A 
ATOM     16  C   UNL A   1      33.566  27.509  22.061  1.00  0.00     0.114 A 
ATOM     17  C   UNL A   1      33.825  28.222  24.264  1.00  0.00     0.049 A 
ATOM     18  C   UNL A   1      33.618  26.981  26.143  1.00  0.00     0.030 A 
ATOM     19  C   UNL A   1      33.819  28.559  22.916  1.00  0.00     0.047 A 
ATOM     20  N   UNL A   1      34.042  29.014  25.368  1.00  0.00    -0.361 N 
ATOM     21  C   UNL A   1      33.826  28.293  26.509  1.00  0.00     0.083 A 
ATOM     22  H   UNL A   1      34.312  29.960  25.339  1.00  0.00     0.166 HD
ENDBRANCH   8  13
ENDBRANCH   7   8
ENDBRANCH   6   7
ENDBRANCH   3   6
ENDBRANCH   1   2
BRANCH   1  23
ATOM     23  C   UNL A   1      37.241  19.707  24.971  1.00  0.00     0.042 C 
BRANCH  23  24
ATOM     24  C   UNL A   1      38.535  20.384  25.405  1.00  0.00     0.118 C 
BRANCH  24  25
ATOM     25  N   UNL A   1      39.585  19.407  25.662  1.00  0.00    -0.352 N 
ATOM     26  C   UNL A   1      40.884  19.597  26.063  1.00  0.00     0.251 C 
ATOM     27  H   UNL A   1      39.323  18.468  25.528  1.00  0.00     0.163 HD
ATOM     28  O   UNL A   1      41.680  18.666  25.979  1.00  0.00    -0.269 OA
BRANCH  26  29
ATOM     29  C   UNL A   1      41.340  20.905  26.589  1.00  0.00     0.039 A 
ATOM     30  C   UNL A   1      41.194  21.167  27.956  1.00  0.00     0.014 A 
ATOM     31  C   UNL A   1      41.841  21.901  25.745  1.00  0.00     0.014 A 
ATOM     32  C   UNL A   1      41.586  22.403  28.480  1.00  0.00     0.010 A 
ATOM     33  C   UNL A   1      42.295  23.108  26.278  1.00  0.00     0.010 A 
ATOM     34  C   UNL A   1      42.157  23.378  27.648  1.00  0.00    -0.014 A 
BRANCH  34  35
ATOM     35  C   UNL A   1      42.587  24.694  28.186  1.00  0.00     0.031 A 
ATOM     36  C   UNL A   1      41.573  25.781  28.425  1.00  0.00     0.074 A 
ATOM     37  C   UNL A   1      43.892  24.934  28.411  1.00  0.00     0.049 A 
ATOM     38  N   UNL A   1      41.759  27.016  28.819  1.00  0.00    -0.248 NA
ATOM     39  C   UNL A   1      40.165  25.441  28.164  1.00  0.00     0.031 C 
ATOM     40  C   UNL A   1      44.979  23.981  28.184  1.00  0.00     0.029 A 
ATOM     41  N   UNL A   1      44.528  26.061  28.870  1.00  0.00    -0.354 N 
ATOM     42  C   UNL A   1      40.501  27.603  28.831  1.00  0.00     0.074 A 
ATOM     43  C   UNL A   1      39.563  26.604  28.367  1.00  0.00     0.031 C 
ATOM     44  C   UNL A   1      46.146  24.557  28.520  1.00  0.00     0.029 A 
ATOM     45  C   UNL A   1      45.892  25.928  28.954  1.00  0.00     0.049 A 
ATOM     46  H   UNL A   1      44.051  26.886  29.116  1.00  0.00     0.167 HD
ATOM     47  C   UNL A   1      40.153  28.856  29.214  1.00  0.00     0.037 A 
ATOM     48  C   UNL A   1      46.834  26.813  29.332  1.00  0.00     0.037 A 
ATOM     49  C   UNL A   1      41.080  29.840  29.709  1.00  0.00     0.049 A 
ATOM     50  C   UNL A   1      46.423  28.193  29.761  1.00  0.00     0.074 A 
ATOM     51  C   UNL A   1      40.814  31.116  30.178  1.00  0.00     0.029 A 
ATOM     52  N   UNL A   1      42.450  29.658  29.802  1.00  0.00    -0.354 N 
ATOM     53  N   UNL A   1      45.222  28.717  29.820  1.00  0.00    -0.248 NA
ATOM     54  C   UNL A   1      47.497  29.105  30.181  1.00  0.00     0.031 C 
ATOM     55  C   UNL A   1      42.028  31.716  30.524  1.00  0.00     0.029 A 
ATOM     56  C   UNL A   1      43.046  30.802  30.307  1.00  0.00     0.049 A 
ATOM     57  H   UNL A   1      42.929  28.836  29.546  1.00  0.00     0.167 HD
ATOM     58  C   UNL A   1      45.393  30.007  30.305  1.00  0.00     0.074 A 
ATOM     59  C   UNL A   1      46.812  30.183  30.536  1.00  0.00     0.031 C 
ATOM     60  C   UNL A   1      44.459  30.959  30.538  1.00  0.00     0.037 A 
BRANCH  47  61
ATOM     61  C   UNL A   1      38.704  29.231  29.115  1.00  0.00     0.057 A 
ATOM     62  C   UNL A   1      37.852  29.183  30.226  1.00  0.00     0.134 A 
ATOM     63  C   UNL A   1      38.161  29.677  27.903  1.00  0.00     0.134 A 
ATOM     64  F   UNL A   1      38.307  28.755  31.414  1.00  0.00    -0.206 F 
ATOM     65  C   UNL A   1      36.506  29.540  30.131  1.00  0.00     0.040 A 
ATOM     66  C   UNL A   1      36.823  30.060  27.800  1.00  0.00     0.040 A 
ATOM     67  F   UNL A   1      38.923  29.752  26.802  1.00  0.00    -0.206 F 
ATOM     68  C   UNL A   1      35.990  29.986  28.915  1.00  0.00     0.006 A 
ENDBRANCH  47  61
BRANCH  48  69
ATOM     69  C   UNL A   1      48.262  26.412  29.345  1.00  0.00     0.057 A 
ATOM     70  C   UNL A   1      49.089  26.661  28.244  1.00  0.00     0.134 A 
ATOM     71  C   UNL A   1      48.833  25.771  30.451  1.00  0.00     0.134 A 
ATOM     72  F   UNL A   1      48.592  27.255  27.148  1.00  0.00    -0.206 F 
ATOM     73  C   UNL A   1      50.430  26.273  28.233  1.00  0.00     0.040 A 
ATOM     74  C   UNL A   1      50.177  25.398  30.463  1.00  0.00     0.040 A 
ATOM     75  F   UNL A   1      48.093  25.509  31.538  1.00  0.00    -0.206 F 
ATOM     76  C   UNL A   1      50.978  25.644  29.349  1.00  0.00     0.006 A 
ENDBRANCH  48  69
BRANCH  60  77
ATOM     77  C   UNL A   1      44.937  32.264  31.099  1.00  0.00     0.057 A 
ATOM     78  C   UNL A   1      45.057  32.477  32.477  1.00  0.00     0.134 A 
ATOM     79  C   UNL A   1      45.317  33.311  30.246  1.00  0.00     0.134 A 
ATOM     80  F   UNL A   1      44.697  31.520  33.346  1.00  0.00    -0.206 F 
ATOM     81  C   UNL A   1      45.520  33.690  32.989  1.00  0.00     0.040 A 
ATOM     82  C   UNL A   1      45.802  34.519  30.745  1.00  0.00     0.040 A 
ATOM     83  F   UNL A   1      45.231  33.167  28.915  1.00  0.00    -0.206 F 
ATOM     84  C   UNL A   1      45.900  34.713  32.123  1.00  0.00     0.006 A 
ENDBRANCH  60  77
ENDBRANCH  34  35
ENDBRANCH  26  29
ENDBRANCH  24  25
ENDBRANCH  23  24
ENDBRANCH   1  23
TORSDOF 14
ENDMDL
