MODEL 1
REMARK VINA RESULT:     -11.4      0.000      0.000
REMARK SMILES Cc1nsc(N(C)C(=O)[C@H]2CCOC2)c1C(=O)NCCCNC(=O)c1ccc(-c2c3nc(c(-c4c(F)cccc4F)c4ccc([nH]4)c(-c4c(F)cccc4F)c4nc(c(-c5c(F)cccc5F)c5ccc2[nH]5)C=C4)C=C3)cc1
REMARK SMILES IDX 19 1 18 2 16 3 17 4 15 6 1 7 2 8 3 9 4 10 5 11 6 12 7 13
REMARK SMILES IDX 8 14 9 15 10 16 11 17 14 18 12 19 13 20 20 21 21 22 22 23
REMARK SMILES IDX 23 24 24 26 25 27 26 28 78 29 27 30 77 31 28 32 29 33 30 34
REMARK SMILES IDX 71 35 31 36 76 37 70 38 72 39 32 40 75 41 69 42 68 43 33 45
REMARK SMILES IDX 59 46 42 47 58 48 43 49 46 50 57 51 73 52 44 53 45 54 56 56
REMARK SMILES IDX 74 57 47 58 34 59 35 60 40 61 36 62 37 63 39 64 41 65 38 66
REMARK SMILES IDX 60 67 61 68 66 69 62 70 63 71 65 72 67 73 64 74 48 75 49 76
REMARK SMILES IDX 54 77 50 78 51 79 53 80 55 81 52 82
REMARK H PARENT 18 5 22 25 72 44 46 55
REMARK Flexibility Score: inf
ROOT
ATOM      1  C   UNL A   1      33.108  28.834  26.919  1.00  0.00     0.118 C 
ENDROOT
BRANCH   1   2
ATOM      2  N   UNL A   1      31.866  28.107  26.715  1.00  0.00    -0.352 N 
ATOM      3  C   UNL A   1      31.741  26.828  26.217  1.00  0.00     0.256 C 
ATOM      4  O   UNL A   1      31.286  25.995  27.008  1.00  0.00    -0.269 OA
ATOM      5  H   UNL A   1      31.033  28.575  26.955  1.00  0.00     0.163 HD
BRANCH   3   6
ATOM      6  C   UNL A   1      32.005  26.478  24.808  1.00  0.00     0.097 A 
ATOM      7  C   UNL A   1      34.373  25.179  24.657  1.00  0.00     0.069 C 
ATOM      8  C   UNL A   1      33.090  25.731  24.158  1.00  0.00     0.066 A 
ATOM      9  N   UNL A   1      32.904  25.418  22.875  1.00  0.00    -0.195 NA
ATOM     10  S   UNL A   1      31.500  26.039  22.350  1.00  0.00    -0.017 S 
ATOM     11  C   UNL A   1      31.067  26.815  23.808  1.00  0.00     0.131 A 
BRANCH  11  12
ATOM     12  N   UNL A   1      29.905  27.626  23.773  1.00  0.00    -0.305 N 
ATOM     13  C   UNL A   1      28.553  27.073  23.641  1.00  0.00     0.154 C 
BRANCH  12  14
ATOM     14  C   UNL A   1      30.100  29.016  23.651  1.00  0.00     0.232 C 
ATOM     15  O   UNL A   1      31.135  29.588  24.011  1.00  0.00    -0.274 OA
BRANCH  14  16
ATOM     16  C   UNL A   1      28.983  29.808  22.969  1.00  0.00     0.107 C 
ATOM     17  C   UNL A   1      28.652  31.118  23.657  1.00  0.00     0.044 C 
ATOM     18  C   UNL A   1      29.396  30.269  21.582  1.00  0.00     0.173 C 
ATOM     19  C   UNL A   1      28.121  31.970  22.527  1.00  0.00     0.161 C 
ATOM     20  O   UNL A   1      28.787  31.543  21.336  1.00  0.00    -0.381 OA
ENDBRANCH  14  16
ENDBRANCH  12  14
ENDBRANCH  11  12
ENDBRANCH   3   6
ENDBRANCH   1   2
BRANCH   1  21
ATOM     21  C   UNL A   1      32.871  30.298  27.317  1.00  0.00     0.042 C 
BRANCH  21  22
ATOM     22  C   UNL A   1      34.145  31.093  27.484  1.00  0.00     0.118 C 
BRANCH  22  23
ATOM     23  N   UNL A   1      34.151  31.874  28.724  1.00  0.00    -0.352 N 
ATOM     24  C   UNL A   1      35.047  31.810  29.777  1.00  0.00     0.251 C 
ATOM     25  H   UNL A   1      33.423  32.530  28.820  1.00  0.00     0.163 HD
ATOM     26  O   UNL A   1      34.769  32.253  30.874  1.00  0.00    -0.269 OA
BRANCH  24  27
ATOM     27  C   UNL A   1      36.350  31.171  29.527  1.00  0.00     0.039 A 
ATOM     28  C   UNL A   1      37.534  31.910  29.505  1.00  0.00     0.014 A 
ATOM     29  C   UNL A   1      36.365  29.788  29.414  1.00  0.00     0.014 A 
ATOM     30  C   UNL A   1      38.742  31.220  29.464  1.00  0.00     0.010 A 
ATOM     31  C   UNL A   1      37.539  29.118  29.608  1.00  0.00     0.010 A 
ATOM     32  C   UNL A   1      38.736  29.818  29.550  1.00  0.00    -0.014 A 
BRANCH  32  33
ATOM     33  C   UNL A   1      39.974  29.059  29.656  1.00  0.00     0.031 A 
ATOM     34  C   UNL A   1      40.486  28.885  31.041  1.00  0.00     0.074 A 
ATOM     35  C   UNL A   1      40.526  28.400  28.615  1.00  0.00     0.049 A 
ATOM     36  N   UNL A   1      41.532  29.434  31.561  1.00  0.00    -0.248 NA
ATOM     37  C   UNL A   1      39.671  28.127  32.003  1.00  0.00     0.031 C 
ATOM     38  C   UNL A   1      40.007  28.200  27.254  1.00  0.00     0.029 A 
ATOM     39  N   UNL A   1      41.672  27.673  28.598  1.00  0.00    -0.354 N 
ATOM     40  C   UNL A   1      41.630  28.933  32.856  1.00  0.00     0.074 A 
ATOM     41  C   UNL A   1      40.375  28.283  33.127  1.00  0.00     0.031 C 
ATOM     42  C   UNL A   1      40.707  27.221  26.640  1.00  0.00     0.029 A 
ATOM     43  C   UNL A   1      41.833  26.867  27.478  1.00  0.00     0.049 A 
ATOM     44  H   UNL A   1      42.338  27.716  29.322  1.00  0.00     0.167 HD
ATOM     45  C   UNL A   1      42.829  28.900  33.503  1.00  0.00     0.037 A 
ATOM     46  C   UNL A   1      42.823  25.966  27.276  1.00  0.00     0.037 A 
ATOM     47  C   UNL A   1      43.794  29.753  32.850  1.00  0.00     0.049 A 
ATOM     48  C   UNL A   1      43.937  26.335  28.186  1.00  0.00     0.074 A 
ATOM     49  C   UNL A   1      43.842  31.098  32.536  1.00  0.00     0.029 A 
ATOM     50  N   UNL A   1      44.743  29.157  32.052  1.00  0.00    -0.354 N 
ATOM     51  N   UNL A   1      44.655  27.415  28.044  1.00  0.00    -0.248 NA
ATOM     52  C   UNL A   1      43.935  25.756  29.521  1.00  0.00     0.031 C 
ATOM     53  C   UNL A   1      44.419  31.148  31.231  1.00  0.00     0.029 A 
ATOM     54  C   UNL A   1      44.758  29.844  30.865  1.00  0.00     0.049 A 
ATOM     55  H   UNL A   1      45.304  28.384  32.289  1.00  0.00     0.167 HD
ATOM     56  C   UNL A   1      44.835  27.892  29.334  1.00  0.00     0.074 A 
ATOM     57  C   UNL A   1      44.441  26.785  30.207  1.00  0.00     0.031 C 
ATOM     58  C   UNL A   1      45.000  29.224  29.584  1.00  0.00     0.037 A 
BRANCH  45  59
ATOM     59  C   UNL A   1      43.248  27.830  34.483  1.00  0.00     0.057 A 
ATOM     60  C   UNL A   1      43.531  28.194  35.813  1.00  0.00     0.134 A 
ATOM     61  C   UNL A   1      43.673  26.537  34.117  1.00  0.00     0.134 A 
ATOM     62  F   UNL A   1      43.178  29.399  36.287  1.00  0.00    -0.206 F 
ATOM     63  C   UNL A   1      44.265  27.374  36.679  1.00  0.00     0.040 A 
ATOM     64  C   UNL A   1      44.362  25.690  34.990  1.00  0.00     0.040 A 
ATOM     65  F   UNL A   1      43.542  26.059  32.874  1.00  0.00    -0.206 F 
ATOM     66  C   UNL A   1      44.694  26.121  36.263  1.00  0.00     0.006 A 
ENDBRANCH  45  59
BRANCH  46  67
ATOM     67  C   UNL A   1      42.772  24.668  26.566  1.00  0.00     0.057 A 
ATOM     68  C   UNL A   1      43.494  24.471  25.380  1.00  0.00     0.134 A 
ATOM     69  C   UNL A   1      42.257  23.511  27.175  1.00  0.00     0.134 A 
ATOM     70  F   UNL A   1      44.049  25.511  24.740  1.00  0.00    -0.206 F 
ATOM     71  C   UNL A   1      43.730  23.194  24.855  1.00  0.00     0.040 A 
ATOM     72  C   UNL A   1      42.480  22.231  26.657  1.00  0.00     0.040 A 
ATOM     73  F   UNL A   1      41.597  23.574  28.341  1.00  0.00    -0.206 F 
ATOM     74  C   UNL A   1      43.236  22.067  25.504  1.00  0.00     0.006 A 
ENDBRANCH  46  67
BRANCH  58  75
ATOM     75  C   UNL A   1      45.203  30.147  28.412  1.00  0.00     0.057 A 
ATOM     76  C   UNL A   1      44.164  30.794  27.726  1.00  0.00     0.134 A 
ATOM     77  C   UNL A   1      46.507  30.517  28.066  1.00  0.00     0.134 A 
ATOM     78  F   UNL A   1      42.882  30.588  28.051  1.00  0.00    -0.206 F 
ATOM     79  C   UNL A   1      44.411  31.731  26.716  1.00  0.00     0.040 A 
ATOM     80  C   UNL A   1      46.768  31.475  27.082  1.00  0.00     0.040 A 
ATOM     81  F   UNL A   1      47.555  29.986  28.716  1.00  0.00    -0.206 F 
ATOM     82  C   UNL A   1      45.718  32.079  26.396  1.00  0.00     0.006 A 
ENDBRANCH  58  75
ENDBRANCH  32  33
ENDBRANCH  24  27
ENDBRANCH  22  23
ENDBRANCH  21  22
ENDBRANCH   1  21
TORSDOF 13
ENDMDL
MODEL 2
REMARK VINA RESULT:     -11.3      2.847      7.145
REMARK SMILES Cc1nsc(N(C)C(=O)[C@H]2CCOC2)c1C(=O)NCCCNC(=O)c1ccc(-c2c3nc(c(-c4c(F)cccc4F)c4ccc([nH]4)c(-c4c(F)cccc4F)c4nc(c(-c5c(F)cccc5F)c5ccc2[nH]5)C=C4)C=C3)cc1
REMARK SMILES IDX 19 1 18 2 16 3 17 4 15 6 1 7 2 8 3 9 4 10 5 11 6 12 7 13
REMARK SMILES IDX 8 14 9 15 10 16 11 17 14 18 12 19 13 20 20 21 21 22 22 23
REMARK SMILES IDX 23 24 24 26 25 27 26 28 78 29 27 30 77 31 28 32 29 33 30 34
REMARK SMILES IDX 71 35 31 36 76 37 70 38 72 39 32 40 75 41 69 42 68 43 33 45
REMARK SMILES IDX 59 46 42 47 58 48 43 49 46 50 57 51 73 52 44 53 45 54 56 56
REMARK SMILES IDX 74 57 47 58 34 59 35 60 40 61 36 62 37 63 39 64 41 65 38 66
REMARK SMILES IDX 60 67 61 68 66 69 62 70 63 71 65 72 67 73 64 74 48 75 49 76
REMARK SMILES IDX 54 77 50 78 51 79 53 80 55 81 52 82
REMARK H PARENT 18 5 22 25 72 44 46 55
REMARK Flexibility Score: inf
ROOT
ATOM      1  C   UNL A   1      33.822  28.497  25.811  1.00  0.00     0.118 C 
ENDROOT
BRANCH   1   2
ATOM      2  N   UNL A   1      33.388  27.111  25.877  1.00  0.00    -0.352 N 
ATOM      3  C   UNL A   1      33.803  26.086  25.054  1.00  0.00     0.256 C 
ATOM      4  O   UNL A   1      34.439  25.185  25.612  1.00  0.00    -0.269 OA
ATOM      5  H   UNL A   1      32.733  26.884  26.576  1.00  0.00     0.163 HD
BRANCH   3   6
ATOM      6  C   UNL A   1      33.422  25.984  23.632  1.00  0.00     0.097 A 
ATOM      7  C   UNL A   1      34.140  28.264  22.367  1.00  0.00     0.069 C 
ATOM      8  C   UNL A   1      33.617  26.881  22.486  1.00  0.00     0.066 A 
ATOM      9  N   UNL A   1      33.328  26.376  21.286  1.00  0.00    -0.195 NA
ATOM     10  S   UNL A   1      32.751  24.868  21.442  1.00  0.00    -0.017 S 
ATOM     11  C   UNL A   1      32.807  24.809  23.148  1.00  0.00     0.131 A 
BRANCH  11  12
ATOM     12  N   UNL A   1      32.252  23.657  23.760  1.00  0.00    -0.305 N 
ATOM     13  C   UNL A   1      30.970  23.675  24.475  1.00  0.00     0.154 C 
BRANCH  12  14
ATOM     14  C   UNL A   1      33.079  22.520  23.850  1.00  0.00     0.232 C 
ATOM     15  O   UNL A   1      34.271  22.523  23.526  1.00  0.00    -0.274 OA
BRANCH  14  16
ATOM     16  C   UNL A   1      32.451  21.261  24.451  1.00  0.00     0.107 C 
ATOM     17  C   UNL A   1      32.528  20.046  23.547  1.00  0.00     0.044 C 
ATOM     18  C   UNL A   1      33.208  20.796  25.682  1.00  0.00     0.173 C 
ATOM     19  C   UNL A   1      32.527  18.895  24.527  1.00  0.00     0.161 C 
ATOM     20  O   UNL A   1      33.159  19.364  25.721  1.00  0.00    -0.381 OA
ENDBRANCH  14  16
ENDBRANCH  12  14
ENDBRANCH  11  12
ENDBRANCH   3   6
ENDBRANCH   1   2
BRANCH   1  21
ATOM     21  C   UNL A   1      33.952  29.136  27.202  1.00  0.00     0.042 C 
BRANCH  21  22
ATOM     22  C   UNL A   1      35.369  29.519  27.559  1.00  0.00     0.118 C 
BRANCH  22  23
ATOM     23  N   UNL A   1      35.491  29.942  28.957  1.00  0.00    -0.352 N 
ATOM     24  C   UNL A   1      36.470  29.604  29.876  1.00  0.00     0.251 C 
ATOM     25  H   UNL A   1      34.785  30.545  29.285  1.00  0.00     0.163 HD
ATOM     26  O   UNL A   1      36.291  29.737  31.071  1.00  0.00    -0.269 OA
BRANCH  24  27
ATOM     27  C   UNL A   1      37.737  29.061  29.356  1.00  0.00     0.039 A 
ATOM     28  C   UNL A   1      38.372  29.623  28.248  1.00  0.00     0.014 A 
ATOM     29  C   UNL A   1      38.324  28.029  30.074  1.00  0.00     0.014 A 
ATOM     30  C   UNL A   1      39.658  29.191  27.936  1.00  0.00     0.010 A 
ATOM     31  C   UNL A   1      39.656  27.778  29.908  1.00  0.00     0.010 A 
ATOM     32  C   UNL A   1      40.308  28.288  28.794  1.00  0.00    -0.014 A 
BRANCH  32  33
ATOM     33  C   UNL A   1      41.700  27.918  28.590  1.00  0.00     0.031 A 
ATOM     34  C   UNL A   1      41.910  26.677  27.799  1.00  0.00     0.074 A 
ATOM     35  C   UNL A   1      42.733  28.721  28.924  1.00  0.00     0.049 A 
ATOM     36  N   UNL A   1      42.342  25.539  28.230  1.00  0.00    -0.248 NA
ATOM     37  C   UNL A   1      41.461  26.651  26.398  1.00  0.00     0.031 C 
ATOM     38  C   UNL A   1      42.718  30.102  29.427  1.00  0.00     0.029 A 
ATOM     39  N   UNL A   1      44.061  28.477  28.787  1.00  0.00    -0.354 N 
ATOM     40  C   UNL A   1      42.416  24.705  27.119  1.00  0.00     0.074 A 
ATOM     41  C   UNL A   1      41.700  25.379  26.067  1.00  0.00     0.031 C 
ATOM     42  C   UNL A   1      43.953  30.639  29.320  1.00  0.00     0.029 A 
ATOM     43  C   UNL A   1      44.876  29.593  28.931  1.00  0.00     0.049 A 
ATOM     44  H   UNL A   1      44.419  27.578  28.602  1.00  0.00     0.167 HD
ATOM     45  C   UNL A   1      43.262  23.637  27.102  1.00  0.00     0.037 A 
ATOM     46  C   UNL A   1      46.214  29.639  28.728  1.00  0.00     0.037 A 
ATOM     47  C   UNL A   1      43.713  23.314  28.435  1.00  0.00     0.049 A 
ATOM     48  C   UNL A   1      46.714  28.244  28.817  1.00  0.00     0.074 A 
ATOM     49  C   UNL A   1      43.082  22.972  29.616  1.00  0.00     0.029 A 
ATOM     50  N   UNL A   1      44.979  23.710  28.799  1.00  0.00    -0.354 N 
ATOM     51  N   UNL A   1      46.731  27.554  29.924  1.00  0.00    -0.248 NA
ATOM     52  C   UNL A   1      46.742  27.460  27.590  1.00  0.00     0.031 C 
ATOM     53  C   UNL A   1      43.803  23.672  30.631  1.00  0.00     0.029 A 
ATOM     54  C   UNL A   1      44.870  24.329  30.018  1.00  0.00     0.049 A 
ATOM     55  H   UNL A   1      45.806  23.576  28.282  1.00  0.00     0.167 HD
ATOM     56  C   UNL A   1      46.336  26.278  29.551  1.00  0.00     0.074 A 
ATOM     57  C   UNL A   1      46.436  26.259  28.091  1.00  0.00     0.031 C 
ATOM     58  C   UNL A   1      45.683  25.452  30.421  1.00  0.00     0.037 A 
BRANCH  45  59
ATOM     59  C   UNL A   1      43.976  23.125  25.874  1.00  0.00     0.057 A 
ATOM     60  C   UNL A   1      43.937  21.748  25.586  1.00  0.00     0.134 A 
ATOM     61  C   UNL A   1      44.934  23.858  25.145  1.00  0.00     0.134 A 
ATOM     62  F   UNL A   1      43.070  20.937  26.211  1.00  0.00    -0.206 F 
ATOM     63  C   UNL A   1      44.846  21.134  24.714  1.00  0.00     0.040 A 
ATOM     64  C   UNL A   1      45.811  23.264  24.234  1.00  0.00     0.040 A 
ATOM     65  F   UNL A   1      45.147  25.164  25.344  1.00  0.00    -0.206 F 
ATOM     66  C   UNL A   1      45.796  21.892  24.043  1.00  0.00     0.006 A 
ENDBRANCH  45  59
BRANCH  46  67
ATOM     67  C   UNL A   1      47.039  30.748  28.199  1.00  0.00     0.057 A 
ATOM     68  C   UNL A   1      46.796  31.277  26.923  1.00  0.00     0.134 A 
ATOM     69  C   UNL A   1      47.884  31.504  29.030  1.00  0.00     0.134 A 
ATOM     70  F   UNL A   1      45.981  30.643  26.067  1.00  0.00    -0.206 F 
ATOM     71  C   UNL A   1      47.325  32.508  26.514  1.00  0.00     0.040 A 
ATOM     72  C   UNL A   1      48.423  32.731  28.631  1.00  0.00     0.040 A 
ATOM     73  F   UNL A   1      48.142  31.123  30.289  1.00  0.00    -0.206 F 
ATOM     74  C   UNL A   1      48.129  33.247  27.375  1.00  0.00     0.006 A 
ENDBRANCH  46  67
BRANCH  58  75
ATOM     75  C   UNL A   1      45.594  25.869  31.866  1.00  0.00     0.057 A 
ATOM     76  C   UNL A   1      46.638  25.730  32.794  1.00  0.00     0.134 A 
ATOM     77  C   UNL A   1      44.467  26.579  32.292  1.00  0.00     0.134 A 
ATOM     78  F   UNL A   1      47.798  25.157  32.454  1.00  0.00    -0.206 F 
ATOM     79  C   UNL A   1      46.546  26.237  34.095  1.00  0.00     0.040 A 
ATOM     80  C   UNL A   1      44.376  27.120  33.578  1.00  0.00     0.040 A 
ATOM     81  F   UNL A   1      43.450  26.805  31.445  1.00  0.00    -0.206 F 
ATOM     82  C   UNL A   1      45.415  26.941  34.488  1.00  0.00     0.006 A 
ENDBRANCH  58  75
ENDBRANCH  32  33
ENDBRANCH  24  27
ENDBRANCH  22  23
ENDBRANCH  21  22
ENDBRANCH   1  21
TORSDOF 13
ENDMDL
MODEL 3
REMARK VINA RESULT:     -11.2      3.932      8.740
REMARK SMILES Cc1nsc(N(C)C(=O)[C@H]2CCOC2)c1C(=O)NCCCNC(=O)c1ccc(-c2c3nc(c(-c4c(F)cccc4F)c4ccc([nH]4)c(-c4c(F)cccc4F)c4nc(c(-c5c(F)cccc5F)c5ccc2[nH]5)C=C4)C=C3)cc1
REMARK SMILES IDX 19 1 18 2 16 3 17 4 15 6 1 7 2 8 3 9 4 10 5 11 6 12 7 13
REMARK SMILES IDX 8 14 9 15 10 16 11 17 14 18 12 19 13 20 20 21 21 22 22 23
REMARK SMILES IDX 23 24 24 26 25 27 26 28 78 29 27 30 77 31 28 32 29 33 30 34
REMARK SMILES IDX 71 35 31 36 76 37 70 38 72 39 32 40 75 41 69 42 68 43 33 45
REMARK SMILES IDX 59 46 42 47 58 48 43 49 46 50 57 51 73 52 44 53 45 54 56 56
REMARK SMILES IDX 74 57 47 58 34 59 35 60 40 61 36 62 37 63 39 64 41 65 38 66
REMARK SMILES IDX 60 67 61 68 66 69 62 70 63 71 65 72 67 73 64 74 48 75 49 76
REMARK SMILES IDX 54 77 50 78 51 79 53 80 55 81 52 82
REMARK H PARENT 18 5 22 25 72 44 46 55
REMARK Flexibility Score: inf
ROOT
ATOM      1  C   UNL A   1      36.993  21.995  25.697  1.00  0.00     0.118 C 
ENDROOT
BRANCH   1   2
ATOM      2  N   UNL A   1      36.218  21.725  24.498  1.00  0.00    -0.352 N 
ATOM      3  C   UNL A   1      35.343  22.592  23.879  1.00  0.00     0.256 C 
ATOM      4  O   UNL A   1      35.672  22.954  22.744  1.00  0.00    -0.269 OA
ATOM      5  H   UNL A   1      36.328  20.836  24.089  1.00  0.00     0.163 HD
BRANCH   3   6
ATOM      6  C   UNL A   1      34.040  22.978  24.456  1.00  0.00     0.097 A 
ATOM      7  C   UNL A   1      34.273  25.425  25.584  1.00  0.00     0.069 C 
ATOM      8  C   UNL A   1      33.575  24.200  25.126  1.00  0.00     0.066 A 
ATOM      9  N   UNL A   1      32.261  24.292  25.337  1.00  0.00    -0.195 NA
ATOM     10  S   UNL A   1      31.522  22.938  24.835  1.00  0.00    -0.017 S 
ATOM     11  C   UNL A   1      32.932  22.112  24.340  1.00  0.00     0.131 A 
BRANCH  11  12
ATOM     12  N   UNL A   1      32.764  20.767  23.923  1.00  0.00    -0.305 N 
ATOM     13  C   UNL A   1      32.155  20.403  22.640  1.00  0.00     0.154 C 
BRANCH  12  14
ATOM     14  C   UNL A   1      33.009  19.766  24.883  1.00  0.00     0.232 C 
ATOM     15  O   UNL A   1      33.266  20.011  26.067  1.00  0.00    -0.274 OA
BRANCH  14  16
ATOM     16  C   UNL A   1      32.866  18.317  24.414  1.00  0.00     0.107 C 
ATOM     17  C   UNL A   1      34.153  17.715  23.882  1.00  0.00     0.044 C 
ATOM     18  C   UNL A   1      32.531  17.389  25.569  1.00  0.00     0.173 C 
ATOM     19  C   UNL A   1      33.973  16.239  24.152  1.00  0.00     0.161 C 
ATOM     20  O   UNL A   1      33.160  16.125  25.323  1.00  0.00    -0.381 OA
ENDBRANCH  14  16
ENDBRANCH  12  14
ENDBRANCH  11  12
ENDBRANCH   3   6
ENDBRANCH   1   2
BRANCH   1  21
ATOM     21  C   UNL A   1      38.444  22.383  25.381  1.00  0.00     0.042 C 
BRANCH  21  22
ATOM     22  C   UNL A   1      39.412  22.064  26.497  1.00  0.00     0.118 C 
BRANCH  22  23
ATOM     23  N   UNL A   1      40.802  22.044  26.035  1.00  0.00    -0.352 N 
ATOM     24  C   UNL A   1      41.722  23.079  26.027  1.00  0.00     0.251 C 
ATOM     25  H   UNL A   1      41.124  21.182  25.685  1.00  0.00     0.163 HD
ATOM     26  O   UNL A   1      42.714  23.040  25.327  1.00  0.00    -0.269 OA
BRANCH  24  27
ATOM     27  C   UNL A   1      41.449  24.242  26.889  1.00  0.00     0.039 A 
ATOM     28  C   UNL A   1      42.131  24.436  28.091  1.00  0.00     0.014 A 
ATOM     29  C   UNL A   1      40.557  25.190  26.408  1.00  0.00     0.014 A 
ATOM     30  C   UNL A   1      41.969  25.650  28.752  1.00  0.00     0.010 A 
ATOM     31  C   UNL A   1      40.582  26.451  26.931  1.00  0.00     0.010 A 
ATOM     32  C   UNL A   1      41.216  26.669  28.145  1.00  0.00    -0.014 A 
BRANCH  32  33
ATOM     33  C   UNL A   1      41.137  28.002  28.725  1.00  0.00     0.031 A 
ATOM     34  C   UNL A   1      42.213  28.936  28.301  1.00  0.00     0.074 A 
ATOM     35  C   UNL A   1      40.077  28.430  29.444  1.00  0.00     0.049 A 
ATOM     36  N   UNL A   1      43.187  29.382  29.021  1.00  0.00    -0.248 NA
ATOM     37  C   UNL A   1      42.300  29.311  26.881  1.00  0.00     0.031 C 
ATOM     38  C   UNL A   1      38.794  27.763  29.705  1.00  0.00     0.029 A 
ATOM     39  N   UNL A   1      39.900  29.640  30.033  1.00  0.00    -0.354 N 
ATOM     40  C   UNL A   1      43.900  30.258  28.208  1.00  0.00     0.074 A 
ATOM     41  C   UNL A   1      43.420  30.038  26.868  1.00  0.00     0.031 C 
ATOM     42  C   UNL A   1      37.903  28.660  30.183  1.00  0.00     0.029 A 
ATOM     43  C   UNL A   1      38.600  29.903  30.443  1.00  0.00     0.049 A 
ATOM     44  H   UNL A   1      40.637  30.281  30.162  1.00  0.00     0.167 HD
ATOM     45  C   UNL A   1      44.660  31.252  28.748  1.00  0.00     0.037 A 
ATOM     46  C   UNL A   1      38.139  31.073  30.947  1.00  0.00     0.037 A 
ATOM     47  C   UNL A   1      44.901  31.014  30.152  1.00  0.00     0.049 A 
ATOM     48  C   UNL A   1      39.320  31.826  31.439  1.00  0.00     0.074 A 
ATOM     49  C   UNL A   1      45.478  29.987  30.876  1.00  0.00     0.029 A 
ATOM     50  N   UNL A   1      44.159  31.730  31.062  1.00  0.00    -0.354 N 
ATOM     51  N   UNL A   1      40.030  31.460  32.471  1.00  0.00    -0.248 NA
ATOM     52  C   UNL A   1      39.994  32.710  30.499  1.00  0.00     0.031 C 
ATOM     53  C   UNL A   1      44.647  29.840  32.027  1.00  0.00     0.029 A 
ATOM     54  C   UNL A   1      43.667  30.831  31.974  1.00  0.00     0.049 A 
ATOM     55  H   UNL A   1      44.009  32.703  31.059  1.00  0.00     0.167 HD
ATOM     56  C   UNL A   1      41.345  31.699  32.099  1.00  0.00     0.074 A 
ATOM     57  C   UNL A   1      41.255  32.546  30.909  1.00  0.00     0.031 C 
ATOM     58  C   UNL A   1      42.374  30.956  32.603  1.00  0.00     0.037 A 
BRANCH  45  59
ATOM     59  C   UNL A   1      44.867  32.612  28.125  1.00  0.00     0.057 A 
ATOM     60  C   UNL A   1      43.784  33.509  28.070  1.00  0.00     0.134 A 
ATOM     61  C   UNL A   1      45.970  32.961  27.321  1.00  0.00     0.134 A 
ATOM     62  F   UNL A   1      42.671  33.292  28.789  1.00  0.00    -0.206 F 
ATOM     63  C   UNL A   1      43.762  34.613  27.208  1.00  0.00     0.040 A 
ATOM     64  C   UNL A   1      45.979  34.089  26.495  1.00  0.00     0.040 A 
ATOM     65  F   UNL A   1      47.053  32.185  27.206  1.00  0.00    -0.206 F 
ATOM     66  C   UNL A   1      44.860  34.899  26.407  1.00  0.00     0.006 A 
ENDBRANCH  45  59
BRANCH  46  67
ATOM     67  C   UNL A   1      36.807  31.697  30.789  1.00  0.00     0.057 A 
ATOM     68  C   UNL A   1      35.956  31.860  31.891  1.00  0.00     0.134 A 
ATOM     69  C   UNL A   1      36.454  32.404  29.626  1.00  0.00     0.134 A 
ATOM     70  F   UNL A   1      36.223  31.248  33.054  1.00  0.00    -0.206 F 
ATOM     71  C   UNL A   1      34.845  32.713  31.855  1.00  0.00     0.040 A 
ATOM     72  C   UNL A   1      35.345  33.254  29.576  1.00  0.00     0.040 A 
ATOM     73  F   UNL A   1      37.224  32.366  28.530  1.00  0.00    -0.206 F 
ATOM     74  C   UNL A   1      34.546  33.426  30.699  1.00  0.00     0.006 A 
ENDBRANCH  46  67
BRANCH  58  75
ATOM     75  C   UNL A   1      42.079  30.013  33.740  1.00  0.00     0.057 A 
ATOM     76  C   UNL A   1      41.694  28.674  33.576  1.00  0.00     0.134 A 
ATOM     77  C   UNL A   1      42.346  30.432  35.047  1.00  0.00     0.134 A 
ATOM     78  F   UNL A   1      41.513  28.146  32.360  1.00  0.00    -0.206 F 
ATOM     79  C   UNL A   1      41.542  27.807  34.664  1.00  0.00     0.040 A 
ATOM     80  C   UNL A   1      42.231  29.568  36.140  1.00  0.00     0.040 A 
ATOM     81  F   UNL A   1      42.775  31.683  35.282  1.00  0.00    -0.206 F 
ATOM     82  C   UNL A   1      41.818  28.252  35.951  1.00  0.00     0.006 A 
ENDBRANCH  58  75
ENDBRANCH  32  33
ENDBRANCH  24  27
ENDBRANCH  22  23
ENDBRANCH  21  22
ENDBRANCH   1  21
TORSDOF 13
ENDMDL
