MODEL 1
REMARK VINA RESULT:     -13.1      0.000      0.000
REMARK SMILES O=C(NCCCNC(=O)[C@H]1[C@H]2CC[C@H](C2)[C@@H]1C(=O)N[C@H]1CCCc2ccccc21)c1ccc(-c2c3nc(c(-c4c(F)cccc4F)c4ccc([nH]4)c(-c4c(F)cccc4F)c4nc(c(-c5c(F)cccc5F)c5ccc2[nH]5)C=C4)C=C3)cc1
REMARK SMILES IDX 5 1 4 2 3 3 1 4 2 5 30 7 31 8 83 9 32 10 82 11 33 12 34 13
REMARK SMILES IDX 35 14 76 15 36 16 81 17 75 18 77 19 37 20 80 21 74 22 73 23
REMARK SMILES IDX 38 25 64 26 47 27 63 28 48 29 51 30 62 31 78 32 49 33 50 34
REMARK SMILES IDX 61 36 79 37 52 38 39 39 40 40 45 41 41 42 42 43 44 44 46 45
REMARK SMILES IDX 43 46 65 47 66 48 71 49 67 50 68 51 70 52 72 53 69 54 53 55
REMARK SMILES IDX 54 56 59 57 55 58 56 59 58 60 60 61 57 62 6 63 7 64 8 65
REMARK SMILES IDX 9 67 10 68 11 69 16 70 12 71 15 72 14 73 13 74 17 75 18 76
REMARK SMILES IDX 19 77 20 79 21 80 29 81 22 82 24 83 28 84 23 85 25 86 27 87
REMARK SMILES IDX 26 88
REMARK H PARENT 3 6 77 24 51 35 7 66 19 78
REMARK Flexibility Score: inf
ROOT
ATOM      1  C   UNL A   1      31.380  32.265  26.324  1.00  0.00     0.042 C 
ENDROOT
BRANCH   1   2
ATOM      2  C   UNL A   1      32.464  32.790  27.257  1.00  0.00     0.118 C 
BRANCH   2   3
ATOM      3  N   UNL A   1      32.267  34.188  27.626  1.00  0.00    -0.352 N 
ATOM      4  O   UNL A   1      32.522  36.075  28.829  1.00  0.00    -0.269 OA
ATOM      5  C   UNL A   1      32.938  34.955  28.545  1.00  0.00     0.251 C 
ATOM      6  H   UNL A   1      31.544  34.649  27.144  1.00  0.00     0.163 HD
BRANCH   5   7
ATOM      7  C   UNL A   1      34.144  34.424  29.216  1.00  0.00     0.039 A 
ATOM      8  C   UNL A   1      35.413  34.626  28.672  1.00  0.00     0.014 A 
ATOM      9  C   UNL A   1      33.998  33.710  30.410  1.00  0.00     0.014 A 
ATOM     10  C   UNL A   1      36.511  33.977  29.223  1.00  0.00     0.010 A 
ATOM     11  C   UNL A   1      35.119  33.136  31.015  1.00  0.00     0.010 A 
ATOM     12  C   UNL A   1      36.378  33.228  30.403  1.00  0.00    -0.014 A 
BRANCH  12  13
ATOM     13  C   UNL A   1      37.577  32.575  30.988  1.00  0.00     0.031 A 
ATOM     14  C   UNL A   1      38.149  33.037  32.298  1.00  0.00     0.074 A 
ATOM     15  C   UNL A   1      38.128  31.529  30.342  1.00  0.00     0.049 A 
ATOM     16  N   UNL A   1      39.170  32.559  32.967  1.00  0.00    -0.248 NA
ATOM     17  C   UNL A   1      37.503  34.193  32.939  1.00  0.00     0.031 C 
ATOM     18  C   UNL A   1      37.664  30.993  29.060  1.00  0.00     0.029 A 
ATOM     19  N   UNL A   1      39.178  30.719  30.682  1.00  0.00    -0.354 N 
ATOM     20  C   UNL A   1      39.303  33.367  34.091  1.00  0.00     0.074 A 
ATOM     21  C   UNL A   1      38.277  34.384  33.999  1.00  0.00     0.031 C 
ATOM     22  C   UNL A   1      38.389  29.909  28.750  1.00  0.00     0.029 A 
ATOM     23  C   UNL A   1      39.405  29.710  29.778  1.00  0.00     0.049 A 
ATOM     24  H   UNL A   1      39.717  30.845  31.496  1.00  0.00     0.167 HD
ATOM     25  C   UNL A   1      40.193  33.264  35.106  1.00  0.00     0.037 A 
ATOM     26  C   UNL A   1      40.334  28.736  29.770  1.00  0.00     0.037 A 
ATOM     27  C   UNL A   1      41.198  32.236  35.204  1.00  0.00     0.049 A 
ATOM     28  C   UNL A   1      41.319  28.657  30.899  1.00  0.00     0.074 A 
ATOM     29  C   UNL A   1      42.118  32.021  36.216  1.00  0.00     0.029 A 
ATOM     30  N   UNL A   1      41.419  31.252  34.251  1.00  0.00    -0.354 N 
ATOM     31  N   UNL A   1      41.410  29.406  31.971  1.00  0.00    -0.248 NA
ATOM     32  C   UNL A   1      42.332  27.597  30.814  1.00  0.00     0.031 C 
ATOM     33  C   UNL A   1      42.927  30.937  35.851  1.00  0.00     0.029 A 
ATOM     34  C   UNL A   1      42.476  30.444  34.639  1.00  0.00     0.049 A 
ATOM     35  H   UNL A   1      40.900  31.145  33.420  1.00  0.00     0.167 HD
ATOM     36  C   UNL A   1      42.471  28.891  32.704  1.00  0.00     0.074 A 
ATOM     37  C   UNL A   1      42.984  27.761  31.957  1.00  0.00     0.031 C 
ATOM     38  C   UNL A   1      42.972  29.317  33.888  1.00  0.00     0.037 A 
BRANCH  25  39
ATOM     39  C   UNL A   1      40.138  34.309  36.184  1.00  0.00     0.057 A 
ATOM     40  C   UNL A   1      39.347  34.158  37.331  1.00  0.00     0.134 A 
ATOM     41  C   UNL A   1      40.908  35.475  36.084  1.00  0.00     0.134 A 
ATOM     42  F   UNL A   1      38.576  33.071  37.487  1.00  0.00    -0.206 F 
ATOM     43  C   UNL A   1      39.300  35.141  38.323  1.00  0.00     0.040 A 
ATOM     44  C   UNL A   1      40.891  36.452  37.081  1.00  0.00     0.040 A 
ATOM     45  F   UNL A   1      41.695  35.682  35.018  1.00  0.00    -0.206 F 
ATOM     46  C   UNL A   1      40.080  36.290  38.202  1.00  0.00     0.006 A 
ENDBRANCH  25  39
BRANCH  26  47
ATOM     47  C   UNL A   1      40.356  27.751  28.662  1.00  0.00     0.057 A 
ATOM     48  C   UNL A   1      41.108  27.984  27.506  1.00  0.00     0.134 A 
ATOM     49  C   UNL A   1      39.645  26.547  28.741  1.00  0.00     0.134 A 
ATOM     50  F   UNL A   1      41.797  29.126  27.368  1.00  0.00    -0.206 F 
ATOM     51  C   UNL A   1      41.144  27.060  26.460  1.00  0.00     0.040 A 
ATOM     52  C   UNL A   1      39.693  25.603  27.714  1.00  0.00     0.040 A 
ATOM     53  F   UNL A   1      38.914  26.261  29.828  1.00  0.00    -0.206 F 
ATOM     54  C   UNL A   1      40.441  25.861  26.568  1.00  0.00     0.006 A 
ENDBRANCH  26  47
BRANCH  38  55
ATOM     55  C   UNL A   1      44.106  28.526  34.472  1.00  0.00     0.057 A 
ATOM     56  C   UNL A   1      45.445  28.868  34.245  1.00  0.00     0.134 A 
ATOM     57  C   UNL A   1      43.850  27.414  35.287  1.00  0.00     0.134 A 
ATOM     58  F   UNL A   1      45.757  29.911  33.462  1.00  0.00    -0.206 F 
ATOM     59  C   UNL A   1      46.490  28.117  34.786  1.00  0.00     0.040 A 
ATOM     60  C   UNL A   1      44.886  26.673  35.855  1.00  0.00     0.040 A 
ATOM     61  F   UNL A   1      42.590  27.037  35.549  1.00  0.00    -0.206 F 
ATOM     62  C   UNL A   1      46.211  27.019  35.598  1.00  0.00     0.006 A 
ENDBRANCH  38  55
ENDBRANCH  12  13
ENDBRANCH   5   7
ENDBRANCH   2   3
ENDBRANCH   1   2
BRANCH   1  63
ATOM     63  C   UNL A   1      31.402  30.751  26.158  1.00  0.00     0.117 C 
BRANCH  63  64
ATOM     64  N   UNL A   1      31.810  30.380  24.811  1.00  0.00    -0.356 N 
ATOM     65  C   UNL A   1      31.144  29.701  23.835  1.00  0.00     0.224 C 
ATOM     66  H   UNL A   1      32.718  30.668  24.564  1.00  0.00     0.163 HD
ATOM     67  O   UNL A   1      31.812  29.248  22.909  1.00  0.00    -0.275 OA
BRANCH  65  68
ATOM     68  C   UNL A   1      29.635  29.556  23.930  1.00  0.00     0.094 C 
ATOM     69  C   UNL A   1      28.834  30.847  23.607  1.00  0.00     0.002 C 
ATOM     70  C   UNL A   1      29.042  28.529  22.962  1.00  0.00     0.094 C 
ATOM     71  C   UNL A   1      29.154  31.442  22.232  1.00  0.00     0.005 C 
ATOM     72  C   UNL A   1      27.455  30.273  23.290  1.00  0.00     0.009 C 
ATOM     73  C   UNL A   1      27.960  29.334  22.212  1.00  0.00     0.002 C 
ATOM     74  C   UNL A   1      28.646  30.354  21.268  1.00  0.00     0.005 C 
BRANCH  70  75
ATOM     75  C   UNL A   1      28.615  27.203  23.611  1.00  0.00     0.224 C 
ATOM     76  O   UNL A   1      27.405  27.076  23.870  1.00  0.00    -0.275 OA
ATOM     77  N   UNL A   1      29.330  26.101  23.922  1.00  0.00    -0.349 N 
ATOM     78  H   UNL A   1      28.699  25.380  24.150  1.00  0.00     0.164 HD
BRANCH  77  79
ATOM     79  C   UNL A   1      30.707  25.569  24.050  1.00  0.00     0.112 C 
ATOM     80  C   UNL A   1      31.395  25.141  22.744  1.00  0.00     0.030 C 
ATOM     81  C   UNL A   1      31.569  26.340  25.033  1.00  0.00    -0.022 A 
ATOM     82  C   UNL A   1      32.895  24.916  22.908  1.00  0.00     0.007 C 
ATOM     83  C   UNL A   1      32.922  26.626  24.752  1.00  0.00    -0.043 A 
ATOM     84  C   UNL A   1      31.046  26.707  26.285  1.00  0.00     0.006 A 
ATOM     85  C   UNL A   1      33.573  26.163  23.471  1.00  0.00     0.036 C 
ATOM     86  C   UNL A   1      33.669  27.395  25.656  1.00  0.00     0.004 A 
ATOM     87  C   UNL A   1      31.819  27.417  27.203  1.00  0.00     0.000 A 
ATOM     88  C   UNL A   1      33.120  27.787  26.876  1.00  0.00     0.000 A 
ENDBRANCH  77  79
ENDBRANCH  70  75
ENDBRANCH  65  68
ENDBRANCH  63  64
ENDBRANCH   1  63
TORSDOF 12
ENDMDL
MODEL 2
REMARK VINA RESULT:     -13.0      4.703      9.582
REMARK SMILES O=C(NCCCNC(=O)[C@H]1[C@H]2CC[C@H](C2)[C@@H]1C(=O)N[C@H]1CCCc2ccccc21)c1ccc(-c2c3nc(c(-c4c(F)cccc4F)c4ccc([nH]4)c(-c4c(F)cccc4F)c4nc(c(-c5c(F)cccc5F)c5ccc2[nH]5)C=C4)C=C3)cc1
REMARK SMILES IDX 5 1 4 2 3 3 1 4 2 5 30 7 31 8 83 9 32 10 82 11 33 12 34 13
REMARK SMILES IDX 35 14 76 15 36 16 81 17 75 18 77 19 37 20 80 21 74 22 73 23
REMARK SMILES IDX 38 25 64 26 47 27 63 28 48 29 51 30 62 31 78 32 49 33 50 34
REMARK SMILES IDX 61 36 79 37 52 38 39 39 40 40 45 41 41 42 42 43 44 44 46 45
REMARK SMILES IDX 43 46 65 47 66 48 71 49 67 50 68 51 70 52 72 53 69 54 53 55
REMARK SMILES IDX 54 56 59 57 55 58 56 59 58 60 60 61 57 62 6 63 7 64 8 65
REMARK SMILES IDX 9 67 10 68 11 69 16 70 12 71 15 72 14 73 13 74 17 75 18 76
REMARK SMILES IDX 19 77 20 79 21 80 29 81 22 82 24 83 28 84 23 85 25 86 27 87
REMARK SMILES IDX 26 88
REMARK H PARENT 3 6 77 24 51 35 7 66 19 78
REMARK Flexibility Score: inf
ROOT
ATOM      1  C   UNL A   1      37.811  19.898  24.849  1.00  0.00     0.042 C 
ENDROOT
BRANCH   1   2
ATOM      2  C   UNL A   1      38.937  20.303  25.792  1.00  0.00     0.118 C 
BRANCH   2   3
ATOM      3  N   UNL A   1      40.048  19.357  25.789  1.00  0.00    -0.352 N 
ATOM      4  O   UNL A   1      42.191  18.669  25.877  1.00  0.00    -0.269 OA
ATOM      5  C   UNL A   1      41.372  19.559  26.090  1.00  0.00     0.251 C 
ATOM      6  H   UNL A   1      39.812  18.437  25.532  1.00  0.00     0.163 HD
BRANCH   5   7
ATOM      7  C   UNL A   1      41.818  20.856  26.642  1.00  0.00     0.039 A 
ATOM      8  C   UNL A   1      41.809  21.089  28.018  1.00  0.00     0.014 A 
ATOM      9  C   UNL A   1      42.251  21.855  25.764  1.00  0.00     0.014 A 
ATOM     10  C   UNL A   1      42.068  22.364  28.503  1.00  0.00     0.010 A 
ATOM     11  C   UNL A   1      42.602  23.111  26.264  1.00  0.00     0.010 A 
ATOM     12  C   UNL A   1      42.472  23.390  27.633  1.00  0.00    -0.014 A 
BRANCH  12  13
ATOM     13  C   UNL A   1      42.777  24.734  28.186  1.00  0.00     0.031 A 
ATOM     14  C   UNL A   1      44.188  25.139  28.504  1.00  0.00     0.074 A 
ATOM     15  C   UNL A   1      41.767  25.607  28.365  1.00  0.00     0.049 A 
ATOM     16  N   UNL A   1      44.635  26.283  28.961  1.00  0.00    -0.248 NA
ATOM     17  C   UNL A   1      45.237  24.129  28.296  1.00  0.00     0.031 C 
ATOM     18  C   UNL A   1      40.354  25.327  28.096  1.00  0.00     0.029 A 
ATOM     19  N   UNL A   1      41.774  26.909  28.791  1.00  0.00    -0.354 N 
ATOM     20  C   UNL A   1      46.007  26.124  29.117  1.00  0.00     0.074 A 
ATOM     21  C   UNL A   1      46.316  24.762  28.734  1.00  0.00     0.031 C 
ATOM     22  C   UNL A   1      39.639  26.440  28.310  1.00  0.00     0.029 A 
ATOM     23  C   UNL A   1      40.529  27.492  28.787  1.00  0.00     0.049 A 
ATOM     24  H   UNL A   1      42.590  27.382  29.071  1.00  0.00     0.167 HD
ATOM     25  C   UNL A   1      46.923  27.030  29.534  1.00  0.00     0.037 A 
ATOM     26  C   UNL A   1      40.146  28.733  29.135  1.00  0.00     0.037 A 
ATOM     27  C   UNL A   1      46.613  28.391  29.893  1.00  0.00     0.049 A 
ATOM     28  C   UNL A   1      41.179  29.711  29.611  1.00  0.00     0.074 A 
ATOM     29  C   UNL A   1      47.477  29.399  30.285  1.00  0.00     0.029 A 
ATOM     30  N   UNL A   1      45.336  28.934  29.908  1.00  0.00    -0.354 N 
ATOM     31  N   UNL A   1      42.476  29.557  29.719  1.00  0.00    -0.248 NA
ATOM     32  C   UNL A   1      40.692  31.037  30.014  1.00  0.00     0.031 C 
ATOM     33  C   UNL A   1      46.718  30.536  30.585  1.00  0.00     0.029 A 
ATOM     34  C   UNL A   1      45.387  30.254  30.327  1.00  0.00     0.049 A 
ATOM     35  H   UNL A   1      44.514  28.451  29.658  1.00  0.00     0.167 HD
ATOM     36  C   UNL A   1      42.965  30.773  30.175  1.00  0.00     0.074 A 
ATOM     37  C   UNL A   1      41.825  31.657  30.313  1.00  0.00     0.031 C 
ATOM     38  C   UNL A   1      44.244  31.124  30.453  1.00  0.00     0.037 A 
BRANCH  25  39
ATOM     39  C   UNL A   1      48.349  26.571  29.650  1.00  0.00     0.057 A 
ATOM     40  C   UNL A   1      49.282  26.764  28.623  1.00  0.00     0.134 A 
ATOM     41  C   UNL A   1      48.801  25.947  30.820  1.00  0.00     0.134 A 
ATOM     42  F   UNL A   1      48.914  27.346  27.471  1.00  0.00    -0.206 F 
ATOM     43  C   UNL A   1      50.603  26.327  28.742  1.00  0.00     0.040 A 
ATOM     44  C   UNL A   1      50.126  25.529  30.962  1.00  0.00     0.040 A 
ATOM     45  F   UNL A   1      47.965  25.737  31.848  1.00  0.00    -0.206 F 
ATOM     46  C   UNL A   1      51.030  25.712  29.919  1.00  0.00     0.006 A 
ENDBRANCH  25  39
BRANCH  26  47
ATOM     47  C   UNL A   1      38.717  29.118  29.026  1.00  0.00     0.057 A 
ATOM     48  C   UNL A   1      38.175  29.537  27.808  1.00  0.00     0.134 A 
ATOM     49  C   UNL A   1      37.858  29.058  30.131  1.00  0.00     0.134 A 
ATOM     50  F   UNL A   1      38.953  29.630  26.719  1.00  0.00    -0.206 F 
ATOM     51  C   UNL A   1      36.831  29.894  27.690  1.00  0.00     0.040 A 
ATOM     52  C   UNL A   1      36.506  29.386  30.022  1.00  0.00     0.040 A 
ATOM     53  F   UNL A   1      38.316  28.655  31.325  1.00  0.00    -0.206 F 
ATOM     54  C   UNL A   1      35.991  29.811  28.799  1.00  0.00     0.006 A 
ENDBRANCH  26  47
BRANCH  38  55
ATOM     55  C   UNL A   1      44.481  32.541  30.889  1.00  0.00     0.057 A 
ATOM     56  C   UNL A   1      44.489  32.911  32.240  1.00  0.00     0.134 A 
ATOM     57  C   UNL A   1      44.723  33.544  29.941  1.00  0.00     0.134 A 
ATOM     58  F   UNL A   1      44.249  32.001  33.196  1.00  0.00    -0.206 F 
ATOM     59  C   UNL A   1      44.701  34.235  32.631  1.00  0.00     0.040 A 
ATOM     60  C   UNL A   1      44.964  34.864  30.322  1.00  0.00     0.040 A 
ATOM     61  F   UNL A   1      44.737  33.255  28.631  1.00  0.00    -0.206 F 
ATOM     62  C   UNL A   1      44.945  35.214  31.670  1.00  0.00     0.006 A 
ENDBRANCH  38  55
ENDBRANCH  12  13
ENDBRANCH   5   7
ENDBRANCH   2   3
ENDBRANCH   1   2
BRANCH   1  63
ATOM     63  C   UNL A   1      36.716  20.948  24.723  1.00  0.00     0.117 C 
BRANCH  63  64
ATOM     64  N   UNL A   1      35.807  20.894  25.858  1.00  0.00    -0.356 N 
ATOM     65  C   UNL A   1      34.698  21.632  26.146  1.00  0.00     0.224 C 
ATOM     66  H   UNL A   1      36.029  20.210  26.530  1.00  0.00     0.163 HD
ATOM     67  O   UNL A   1      34.288  21.604  27.304  1.00  0.00    -0.275 OA
BRANCH  65  68
ATOM     68  C   UNL A   1      34.024  22.423  25.038  1.00  0.00     0.094 C 
ATOM     69  C   UNL A   1      32.890  21.666  24.293  1.00  0.00     0.002 C 
ATOM     70  C   UNL A   1      33.334  23.704  25.512  1.00  0.00     0.094 C 
ATOM     71  C   UNL A   1      31.788  21.143  25.219  1.00  0.00     0.005 C 
ATOM     72  C   UNL A   1      32.123  22.826  23.660  1.00  0.00     0.009 C 
ATOM     73  C   UNL A   1      31.896  23.551  24.973  1.00  0.00     0.002 C 
ATOM     74  C   UNL A   1      31.167  22.440  25.770  1.00  0.00     0.005 C 
BRANCH  70  75
ATOM     75  C   UNL A   1      34.082  25.003  25.175  1.00  0.00     0.224 C 
ATOM     76  O   UNL A   1      35.215  24.878  24.676  1.00  0.00    -0.275 OA
ATOM     77  N   UNL A   1      33.706  26.293  25.288  1.00  0.00    -0.349 N 
ATOM     78  H   UNL A   1      34.362  26.848  24.806  1.00  0.00     0.164 HD
BRANCH  77  79
ATOM     79  C   UNL A   1      32.677  27.191  25.865  1.00  0.00     0.112 C 
ATOM     80  C   UNL A   1      33.163  28.189  26.927  1.00  0.00     0.030 C 
ATOM     81  C   UNL A   1      31.699  27.735  24.840  1.00  0.00    -0.022 A 
ATOM     82  C   UNL A   1      32.140  29.278  27.233  1.00  0.00     0.007 C 
ATOM     83  C   UNL A   1      31.266  29.077  24.883  1.00  0.00    -0.043 A 
ATOM     84  C   UNL A   1      31.144  26.876  23.876  1.00  0.00     0.006 A 
ATOM     85  C   UNL A   1      31.742  30.022  25.960  1.00  0.00     0.036 C 
ATOM     86  C   UNL A   1      30.411  29.561  23.882  1.00  0.00     0.004 A 
ATOM     87  C   UNL A   1      30.245  27.355  22.923  1.00  0.00     0.000 A 
ATOM     88  C   UNL A   1      29.903  28.703  22.908  1.00  0.00     0.000 A 
ENDBRANCH  77  79
ENDBRANCH  70  75
ENDBRANCH  65  68
ENDBRANCH  63  64
ENDBRANCH   1  63
TORSDOF 12
ENDMDL
MODEL 3
REMARK VINA RESULT:     -13.0      1.511      2.553
REMARK SMILES O=C(NCCCNC(=O)[C@H]1[C@H]2CC[C@H](C2)[C@@H]1C(=O)N[C@H]1CCCc2ccccc21)c1ccc(-c2c3nc(c(-c4c(F)cccc4F)c4ccc([nH]4)c(-c4c(F)cccc4F)c4nc(c(-c5c(F)cccc5F)c5ccc2[nH]5)C=C4)C=C3)cc1
REMARK SMILES IDX 5 1 4 2 3 3 1 4 2 5 30 7 31 8 83 9 32 10 82 11 33 12 34 13
REMARK SMILES IDX 35 14 76 15 36 16 81 17 75 18 77 19 37 20 80 21 74 22 73 23
REMARK SMILES IDX 38 25 64 26 47 27 63 28 48 29 51 30 62 31 78 32 49 33 50 34
REMARK SMILES IDX 61 36 79 37 52 38 39 39 40 40 45 41 41 42 42 43 44 44 46 45
REMARK SMILES IDX 43 46 65 47 66 48 71 49 67 50 68 51 70 52 72 53 69 54 53 55
REMARK SMILES IDX 54 56 59 57 55 58 56 59 58 60 60 61 57 62 6 63 7 64 8 65
REMARK SMILES IDX 9 67 10 68 11 69 16 70 12 71 15 72 14 73 13 74 17 75 18 76
REMARK SMILES IDX 19 77 20 79 21 80 29 81 22 82 24 83 28 84 23 85 25 86 27 87
REMARK SMILES IDX 26 88
REMARK H PARENT 3 6 77 24 51 35 7 66 19 78
REMARK Flexibility Score: inf
ROOT
ATOM      1  C   UNL A   1      31.388  32.153  26.483  1.00  0.00     0.042 C 
ENDROOT
BRANCH   1   2
ATOM      2  C   UNL A   1      32.579  32.764  27.210  1.00  0.00     0.118 C 
BRANCH   2   3
ATOM      3  N   UNL A   1      32.343  34.143  27.626  1.00  0.00    -0.352 N 
ATOM      4  O   UNL A   1      32.531  35.989  28.902  1.00  0.00    -0.269 OA
ATOM      5  C   UNL A   1      32.978  34.890  28.586  1.00  0.00     0.251 C 
ATOM      6  H   UNL A   1      31.620  34.606  27.146  1.00  0.00     0.163 HD
BRANCH   5   7
ATOM      7  C   UNL A   1      34.182  34.360  29.262  1.00  0.00     0.039 A 
ATOM      8  C   UNL A   1      35.457  34.615  28.757  1.00  0.00     0.014 A 
ATOM      9  C   UNL A   1      34.027  33.594  30.422  1.00  0.00     0.014 A 
ATOM     10  C   UNL A   1      36.559  33.971  29.306  1.00  0.00     0.010 A 
ATOM     11  C   UNL A   1      35.148  33.022  31.030  1.00  0.00     0.010 A 
ATOM     12  C   UNL A   1      36.418  33.170  30.451  1.00  0.00    -0.014 A 
BRANCH  12  13
ATOM     13  C   UNL A   1      37.619  32.522  31.037  1.00  0.00     0.031 A 
ATOM     14  C   UNL A   1      38.193  32.991  32.344  1.00  0.00     0.074 A 
ATOM     15  C   UNL A   1      38.172  31.475  30.394  1.00  0.00     0.049 A 
ATOM     16  N   UNL A   1      39.215  32.518  33.013  1.00  0.00    -0.248 NA
ATOM     17  C   UNL A   1      37.545  34.147  32.982  1.00  0.00     0.031 C 
ATOM     18  C   UNL A   1      37.707  30.933  29.115  1.00  0.00     0.029 A 
ATOM     19  N   UNL A   1      39.225  30.669  30.735  1.00  0.00    -0.354 N 
ATOM     20  C   UNL A   1      39.348  33.330  34.133  1.00  0.00     0.074 A 
ATOM     21  C   UNL A   1      38.320  34.344  34.040  1.00  0.00     0.031 C 
ATOM     22  C   UNL A   1      38.435  29.850  28.808  1.00  0.00     0.029 A 
ATOM     23  C   UNL A   1      39.453  29.657  29.834  1.00  0.00     0.049 A 
ATOM     24  H   UNL A   1      39.765  30.799  31.548  1.00  0.00     0.167 HD
ATOM     25  C   UNL A   1      40.241  33.234  35.148  1.00  0.00     0.037 A 
ATOM     26  C   UNL A   1      40.384  28.686  29.829  1.00  0.00     0.037 A 
ATOM     27  C   UNL A   1      41.248  32.208  35.248  1.00  0.00     0.049 A 
ATOM     28  C   UNL A   1      41.371  28.614  30.956  1.00  0.00     0.074 A 
ATOM     29  C   UNL A   1      42.170  31.999  36.259  1.00  0.00     0.029 A 
ATOM     30  N   UNL A   1      41.470  31.222  34.298  1.00  0.00    -0.354 N 
ATOM     31  N   UNL A   1      41.462  29.366  32.025  1.00  0.00    -0.248 NA
ATOM     32  C   UNL A   1      42.387  27.556  30.874  1.00  0.00     0.031 C 
ATOM     33  C   UNL A   1      42.981  30.916  35.897  1.00  0.00     0.029 A 
ATOM     34  C   UNL A   1      42.530  30.417  34.687  1.00  0.00     0.049 A 
ATOM     35  H   UNL A   1      40.950  31.110  33.468  1.00  0.00     0.167 HD
ATOM     36  C   UNL A   1      42.525  28.857  32.758  1.00  0.00     0.074 A 
ATOM     37  C   UNL A   1      43.040  27.725  32.014  1.00  0.00     0.031 C 
ATOM     38  C   UNL A   1      43.027  29.288  33.940  1.00  0.00     0.037 A 
BRANCH  25  39
ATOM     39  C   UNL A   1      40.184  34.282  36.222  1.00  0.00     0.057 A 
ATOM     40  C   UNL A   1      39.386  34.139  37.365  1.00  0.00     0.134 A 
ATOM     41  C   UNL A   1      40.961  35.444  36.122  1.00  0.00     0.134 A 
ATOM     42  F   UNL A   1      38.609  33.056  37.520  1.00  0.00    -0.206 F 
ATOM     43  C   UNL A   1      39.339  35.125  38.353  1.00  0.00     0.040 A 
ATOM     44  C   UNL A   1      40.943  36.425  37.116  1.00  0.00     0.040 A 
ATOM     45  F   UNL A   1      41.755  35.644  35.060  1.00  0.00    -0.206 F 
ATOM     46  C   UNL A   1      40.125  36.271  38.232  1.00  0.00     0.006 A 
ENDBRANCH  25  39
BRANCH  26  47
ATOM     47  C   UNL A   1      40.407  27.696  28.725  1.00  0.00     0.057 A 
ATOM     48  C   UNL A   1      39.646  26.525  28.791  1.00  0.00     0.134 A 
ATOM     49  C   UNL A   1      41.173  27.906  27.571  1.00  0.00     0.134 A 
ATOM     50  F   UNL A   1      38.906  26.262  29.878  1.00  0.00    -0.206 F 
ATOM     51  C   UNL A   1      39.652  25.590  27.755  1.00  0.00     0.040 A 
ATOM     52  C   UNL A   1      41.168  26.993  26.516  1.00  0.00     0.040 A 
ATOM     53  F   UNL A   1      41.916  29.015  27.443  1.00  0.00    -0.206 F 
ATOM     54  C   UNL A   1      40.410  25.828  26.609  1.00  0.00     0.006 A 
ENDBRANCH  26  47
BRANCH  38  55
ATOM     55  C   UNL A   1      44.164  28.502  34.525  1.00  0.00     0.057 A 
ATOM     56  C   UNL A   1      43.953  27.382  35.340  1.00  0.00     0.134 A 
ATOM     57  C   UNL A   1      45.491  28.863  34.252  1.00  0.00     0.134 A 
ATOM     58  F   UNL A   1      42.707  26.994  35.651  1.00  0.00    -0.206 F 
ATOM     59  C   UNL A   1      45.020  26.666  35.885  1.00  0.00     0.040 A 
ATOM     60  C   UNL A   1      46.564  28.139  34.769  1.00  0.00     0.040 A 
ATOM     61  F   UNL A   1      45.763  29.921  33.473  1.00  0.00    -0.206 F 
ATOM     62  C   UNL A   1      46.331  27.042  35.595  1.00  0.00     0.006 A 
ENDBRANCH  38  55
ENDBRANCH  12  13
ENDBRANCH   5   7
ENDBRANCH   2   3
ENDBRANCH   1   2
BRANCH   1  63
ATOM     63  C   UNL A   1      31.434  30.632  26.414  1.00  0.00     0.117 C 
BRANCH  63  64
ATOM     64  N   UNL A   1      32.284  30.184  25.321  1.00  0.00    -0.356 N 
ATOM     65  C   UNL A   1      32.375  28.973  24.703  1.00  0.00     0.224 C 
ATOM     66  H   UNL A   1      32.895  30.871  24.969  1.00  0.00     0.163 HD
ATOM     67  O   UNL A   1      33.377  28.761  24.025  1.00  0.00    -0.275 OA
BRANCH  65  68
ATOM     68  C   UNL A   1      31.245  27.971  24.864  1.00  0.00     0.094 C 
ATOM     69  C   UNL A   1      30.211  27.961  23.705  1.00  0.00     0.002 C 
ATOM     70  C   UNL A   1      31.705  26.513  24.932  1.00  0.00     0.094 C 
ATOM     71  C   UNL A   1      30.836  27.732  22.326  1.00  0.00     0.005 C 
ATOM     72  C   UNL A   1      29.564  26.590  23.892  1.00  0.00     0.009 C 
ATOM     73  C   UNL A   1      30.874  25.829  23.825  1.00  0.00     0.002 C 
ATOM     74  C   UNL A   1      31.386  26.298  22.439  1.00  0.00     0.005 C 
BRANCH  70  75
ATOM     75  C   UNL A   1      31.666  25.888  26.334  1.00  0.00     0.224 C 
ATOM     76  O   UNL A   1      31.394  26.654  27.276  1.00  0.00    -0.275 OA
ATOM     77  N   UNL A   1      31.836  24.612  26.738  1.00  0.00    -0.349 N 
ATOM     78  H   UNL A   1      31.558  24.548  27.681  1.00  0.00     0.164 HD
BRANCH  77  79
ATOM     79  C   UNL A   1      32.287  23.270  26.296  1.00  0.00     0.112 C 
ATOM     80  C   UNL A   1      31.203  22.343  25.724  1.00  0.00     0.030 C 
ATOM     81  C   UNL A   1      33.609  23.287  25.551  1.00  0.00    -0.022 A 
ATOM     82  C   UNL A   1      31.779  21.130  25.001  1.00  0.00     0.007 C 
ATOM     83  C   UNL A   1      33.815  22.483  24.410  1.00  0.00    -0.043 A 
ATOM     84  C   UNL A   1      34.682  24.048  26.045  1.00  0.00     0.006 A 
ATOM     85  C   UNL A   1      32.737  21.561  23.893  1.00  0.00     0.036 C 
ATOM     86  C   UNL A   1      35.027  22.572  23.710  1.00  0.00     0.004 A 
ATOM     87  C   UNL A   1      35.905  24.079  25.375  1.00  0.00     0.000 A 
ATOM     88  C   UNL A   1      36.067  23.365  24.193  1.00  0.00     0.000 A 
ENDBRANCH  77  79
ENDBRANCH  70  75
ENDBRANCH  65  68
ENDBRANCH  63  64
ENDBRANCH   1  63
TORSDOF 12
ENDMDL
