MODEL 1
REMARK VINA RESULT:     -10.0      0.000      0.000
REMARK SMILES C=CC[N@@H+](CC(=O)NCCCNC(=O)c1ccc(-c2c3nc(c(-c4c(F)cccc4F)c4ccc([nH]4)c(-c4c(F)cccc4F)c4nc(c(-c5c(F)cccc5F)c5ccc2[nH]5)C=C4)C=C3)cc1)C1CCCCC1
REMARK SMILES IDX 9 1 8 2 6 3 7 4 5 6 4 7 3 9 2 10 1 11 69 12 70 13 74 14
REMARK SMILES IDX 71 15 73 16 72 17 10 18 11 19 12 20 13 21 14 23 15 24 16 25
REMARK SMILES IDX 68 26 17 27 67 28 18 29 19 30 20 31 61 32 21 33 66 34 60 35
REMARK SMILES IDX 62 36 22 37 65 38 59 39 58 40 23 42 49 43 32 44 48 45 33 46
REMARK SMILES IDX 36 47 47 48 63 49 34 50 35 51 46 53 64 54 37 55 24 56 25 57
REMARK SMILES IDX 30 58 26 59 27 60 29 61 31 62 28 63 50 64 51 65 56 66 52 67
REMARK SMILES IDX 53 68 55 69 57 70 54 71 38 72 39 73 44 74 40 75 41 76 43 77
REMARK SMILES IDX 45 78 42 79
REMARK H PARENT 8 5 4 8 12 22 62 41 36 52
REMARK Flexibility Score: inf
ROOT
ATOM      1  C   UNL A   1      31.486  27.468  25.822  1.00  0.00     0.118 C 
ENDROOT
BRANCH   1   2
ATOM      2  N   UNL A   1      31.329  26.276  26.634  1.00  0.00    -0.351 N 
ATOM      3  C   UNL A   1      31.337  24.951  26.314  1.00  0.00     0.275 C 
ATOM      4  O   UNL A   1      31.363  24.164  27.269  1.00  0.00    -0.269 OA
ATOM      5  H   UNL A   1      31.191  26.457  27.592  1.00  0.00     0.163 HD
BRANCH   3   6
ATOM      6  C   UNL A   1      31.381  24.422  24.875  1.00  0.00     0.364 C 
BRANCH   6   7
ATOM      7  N   UNL A   1      32.605  24.659  24.078  1.00  0.00    -0.321 N 
ATOM      8  H   UNL A   1      32.884  25.580  24.416  1.00  0.00     0.349 HD
BRANCH   7   9
ATOM      9  C   UNL A   1      32.346  24.835  22.658  1.00  0.00     0.291 C 
BRANCH   9  10
ATOM     10  C   UNL A   1      32.317  26.246  22.150  1.00  0.00     0.025 C 
ATOM     11  C   UNL A   1      33.354  27.090  22.266  1.00  0.00     0.010 C 
ENDBRANCH   9  10
ENDBRANCH   7   9
BRANCH   7  12
ATOM     12  C   UNL A   1      33.870  24.017  24.467  1.00  0.00     0.184 C 
ATOM     13  C   UNL A   1      34.616  23.497  23.221  1.00  0.00     0.065 C 
ATOM     14  C   UNL A   1      34.825  24.807  25.378  1.00  0.00     0.065 C 
ATOM     15  C   UNL A   1      35.846  22.672  23.616  1.00  0.00     0.006 C 
ATOM     16  C   UNL A   1      36.056  23.982  25.762  1.00  0.00     0.006 C 
ATOM     17  C   UNL A   1      36.783  23.460  24.525  1.00  0.00     0.000 C 
ENDBRANCH   7  12
ENDBRANCH   6   7
ENDBRANCH   3   6
ENDBRANCH   1   2
BRANCH   1  18
ATOM     18  C   UNL A   1      32.918  28.013  25.849  1.00  0.00     0.042 C 
BRANCH  18  19
ATOM     19  C   UNL A   1      33.483  28.284  27.236  1.00  0.00     0.118 C 
BRANCH  19  20
ATOM     20  N   UNL A   1      33.504  29.695  27.575  1.00  0.00    -0.352 N 
ATOM     21  C   UNL A   1      34.485  30.501  28.100  1.00  0.00     0.251 C 
ATOM     22  H   UNL A   1      32.656  30.163  27.395  1.00  0.00     0.163 HD
ATOM     23  O   UNL A   1      34.173  31.638  28.451  1.00  0.00    -0.269 OA
BRANCH  21  24
ATOM     24  C   UNL A   1      35.891  30.056  28.282  1.00  0.00     0.039 A 
ATOM     25  C   UNL A   1      36.267  29.566  29.541  1.00  0.00     0.014 A 
ATOM     26  C   UNL A   1      36.871  30.195  27.298  1.00  0.00     0.014 A 
ATOM     27  C   UNL A   1      37.590  29.185  29.794  1.00  0.00     0.010 A 
ATOM     28  C   UNL A   1      38.173  29.731  27.520  1.00  0.00     0.010 A 
ATOM     29  C   UNL A   1      38.555  29.239  28.776  1.00  0.00    -0.014 A 
BRANCH  29  30
ATOM     30  C   UNL A   1      39.964  28.823  29.023  1.00  0.00     0.031 A 
ATOM     31  C   UNL A   1      40.933  29.766  29.691  1.00  0.00     0.074 A 
ATOM     32  C   UNL A   1      40.393  27.616  28.608  1.00  0.00     0.049 A 
ATOM     33  N   UNL A   1      42.212  29.608  29.930  1.00  0.00    -0.248 NA
ATOM     34  C   UNL A   1      40.400  31.067  30.122  1.00  0.00     0.031 C 
ATOM     35  C   UNL A   1      39.579  26.620  27.912  1.00  0.00     0.029 A 
ATOM     36  N   UNL A   1      41.630  27.025  28.704  1.00  0.00    -0.354 N 
ATOM     37  C   UNL A   1      42.638  30.796  30.512  1.00  0.00     0.074 A 
ATOM     38  C   UNL A   1      41.494  31.680  30.550  1.00  0.00     0.031 C 
ATOM     39  C   UNL A   1      40.328  25.533  27.664  1.00  0.00     0.029 A 
ATOM     40  C   UNL A   1      41.684  25.767  28.152  1.00  0.00     0.049 A 
ATOM     41  H   UNL A   1      42.404  27.461  29.128  1.00  0.00     0.167 HD
ATOM     42  C   UNL A   1      43.864  31.116  30.992  1.00  0.00     0.037 A 
ATOM     43  C   UNL A   1      42.710  24.901  28.046  1.00  0.00     0.037 A 
ATOM     44  C   UNL A   1      44.995  30.226  30.999  1.00  0.00     0.049 A 
ATOM     45  C   UNL A   1      44.055  25.270  28.603  1.00  0.00     0.074 A 
ATOM     46  C   UNL A   1      46.256  30.436  31.530  1.00  0.00     0.029 A 
ATOM     47  N   UNL A   1      45.000  28.952  30.451  1.00  0.00    -0.354 N 
ATOM     48  N   UNL A   1      44.427  26.375  29.202  1.00  0.00    -0.248 NA
ATOM     49  C   UNL A   1      45.125  24.268  28.473  1.00  0.00     0.031 C 
ATOM     50  C   UNL A   1      47.035  29.302  31.274  1.00  0.00     0.029 A 
ATOM     51  C   UNL A   1      46.248  28.372  30.616  1.00  0.00     0.049 A 
ATOM     52  H   UNL A   1      44.232  28.524  30.010  1.00  0.00     0.167 HD
ATOM     53  C   UNL A   1      45.761  26.194  29.540  1.00  0.00     0.074 A 
ATOM     54  C   UNL A   1      46.133  24.868  29.090  1.00  0.00     0.031 C 
ATOM     55  C   UNL A   1      46.603  27.050  30.167  1.00  0.00     0.037 A 
BRANCH  42  56
ATOM     56  C   UNL A   1      44.046  32.496  31.557  1.00  0.00     0.057 A 
ATOM     57  C   UNL A   1      44.448  33.574  30.758  1.00  0.00     0.134 A 
ATOM     58  C   UNL A   1      43.790  32.754  32.909  1.00  0.00     0.134 A 
ATOM     59  F   UNL A   1      44.719  33.391  29.457  1.00  0.00    -0.206 F 
ATOM     60  C   UNL A   1      44.619  34.853  31.290  1.00  0.00     0.040 A 
ATOM     61  C   UNL A   1      43.933  34.034  33.447  1.00  0.00     0.040 A 
ATOM     62  F   UNL A   1      43.393  31.768  33.728  1.00  0.00    -0.206 F 
ATOM     63  C   UNL A   1      44.356  35.087  32.638  1.00  0.00     0.006 A 
ENDBRANCH  42  56
BRANCH  43  64
ATOM     64  C   UNL A   1      42.494  23.580  27.405  1.00  0.00     0.057 A 
ATOM     65  C   UNL A   1      42.663  23.413  26.026  1.00  0.00     0.134 A 
ATOM     66  C   UNL A   1      42.121  22.457  28.153  1.00  0.00     0.134 A 
ATOM     67  F   UNL A   1      42.999  24.459  25.257  1.00  0.00    -0.206 F 
ATOM     68  C   UNL A   1      42.457  22.178  25.409  1.00  0.00     0.040 A 
ATOM     69  C   UNL A   1      41.934  21.211  27.551  1.00  0.00     0.040 A 
ATOM     70  F   UNL A   1      41.950  22.552  29.479  1.00  0.00    -0.206 F 
ATOM     71  C   UNL A   1      42.097  21.071  26.175  1.00  0.00     0.006 A 
ENDBRANCH  43  64
BRANCH  55  72
ATOM     72  C   UNL A   1      48.001  26.572  30.427  1.00  0.00     0.057 A 
ATOM     73  C   UNL A   1      49.041  26.807  29.520  1.00  0.00     0.134 A 
ATOM     74  C   UNL A   1      48.316  25.903  31.617  1.00  0.00     0.134 A 
ATOM     75  F   UNL A   1      48.800  27.432  28.357  1.00  0.00    -0.206 F 
ATOM     76  C   UNL A   1      50.343  26.377  29.778  1.00  0.00     0.040 A 
ATOM     77  C   UNL A   1      49.619  25.487  31.895  1.00  0.00     0.040 A 
ATOM     78  F   UNL A   1      47.366  25.653  32.530  1.00  0.00    -0.206 F 
ATOM     79  C   UNL A   1      50.635  25.720  30.972  1.00  0.00     0.006 A 
ENDBRANCH  55  72
ENDBRANCH  29  30
ENDBRANCH  21  24
ENDBRANCH  19  20
ENDBRANCH  18  19
ENDBRANCH   1  18
TORSDOF 14
ENDMDL
MODEL 2
REMARK VINA RESULT:      -9.7      2.842      7.993
REMARK SMILES C=CC[N@@H+](CC(=O)NCCCNC(=O)c1ccc(-c2c3nc(c(-c4c(F)cccc4F)c4ccc([nH]4)c(-c4c(F)cccc4F)c4nc(c(-c5c(F)cccc5F)c5ccc2[nH]5)C=C4)C=C3)cc1)C1CCCCC1
REMARK SMILES IDX 9 1 8 2 6 3 7 4 5 6 4 7 3 9 2 10 1 11 69 12 70 13 74 14
REMARK SMILES IDX 71 15 73 16 72 17 10 18 11 19 12 20 13 21 14 23 15 24 16 25
REMARK SMILES IDX 68 26 17 27 67 28 18 29 19 30 20 31 61 32 21 33 66 34 60 35
REMARK SMILES IDX 62 36 22 37 65 38 59 39 58 40 23 42 49 43 32 44 48 45 33 46
REMARK SMILES IDX 36 47 47 48 63 49 34 50 35 51 46 53 64 54 37 55 24 56 25 57
REMARK SMILES IDX 30 58 26 59 27 60 29 61 31 62 28 63 50 64 51 65 56 66 52 67
REMARK SMILES IDX 53 68 55 69 57 70 54 71 38 72 39 73 44 74 40 75 41 76 43 77
REMARK SMILES IDX 45 78 42 79
REMARK H PARENT 8 5 4 8 12 22 62 41 36 52
REMARK Flexibility Score: inf
ROOT
ATOM      1  C   UNL A   1      34.585  22.894  25.678  1.00  0.00     0.118 C 
ENDROOT
BRANCH   1   2
ATOM      2  N   UNL A   1      33.526  22.995  26.664  1.00  0.00    -0.351 N 
ATOM      3  C   UNL A   1      32.374  23.723  26.689  1.00  0.00     0.275 C 
ATOM      4  O   UNL A   1      31.579  23.448  27.597  1.00  0.00    -0.269 OA
ATOM      5  H   UNL A   1      33.664  22.435  27.462  1.00  0.00     0.163 HD
BRANCH   3   6
ATOM      6  C   UNL A   1      32.012  24.782  25.640  1.00  0.00     0.364 C 
BRANCH   6   7
ATOM      7  N   UNL A   1      31.356  26.026  26.098  1.00  0.00    -0.321 N 
ATOM      8  H   UNL A   1      31.370  25.895  27.110  1.00  0.00     0.349 HD
BRANCH   7   9
ATOM      9  C   UNL A   1      29.948  26.103  25.744  1.00  0.00     0.291 C 
BRANCH   9  10
ATOM     10  C   UNL A   1      29.631  26.424  24.313  1.00  0.00     0.025 C 
ATOM     11  C   UNL A   1      28.379  26.561  23.851  1.00  0.00     0.010 C 
ENDBRANCH   9  10
ENDBRANCH   7   9
BRANCH   7  12
ATOM     12  C   UNL A   1      32.117  27.285  26.145  1.00  0.00     0.184 C 
ATOM     13  C   UNL A   1      31.616  28.176  27.299  1.00  0.00     0.065 C 
ATOM     14  C   UNL A   1      33.653  27.193  26.160  1.00  0.00     0.065 C 
ATOM     15  C   UNL A   1      32.273  29.560  27.254  1.00  0.00     0.006 C 
ATOM     16  C   UNL A   1      34.304  28.578  26.125  1.00  0.00     0.006 C 
ATOM     17  C   UNL A   1      33.794  29.461  27.262  1.00  0.00     0.000 C 
ENDBRANCH   7  12
ENDBRANCH   6   7
ENDBRANCH   3   6
ENDBRANCH   1   2
BRANCH   1  18
ATOM     18  C   UNL A   1      35.878  23.578  26.133  1.00  0.00     0.042 C 
BRANCH  18  19
ATOM     19  C   UNL A   1      36.972  23.665  25.079  1.00  0.00     0.118 C 
BRANCH  19  20
ATOM     20  N   UNL A   1      38.110  22.812  25.370  1.00  0.00    -0.352 N 
ATOM     21  C   UNL A   1      39.274  23.037  26.064  1.00  0.00     0.251 C 
ATOM     22  H   UNL A   1      38.033  21.903  25.002  1.00  0.00     0.163 HD
ATOM     23  O   UNL A   1      40.155  22.180  26.009  1.00  0.00    -0.269 OA
BRANCH  21  24
ATOM     24  C   UNL A   1      39.525  24.272  26.853  1.00  0.00     0.039 A 
ATOM     25  C   UNL A   1      40.314  25.274  26.271  1.00  0.00     0.014 A 
ATOM     26  C   UNL A   1      39.100  24.436  28.172  1.00  0.00     0.014 A 
ATOM     27  C   UNL A   1      40.635  26.436  26.984  1.00  0.00     0.010 A 
ATOM     28  C   UNL A   1      39.343  25.634  28.854  1.00  0.00     0.010 A 
ATOM     29  C   UNL A   1      40.130  26.641  28.277  1.00  0.00    -0.014 A 
BRANCH  29  30
ATOM     30  C   UNL A   1      40.447  27.876  29.045  1.00  0.00     0.031 A 
ATOM     31  C   UNL A   1      41.778  28.024  29.740  1.00  0.00     0.074 A 
ATOM     32  C   UNL A   1      39.528  28.854  29.162  1.00  0.00     0.049 A 
ATOM     33  N   UNL A   1      42.209  28.994  30.508  1.00  0.00    -0.248 NA
ATOM     34  C   UNL A   1      42.738  26.923  29.572  1.00  0.00     0.031 C 
ATOM     35  C   UNL A   1      38.186  28.829  28.578  1.00  0.00     0.029 A 
ATOM     36  N   UNL A   1      39.580  30.058  29.821  1.00  0.00    -0.354 N 
ATOM     37  C   UNL A   1      43.475  28.608  30.933  1.00  0.00     0.074 A 
ATOM     38  C   UNL A   1      43.724  27.297  30.375  1.00  0.00     0.031 C 
ATOM     39  C   UNL A   1      37.551  29.972  28.885  1.00  0.00     0.029 A 
ATOM     40  C   UNL A   1      38.426  30.797  29.714  1.00  0.00     0.049 A 
ATOM     41  H   UNL A   1      40.371  30.364  30.322  1.00  0.00     0.167 HD
ATOM     42  C   UNL A   1      44.360  29.289  31.700  1.00  0.00     0.037 A 
ATOM     43  C   UNL A   1      38.104  31.998  30.228  1.00  0.00     0.037 A 
ATOM     44  C   UNL A   1      44.138  30.612  32.222  1.00  0.00     0.049 A 
ATOM     45  C   UNL A   1      39.109  32.745  31.059  1.00  0.00     0.074 A 
ATOM     46  C   UNL A   1      45.005  31.411  32.947  1.00  0.00     0.029 A 
ATOM     47  N   UNL A   1      42.963  31.333  32.069  1.00  0.00    -0.354 N 
ATOM     48  N   UNL A   1      40.323  32.390  31.403  1.00  0.00    -0.248 NA
ATOM     49  C   UNL A   1      38.701  34.062  31.570  1.00  0.00     0.031 C 
ATOM     50  C   UNL A   1      44.343  32.603  33.263  1.00  0.00     0.029 A 
ATOM     51  C   UNL A   1      43.077  32.561  32.702  1.00  0.00     0.049 A 
ATOM     52  H   UNL A   1      42.167  31.020  31.584  1.00  0.00     0.167 HD
ATOM     53  C   UNL A   1      40.830  33.445  32.149  1.00  0.00     0.074 A 
ATOM     54  C   UNL A   1      39.798  34.460  32.199  1.00  0.00     0.031 C 
ATOM     55  C   UNL A   1      42.044  33.563  32.740  1.00  0.00     0.037 A 
BRANCH  42  56
ATOM     56  C   UNL A   1      45.661  28.611  32.020  1.00  0.00     0.057 A 
ATOM     57  C   UNL A   1      45.801  27.769  33.132  1.00  0.00     0.134 A 
ATOM     58  C   UNL A   1      46.778  28.781  31.193  1.00  0.00     0.134 A 
ATOM     59  F   UNL A   1      44.772  27.573  33.969  1.00  0.00    -0.206 F 
ATOM     60  C   UNL A   1      47.015  27.145  33.426  1.00  0.00     0.040 A 
ATOM     61  C   UNL A   1      47.989  28.142  31.463  1.00  0.00     0.040 A 
ATOM     62  F   UNL A   1      46.710  29.567  30.108  1.00  0.00    -0.206 F 
ATOM     63  C   UNL A   1      48.112  27.328  32.588  1.00  0.00     0.006 A 
ENDBRANCH  42  56
BRANCH  43  64
ATOM     64  C   UNL A   1      36.772  32.587  29.945  1.00  0.00     0.057 A 
ATOM     65  C   UNL A   1      35.671  32.301  30.760  1.00  0.00     0.134 A 
ATOM     66  C   UNL A   1      36.568  33.450  28.862  1.00  0.00     0.134 A 
ATOM     67  F   UNL A   1      35.802  31.465  31.800  1.00  0.00    -0.206 F 
ATOM     68  C   UNL A   1      34.411  32.843  30.503  1.00  0.00     0.040 A 
ATOM     69  C   UNL A   1      35.318  34.015  28.606  1.00  0.00     0.040 A 
ATOM     70  F   UNL A   1      37.586  33.766  28.047  1.00  0.00    -0.206 F 
ATOM     71  C   UNL A   1      34.234  33.708  29.425  1.00  0.00     0.006 A 
ENDBRANCH  43  64
BRANCH  55  72
ATOM     72  C   UNL A   1      42.331  34.841  33.470  1.00  0.00     0.057 A 
ATOM     73  C   UNL A   1      41.978  35.019  34.813  1.00  0.00     0.134 A 
ATOM     74  C   UNL A   1      43.003  35.891  32.831  1.00  0.00     0.134 A 
ATOM     75  F   UNL A   1      41.321  34.055  35.476  1.00  0.00    -0.206 F 
ATOM     76  C   UNL A   1      42.267  36.205  35.491  1.00  0.00     0.040 A 
ATOM     77  C   UNL A   1      43.316  37.072  33.505  1.00  0.00     0.040 A 
ATOM     78  F   UNL A   1      43.375  35.781  31.547  1.00  0.00    -0.206 F 
ATOM     79  C   UNL A   1      42.943  37.232  34.838  1.00  0.00     0.006 A 
ENDBRANCH  55  72
ENDBRANCH  29  30
ENDBRANCH  21  24
ENDBRANCH  19  20
ENDBRANCH  18  19
ENDBRANCH   1  18
TORSDOF 14
ENDMDL
MODEL 3
REMARK VINA RESULT:      -9.7      1.654      2.983
REMARK SMILES C=CC[N@@H+](CC(=O)NCCCNC(=O)c1ccc(-c2c3nc(c(-c4c(F)cccc4F)c4ccc([nH]4)c(-c4c(F)cccc4F)c4nc(c(-c5c(F)cccc5F)c5ccc2[nH]5)C=C4)C=C3)cc1)C1CCCCC1
REMARK SMILES IDX 9 1 8 2 6 3 7 4 5 6 4 7 3 9 2 10 1 11 69 12 70 13 74 14
REMARK SMILES IDX 71 15 73 16 72 17 10 18 11 19 12 20 13 21 14 23 15 24 16 25
REMARK SMILES IDX 68 26 17 27 67 28 18 29 19 30 20 31 61 32 21 33 66 34 60 35
REMARK SMILES IDX 62 36 22 37 65 38 59 39 58 40 23 42 49 43 32 44 48 45 33 46
REMARK SMILES IDX 36 47 47 48 63 49 34 50 35 51 46 53 64 54 37 55 24 56 25 57
REMARK SMILES IDX 30 58 26 59 27 60 29 61 31 62 28 63 50 64 51 65 56 66 52 67
REMARK SMILES IDX 53 68 55 69 57 70 54 71 38 72 39 73 44 74 40 75 41 76 43 77
REMARK SMILES IDX 45 78 42 79
REMARK H PARENT 8 5 4 8 12 22 62 41 36 52
REMARK Flexibility Score: inf
ROOT
ATOM      1  C   UNL A   1      33.090  28.183  24.579  1.00  0.00     0.118 C 
ENDROOT
BRANCH   1   2
ATOM      2  N   UNL A   1      33.474  27.051  23.758  1.00  0.00    -0.351 N 
ATOM      3  C   UNL A   1      32.867  26.451  22.696  1.00  0.00     0.275 C 
ATOM      4  O   UNL A   1      33.544  25.612  22.088  1.00  0.00    -0.269 OA
ATOM      5  H   UNL A   1      34.331  26.639  24.016  1.00  0.00     0.163 HD
BRANCH   3   6
ATOM      6  C   UNL A   1      31.458  26.809  22.205  1.00  0.00     0.364 C 
BRANCH   6   7
ATOM      7  N   UNL A   1      30.460  27.249  23.205  1.00  0.00    -0.321 N 
ATOM      8  H   UNL A   1      31.058  27.705  23.893  1.00  0.00     0.349 HD
BRANCH   7   9
ATOM      9  C   UNL A   1      29.830  26.149  23.916  1.00  0.00     0.291 C 
BRANCH   9  10
ATOM     10  C   UNL A   1      30.095  26.062  25.390  1.00  0.00     0.025 C 
ATOM     11  C   UNL A   1      31.108  25.354  25.913  1.00  0.00     0.010 C 
ENDBRANCH   9  10
ENDBRANCH   7   9
BRANCH   7  12
ATOM     12  C   UNL A   1      29.651  28.452  22.955  1.00  0.00     0.184 C 
ATOM     13  C   UNL A   1      28.153  28.146  23.154  1.00  0.00     0.065 C 
ATOM     14  C   UNL A   1      30.041  29.744  23.693  1.00  0.00     0.065 C 
ATOM     15  C   UNL A   1      27.284  29.334  22.728  1.00  0.00     0.006 C 
ATOM     16  C   UNL A   1      29.164  30.926  23.271  1.00  0.00     0.006 C 
ATOM     17  C   UNL A   1      27.681  30.612  23.458  1.00  0.00     0.000 C 
ENDBRANCH   7  12
ENDBRANCH   6   7
ENDBRANCH   3   6
ENDBRANCH   1   2
BRANCH   1  18
ATOM     18  C   UNL A   1      34.178  28.576  25.584  1.00  0.00     0.042 C 
BRANCH  18  19
ATOM     19  C   UNL A   1      33.747  28.565  27.044  1.00  0.00     0.118 C 
BRANCH  19  20
ATOM     20  N   UNL A   1      33.743  29.886  27.645  1.00  0.00    -0.352 N 
ATOM     21  C   UNL A   1      34.704  30.585  28.335  1.00  0.00     0.251 C 
ATOM     22  H   UNL A   1      32.894  30.372  27.538  1.00  0.00     0.163 HD
ATOM     23  O   UNL A   1      34.370  31.632  28.889  1.00  0.00    -0.269 OA
BRANCH  21  24
ATOM     24  C   UNL A   1      36.111  30.125  28.461  1.00  0.00     0.039 A 
ATOM     25  C   UNL A   1      36.529  29.621  29.702  1.00  0.00     0.014 A 
ATOM     26  C   UNL A   1      37.056  30.264  27.443  1.00  0.00     0.014 A 
ATOM     27  C   UNL A   1      37.857  29.225  29.902  1.00  0.00     0.010 A 
ATOM     28  C   UNL A   1      38.360  29.785  27.612  1.00  0.00     0.010 A 
ATOM     29  C   UNL A   1      38.783  29.278  28.850  1.00  0.00    -0.014 A 
BRANCH  29  30
ATOM     30  C   UNL A   1      40.196  28.848  29.040  1.00  0.00     0.031 A 
ATOM     31  C   UNL A   1      41.206  29.786  29.651  1.00  0.00     0.074 A 
ATOM     32  C   UNL A   1      40.591  27.629  28.624  1.00  0.00     0.049 A 
ATOM     33  N   UNL A   1      42.492  29.615  29.836  1.00  0.00    -0.248 NA
ATOM     34  C   UNL A   1      40.710  31.101  30.086  1.00  0.00     0.031 C 
ATOM     35  C   UNL A   1      39.735  26.634  27.980  1.00  0.00     0.029 A 
ATOM     36  N   UNL A   1      41.823  27.023  28.674  1.00  0.00    -0.354 N 
ATOM     37  C   UNL A   1      42.959  30.805  30.381  1.00  0.00     0.074 A 
ATOM     38  C   UNL A   1      41.829  31.705  30.456  1.00  0.00     0.031 C 
ATOM     39  C   UNL A   1      40.458  25.534  27.715  1.00  0.00     0.029 A 
ATOM     40  C   UNL A   1      41.837  25.756  28.140  1.00  0.00     0.049 A 
ATOM     41  H   UNL A   1      42.622  27.454  29.058  1.00  0.00     0.167 HD
ATOM     42  C   UNL A   1      44.209  31.115  30.802  1.00  0.00     0.037 A 
ATOM     43  C   UNL A   1      42.846  24.875  28.001  1.00  0.00     0.037 A 
ATOM     44  C   UNL A   1      45.328  30.210  30.772  1.00  0.00     0.049 A 
ATOM     45  C   UNL A   1      44.219  25.234  28.493  1.00  0.00     0.074 A 
ATOM     46  C   UNL A   1      46.613  30.411  31.244  1.00  0.00     0.029 A 
ATOM     47  N   UNL A   1      45.292  28.929  30.244  1.00  0.00    -0.354 N 
ATOM     48  N   UNL A   1      44.631  26.342  29.059  1.00  0.00    -0.248 NA
ATOM     49  C   UNL A   1      45.269  24.216  28.331  1.00  0.00     0.031 C 
ATOM     50  C   UNL A   1      47.365  29.263  30.970  1.00  0.00     0.029 A 
ATOM     51  C   UNL A   1      46.538  28.334  30.362  1.00  0.00     0.049 A 
ATOM     52  H   UNL A   1      44.499  28.505  29.843  1.00  0.00     0.167 HD
ATOM     53  C   UNL A   1      45.977  26.148  29.340  1.00  0.00     0.074 A 
ATOM     54  C   UNL A   1      46.312  24.811  28.895  1.00  0.00     0.031 C 
ATOM     55  C   UNL A   1      46.856  27.002  29.918  1.00  0.00     0.037 A 
BRANCH  42  56
ATOM     56  C   UNL A   1      44.433  32.500  31.337  1.00  0.00     0.057 A 
ATOM     57  C   UNL A   1      44.821  33.560  30.507  1.00  0.00     0.134 A 
ATOM     58  C   UNL A   1      44.233  32.783  32.694  1.00  0.00     0.134 A 
ATOM     59  F   UNL A   1      45.040  33.353  29.200  1.00  0.00    -0.206 F 
ATOM     60  C   UNL A   1      45.032  34.844  31.012  1.00  0.00     0.040 A 
ATOM     61  C   UNL A   1      44.415  34.068  33.206  1.00  0.00     0.040 A 
ATOM     62  F   UNL A   1      43.852  31.816  33.543  1.00  0.00    -0.206 F 
ATOM     63  C   UNL A   1      44.824  35.102  32.365  1.00  0.00     0.006 A 
ENDBRANCH  42  56
BRANCH  43  64
ATOM     64  C   UNL A   1      42.585  23.548  27.390  1.00  0.00     0.057 A 
ATOM     65  C   UNL A   1      42.696  23.358  26.009  1.00  0.00     0.134 A 
ATOM     66  C   UNL A   1      42.225  22.442  28.169  1.00  0.00     0.134 A 
ATOM     67  F   UNL A   1      43.018  24.387  25.210  1.00  0.00    -0.206 F 
ATOM     68  C   UNL A   1      42.448  22.117  25.419  1.00  0.00     0.040 A 
ATOM     69  C   UNL A   1      41.995  21.191  27.595  1.00  0.00     0.040 A 
ATOM     70  F   UNL A   1      42.108  22.561  29.500  1.00  0.00    -0.206 F 
ATOM     71  C   UNL A   1      42.102  21.027  26.216  1.00  0.00     0.006 A 
ENDBRANCH  43  64
BRANCH  55  72
ATOM     72  C   UNL A   1      48.258  26.509  30.123  1.00  0.00     0.057 A 
ATOM     73  C   UNL A   1      49.269  26.752  29.186  1.00  0.00     0.134 A 
ATOM     74  C   UNL A   1      48.606  25.816  31.290  1.00  0.00     0.134 A 
ATOM     75  F   UNL A   1      48.995  27.399  28.043  1.00  0.00    -0.206 F 
ATOM     76  C   UNL A   1      50.576  26.307  29.394  1.00  0.00     0.040 A 
ATOM     77  C   UNL A   1      49.914  25.385  31.517  1.00  0.00     0.040 A 
ATOM     78  F   UNL A   1      47.685  25.557  32.229  1.00  0.00    -0.206 F 
ATOM     79  C   UNL A   1      50.902  25.627  30.565  1.00  0.00     0.006 A 
ENDBRANCH  55  72
ENDBRANCH  29  30
ENDBRANCH  21  24
ENDBRANCH  19  20
ENDBRANCH  18  19
ENDBRANCH   1  18
TORSDOF 14
ENDMDL
