MODEL 1
REMARK VINA RESULT:     -12.5      0.000      0.000
REMARK SMILES O=C(Cn1cnc(-c2ccccc2)c1-c1ccccc1)NCCCNC(=O)c1ccc(-c2c3nc(c(-c4c(F)cccc4F)c4ccc([nH]4)c(-c4c(F)cccc4F)c4nc(c(-c5c(F)cccc5F)c5ccc2[nH]5)C=C4)C=C3)cc1
REMARK SMILES IDX 23 1 22 2 21 3 1 4 2 5 3 7 4 8 5 9 14 10 6 11 7 12 15 13
REMARK SMILES IDX 16 14 20 15 17 16 19 17 18 18 8 19 9 20 13 21 10 22 12 23
REMARK SMILES IDX 11 24 24 25 25 26 26 27 27 29 28 30 29 31 81 32 30 33 80 34
REMARK SMILES IDX 31 35 32 36 33 37 74 38 34 39 79 40 73 41 75 42 35 43 78 44
REMARK SMILES IDX 72 45 71 46 36 48 62 49 45 50 61 51 46 52 49 53 60 54 76 55
REMARK SMILES IDX 47 56 48 57 59 59 77 60 50 61 37 62 38 63 43 64 39 65 40 66
REMARK SMILES IDX 42 67 44 68 41 69 63 70 64 71 69 72 65 73 66 74 68 75 70 76
REMARK SMILES IDX 67 77 51 78 52 79 57 80 53 81 54 82 56 83 58 84 55 85
REMARK H PARENT 21 6 25 28 75 47 49 58
REMARK Flexibility Score: inf
ROOT
ATOM      1  C   UNL A   1      37.245  20.636  25.020  1.00  0.00     0.042 C 
ENDROOT
BRANCH   1   2
ATOM      2  C   UNL A   1      36.537  21.892  24.523  1.00  0.00     0.117 C 
BRANCH   2   3
ATOM      3  N   UNL A   1      35.340  22.263  25.268  1.00  0.00    -0.354 N 
ATOM      4  O   UNL A   1      35.063  24.267  24.205  1.00  0.00    -0.273 OA
ATOM      5  C   UNL A   1      34.601  23.381  24.923  1.00  0.00     0.239 C 
ATOM      6  H   UNL A   1      35.051  21.709  26.029  1.00  0.00     0.163 HD
BRANCH   5   7
ATOM      7  C   UNL A   1      33.217  23.517  25.531  1.00  0.00     0.223 C 
BRANCH   7   8
ATOM      8  N   UNL A   1      32.224  24.188  24.702  1.00  0.00    -0.321 N 
ATOM      9  C   UNL A   1      31.446  23.530  23.783  1.00  0.00     0.201 A 
ATOM     10  C   UNL A   1      31.775  25.493  24.773  1.00  0.00     0.076 A 
ATOM     11  N   UNL A   1      30.562  24.326  23.231  1.00  0.00    -0.236 NA
ATOM     12  C   UNL A   1      30.761  25.547  23.822  1.00  0.00     0.096 A 
BRANCH  10  13
ATOM     13  C   UNL A   1      32.250  26.534  25.682  1.00  0.00     0.000 A 
ATOM     14  C   UNL A   1      31.409  27.041  26.679  1.00  0.00     0.010 A 
ATOM     15  C   UNL A   1      33.501  27.127  25.496  1.00  0.00     0.010 A 
ATOM     16  C   UNL A   1      31.831  28.096  27.492  1.00  0.00     0.001 A 
ATOM     17  C   UNL A   1      33.939  28.158  26.328  1.00  0.00     0.001 A 
ATOM     18  C   UNL A   1      33.102  28.644  27.326  1.00  0.00     0.000 A 
ENDBRANCH  10  13
BRANCH  12  19
ATOM     19  C   UNL A   1      29.982  26.727  23.502  1.00  0.00     0.002 A 
ATOM     20  C   UNL A   1      30.569  27.795  22.813  1.00  0.00     0.010 A 
ATOM     21  C   UNL A   1      28.624  26.792  23.841  1.00  0.00     0.010 A 
ATOM     22  C   UNL A   1      29.795  28.897  22.438  1.00  0.00     0.001 A 
ATOM     23  C   UNL A   1      27.854  27.895  23.471  1.00  0.00     0.001 A 
ATOM     24  C   UNL A   1      28.439  28.944  22.764  1.00  0.00     0.000 A 
ENDBRANCH  12  19
ENDBRANCH   7   8
ENDBRANCH   5   7
ENDBRANCH   2   3
ENDBRANCH   1   2
BRANCH   1  25
ATOM     25  C   UNL A   1      38.701  20.877  25.384  1.00  0.00     0.118 C 
BRANCH  25  26
ATOM     26  N   UNL A   1      39.473  19.646  25.562  1.00  0.00    -0.352 N 
ATOM     27  C   UNL A   1      40.803  19.529  25.938  1.00  0.00     0.251 C 
ATOM     28  H   UNL A   1      38.992  18.802  25.395  1.00  0.00     0.163 HD
ATOM     29  O   UNL A   1      41.435  18.510  25.740  1.00  0.00    -0.269 OA
BRANCH  27  30
ATOM     30  C   UNL A   1      41.438  20.692  26.583  1.00  0.00     0.039 A 
ATOM     31  C   UNL A   1      42.170  21.624  25.841  1.00  0.00     0.014 A 
ATOM     32  C   UNL A   1      41.209  20.874  27.942  1.00  0.00     0.014 A 
ATOM     33  C   UNL A   1      42.582  22.804  26.458  1.00  0.00     0.010 A 
ATOM     34  C   UNL A   1      41.491  22.092  28.508  1.00  0.00     0.010 A 
ATOM     35  C   UNL A   1      42.211  23.049  27.788  1.00  0.00    -0.014 A 
BRANCH  35  36
ATOM     36  C   UNL A   1      42.418  24.364  28.403  1.00  0.00     0.031 A 
ATOM     37  C   UNL A   1      41.338  25.369  28.135  1.00  0.00     0.074 A 
ATOM     38  C   UNL A   1      43.333  24.538  29.385  1.00  0.00     0.049 A 
ATOM     39  N   UNL A   1      41.450  26.583  27.703  1.00  0.00    -0.248 NA
ATOM     40  C   UNL A   1      39.937  24.933  28.297  1.00  0.00     0.031 C 
ATOM     41  C   UNL A   1      44.229  23.518  29.951  1.00  0.00     0.029 A 
ATOM     42  N   UNL A   1      43.552  25.606  30.202  1.00  0.00    -0.354 N 
ATOM     43  C   UNL A   1      40.162  27.125  27.728  1.00  0.00     0.074 A 
ATOM     44  C   UNL A   1      39.262  26.025  27.939  1.00  0.00     0.031 C 
ATOM     45  C   UNL A   1      44.677  23.925  31.156  1.00  0.00     0.029 A 
ATOM     46  C   UNL A   1      44.254  25.295  31.364  1.00  0.00     0.049 A 
ATOM     47  H   UNL A   1      43.241  26.515  29.990  1.00  0.00     0.167 HD
ATOM     48  C   UNL A   1      39.958  28.468  27.834  1.00  0.00     0.037 A 
ATOM     49  C   UNL A   1      44.453  26.090  32.442  1.00  0.00     0.037 A 
ATOM     50  C   UNL A   1      41.139  29.201  27.460  1.00  0.00     0.049 A 
ATOM     51  C   UNL A   1      44.180  27.480  32.022  1.00  0.00     0.074 A 
ATOM     52  C   UNL A   1      41.894  29.342  26.313  1.00  0.00     0.029 A 
ATOM     53  N   UNL A   1      41.907  29.690  28.483  1.00  0.00    -0.354 N 
ATOM     54  N   UNL A   1      44.911  28.146  31.174  1.00  0.00    -0.248 NA
ATOM     55  C   UNL A   1      42.852  28.020  32.259  1.00  0.00     0.031 C 
ATOM     56  C   UNL A   1      43.237  29.500  26.770  1.00  0.00     0.029 A 
ATOM     57  C   UNL A   1      43.223  29.500  28.165  1.00  0.00     0.049 A 
ATOM     58  H   UNL A   1      41.569  30.106  29.309  1.00  0.00     0.167 HD
ATOM     59  C   UNL A   1      44.006  28.907  30.454  1.00  0.00     0.074 A 
ATOM     60  C   UNL A   1      42.787  28.901  31.258  1.00  0.00     0.031 C 
ATOM     61  C   UNL A   1      44.246  29.218  29.147  1.00  0.00     0.037 A 
BRANCH  48  62
ATOM     62  C   UNL A   1      38.871  29.103  28.685  1.00  0.00     0.057 A 
ATOM     63  C   UNL A   1      38.807  28.792  30.058  1.00  0.00     0.134 A 
ATOM     64  C   UNL A   1      37.716  29.728  28.169  1.00  0.00     0.134 A 
ATOM     65  F   UNL A   1      39.835  28.193  30.678  1.00  0.00    -0.206 F 
ATOM     66  C   UNL A   1      37.651  28.992  30.826  1.00  0.00     0.040 A 
ATOM     67  C   UNL A   1      36.575  29.978  28.941  1.00  0.00     0.040 A 
ATOM     68  F   UNL A   1      37.580  30.041  26.876  1.00  0.00    -0.206 F 
ATOM     69  C   UNL A   1      36.525  29.576  30.264  1.00  0.00     0.006 A 
ENDBRANCH  48  62
BRANCH  49  70
ATOM     70  C   UNL A   1      44.618  25.715  33.865  1.00  0.00     0.057 A 
ATOM     71  C   UNL A   1      43.512  25.406  34.667  1.00  0.00     0.134 A 
ATOM     72  C   UNL A   1      45.878  25.389  34.397  1.00  0.00     0.134 A 
ATOM     73  F   UNL A   1      42.266  25.646  34.229  1.00  0.00    -0.206 F 
ATOM     74  C   UNL A   1      43.645  24.780  35.913  1.00  0.00     0.040 A 
ATOM     75  C   UNL A   1      46.027  24.773  35.644  1.00  0.00     0.040 A 
ATOM     76  F   UNL A   1      47.000  25.573  33.685  1.00  0.00    -0.206 F 
ATOM     77  C   UNL A   1      44.906  24.451  36.400  1.00  0.00     0.006 A 
ENDBRANCH  49  70
BRANCH  61  78
ATOM     78  C   UNL A   1      45.645  29.021  28.631  1.00  0.00     0.057 A 
ATOM     79  C   UNL A   1      46.700  29.922  28.830  1.00  0.00     0.134 A 
ATOM     80  C   UNL A   1      45.963  27.804  28.017  1.00  0.00     0.134 A 
ATOM     81  F   UNL A   1      46.519  31.071  29.491  1.00  0.00    -0.206 F 
ATOM     82  C   UNL A   1      48.001  29.645  28.398  1.00  0.00     0.040 A 
ATOM     83  C   UNL A   1      47.264  27.499  27.614  1.00  0.00     0.040 A 
ATOM     84  F   UNL A   1      45.015  26.869  27.842  1.00  0.00    -0.206 F 
ATOM     85  C   UNL A   1      48.287  28.426  27.793  1.00  0.00     0.006 A 
ENDBRANCH  61  78
ENDBRANCH  35  36
ENDBRANCH  27  30
ENDBRANCH  25  26
ENDBRANCH   1  25
TORSDOF 13
ENDMDL
MODEL 2
REMARK VINA RESULT:     -12.4      2.847      7.474
REMARK SMILES O=C(Cn1cnc(-c2ccccc2)c1-c1ccccc1)NCCCNC(=O)c1ccc(-c2c3nc(c(-c4c(F)cccc4F)c4ccc([nH]4)c(-c4c(F)cccc4F)c4nc(c(-c5c(F)cccc5F)c5ccc2[nH]5)C=C4)C=C3)cc1
REMARK SMILES IDX 23 1 22 2 21 3 1 4 2 5 3 7 4 8 5 9 14 10 6 11 7 12 15 13
REMARK SMILES IDX 16 14 20 15 17 16 19 17 18 18 8 19 9 20 13 21 10 22 12 23
REMARK SMILES IDX 11 24 24 25 25 26 26 27 27 29 28 30 29 31 81 32 30 33 80 34
REMARK SMILES IDX 31 35 32 36 33 37 74 38 34 39 79 40 73 41 75 42 35 43 78 44
REMARK SMILES IDX 72 45 71 46 36 48 62 49 45 50 61 51 46 52 49 53 60 54 76 55
REMARK SMILES IDX 47 56 48 57 59 59 77 60 50 61 37 62 38 63 43 64 39 65 40 66
REMARK SMILES IDX 42 67 44 68 41 69 63 70 64 71 69 72 65 73 66 74 68 75 70 76
REMARK SMILES IDX 67 77 51 78 52 79 57 80 53 81 54 82 56 83 58 84 55 85
REMARK H PARENT 21 6 25 28 75 47 49 58
REMARK Flexibility Score: inf
ROOT
ATOM      1  C   UNL A   1      33.495  29.453  26.869  1.00  0.00     0.042 C 
ENDROOT
BRANCH   1   2
ATOM      2  C   UNL A   1      32.583  28.236  26.990  1.00  0.00     0.117 C 
BRANCH   2   3
ATOM      3  N   UNL A   1      32.813  27.190  26.002  1.00  0.00    -0.354 N 
ATOM      4  O   UNL A   1      31.360  28.052  24.464  1.00  0.00    -0.273 OA
ATOM      5  C   UNL A   1      32.280  27.279  24.728  1.00  0.00     0.239 C 
ATOM      6  H   UNL A   1      33.358  26.406  26.244  1.00  0.00     0.163 HD
BRANCH   5   7
ATOM      7  C   UNL A   1      32.820  26.326  23.678  1.00  0.00     0.223 C 
BRANCH   7   8
ATOM      8  N   UNL A   1      32.312  24.962  23.738  1.00  0.00    -0.321 N 
ATOM      9  C   UNL A   1      31.017  24.629  23.432  1.00  0.00     0.201 A 
ATOM     10  C   UNL A   1      33.009  23.785  23.943  1.00  0.00     0.076 A 
ATOM     11  N   UNL A   1      30.823  23.332  23.466  1.00  0.00    -0.236 NA
ATOM     12  C   UNL A   1      32.043  22.797  23.794  1.00  0.00     0.096 A 
BRANCH  10  13
ATOM     13  C   UNL A   1      34.441  23.651  24.205  1.00  0.00     0.000 A 
ATOM     14  C   UNL A   1      35.300  23.164  23.214  1.00  0.00     0.010 A 
ATOM     15  C   UNL A   1      34.957  23.887  25.482  1.00  0.00     0.010 A 
ATOM     16  C   UNL A   1      36.653  22.952  23.492  1.00  0.00     0.001 A 
ATOM     17  C   UNL A   1      36.313  23.710  25.753  1.00  0.00     0.001 A 
ATOM     18  C   UNL A   1      37.163  23.240  24.757  1.00  0.00     0.000 A 
ENDBRANCH  10  13
BRANCH  12  19
ATOM     19  C   UNL A   1      32.279  21.373  23.934  1.00  0.00     0.002 A 
ATOM     20  C   UNL A   1      32.594  20.830  25.185  1.00  0.00     0.010 A 
ATOM     21  C   UNL A   1      32.153  20.522  22.828  1.00  0.00     0.010 A 
ATOM     22  C   UNL A   1      32.745  19.448  25.331  1.00  0.00     0.001 A 
ATOM     23  C   UNL A   1      32.310  19.144  22.974  1.00  0.00     0.001 A 
ATOM     24  C   UNL A   1      32.599  18.607  24.227  1.00  0.00     0.000 A 
ENDBRANCH  12  19
ENDBRANCH   7   8
ENDBRANCH   5   7
ENDBRANCH   2   3
ENDBRANCH   1   2
BRANCH   1  25
ATOM     25  C   UNL A   1      34.826  29.274  27.581  1.00  0.00     0.118 C 
BRANCH  25  26
ATOM     26  N   UNL A   1      35.083  30.286  28.607  1.00  0.00    -0.352 N 
ATOM     27  C   UNL A   1      36.161  30.353  29.478  1.00  0.00     0.251 C 
ATOM     28  H   UNL A   1      34.413  31.003  28.690  1.00  0.00     0.163 HD
ATOM     29  O   UNL A   1      36.123  31.022  30.491  1.00  0.00    -0.269 OA
BRANCH  27  30
ATOM     30  C   UNL A   1      37.365  29.573  29.138  1.00  0.00     0.039 A 
ATOM     31  C   UNL A   1      38.103  29.845  27.982  1.00  0.00     0.014 A 
ATOM     32  C   UNL A   1      37.788  28.616  30.052  1.00  0.00     0.014 A 
ATOM     33  C   UNL A   1      39.334  29.217  27.804  1.00  0.00     0.010 A 
ATOM     34  C   UNL A   1      39.058  28.108  29.947  1.00  0.00     0.010 A 
ATOM     35  C   UNL A   1      39.825  28.371  28.809  1.00  0.00    -0.014 A 
BRANCH  35  36
ATOM     36  C   UNL A   1      41.206  27.876  28.777  1.00  0.00     0.031 A 
ATOM     37  C   UNL A   1      41.393  26.556  28.093  1.00  0.00     0.074 A 
ATOM     38  C   UNL A   1      42.246  28.698  29.052  1.00  0.00     0.049 A 
ATOM     39  N   UNL A   1      42.006  25.501  28.523  1.00  0.00    -0.248 NA
ATOM     40  C   UNL A   1      40.740  26.360  26.784  1.00  0.00     0.031 C 
ATOM     41  C   UNL A   1      42.178  30.120  29.422  1.00  0.00     0.029 A 
ATOM     42  N   UNL A   1      43.585  28.498  28.903  1.00  0.00    -0.354 N 
ATOM     43  C   UNL A   1      41.988  24.584  27.467  1.00  0.00     0.074 A 
ATOM     44  C   UNL A   1      41.061  25.100  26.498  1.00  0.00     0.031 C 
ATOM     45  C   UNL A   1      43.374  30.703  29.205  1.00  0.00     0.029 A 
ATOM     46  C   UNL A   1      44.332  29.672  28.859  1.00  0.00     0.049 A 
ATOM     47  H   UNL A   1      43.989  27.603  28.831  1.00  0.00     0.167 HD
ATOM     48  C   UNL A   1      42.933  23.609  27.357  1.00  0.00     0.037 A 
ATOM     49  C   UNL A   1      45.639  29.805  28.531  1.00  0.00     0.037 A 
ATOM     50  C   UNL A   1      43.588  23.380  28.619  1.00  0.00     0.049 A 
ATOM     51  C   UNL A   1      46.260  28.468  28.644  1.00  0.00     0.074 A 
ATOM     52  C   UNL A   1      43.201  22.953  29.872  1.00  0.00     0.029 A 
ATOM     53  N   UNL A   1      44.829  23.940  28.775  1.00  0.00    -0.354 N 
ATOM     54  N   UNL A   1      46.423  27.829  29.767  1.00  0.00    -0.248 NA
ATOM     55  C   UNL A   1      46.362  27.656  27.443  1.00  0.00     0.031 C 
ATOM     56  C   UNL A   1      44.034  23.670  30.783  1.00  0.00     0.029 A 
ATOM     57  C   UNL A   1      44.917  24.453  30.039  1.00  0.00     0.049 A 
ATOM     58  H   UNL A   1      45.538  23.969  28.091  1.00  0.00     0.167 HD
ATOM     59  C   UNL A   1      46.208  26.499  29.446  1.00  0.00     0.074 A 
ATOM     60  C   UNL A   1      46.323  26.440  27.992  1.00  0.00     0.031 C 
ATOM     61  C   UNL A   1      45.671  25.642  30.363  1.00  0.00     0.037 A 
BRANCH  48  62
ATOM     62  C   UNL A   1      43.570  23.178  26.047  1.00  0.00     0.057 A 
ATOM     63  C   UNL A   1      43.657  21.803  25.747  1.00  0.00     0.134 A 
ATOM     64  C   UNL A   1      44.378  24.007  25.241  1.00  0.00     0.134 A 
ATOM     65  F   UNL A   1      42.945  20.901  26.439  1.00  0.00    -0.206 F 
ATOM     66  C   UNL A   1      44.550  21.291  24.796  1.00  0.00     0.040 A 
ATOM     67  C   UNL A   1      45.236  23.510  24.254  1.00  0.00     0.040 A 
ATOM     68  F   UNL A   1      44.464  25.330  25.423  1.00  0.00    -0.206 F 
ATOM     69  C   UNL A   1      45.354  22.145  24.054  1.00  0.00     0.006 A 
ENDBRANCH  48  62
BRANCH  49  70
ATOM     70  C   UNL A   1      46.334  30.944  27.891  1.00  0.00     0.057 A 
ATOM     71  C   UNL A   1      45.789  31.591  26.773  1.00  0.00     0.134 A 
ATOM     72  C   UNL A   1      47.408  31.597  28.521  1.00  0.00     0.134 A 
ATOM     73  F   UNL A   1      44.738  31.064  26.128  1.00  0.00    -0.206 F 
ATOM     74  C   UNL A   1      46.264  32.830  26.324  1.00  0.00     0.040 A 
ATOM     75  C   UNL A   1      47.898  32.830  28.077  1.00  0.00     0.040 A 
ATOM     76  F   UNL A   1      47.957  31.106  29.642  1.00  0.00    -0.206 F 
ATOM     77  C   UNL A   1      47.314  33.460  26.984  1.00  0.00     0.006 A 
ENDBRANCH  49  70
BRANCH  61  78
ATOM     78  C   UNL A   1      45.654  26.084  31.801  1.00  0.00     0.057 A 
ATOM     79  C   UNL A   1      44.547  26.655  32.445  1.00  0.00     0.134 A 
ATOM     80  C   UNL A   1      46.769  25.799  32.598  1.00  0.00     0.134 A 
ATOM     81  F   UNL A   1      43.402  26.878  31.792  1.00  0.00    -0.206 F 
ATOM     82  C   UNL A   1      44.565  26.969  33.808  1.00  0.00     0.040 A 
ATOM     83  C   UNL A   1      46.787  26.073  33.967  1.00  0.00     0.040 A 
ATOM     84  F   UNL A   1      47.846  25.202  32.063  1.00  0.00    -0.206 F 
ATOM     85  C   UNL A   1      45.686  26.672  34.574  1.00  0.00     0.006 A 
ENDBRANCH  61  78
ENDBRANCH  35  36
ENDBRANCH  27  30
ENDBRANCH  25  26
ENDBRANCH   1  25
TORSDOF 13
ENDMDL
MODEL 3
REMARK VINA RESULT:     -12.1      1.573      2.755
REMARK SMILES O=C(Cn1cnc(-c2ccccc2)c1-c1ccccc1)NCCCNC(=O)c1ccc(-c2c3nc(c(-c4c(F)cccc4F)c4ccc([nH]4)c(-c4c(F)cccc4F)c4nc(c(-c5c(F)cccc5F)c5ccc2[nH]5)C=C4)C=C3)cc1
REMARK SMILES IDX 23 1 22 2 21 3 1 4 2 5 3 7 4 8 5 9 14 10 6 11 7 12 15 13
REMARK SMILES IDX 16 14 20 15 17 16 19 17 18 18 8 19 9 20 13 21 10 22 12 23
REMARK SMILES IDX 11 24 24 25 25 26 26 27 27 29 28 30 29 31 81 32 30 33 80 34
REMARK SMILES IDX 31 35 32 36 33 37 74 38 34 39 79 40 73 41 75 42 35 43 78 44
REMARK SMILES IDX 72 45 71 46 36 48 62 49 45 50 61 51 46 52 49 53 60 54 76 55
REMARK SMILES IDX 47 56 48 57 59 59 77 60 50 61 37 62 38 63 43 64 39 65 40 66
REMARK SMILES IDX 42 67 44 68 41 69 63 70 64 71 69 72 65 73 66 74 68 75 70 76
REMARK SMILES IDX 67 77 51 78 52 79 57 80 53 81 54 82 56 83 58 84 55 85
REMARK H PARENT 21 6 25 28 75 47 49 58
REMARK Flexibility Score: inf
ROOT
ATOM      1  C   UNL A   1      37.964  20.085  24.560  1.00  0.00     0.042 C 
ENDROOT
BRANCH   1   2
ATOM      2  C   UNL A   1      36.684  19.366  24.975  1.00  0.00     0.117 C 
BRANCH   2   3
ATOM      3  N   UNL A   1      35.632  20.228  25.500  1.00  0.00    -0.354 N 
ATOM      4  O   UNL A   1      33.953  19.231  24.313  1.00  0.00    -0.273 OA
ATOM      5  C   UNL A   1      34.299  19.975  25.230  1.00  0.00     0.239 C 
ATOM      6  H   UNL A   1      35.874  21.004  26.056  1.00  0.00     0.163 HD
BRANCH   5   7
ATOM      7  C   UNL A   1      33.267  20.715  26.061  1.00  0.00     0.223 C 
BRANCH   7   8
ATOM      8  N   UNL A   1      32.632  21.856  25.414  1.00  0.00    -0.321 N 
ATOM      9  C   UNL A   1      31.274  22.050  25.397  1.00  0.00     0.201 A 
ATOM     10  C   UNL A   1      33.222  22.980  24.865  1.00  0.00     0.076 A 
ATOM     11  N   UNL A   1      30.949  23.192  24.841  1.00  0.00    -0.236 NA
ATOM     12  C   UNL A   1      32.142  23.774  24.494  1.00  0.00     0.096 A 
BRANCH  10  13
ATOM     13  C   UNL A   1      34.654  23.253  24.760  1.00  0.00     0.000 A 
ATOM     14  C   UNL A   1      35.330  23.032  23.554  1.00  0.00     0.010 A 
ATOM     15  C   UNL A   1      35.395  23.620  25.886  1.00  0.00     0.010 A 
ATOM     16  C   UNL A   1      36.714  23.209  23.477  1.00  0.00     0.001 A 
ATOM     17  C   UNL A   1      36.771  23.831  25.804  1.00  0.00     0.001 A 
ATOM     18  C   UNL A   1      37.432  23.623  24.598  1.00  0.00     0.000 A 
ENDBRANCH  10  13
BRANCH  12  19
ATOM     19  C   UNL A   1      32.243  25.068  23.849  1.00  0.00     0.002 A 
ATOM     20  C   UNL A   1      32.305  26.236  24.617  1.00  0.00     0.010 A 
ATOM     21  C   UNL A   1      32.321  25.159  22.453  1.00  0.00     0.010 A 
ATOM     22  C   UNL A   1      32.480  27.475  23.994  1.00  0.00     0.001 A 
ATOM     23  C   UNL A   1      32.490  26.396  21.832  1.00  0.00     0.001 A 
ATOM     24  C   UNL A   1      32.577  27.554  22.604  1.00  0.00     0.000 A 
ENDBRANCH  12  19
ENDBRANCH   7   8
ENDBRANCH   5   7
ENDBRANCH   2   3
ENDBRANCH   1   2
BRANCH   1  25
ATOM     25  C   UNL A   1      38.964  20.224  25.696  1.00  0.00     0.118 C 
BRANCH  25  26
ATOM     26  N   UNL A   1      39.927  19.124  25.768  1.00  0.00    -0.352 N 
ATOM     27  C   UNL A   1      41.295  19.211  25.980  1.00  0.00     0.251 C 
ATOM     28  H   UNL A   1      39.562  18.217  25.651  1.00  0.00     0.163 HD
ATOM     29  O   UNL A   1      42.044  18.296  25.699  1.00  0.00    -0.269 OA
BRANCH  27  30
ATOM     30  C   UNL A   1      41.822  20.462  26.557  1.00  0.00     0.039 A 
ATOM     31  C   UNL A   1      42.323  21.480  25.741  1.00  0.00     0.014 A 
ATOM     32  C   UNL A   1      41.721  20.624  27.933  1.00  0.00     0.014 A 
ATOM     33  C   UNL A   1      42.626  22.715  26.314  1.00  0.00     0.010 A 
ATOM     34  C   UNL A   1      41.883  21.877  28.470  1.00  0.00     0.010 A 
ATOM     35  C   UNL A   1      42.373  22.919  27.678  1.00  0.00    -0.014 A 
BRANCH  35  36
ATOM     36  C   UNL A   1      42.452  24.258  28.272  1.00  0.00     0.031 A 
ATOM     37  C   UNL A   1      41.241  25.117  28.071  1.00  0.00     0.074 A 
ATOM     38  C   UNL A   1      43.401  24.557  29.190  1.00  0.00     0.049 A 
ATOM     39  N   UNL A   1      41.172  26.330  27.626  1.00  0.00    -0.248 NA
ATOM     40  C   UNL A   1      39.919  24.512  28.326  1.00  0.00     0.031 C 
ATOM     41  C   UNL A   1      44.452  23.663  29.702  1.00  0.00     0.029 A 
ATOM     42  N   UNL A   1      43.537  25.654  29.987  1.00  0.00    -0.354 N 
ATOM     43  C   UNL A   1      39.831  26.708  27.733  1.00  0.00     0.074 A 
ATOM     44  C   UNL A   1      39.091  25.507  28.008  1.00  0.00     0.031 C 
ATOM     45  C   UNL A   1      44.922  24.139  30.872  1.00  0.00     0.029 A 
ATOM     46  C   UNL A   1      44.346  25.448  31.101  1.00  0.00     0.049 A 
ATOM     47  H   UNL A   1      43.102  26.515  29.791  1.00  0.00     0.167 HD
ATOM     48  C   UNL A   1      39.468  28.016  27.847  1.00  0.00     0.037 A 
ATOM     49  C   UNL A   1      44.513  26.275  32.160  1.00  0.00     0.037 A 
ATOM     50  C   UNL A   1      40.521  28.886  27.392  1.00  0.00     0.049 A 
ATOM     51  C   UNL A   1      44.043  27.616  31.752  1.00  0.00     0.074 A 
ATOM     52  C   UNL A   1      41.177  29.105  26.198  1.00  0.00     0.029 A 
ATOM     53  N   UNL A   1      41.287  29.479  28.360  1.00  0.00    -0.354 N 
ATOM     54  N   UNL A   1      44.628  28.356  30.855  1.00  0.00    -0.248 NA
ATOM     55  C   UNL A   1      42.675  27.989  32.074  1.00  0.00     0.031 C 
ATOM     56  C   UNL A   1      42.516  29.435  26.564  1.00  0.00     0.029 A 
ATOM     57  C   UNL A   1      42.593  29.451  27.957  1.00  0.00     0.049 A 
ATOM     58  H   UNL A   1      40.954  29.861  29.205  1.00  0.00     0.167 HD
ATOM     59  C   UNL A   1      43.591  28.990  30.193  1.00  0.00     0.074 A 
ATOM     60  C   UNL A   1      42.436  28.842  31.075  1.00  0.00     0.031 C 
ATOM     61  C   UNL A   1      43.704  29.310  28.871  1.00  0.00     0.037 A 
BRANCH  48  62
ATOM     62  C   UNL A   1      38.367  28.523  28.764  1.00  0.00     0.057 A 
ATOM     63  C   UNL A   1      37.513  29.547  28.307  1.00  0.00     0.134 A 
ATOM     64  C   UNL A   1      38.316  28.292  30.155  1.00  0.00     0.134 A 
ATOM     65  F   UNL A   1      37.463  29.874  27.007  1.00  0.00    -0.206 F 
ATOM     66  C   UNL A   1      36.753  30.342  29.176  1.00  0.00     0.040 A 
ATOM     67  C   UNL A   1      37.521  29.047  31.025  1.00  0.00     0.040 A 
ATOM     68  F   UNL A   1      39.100  27.398  30.768  1.00  0.00    -0.206 F 
ATOM     69  C   UNL A   1      36.765  30.101  30.542  1.00  0.00     0.006 A 
ENDBRANCH  48  62
BRANCH  49  70
ATOM     70  C   UNL A   1      44.816  25.943  33.570  1.00  0.00     0.057 A 
ATOM     71  C   UNL A   1      45.746  26.688  34.308  1.00  0.00     0.134 A 
ATOM     72  C   UNL A   1      44.005  25.062  34.308  1.00  0.00     0.134 A 
ATOM     73  F   UNL A   1      46.538  27.582  33.697  1.00  0.00    -0.206 F 
ATOM     74  C   UNL A   1      45.845  26.587  35.702  1.00  0.00     0.040 A 
ATOM     75  C   UNL A   1      44.100  24.944  35.699  1.00  0.00     0.040 A 
ATOM     76  F   UNL A   1      43.031  24.355  33.715  1.00  0.00    -0.206 F 
ATOM     77  C   UNL A   1      45.012  25.721  36.403  1.00  0.00     0.006 A 
ENDBRANCH  49  70
BRANCH  61  78
ATOM     78  C   UNL A   1      45.081  29.282  28.265  1.00  0.00     0.057 A 
ATOM     79  C   UNL A   1      45.650  28.166  27.635  1.00  0.00     0.134 A 
ATOM     80  C   UNL A   1      45.807  30.477  28.206  1.00  0.00     0.134 A 
ATOM     81  F   UNL A   1      44.994  27.003  27.554  1.00  0.00    -0.206 F 
ATOM     82  C   UNL A   1      46.902  28.225  27.016  1.00  0.00     0.040 A 
ATOM     83  C   UNL A   1      47.041  30.560  27.559  1.00  0.00     0.040 A 
ATOM     84  F   UNL A   1      45.300  31.601  28.739  1.00  0.00    -0.206 F 
ATOM     85  C   UNL A   1      47.599  29.428  26.971  1.00  0.00     0.006 A 
ENDBRANCH  61  78
ENDBRANCH  35  36
ENDBRANCH  27  30
ENDBRANCH  25  26
ENDBRANCH   1  25
TORSDOF 13
ENDMDL
