MODEL 1
REMARK VINA RESULT:     -12.3      0.000      0.000
REMARK SMILES Cn1cc(-c2cc(C(F)(F)F)c3c(C4CC4)nn(CC(=O)NCCCNC(=O)c4ccc(-c5c6nc(c(-c7c(F)cccc7F)c7ccc([nH]7)c(-c7c(F)cccc7F)c7nc(c(-c8c(F)cccc8F)c8ccc5[nH]8)C=C7)C=C6)cc4)c3n2)cn1
REMARK SMILES IDX 24 1 23 2 22 3 20 4 21 5 19 7 18 8 5 9 6 10 84 11 7 12 83 13
REMARK SMILES IDX 12 14 13 15 17 16 4 17 1 18 2 19 3 20 86 21 85 22 8 23 9 24
REMARK SMILES IDX 10 25 11 26 14 27 15 28 16 29 25 30 26 31 27 32 28 34 29 35
REMARK SMILES IDX 30 36 82 37 31 38 81 39 32 40 33 41 34 42 75 43 35 44 80 45
REMARK SMILES IDX 74 46 76 47 36 48 79 49 73 50 72 51 37 53 63 54 46 55 62 56
REMARK SMILES IDX 47 57 50 58 61 59 77 60 48 61 49 62 60 64 78 65 51 66 38 67
REMARK SMILES IDX 39 68 44 69 40 70 41 71 43 72 45 73 42 74 64 75 65 76 70 77
REMARK SMILES IDX 66 78 67 79 69 80 71 81 68 82 52 83 53 84 58 85 54 86 55 87
REMARK SMILES IDX 57 88 59 89 56 90
REMARK H PARENT 22 6 26 33 76 52 50 63
REMARK Flexibility Score: inf
ROOT
ATOM      1  C   UNL A   1      38.167  19.538  24.959  1.00  0.00     0.042 C 
ENDROOT
BRANCH   1   2
ATOM      2  C   UNL A   1      37.122  20.655  24.924  1.00  0.00     0.117 C 
BRANCH   2   3
ATOM      3  N   UNL A   1      37.631  21.925  25.416  1.00  0.00    -0.354 N 
ATOM      4  C   UNL A   1      36.920  23.081  25.584  1.00  0.00     0.241 C 
ATOM      5  O   UNL A   1      37.468  24.072  26.066  1.00  0.00    -0.273 OA
ATOM      6  H   UNL A   1      38.586  21.956  25.653  1.00  0.00     0.163 HD
BRANCH   4   7
ATOM      7  C   UNL A   1      35.465  23.062  25.241  1.00  0.00     0.246 C 
BRANCH   7   8
ATOM      8  N   UNL A   1      34.899  24.389  25.099  1.00  0.00    -0.237 N 
ATOM      9  C   UNL A   1      33.242  24.370  22.187  1.00  0.00     0.077 A 
ATOM     10  C   UNL A   1      32.718  25.658  22.111  1.00  0.00     0.043 A 
ATOM     11  N   UNL A   1      34.462  24.206  22.747  1.00  0.00    -0.228 NA
ATOM     12  C   UNL A   1      33.202  26.641  23.011  1.00  0.00     0.071 A 
ATOM     13  C   UNL A   1      34.488  24.892  23.904  1.00  0.00     0.159 A 
ATOM     14  C   UNL A   1      33.791  26.063  24.151  1.00  0.00     0.055 A 
ATOM     15  C   UNL A   1      33.691  26.076  25.569  1.00  0.00     0.076 A 
ATOM     16  N   UNL A   1      34.442  25.117  26.145  1.00  0.00    -0.175 NA
BRANCH   9  17
ATOM     17  C   UNL A   1      32.409  23.226  22.650  1.00  0.00     0.038 A 
ATOM     18  C   UNL A   1      31.030  22.529  25.871  1.00  0.00     0.173 C 
ATOM     19  N   UNL A   1      31.451  22.427  24.486  1.00  0.00    -0.275 N 
ATOM     20  C   UNL A   1      31.366  23.431  23.554  1.00  0.00     0.118 A 
ATOM     21  N   UNL A   1      32.284  21.441  24.107  1.00  0.00    -0.181 NA
ATOM     22  C   UNL A   1      32.906  21.950  23.036  1.00  0.00     0.145 A 
ENDBRANCH   9  17
BRANCH  12  23
ATOM     23  C   UNL A   1      33.343  28.088  22.628  1.00  0.00     0.417 C 
ATOM     24  F   UNL A   1      34.041  28.331  21.494  1.00  0.00    -0.166 F 
ATOM     25  F   UNL A   1      32.122  28.668  22.431  1.00  0.00    -0.166 F 
ATOM     26  F   UNL A   1      33.945  28.836  23.596  1.00  0.00    -0.166 F 
ENDBRANCH  12  23
BRANCH  15  27
ATOM     27  C   UNL A   1      32.670  26.795  26.453  1.00  0.00     0.041 C 
ATOM     28  C   UNL A   1      31.760  27.905  26.002  1.00  0.00     0.011 C 
ATOM     29  C   UNL A   1      31.191  26.543  26.186  1.00  0.00     0.011 C 
ENDBRANCH  15  27
ENDBRANCH   7   8
ENDBRANCH   4   7
ENDBRANCH   2   3
ENDBRANCH   1   2
BRANCH   1  30
ATOM     30  C   UNL A   1      39.200  19.807  26.019  1.00  0.00     0.118 C 
BRANCH  30  31
ATOM     31  N   UNL A   1      40.449  19.101  25.729  1.00  0.00    -0.352 N 
ATOM     32  C   UNL A   1      41.722  19.603  25.722  1.00  0.00     0.251 C 
ATOM     33  H   UNL A   1      40.362  18.145  25.512  1.00  0.00     0.163 HD
ATOM     34  O   UNL A   1      42.647  18.986  25.192  1.00  0.00    -0.269 OA
BRANCH  32  35
ATOM     35  C   UNL A   1      41.957  20.889  26.379  1.00  0.00     0.039 A 
ATOM     36  C   UNL A   1      42.474  21.977  25.679  1.00  0.00     0.014 A 
ATOM     37  C   UNL A   1      41.614  20.985  27.728  1.00  0.00     0.014 A 
ATOM     38  C   UNL A   1      42.636  23.170  26.364  1.00  0.00     0.010 A 
ATOM     39  C   UNL A   1      41.544  22.205  28.323  1.00  0.00     0.010 A 
ATOM     40  C   UNL A   1      42.173  23.258  27.688  1.00  0.00    -0.014 A 
BRANCH  40  41
ATOM     41  C   UNL A   1      42.270  24.485  28.443  1.00  0.00     0.031 A 
ATOM     42  C   UNL A   1      41.128  25.383  28.190  1.00  0.00     0.074 A 
ATOM     43  C   UNL A   1      43.199  24.664  29.406  1.00  0.00     0.049 A 
ATOM     44  N   UNL A   1      41.088  26.357  27.346  1.00  0.00    -0.248 NA
ATOM     45  C   UNL A   1      39.810  25.012  28.732  1.00  0.00     0.031 C 
ATOM     46  C   UNL A   1      44.135  23.675  29.963  1.00  0.00     0.029 A 
ATOM     47  N   UNL A   1      43.457  25.774  30.150  1.00  0.00    -0.354 N 
ATOM     48  C   UNL A   1      39.833  26.926  27.520  1.00  0.00     0.074 A 
ATOM     49  C   UNL A   1      39.024  25.909  28.130  1.00  0.00     0.031 C 
ATOM     50  C   UNL A   1      44.699  24.162  31.091  1.00  0.00     0.029 A 
ATOM     51  C   UNL A   1      44.315  25.552  31.225  1.00  0.00     0.049 A 
ATOM     52  H   UNL A   1      43.071  26.657  29.947  1.00  0.00     0.167 HD
ATOM     53  C   UNL A   1      39.722  28.286  27.539  1.00  0.00     0.037 A 
ATOM     54  C   UNL A   1      44.687  26.470  32.150  1.00  0.00     0.037 A 
ATOM     55  C   UNL A   1      40.956  28.883  27.073  1.00  0.00     0.049 A 
ATOM     56  C   UNL A   1      44.478  27.805  31.544  1.00  0.00     0.074 A 
ATOM     57  C   UNL A   1      41.598  29.077  25.870  1.00  0.00     0.029 A 
ATOM     58  N   UNL A   1      41.901  28.998  28.061  1.00  0.00    -0.354 N 
ATOM     59  N   UNL A   1      45.166  28.235  30.520  1.00  0.00    -0.248 NA
ATOM     60  C   UNL A   1      43.231  28.517  31.800  1.00  0.00     0.031 C 
ATOM     61  C   UNL A   1      42.990  29.201  26.172  1.00  0.00     0.029 A 
ATOM     62  C   UNL A   1      43.162  29.133  27.552  1.00  0.00     0.049 A 
ATOM     63  H   UNL A   1      41.695  28.983  29.024  1.00  0.00     0.167 HD
ATOM     64  C   UNL A   1      44.253  28.954  29.771  1.00  0.00     0.074 A 
ATOM     65  C   UNL A   1      43.147  29.240  30.678  1.00  0.00     0.031 C 
ATOM     66  C   UNL A   1      44.314  28.953  28.407  1.00  0.00     0.037 A 
BRANCH  53  67
ATOM     67  C   UNL A   1      38.820  29.075  28.474  1.00  0.00     0.057 A 
ATOM     68  C   UNL A   1      37.658  29.779  28.096  1.00  0.00     0.134 A 
ATOM     69  C   UNL A   1      38.935  28.832  29.858  1.00  0.00     0.134 A 
ATOM     70  F   UNL A   1      37.371  30.088  26.829  1.00  0.00    -0.206 F 
ATOM     71  C   UNL A   1      36.656  30.135  29.003  1.00  0.00     0.040 A 
ATOM     72  C   UNL A   1      37.921  29.153  30.768  1.00  0.00     0.040 A 
ATOM     73  F   UNL A   1      40.006  28.198  30.359  1.00  0.00    -0.206 F 
ATOM     74  C   UNL A   1      36.765  29.789  30.338  1.00  0.00     0.006 A 
ENDBRANCH  53  67
BRANCH  54  75
ATOM     75  C   UNL A   1      44.956  26.284  33.589  1.00  0.00     0.057 A 
ATOM     76  C   UNL A   1      46.265  26.054  34.047  1.00  0.00     0.134 A 
ATOM     77  C   UNL A   1      43.925  26.029  34.504  1.00  0.00     0.134 A 
ATOM     78  F   UNL A   1      47.315  26.205  33.226  1.00  0.00    -0.206 F 
ATOM     79  C   UNL A   1      46.533  25.566  35.330  1.00  0.00     0.040 A 
ATOM     80  C   UNL A   1      44.180  25.542  35.793  1.00  0.00     0.040 A 
ATOM     81  F   UNL A   1      42.644  26.185  34.144  1.00  0.00    -0.206 F 
ATOM     82  C   UNL A   1      45.487  25.294  36.204  1.00  0.00     0.006 A 
ENDBRANCH  54  75
BRANCH  66  83
ATOM     83  C   UNL A   1      45.626  28.606  27.777  1.00  0.00     0.057 A 
ATOM     84  C   UNL A   1      46.559  29.631  27.592  1.00  0.00     0.134 A 
ATOM     85  C   UNL A   1      45.976  27.334  27.304  1.00  0.00     0.134 A 
ATOM     86  F   UNL A   1      46.271  30.882  27.985  1.00  0.00    -0.206 F 
ATOM     87  C   UNL A   1      47.790  29.406  26.977  1.00  0.00     0.040 A 
ATOM     88  C   UNL A   1      47.219  27.087  26.711  1.00  0.00     0.040 A 
ATOM     89  F   UNL A   1      45.118  26.309  27.374  1.00  0.00    -0.206 F 
ATOM     90  C   UNL A   1      48.129  28.128  26.545  1.00  0.00     0.006 A 
ENDBRANCH  66  83
ENDBRANCH  40  41
ENDBRANCH  32  35
ENDBRANCH  30  31
ENDBRANCH   1  30
TORSDOF 14
ENDMDL
MODEL 2
REMARK VINA RESULT:     -12.3      4.215      8.721
REMARK SMILES Cn1cc(-c2cc(C(F)(F)F)c3c(C4CC4)nn(CC(=O)NCCCNC(=O)c4ccc(-c5c6nc(c(-c7c(F)cccc7F)c7ccc([nH]7)c(-c7c(F)cccc7F)c7nc(c(-c8c(F)cccc8F)c8ccc5[nH]8)C=C7)C=C6)cc4)c3n2)cn1
REMARK SMILES IDX 24 1 23 2 22 3 20 4 21 5 19 7 18 8 5 9 6 10 84 11 7 12 83 13
REMARK SMILES IDX 12 14 13 15 17 16 4 17 1 18 2 19 3 20 86 21 85 22 8 23 9 24
REMARK SMILES IDX 10 25 11 26 14 27 15 28 16 29 25 30 26 31 27 32 28 34 29 35
REMARK SMILES IDX 30 36 82 37 31 38 81 39 32 40 33 41 34 42 75 43 35 44 80 45
REMARK SMILES IDX 74 46 76 47 36 48 79 49 73 50 72 51 37 53 63 54 46 55 62 56
REMARK SMILES IDX 47 57 50 58 61 59 77 60 48 61 49 62 60 64 78 65 51 66 38 67
REMARK SMILES IDX 39 68 44 69 40 70 41 71 43 72 45 73 42 74 64 75 65 76 70 77
REMARK SMILES IDX 66 78 67 79 69 80 71 81 68 82 52 83 53 84 58 85 54 86 55 87
REMARK SMILES IDX 57 88 59 89 56 90
REMARK H PARENT 22 6 26 33 76 52 50 63
REMARK Flexibility Score: inf
ROOT
ATOM      1  C   UNL A   1      31.460  32.282  26.858  1.00  0.00     0.042 C 
ENDROOT
BRANCH   1   2
ATOM      2  C   UNL A   1      31.804  30.813  26.601  1.00  0.00     0.117 C 
BRANCH   2   3
ATOM      3  N   UNL A   1      32.856  30.315  27.472  1.00  0.00    -0.354 N 
ATOM      4  C   UNL A   1      33.733  29.302  27.199  1.00  0.00     0.241 C 
ATOM      5  O   UNL A   1      34.615  29.020  28.010  1.00  0.00    -0.273 OA
ATOM      6  H   UNL A   1      32.946  30.751  28.350  1.00  0.00     0.163 HD
BRANCH   4   7
ATOM      7  C   UNL A   1      33.627  28.626  25.870  1.00  0.00     0.246 C 
BRANCH   7   8
ATOM      8  N   UNL A   1      33.495  27.186  25.975  1.00  0.00    -0.237 N 
ATOM      9  C   UNL A   1      30.368  26.480  25.002  1.00  0.00     0.077 A 
ATOM     10  C   UNL A   1      30.305  25.093  25.116  1.00  0.00     0.043 A 
ATOM     11  N   UNL A   1      31.097  27.165  25.911  1.00  0.00    -0.228 NA
ATOM     12  C   UNL A   1      31.339  24.423  25.819  1.00  0.00     0.071 A 
ATOM     13  C   UNL A   1      32.290  26.558  26.036  1.00  0.00     0.159 A 
ATOM     14  C   UNL A   1      32.511  25.198  25.891  1.00  0.00     0.055 A 
ATOM     15  C   UNL A   1      33.894  25.137  25.566  1.00  0.00     0.076 A 
ATOM     16  N   UNL A   1      34.508  26.327  25.711  1.00  0.00    -0.175 NA
BRANCH   9  17
ATOM     17  C   UNL A   1      30.613  27.133  23.687  1.00  0.00     0.038 A 
ATOM     18  C   UNL A   1      33.681  27.921  22.034  1.00  0.00     0.173 C 
ATOM     19  N   UNL A   1      32.277  27.826  22.392  1.00  0.00    -0.275 N 
ATOM     20  C   UNL A   1      31.652  26.699  22.863  1.00  0.00     0.118 A 
ATOM     21  N   UNL A   1      31.564  28.945  22.619  1.00  0.00    -0.181 NA
ATOM     22  C   UNL A   1      30.597  28.536  23.451  1.00  0.00     0.145 A 
ENDBRANCH   9  17
BRANCH  12  23
ATOM     23  C   UNL A   1      31.088  23.190  26.642  1.00  0.00     0.417 C 
ATOM     24  F   UNL A   1      31.096  22.019  25.963  1.00  0.00    -0.166 F 
ATOM     25  F   UNL A   1      32.034  23.047  27.618  1.00  0.00    -0.166 F 
ATOM     26  F   UNL A   1      29.895  23.225  27.299  1.00  0.00    -0.166 F 
ENDBRANCH  12  23
BRANCH  15  27
ATOM     27  C   UNL A   1      34.659  24.036  24.828  1.00  0.00     0.041 C 
ATOM     28  C   UNL A   1      34.139  22.651  24.556  1.00  0.00     0.011 C 
ATOM     29  C   UNL A   1      34.172  23.634  23.441  1.00  0.00     0.011 C 
ENDBRANCH  15  27
ENDBRANCH   7   8
ENDBRANCH   4   7
ENDBRANCH   2   3
ENDBRANCH   1   2
BRANCH   1  30
ATOM     30  C   UNL A   1      32.708  33.086  27.103  1.00  0.00     0.118 C 
BRANCH  30  31
ATOM     31  N   UNL A   1      32.444  34.205  28.009  1.00  0.00    -0.352 N 
ATOM     32  C   UNL A   1      33.104  34.532  29.163  1.00  0.00     0.251 C 
ATOM     33  H   UNL A   1      31.698  34.796  27.757  1.00  0.00     0.163 HD
ATOM     34  O   UNL A   1      32.614  35.318  29.975  1.00  0.00    -0.269 OA
BRANCH  32  35
ATOM     35  C   UNL A   1      34.418  33.935  29.396  1.00  0.00     0.039 A 
ATOM     36  C   UNL A   1      34.661  33.124  30.503  1.00  0.00     0.014 A 
ATOM     37  C   UNL A   1      35.408  34.188  28.446  1.00  0.00     0.014 A 
ATOM     38  C   UNL A   1      35.923  32.569  30.635  1.00  0.00     0.010 A 
ATOM     39  C   UNL A   1      36.552  33.454  28.449  1.00  0.00     0.010 A 
ATOM     40  C   UNL A   1      36.855  32.755  29.600  1.00  0.00    -0.014 A 
BRANCH  40  41
ATOM     41  C   UNL A   1      38.172  32.164  29.654  1.00  0.00     0.031 A 
ATOM     42  C   UNL A   1      38.172  30.766  29.185  1.00  0.00     0.074 A 
ATOM     43  C   UNL A   1      39.277  32.896  29.913  1.00  0.00     0.049 A 
ATOM     44  N   UNL A   1      38.089  29.708  29.919  1.00  0.00    -0.248 NA
ATOM     45  C   UNL A   1      37.983  30.507  27.748  1.00  0.00     0.031 C 
ATOM     46  C   UNL A   1      39.394  34.357  30.027  1.00  0.00     0.029 A 
ATOM     47  N   UNL A   1      40.564  32.478  30.061  1.00  0.00    -0.354 N 
ATOM     48  C   UNL A   1      38.188  28.648  29.028  1.00  0.00     0.074 A 
ATOM     49  C   UNL A   1      37.821  29.181  27.746  1.00  0.00     0.031 C 
ATOM     50  C   UNL A   1      40.697  34.716  30.008  1.00  0.00     0.029 A 
ATOM     51  C   UNL A   1      41.499  33.511  30.076  1.00  0.00     0.049 A 
ATOM     52  H   UNL A   1      40.813  31.529  30.149  1.00  0.00     0.167 HD
ATOM     53  C   UNL A   1      38.963  27.577  29.360  1.00  0.00     0.037 A 
ATOM     54  C   UNL A   1      42.844  33.367  30.154  1.00  0.00     0.037 A 
ATOM     55  C   UNL A   1      39.317  27.647  30.763  1.00  0.00     0.049 A 
ATOM     56  C   UNL A   1      43.103  32.032  30.742  1.00  0.00     0.074 A 
ATOM     57  C   UNL A   1      38.706  27.423  31.976  1.00  0.00     0.029 A 
ATOM     58  N   UNL A   1      40.408  28.444  30.999  1.00  0.00    -0.354 N 
ATOM     59  N   UNL A   1      42.777  31.721  31.968  1.00  0.00    -0.248 NA
ATOM     60  C   UNL A   1      43.350  30.899  29.857  1.00  0.00     0.031 C 
ATOM     61  C   UNL A   1      39.412  28.213  32.935  1.00  0.00     0.029 A 
ATOM     62  C   UNL A   1      40.469  28.859  32.300  1.00  0.00     0.049 A 
ATOM     63  H   UNL A   1      41.070  28.690  30.312  1.00  0.00     0.167 HD
ATOM     64  C   UNL A   1      42.364  30.405  31.891  1.00  0.00     0.074 A 
ATOM     65  C   UNL A   1      42.897  29.905  30.628  1.00  0.00     0.031 C 
ATOM     66  C   UNL A   1      41.347  29.945  32.677  1.00  0.00     0.037 A 
BRANCH  53  67
ATOM     67  C   UNL A   1      39.870  26.825  28.400  1.00  0.00     0.057 A 
ATOM     68  C   UNL A   1      39.668  25.507  27.939  1.00  0.00     0.134 A 
ATOM     69  C   UNL A   1      40.796  27.575  27.646  1.00  0.00     0.134 A 
ATOM     70  F   UNL A   1      38.820  24.653  28.518  1.00  0.00    -0.206 F 
ATOM     71  C   UNL A   1      40.267  25.006  26.780  1.00  0.00     0.040 A 
ATOM     72  C   UNL A   1      41.372  27.094  26.464  1.00  0.00     0.040 A 
ATOM     73  F   UNL A   1      41.105  28.834  27.991  1.00  0.00    -0.206 F 
ATOM     74  C   UNL A   1      41.093  25.811  26.015  1.00  0.00     0.006 A 
ENDBRANCH  53  67
BRANCH  54  75
ATOM     75  C   UNL A   1      43.905  34.177  29.524  1.00  0.00     0.057 A 
ATOM     76  C   UNL A   1      44.433  35.299  30.186  1.00  0.00     0.134 A 
ATOM     77  C   UNL A   1      44.211  34.060  28.162  1.00  0.00     0.134 A 
ATOM     78  F   UNL A   1      44.143  35.536  31.474  1.00  0.00    -0.206 F 
ATOM     79  C   UNL A   1      45.194  36.267  29.524  1.00  0.00     0.040 A 
ATOM     80  C   UNL A   1      44.974  35.022  27.487  1.00  0.00     0.040 A 
ATOM     81  F   UNL A   1      43.720  33.042  27.442  1.00  0.00    -0.206 F 
ATOM     82  C   UNL A   1      45.455  36.138  28.164  1.00  0.00     0.006 A 
ENDBRANCH  54  75
BRANCH  66  83
ATOM     83  C   UNL A   1      41.049  30.705  33.931  1.00  0.00     0.057 A 
ATOM     84  C   UNL A   1      41.780  30.390  35.080  1.00  0.00     0.134 A 
ATOM     85  C   UNL A   1      40.048  31.679  34.057  1.00  0.00     0.134 A 
ATOM     86  F   UNL A   1      42.725  29.438  35.037  1.00  0.00    -0.206 F 
ATOM     87  C   UNL A   1      41.540  31.020  36.301  1.00  0.00     0.040 A 
ATOM     88  C   UNL A   1      39.817  32.338  35.269  1.00  0.00     0.040 A 
ATOM     89  F   UNL A   1      39.253  31.992  33.028  1.00  0.00    -0.206 F 
ATOM     90  C   UNL A   1      40.564  32.007  36.396  1.00  0.00     0.006 A 
ENDBRANCH  66  83
ENDBRANCH  40  41
ENDBRANCH  32  35
ENDBRANCH  30  31
ENDBRANCH   1  30
TORSDOF 14
ENDMDL
MODEL 3
REMARK VINA RESULT:     -12.2      3.233      7.227
REMARK SMILES Cn1cc(-c2cc(C(F)(F)F)c3c(C4CC4)nn(CC(=O)NCCCNC(=O)c4ccc(-c5c6nc(c(-c7c(F)cccc7F)c7ccc([nH]7)c(-c7c(F)cccc7F)c7nc(c(-c8c(F)cccc8F)c8ccc5[nH]8)C=C7)C=C6)cc4)c3n2)cn1
REMARK SMILES IDX 24 1 23 2 22 3 20 4 21 5 19 7 18 8 5 9 6 10 84 11 7 12 83 13
REMARK SMILES IDX 12 14 13 15 17 16 4 17 1 18 2 19 3 20 86 21 85 22 8 23 9 24
REMARK SMILES IDX 10 25 11 26 14 27 15 28 16 29 25 30 26 31 27 32 28 34 29 35
REMARK SMILES IDX 30 36 82 37 31 38 81 39 32 40 33 41 34 42 75 43 35 44 80 45
REMARK SMILES IDX 74 46 76 47 36 48 79 49 73 50 72 51 37 53 63 54 46 55 62 56
REMARK SMILES IDX 47 57 50 58 61 59 77 60 48 61 49 62 60 64 78 65 51 66 38 67
REMARK SMILES IDX 39 68 44 69 40 70 41 71 43 72 45 73 42 74 64 75 65 76 70 77
REMARK SMILES IDX 66 78 67 79 69 80 71 81 68 82 52 83 53 84 58 85 54 86 55 87
REMARK SMILES IDX 57 88 59 89 56 90
REMARK H PARENT 22 6 26 33 76 52 50 63
REMARK Flexibility Score: inf
ROOT
ATOM      1  C   UNL A   1      35.024  29.332  27.310  1.00  0.00     0.042 C 
ENDROOT
BRANCH   1   2
ATOM      2  C   UNL A   1      33.762  29.983  26.739  1.00  0.00     0.117 C 
BRANCH   2   3
ATOM      3  N   UNL A   1      33.585  29.729  25.318  1.00  0.00    -0.354 N 
ATOM      4  C   UNL A   1      32.831  28.739  24.753  1.00  0.00     0.241 C 
ATOM      5  O   UNL A   1      32.723  28.674  23.528  1.00  0.00    -0.273 OA
ATOM      6  H   UNL A   1      34.056  30.332  24.699  1.00  0.00     0.163 HD
BRANCH   4   7
ATOM      7  C   UNL A   1      32.095  27.812  25.667  1.00  0.00     0.246 C 
BRANCH   7   8
ATOM      8  N   UNL A   1      32.841  26.607  25.974  1.00  0.00    -0.237 N 
ATOM      9  C   UNL A   1      30.668  24.078  25.649  1.00  0.00     0.077 A 
ATOM     10  C   UNL A   1      31.439  22.956  25.945  1.00  0.00     0.043 A 
ATOM     11  N   UNL A   1      30.915  25.222  26.326  1.00  0.00    -0.228 NA
ATOM     12  C   UNL A   1      32.713  23.147  26.539  1.00  0.00     0.071 A 
ATOM     13  C   UNL A   1      32.242  25.436  26.320  1.00  0.00     0.159 A 
ATOM     14  C   UNL A   1      33.209  24.444  26.310  1.00  0.00     0.055 A 
ATOM     15  C   UNL A   1      34.339  25.111  25.763  1.00  0.00     0.076 A 
ATOM     16  N   UNL A   1      34.145  26.439  25.649  1.00  0.00    -0.175 NA
BRANCH   9  17
ATOM     17  C   UNL A   1      30.394  24.473  24.240  1.00  0.00     0.038 A 
ATOM     18  C   UNL A   1      32.617  25.620  21.688  1.00  0.00     0.173 C 
ATOM     19  N   UNL A   1      31.428  25.261  22.441  1.00  0.00    -0.275 N 
ATOM     20  C   UNL A   1      31.293  24.142  23.225  1.00  0.00     0.118 A 
ATOM     21  N   UNL A   1      30.490  26.190  22.700  1.00  0.00    -0.181 NA
ATOM     22  C   UNL A   1      29.910  25.744  23.822  1.00  0.00     0.145 A 
ENDBRANCH   9  17
BRANCH  12  23
ATOM     23  C   UNL A   1      33.290  22.186  27.540  1.00  0.00     0.417 C 
ATOM     24  F   UNL A   1      32.509  21.915  28.613  1.00  0.00    -0.166 F 
ATOM     25  F   UNL A   1      33.550  20.973  26.968  1.00  0.00    -0.166 F 
ATOM     26  F   UNL A   1      34.481  22.605  28.052  1.00  0.00    -0.166 F 
ENDBRANCH  12  23
BRANCH  15  27
ATOM     27  C   UNL A   1      35.553  24.514  25.048  1.00  0.00     0.041 C 
ATOM     28  C   UNL A   1      35.953  23.064  25.081  1.00  0.00     0.011 C 
ATOM     29  C   UNL A   1      35.302  23.599  23.856  1.00  0.00     0.011 C 
ENDBRANCH  15  27
ENDBRANCH   7   8
ENDBRANCH   4   7
ENDBRANCH   2   3
ENDBRANCH   1   2
BRANCH   1  30
ATOM     30  C   UNL A   1      35.886  30.355  27.997  1.00  0.00     0.118 C 
BRANCH  30  31
ATOM     31  N   UNL A   1      35.787  30.235  29.453  1.00  0.00    -0.352 N 
ATOM     32  C   UNL A   1      36.620  29.561  30.304  1.00  0.00     0.251 C 
ATOM     33  H   UNL A   1      35.026  30.699  29.872  1.00  0.00     0.163 HD
ATOM     34  O   UNL A   1      36.275  29.301  31.458  1.00  0.00    -0.269 OA
BRANCH  32  35
ATOM     35  C   UNL A   1      37.940  29.171  29.810  1.00  0.00     0.039 A 
ATOM     36  C   UNL A   1      38.534  29.825  28.733  1.00  0.00     0.014 A 
ATOM     37  C   UNL A   1      38.589  28.135  30.483  1.00  0.00     0.014 A 
ATOM     38  C   UNL A   1      39.801  29.418  28.347  1.00  0.00     0.010 A 
ATOM     39  C   UNL A   1      39.910  27.908  30.263  1.00  0.00     0.010 A 
ATOM     40  C   UNL A   1      40.465  28.451  29.121  1.00  0.00    -0.014 A 
BRANCH  40  41
ATOM     41  C   UNL A   1      41.805  28.016  28.800  1.00  0.00     0.031 A 
ATOM     42  C   UNL A   1      41.808  26.792  27.977  1.00  0.00     0.074 A 
ATOM     43  C   UNL A   1      42.889  28.775  29.065  1.00  0.00     0.049 A 
ATOM     44  N   UNL A   1      41.929  25.580  28.401  1.00  0.00    -0.248 NA
ATOM     45  C   UNL A   1      41.374  26.889  26.573  1.00  0.00     0.031 C 
ATOM     46  C   UNL A   1      42.931  30.163  29.550  1.00  0.00     0.029 A 
ATOM     47  N   UNL A   1      44.206  28.479  28.886  1.00  0.00    -0.354 N 
ATOM     48  C   UNL A   1      41.930  24.800  27.252  1.00  0.00     0.074 A 
ATOM     49  C   UNL A   1      41.299  25.597  26.239  1.00  0.00     0.031 C 
ATOM     50  C   UNL A   1      44.183  30.656  29.419  1.00  0.00     0.029 A 
ATOM     51  C   UNL A   1      45.059  29.571  29.028  1.00  0.00     0.049 A 
ATOM     52  H   UNL A   1      44.527  27.572  28.672  1.00  0.00     0.167 HD
ATOM     53  C   UNL A   1      42.820  23.772  27.153  1.00  0.00     0.037 A 
ATOM     54  C   UNL A   1      46.402  29.561  28.847  1.00  0.00     0.037 A 
ATOM     55  C   UNL A   1      43.422  23.521  28.447  1.00  0.00     0.049 A 
ATOM     56  C   UNL A   1      46.850  28.157  29.003  1.00  0.00     0.074 A 
ATOM     57  C   UNL A   1      43.060  22.928  29.636  1.00  0.00     0.029 A 
ATOM     58  N   UNL A   1      44.485  24.347  28.711  1.00  0.00    -0.354 N 
ATOM     59  N   UNL A   1      46.777  27.510  30.135  1.00  0.00    -0.248 NA
ATOM     60  C   UNL A   1      47.001  27.322  27.816  1.00  0.00     0.031 C 
ATOM     61  C   UNL A   1      43.879  23.521  30.646  1.00  0.00     0.029 A 
ATOM     62  C   UNL A   1      44.757  24.421  30.048  1.00  0.00     0.049 A 
ATOM     63  H   UNL A   1      44.990  24.832  28.019  1.00  0.00     0.167 HD
ATOM     64  C   UNL A   1      46.441  26.220  29.772  1.00  0.00     0.074 A 
ATOM     65  C   UNL A   1      46.763  26.121  28.352  1.00  0.00     0.031 C 
ATOM     66  C   UNL A   1      45.619  25.465  30.557  1.00  0.00     0.037 A 
BRANCH  53  67
ATOM     67  C   UNL A   1      43.581  23.394  25.893  1.00  0.00     0.057 A 
ATOM     68  C   UNL A   1      44.513  24.210  25.219  1.00  0.00     0.134 A 
ATOM     69  C   UNL A   1      43.632  22.030  25.540  1.00  0.00     0.134 A 
ATOM     70  F   UNL A   1      44.622  25.524  25.431  1.00  0.00    -0.206 F 
ATOM     71  C   UNL A   1      45.470  23.702  24.335  1.00  0.00     0.040 A 
ATOM     72  C   UNL A   1      44.610  21.507  24.685  1.00  0.00     0.040 A 
ATOM     73  F   UNL A   1      42.781  21.146  26.084  1.00  0.00    -0.206 F 
ATOM     74  C   UNL A   1      45.547  22.342  24.094  1.00  0.00     0.006 A 
ENDBRANCH  53  67
BRANCH  54  75
ATOM     75  C   UNL A   1      47.274  30.617  28.298  1.00  0.00     0.057 A 
ATOM     76  C   UNL A   1      48.219  31.259  29.116  1.00  0.00     0.134 A 
ATOM     77  C   UNL A   1      47.006  31.226  27.065  1.00  0.00     0.134 A 
ATOM     78  F   UNL A   1      48.496  30.791  30.343  1.00  0.00    -0.206 F 
ATOM     79  C   UNL A   1      48.839  32.457  28.745  1.00  0.00     0.040 A 
ATOM     80  C   UNL A   1      47.621  32.425  26.679  1.00  0.00     0.040 A 
ATOM     81  F   UNL A   1      46.092  30.705  26.235  1.00  0.00    -0.206 F 
ATOM     82  C   UNL A   1      48.529  33.053  27.528  1.00  0.00     0.006 A 
ENDBRANCH  54  75
BRANCH  66  83
ATOM     83  C   UNL A   1      45.509  25.843  32.001  1.00  0.00     0.057 A 
ATOM     84  C   UNL A   1      44.360  26.520  32.418  1.00  0.00     0.134 A 
ATOM     85  C   UNL A   1      46.501  25.616  32.966  1.00  0.00     0.134 A 
ATOM     86  F   UNL A   1      43.389  26.805  31.536  1.00  0.00    -0.206 F 
ATOM     87  C   UNL A   1      44.192  26.945  33.736  1.00  0.00     0.040 A 
ATOM     88  C   UNL A   1      46.334  26.012  34.297  1.00  0.00     0.040 A 
ATOM     89  F   UNL A   1      47.664  25.038  32.641  1.00  0.00    -0.206 F 
ATOM     90  C   UNL A   1      45.175  26.680  34.684  1.00  0.00     0.006 A 
ENDBRANCH  66  83
ENDBRANCH  40  41
ENDBRANCH  32  35
ENDBRANCH  30  31
ENDBRANCH   1  30
TORSDOF 14
ENDMDL
