MODEL 1
REMARK VINA RESULT:      -9.4      0.000      0.000
REMARK SMILES COCc1cccc(O[C@@H](F)C(=O)NCCCNC(=O)c2ccc(-c3c4nc(c(-c5c(F)cccc5F)c5ccc([nH]5)c(-c5c(F)cccc5F)c5nc(c(-c6c(F)cccc6F)c6ccc3[nH]6)C=C5)C=C4)cc2)c1
REMARK SMILES IDX 15 1 14 2 12 3 13 4 10 6 11 7 9 8 8 9 4 10 5 11 75 12 6 13
REMARK SMILES IDX 7 14 3 15 2 16 1 17 16 18 17 19 18 20 19 21 20 23 21 24
REMARK SMILES IDX 22 25 74 26 23 27 73 28 24 29 25 30 26 31 67 32 27 33 72 34
REMARK SMILES IDX 66 35 68 36 28 37 71 38 65 39 64 40 29 42 55 43 38 44 54 45
REMARK SMILES IDX 39 46 42 47 53 48 69 49 40 50 41 51 52 53 70 54 43 55 30 56
REMARK SMILES IDX 31 57 36 58 32 59 33 60 35 61 37 62 34 63 56 64 57 65 62 66
REMARK SMILES IDX 58 67 59 68 61 69 63 70 60 71 44 72 45 73 50 74 46 75 47 76
REMARK SMILES IDX 49 77 51 78 48 79
REMARK H PARENT 14 5 18 22 68 41 42 52
REMARK Flexibility Score: inf
ROOT
ATOM      1  C   UNL A   1      45.504  19.608  24.768  1.00  0.00     0.118 C 
ENDROOT
BRANCH   1   2
ATOM      2  N   UNL A   1      44.893  20.591  23.897  1.00  0.00    -0.350 N 
ATOM      3  C   UNL A   1      45.056  21.950  23.862  1.00  0.00     0.294 C 
ATOM      4  O   UNL A   1      44.292  22.576  23.117  1.00  0.00    -0.267 OA
ATOM      5  H   UNL A   1      44.266  20.228  23.231  1.00  0.00     0.163 HD
BRANCH   3   6
ATOM      6  C   UNL A   1      46.150  22.680  24.688  1.00  0.00     0.440 C 
ATOM      7  F   UNL A   1      45.886  22.679  26.027  1.00  0.00    -0.191 F 
BRANCH   6   8
ATOM      8  O   UNL A   1      46.592  23.962  24.238  1.00  0.00    -0.452 OA
BRANCH   8   9
ATOM      9  C   UNL A   1      46.206  25.092  24.892  1.00  0.00     0.124 A 
ATOM     10  C   UNL A   1      44.588  26.755  25.644  1.00  0.00    -0.019 A 
ATOM     11  C   UNL A   1      45.640  27.512  26.181  1.00  0.00     0.006 A 
ATOM     12  C   UNL A   1      44.885  25.509  25.069  1.00  0.00     0.052 A 
ATOM     13  C   UNL A   1      46.954  27.047  26.114  1.00  0.00     0.004 A 
ATOM     14  C   UNL A   1      47.234  25.846  25.458  1.00  0.00     0.046 A 
BRANCH  10  15
ATOM     15  C   UNL A   1      43.201  27.363  25.587  1.00  0.00     0.195 C 
BRANCH  15  16
ATOM     16  O   UNL A   1      42.846  28.153  26.722  1.00  0.00    -0.380 OA
ATOM     17  C   UNL A   1      42.457  29.484  26.408  1.00  0.00     0.195 C 
ENDBRANCH  15  16
ENDBRANCH  10  15
ENDBRANCH   8   9
ENDBRANCH   6   8
ENDBRANCH   3   6
ENDBRANCH   1   2
BRANCH   1  18
ATOM     18  C   UNL A   1      44.573  18.420  24.979  1.00  0.00     0.042 C 
BRANCH  18  19
ATOM     19  C   UNL A   1      43.688  18.526  26.210  1.00  0.00     0.118 C 
BRANCH  19  20
ATOM     20  N   UNL A   1      42.270  18.574  25.881  1.00  0.00    -0.352 N 
ATOM     21  C   UNL A   1      41.310  19.530  26.108  1.00  0.00     0.251 C 
ATOM     22  H   UNL A   1      41.939  17.775  25.410  1.00  0.00     0.163 HD
ATOM     23  O   UNL A   1      40.139  19.241  25.871  1.00  0.00    -0.269 OA
BRANCH  21  24
ATOM     24  C   UNL A   1      41.634  20.882  26.638  1.00  0.00     0.039 A 
ATOM     25  C   UNL A   1      41.560  21.093  28.023  1.00  0.00     0.014 A 
ATOM     26  C   UNL A   1      41.938  21.964  25.812  1.00  0.00     0.014 A 
ATOM     27  C   UNL A   1      41.823  22.356  28.566  1.00  0.00     0.010 A 
ATOM     28  C   UNL A   1      42.312  23.190  26.358  1.00  0.00     0.010 A 
ATOM     29  C   UNL A   1      42.226  23.414  27.739  1.00  0.00    -0.014 A 
BRANCH  29  30
ATOM     30  C   UNL A   1      42.486  24.780  28.269  1.00  0.00     0.031 A 
ATOM     31  C   UNL A   1      43.869  25.142  28.752  1.00  0.00     0.074 A 
ATOM     32  C   UNL A   1      41.483  25.669  28.389  1.00  0.00     0.049 A 
ATOM     33  N   UNL A   1      44.275  26.210  29.391  1.00  0.00    -0.248 NA
ATOM     34  C   UNL A   1      44.929  24.144  28.528  1.00  0.00     0.031 C 
ATOM     35  C   UNL A   1      40.088  25.437  28.009  1.00  0.00     0.029 A 
ATOM     36  N   UNL A   1      41.482  26.950  28.884  1.00  0.00    -0.354 N 
ATOM     37  C   UNL A   1      45.614  25.985  29.692  1.00  0.00     0.074 A 
ATOM     38  C   UNL A   1      45.940  24.663  29.206  1.00  0.00     0.031 C 
ATOM     39  C   UNL A   1      39.374  26.547  28.257  1.00  0.00     0.029 A 
ATOM     40  C   UNL A   1      40.249  27.555  28.846  1.00  0.00     0.049 A 
ATOM     41  H   UNL A   1      42.289  27.394  29.231  1.00  0.00     0.167 HD
ATOM     42  C   UNL A   1      46.501  26.811  30.298  1.00  0.00     0.037 A 
ATOM     43  C   UNL A   1      39.870  28.784  29.243  1.00  0.00     0.037 A 
ATOM     44  C   UNL A   1      46.199  28.156  30.709  1.00  0.00     0.049 A 
ATOM     45  C   UNL A   1      40.893  29.718  29.827  1.00  0.00     0.074 A 
ATOM     46  C   UNL A   1      47.040  29.099  31.273  1.00  0.00     0.029 A 
ATOM     47  N   UNL A   1      44.957  28.758  30.573  1.00  0.00    -0.354 N 
ATOM     48  N   UNL A   1      42.160  29.501  30.082  1.00  0.00    -0.248 NA
ATOM     49  C   UNL A   1      40.434  31.073  30.166  1.00  0.00     0.031 C 
ATOM     50  C   UNL A   1      46.304  30.270  31.488  1.00  0.00     0.029 A 
ATOM     51  C   UNL A   1      45.012  30.063  31.031  1.00  0.00     0.049 A 
ATOM     52  H   UNL A   1      44.155  28.322  30.205  1.00  0.00     0.167 HD
ATOM     53  C   UNL A   1      42.657  30.698  30.581  1.00  0.00     0.074 A 
ATOM     54  C   UNL A   1      41.558  31.640  30.582  1.00  0.00     0.031 C 
ATOM     55  C   UNL A   1      43.911  30.990  31.003  1.00  0.00     0.037 A 
BRANCH  42  56
ATOM     56  C   UNL A   1      47.885  26.282  30.536  1.00  0.00     0.057 A 
ATOM     57  C   UNL A   1      48.907  26.423  29.587  1.00  0.00     0.134 A 
ATOM     58  C   UNL A   1      48.206  25.631  31.734  1.00  0.00     0.134 A 
ATOM     59  F   UNL A   1      48.662  27.022  28.411  1.00  0.00    -0.206 F 
ATOM     60  C   UNL A   1      50.184  25.904  29.803  1.00  0.00     0.040 A 
ATOM     61  C   UNL A   1      49.489  25.133  31.975  1.00  0.00     0.040 A 
ATOM     62  F   UNL A   1      47.279  25.467  32.690  1.00  0.00    -0.206 F 
ATOM     63  C   UNL A   1      50.479  25.262  31.003  1.00  0.00     0.006 A 
ENDBRANCH  42  56
BRANCH  43  64
ATOM     64  C   UNL A   1      38.465  29.224  29.053  1.00  0.00     0.057 A 
ATOM     65  C   UNL A   1      38.016  29.662  27.802  1.00  0.00     0.134 A 
ATOM     66  C   UNL A   1      37.544  29.220  30.105  1.00  0.00     0.134 A 
ATOM     67  F   UNL A   1      38.859  29.704  26.760  1.00  0.00    -0.206 F 
ATOM     68  C   UNL A   1      36.705  30.098  27.607  1.00  0.00     0.040 A 
ATOM     69  C   UNL A   1      36.223  29.633  29.920  1.00  0.00     0.040 A 
ATOM     70  F   UNL A   1      37.912  28.803  31.326  1.00  0.00    -0.206 F 
ATOM     71  C   UNL A   1      35.803  30.081  28.668  1.00  0.00     0.006 A 
ENDBRANCH  43  64
BRANCH  55  72
ATOM     72  C   UNL A   1      44.168  32.397  31.451  1.00  0.00     0.057 A 
ATOM     73  C   UNL A   1      44.562  33.398  30.555  1.00  0.00     0.134 A 
ATOM     74  C   UNL A   1      43.997  32.756  32.794  1.00  0.00     0.134 A 
ATOM     75  F   UNL A   1      44.755  33.112  29.259  1.00  0.00    -0.206 F 
ATOM     76  C   UNL A   1      44.805  34.703  30.985  1.00  0.00     0.040 A 
ATOM     77  C   UNL A   1      44.214  34.063  33.231  1.00  0.00     0.040 A 
ATOM     78  F   UNL A   1      43.612  31.845  33.700  1.00  0.00    -0.206 F 
ATOM     79  C   UNL A   1      44.627  35.039  32.326  1.00  0.00     0.006 A 
ENDBRANCH  55  72
ENDBRANCH  29  30
ENDBRANCH  21  24
ENDBRANCH  19  20
ENDBRANCH  18  19
ENDBRANCH   1  18
TORSDOF 14
ENDMDL
MODEL 2
REMARK VINA RESULT:      -9.1      4.825     11.428
REMARK SMILES COCc1cccc(O[C@@H](F)C(=O)NCCCNC(=O)c2ccc(-c3c4nc(c(-c5c(F)cccc5F)c5ccc([nH]5)c(-c5c(F)cccc5F)c5nc(c(-c6c(F)cccc6F)c6ccc3[nH]6)C=C5)C=C4)cc2)c1
REMARK SMILES IDX 15 1 14 2 12 3 13 4 10 6 11 7 9 8 8 9 4 10 5 11 75 12 6 13
REMARK SMILES IDX 7 14 3 15 2 16 1 17 16 18 17 19 18 20 19 21 20 23 21 24
REMARK SMILES IDX 22 25 74 26 23 27 73 28 24 29 25 30 26 31 67 32 27 33 72 34
REMARK SMILES IDX 66 35 68 36 28 37 71 38 65 39 64 40 29 42 55 43 38 44 54 45
REMARK SMILES IDX 39 46 42 47 53 48 69 49 40 50 41 51 52 53 70 54 43 55 30 56
REMARK SMILES IDX 31 57 36 58 32 59 33 60 35 61 37 62 34 63 56 64 57 65 62 66
REMARK SMILES IDX 58 67 59 68 61 69 63 70 60 71 44 72 45 73 50 74 46 75 47 76
REMARK SMILES IDX 49 77 51 78 48 79
REMARK H PARENT 14 5 18 22 68 41 42 52
REMARK Flexibility Score: inf
ROOT
ATOM      1  C   UNL A   1      32.687  36.201  31.045  1.00  0.00     0.118 C 
ENDROOT
BRANCH   1   2
ATOM      2  N   UNL A   1      33.030  36.867  32.285  1.00  0.00    -0.350 N 
ATOM      3  C   UNL A   1      33.942  36.513  33.243  1.00  0.00     0.294 C 
ATOM      4  O   UNL A   1      33.929  37.178  34.286  1.00  0.00    -0.267 OA
ATOM      5  H   UNL A   1      32.535  37.699  32.465  1.00  0.00     0.163 HD
BRANCH   3   6
ATOM      6  C   UNL A   1      34.959  35.356  33.041  1.00  0.00     0.440 C 
ATOM      7  F   UNL A   1      35.162  35.059  31.725  1.00  0.00    -0.191 F 
BRANCH   6   8
ATOM      8  O   UNL A   1      34.804  34.176  33.831  1.00  0.00    -0.452 OA
BRANCH   8   9
ATOM      9  C   UNL A   1      35.836  33.299  33.968  1.00  0.00     0.124 A 
ATOM     10  C   UNL A   1      37.081  31.267  33.450  1.00  0.00    -0.019 A 
ATOM     11  C   UNL A   1      37.969  31.564  34.496  1.00  0.00     0.006 A 
ATOM     12  C   UNL A   1      36.065  32.189  33.154  1.00  0.00     0.052 A 
ATOM     13  C   UNL A   1      37.820  32.734  35.242  1.00  0.00     0.004 A 
ATOM     14  C   UNL A   1      36.747  33.590  34.985  1.00  0.00     0.046 A 
BRANCH  10  15
ATOM     15  C   UNL A   1      37.172  29.915  32.772  1.00  0.00     0.195 C 
BRANCH  15  16
ATOM     16  O   UNL A   1      38.231  29.079  33.241  1.00  0.00    -0.380 OA
ATOM     17  C   UNL A   1      38.345  27.841  32.550  1.00  0.00     0.195 C 
ENDBRANCH  15  16
ENDBRANCH  10  15
ENDBRANCH   8   9
ENDBRANCH   6   8
ENDBRANCH   3   6
ENDBRANCH   1   2
BRANCH   1  18
ATOM     18  C   UNL A   1      32.844  37.149  29.861  1.00  0.00     0.042 C 
BRANCH  18  19
ATOM     19  C   UNL A   1      33.441  36.507  28.619  1.00  0.00     0.118 C 
BRANCH  19  20
ATOM     20  N   UNL A   1      32.729  35.304  28.209  1.00  0.00    -0.352 N 
ATOM     21  C   UNL A   1      33.128  33.993  28.113  1.00  0.00     0.251 C 
ATOM     22  H   UNL A   1      31.790  35.459  27.954  1.00  0.00     0.163 HD
ATOM     23  O   UNL A   1      32.365  33.195  27.574  1.00  0.00    -0.269 OA
BRANCH  21  24
ATOM     24  C   UNL A   1      34.443  33.515  28.620  1.00  0.00     0.039 A 
ATOM     25  C   UNL A   1      35.610  34.024  28.033  1.00  0.00     0.014 A 
ATOM     26  C   UNL A   1      34.561  32.533  29.604  1.00  0.00     0.014 A 
ATOM     27  C   UNL A   1      36.870  33.580  28.453  1.00  0.00     0.010 A 
ATOM     28  C   UNL A   1      35.812  32.176  30.102  1.00  0.00     0.010 A 
ATOM     29  C   UNL A   1      36.984  32.667  29.511  1.00  0.00    -0.014 A 
BRANCH  29  30
ATOM     30  C   UNL A   1      38.300  32.145  29.970  1.00  0.00     0.031 A 
ATOM     31  C   UNL A   1      38.809  30.831  29.432  1.00  0.00     0.074 A 
ATOM     32  C   UNL A   1      39.002  32.797  30.916  1.00  0.00     0.049 A 
ATOM     33  N   UNL A   1      39.842  30.120  29.810  1.00  0.00    -0.248 NA
ATOM     34  C   UNL A   1      38.021  30.209  28.354  1.00  0.00     0.031 C 
ATOM     35  C   UNL A   1      38.606  34.050  31.560  1.00  0.00     0.029 A 
ATOM     36  N   UNL A   1      40.198  32.483  31.513  1.00  0.00    -0.354 N 
ATOM     37  C   UNL A   1      39.792  28.950  29.059  1.00  0.00     0.074 A 
ATOM     38  C   UNL A   1      38.604  29.026  28.238  1.00  0.00     0.031 C 
ATOM     39  C   UNL A   1      39.554  34.412  32.439  1.00  0.00     0.029 A 
ATOM     40  C   UNL A   1      40.606  33.401  32.449  1.00  0.00     0.049 A 
ATOM     41  H   UNL A   1      40.716  31.675  31.289  1.00  0.00     0.167 HD
ATOM     42  C   UNL A   1      40.664  27.914  29.037  1.00  0.00     0.037 A 
ATOM     43  C   UNL A   1      41.704  33.423  33.226  1.00  0.00     0.037 A 
ATOM     44  C   UNL A   1      41.887  27.875  29.795  1.00  0.00     0.049 A 
ATOM     45  C   UNL A   1      42.708  32.309  33.117  1.00  0.00     0.074 A 
ATOM     46  C   UNL A   1      42.874  26.904  29.797  1.00  0.00     0.029 A 
ATOM     47  N   UNL A   1      42.302  28.869  30.667  1.00  0.00    -0.354 N 
ATOM     48  N   UNL A   1      42.659  31.223  32.384  1.00  0.00    -0.248 NA
ATOM     49  C   UNL A   1      43.924  32.432  33.932  1.00  0.00     0.031 C 
ATOM     50  C   UNL A   1      43.882  27.307  30.680  1.00  0.00     0.029 A 
ATOM     51  C   UNL A   1      43.535  28.542  31.205  1.00  0.00     0.049 A 
ATOM     52  H   UNL A   1      41.796  29.687  30.874  1.00  0.00     0.167 HD
ATOM     53  C   UNL A   1      43.849  30.549  32.627  1.00  0.00     0.074 A 
ATOM     54  C   UNL A   1      44.603  31.354  33.564  1.00  0.00     0.031 C 
ATOM     55  C   UNL A   1      44.278  29.367  32.121  1.00  0.00     0.037 A 
BRANCH  42  56
ATOM     56  C   UNL A   1      40.330  26.749  28.152  1.00  0.00     0.057 A 
ATOM     57  C   UNL A   1      39.431  25.750  28.550  1.00  0.00     0.134 A 
ATOM     58  C   UNL A   1      40.908  26.627  26.882  1.00  0.00     0.134 A 
ATOM     59  F   UNL A   1      38.855  25.798  29.761  1.00  0.00    -0.206 F 
ATOM     60  C   UNL A   1      39.147  24.655  27.733  1.00  0.00     0.040 A 
ATOM     61  C   UNL A   1      40.608  25.550  26.044  1.00  0.00     0.040 A 
ATOM     62  F   UNL A   1      41.771  27.550  26.435  1.00  0.00    -0.206 F 
ATOM     63  C   UNL A   1      39.732  24.556  26.473  1.00  0.00     0.006 A 
ENDBRANCH  42  56
BRANCH  43  64
ATOM     64  C   UNL A   1      41.942  34.568  34.141  1.00  0.00     0.057 A 
ATOM     65  C   UNL A   1      42.554  35.738  33.679  1.00  0.00     0.134 A 
ATOM     66  C   UNL A   1      41.570  34.522  35.489  1.00  0.00     0.134 A 
ATOM     67  F   UNL A   1      42.949  35.832  32.401  1.00  0.00    -0.206 F 
ATOM     68  C   UNL A   1      42.805  36.817  34.527  1.00  0.00     0.040 A 
ATOM     69  C   UNL A   1      41.794  35.602  36.344  1.00  0.00     0.040 A 
ATOM     70  F   UNL A   1      40.971  33.431  35.989  1.00  0.00    -0.206 F 
ATOM     71  C   UNL A   1      42.420  36.752  35.864  1.00  0.00     0.006 A 
ENDBRANCH  43  64
BRANCH  55  72
ATOM     72  C   UNL A   1      45.643  28.906  32.532  1.00  0.00     0.057 A 
ATOM     73  C   UNL A   1      46.790  29.250  31.807  1.00  0.00     0.134 A 
ATOM     74  C   UNL A   1      45.810  28.124  33.681  1.00  0.00     0.134 A 
ATOM     75  F   UNL A   1      46.692  29.986  30.690  1.00  0.00    -0.206 F 
ATOM     76  C   UNL A   1      48.055  28.808  32.196  1.00  0.00     0.040 A 
ATOM     77  C   UNL A   1      47.072  27.696  34.093  1.00  0.00     0.040 A 
ATOM     78  F   UNL A   1      44.751  27.767  34.424  1.00  0.00    -0.206 F 
ATOM     79  C   UNL A   1      48.199  28.033  33.345  1.00  0.00     0.006 A 
ENDBRANCH  55  72
ENDBRANCH  29  30
ENDBRANCH  21  24
ENDBRANCH  19  20
ENDBRANCH  18  19
ENDBRANCH   1  18
TORSDOF 14
ENDMDL
MODEL 3
REMARK VINA RESULT:      -9.1      0.479      6.441
REMARK SMILES COCc1cccc(O[C@@H](F)C(=O)NCCCNC(=O)c2ccc(-c3c4nc(c(-c5c(F)cccc5F)c5ccc([nH]5)c(-c5c(F)cccc5F)c5nc(c(-c6c(F)cccc6F)c6ccc3[nH]6)C=C5)C=C4)cc2)c1
REMARK SMILES IDX 15 1 14 2 12 3 13 4 10 6 11 7 9 8 8 9 4 10 5 11 75 12 6 13
REMARK SMILES IDX 7 14 3 15 2 16 1 17 16 18 17 19 18 20 19 21 20 23 21 24
REMARK SMILES IDX 22 25 74 26 23 27 73 28 24 29 25 30 26 31 67 32 27 33 72 34
REMARK SMILES IDX 66 35 68 36 28 37 71 38 65 39 64 40 29 42 55 43 38 44 54 45
REMARK SMILES IDX 39 46 42 47 53 48 69 49 40 50 41 51 52 53 70 54 43 55 30 56
REMARK SMILES IDX 31 57 36 58 32 59 33 60 35 61 37 62 34 63 56 64 57 65 62 66
REMARK SMILES IDX 58 67 59 68 61 69 63 70 60 71 44 72 45 73 50 74 46 75 47 76
REMARK SMILES IDX 49 77 51 78 48 79
REMARK H PARENT 14 5 18 22 68 41 42 52
REMARK Flexibility Score: inf
ROOT
ATOM      1  C   UNL A   1      45.594  19.641  24.724  1.00  0.00     0.118 C 
ENDROOT
BRANCH   1   2
ATOM      2  N   UNL A   1      44.941  20.640  23.903  1.00  0.00    -0.350 N 
ATOM      3  C   UNL A   1      45.149  21.991  23.842  1.00  0.00     0.294 C 
ATOM      4  O   UNL A   1      44.343  22.640  23.163  1.00  0.00    -0.267 OA
ATOM      5  H   UNL A   1      44.245  20.295  23.299  1.00  0.00     0.163 HD
BRANCH   3   6
ATOM      6  C   UNL A   1      46.337  22.688  24.560  1.00  0.00     0.440 C 
ATOM      7  F   UNL A   1      46.209  22.677  25.918  1.00  0.00    -0.191 F 
BRANCH   6   8
ATOM      8  O   UNL A   1      46.762  23.963  24.079  1.00  0.00    -0.452 OA
BRANCH   8   9
ATOM      9  C   UNL A   1      46.383  25.102  24.722  1.00  0.00     0.124 A 
ATOM     10  C   UNL A   1      44.761  26.677  25.638  1.00  0.00    -0.019 A 
ATOM     11  C   UNL A   1      45.813  27.555  25.946  1.00  0.00     0.006 A 
ATOM     12  C   UNL A   1      45.077  25.421  25.095  1.00  0.00     0.052 A 
ATOM     13  C   UNL A   1      47.136  27.195  25.687  1.00  0.00     0.004 A 
ATOM     14  C   UNL A   1      47.416  25.977  25.063  1.00  0.00     0.046 A 
BRANCH  10  15
ATOM     15  C   UNL A   1      43.334  27.164  25.781  1.00  0.00     0.195 C 
BRANCH  15  16
ATOM     16  O   UNL A   1      43.171  28.579  25.688  1.00  0.00    -0.380 OA
ATOM     17  C   UNL A   1      41.817  29.005  25.588  1.00  0.00     0.195 C 
ENDBRANCH  15  16
ENDBRANCH  10  15
ENDBRANCH   8   9
ENDBRANCH   6   8
ENDBRANCH   3   6
ENDBRANCH   1   2
BRANCH   1  18
ATOM     18  C   UNL A   1      44.668  18.455  24.971  1.00  0.00     0.042 C 
BRANCH  18  19
ATOM     19  C   UNL A   1      43.748  18.616  26.170  1.00  0.00     0.118 C 
BRANCH  19  20
ATOM     20  N   UNL A   1      42.342  18.693  25.794  1.00  0.00    -0.352 N 
ATOM     21  C   UNL A   1      41.378  19.638  26.048  1.00  0.00     0.251 C 
ATOM     22  H   UNL A   1      42.026  17.928  25.260  1.00  0.00     0.163 HD
ATOM     23  O   UNL A   1      40.215  19.372  25.751  1.00  0.00    -0.269 OA
BRANCH  21  24
ATOM     24  C   UNL A   1      41.687  20.951  26.677  1.00  0.00     0.039 A 
ATOM     25  C   UNL A   1      41.997  22.035  25.843  1.00  0.00     0.014 A 
ATOM     26  C   UNL A   1      41.749  21.130  28.059  1.00  0.00     0.014 A 
ATOM     27  C   UNL A   1      42.328  23.282  26.388  1.00  0.00     0.010 A 
ATOM     28  C   UNL A   1      41.964  22.395  28.601  1.00  0.00     0.010 A 
ATOM     29  C   UNL A   1      42.290  23.481  27.776  1.00  0.00    -0.014 A 
BRANCH  29  30
ATOM     30  C   UNL A   1      42.663  24.779  28.401  1.00  0.00     0.031 A 
ATOM     31  C   UNL A   1      41.605  25.831  28.622  1.00  0.00     0.074 A 
ATOM     32  C   UNL A   1      43.947  25.050  28.701  1.00  0.00     0.049 A 
ATOM     33  N   UNL A   1      41.736  27.078  29.000  1.00  0.00    -0.248 NA
ATOM     34  C   UNL A   1      40.215  25.441  28.331  1.00  0.00     0.031 C 
ATOM     35  C   UNL A   1      45.079  24.145  28.496  1.00  0.00     0.029 A 
ATOM     36  N   UNL A   1      44.519  26.178  29.235  1.00  0.00    -0.354 N 
ATOM     37  C   UNL A   1      40.461  27.629  28.936  1.00  0.00     0.074 A 
ATOM     38  C   UNL A   1      39.578  26.596  28.441  1.00  0.00     0.031 C 
ATOM     39  C   UNL A   1      46.203  24.743  28.923  1.00  0.00     0.029 A 
ATOM     40  C   UNL A   1      45.879  26.083  29.399  1.00  0.00     0.049 A 
ATOM     41  H   UNL A   1      44.001  26.981  29.478  1.00  0.00     0.167 HD
ATOM     42  C   UNL A   1      40.053  28.875  29.277  1.00  0.00     0.037 A 
ATOM     43  C   UNL A   1      46.763  26.977  29.880  1.00  0.00     0.037 A 
ATOM     44  C   UNL A   1      40.916  29.877  29.845  1.00  0.00     0.049 A 
ATOM     45  C   UNL A   1      46.273  28.322  30.342  1.00  0.00     0.074 A 
ATOM     46  C   UNL A   1      40.592  31.149  30.287  1.00  0.00     0.029 A 
ATOM     47  N   UNL A   1      42.272  29.707  30.074  1.00  0.00    -0.354 N 
ATOM     48  N   UNL A   1      45.061  28.819  30.299  1.00  0.00    -0.248 NA
ATOM     49  C   UNL A   1      47.274  29.223  30.931  1.00  0.00     0.031 C 
ATOM     50  C   UNL A   1      41.758  31.752  30.774  1.00  0.00     0.029 A 
ATOM     51  C   UNL A   1      42.799  30.844  30.662  1.00  0.00     0.049 A 
ATOM     52  H   UNL A   1      42.786  28.897  29.852  1.00  0.00     0.167 HD
ATOM     53  C   UNL A   1      45.147  30.077  30.882  1.00  0.00     0.074 A 
ATOM     54  C   UNL A   1      46.526  30.261  31.281  1.00  0.00     0.031 C 
ATOM     55  C   UNL A   1      44.171  30.998  31.069  1.00  0.00     0.037 A 
BRANCH  42  56
ATOM     56  C   UNL A   1      38.607  29.213  29.059  1.00  0.00     0.057 A 
ATOM     57  C   UNL A   1      37.669  29.163  30.099  1.00  0.00     0.134 A 
ATOM     58  C   UNL A   1      38.147  29.603  27.795  1.00  0.00     0.134 A 
ATOM     59  F   UNL A   1      38.041  28.781  31.331  1.00  0.00    -0.206 F 
ATOM     60  C   UNL A   1      36.321  29.452  29.883  1.00  0.00     0.040 A 
ATOM     61  C   UNL A   1      36.805  29.923  27.573  1.00  0.00     0.040 A 
ATOM     62  F   UNL A   1      38.991  29.680  26.756  1.00  0.00    -0.206 F 
ATOM     63  C   UNL A   1      35.887  29.839  28.617  1.00  0.00     0.006 A 
ENDBRANCH  42  56
BRANCH  43  64
ATOM     64  C   UNL A   1      48.196  26.612  30.000  1.00  0.00     0.057 A 
ATOM     65  C   UNL A   1      49.123  27.024  29.035  1.00  0.00     0.134 A 
ATOM     66  C   UNL A   1      48.674  25.848  31.070  1.00  0.00     0.134 A 
ATOM     67  F   UNL A   1      48.720  27.743  27.978  1.00  0.00    -0.206 F 
ATOM     68  C   UNL A   1      50.471  26.675  29.120  1.00  0.00     0.040 A 
ATOM     69  C   UNL A   1      50.023  25.510  31.179  1.00  0.00     0.040 A 
ATOM     70  F   UNL A   1      47.836  25.431  32.031  1.00  0.00    -0.206 F 
ATOM     71  C   UNL A   1      50.926  25.918  30.197  1.00  0.00     0.006 A 
ENDBRANCH  43  64
BRANCH  55  72
ATOM     72  C   UNL A   1      44.554  32.262  31.778  1.00  0.00     0.057 A 
ATOM     73  C   UNL A   1      45.004  33.391  31.085  1.00  0.00     0.134 A 
ATOM     74  C   UNL A   1      44.451  32.351  33.172  1.00  0.00     0.134 A 
ATOM     75  F   UNL A   1      45.136  33.362  29.751  1.00  0.00    -0.206 F 
ATOM     76  C   UNL A   1      45.364  34.560  31.757  1.00  0.00     0.040 A 
ATOM     77  C   UNL A   1      44.787  33.522  33.852  1.00  0.00     0.040 A 
ATOM     78  F   UNL A   1      44.019  31.305  33.893  1.00  0.00    -0.206 F 
ATOM     79  C   UNL A   1      45.252  34.628  33.144  1.00  0.00     0.006 A 
ENDBRANCH  55  72
ENDBRANCH  29  30
ENDBRANCH  21  24
ENDBRANCH  19  20
ENDBRANCH  18  19
ENDBRANCH   1  18
TORSDOF 14
ENDMDL
