MODEL 1
REMARK VINA RESULT:     -11.7      0.000      0.000
REMARK SMILES CC(=O)c1c[nH]c(C(=O)N[C@H]2C=C[C@H](C(=O)NCCCNC(=O)c3ccc(-c4c5nc(c(-c6c(F)cccc6F)c6ccc([nH]6)c(-c6c(F)cccc6F)c6nc(c(-c7c(F)cccc7F)c7ccc4[nH]7)C=C6)C=C5)cc3)C2)c1
REMARK SMILES IDX 18 1 17 2 15 3 16 4 14 6 11 7 12 8 78 9 13 10 10 11 8 12
REMARK SMILES IDX 9 13 7 15 4 16 5 17 79 18 6 19 2 21 1 22 3 23 19 24 20 25
REMARK SMILES IDX 21 26 22 27 23 29 24 30 25 31 77 32 26 33 76 34 27 35 28 36
REMARK SMILES IDX 29 37 70 38 30 39 75 40 69 41 71 42 31 43 74 44 68 45 67 46
REMARK SMILES IDX 32 48 58 49 41 50 57 51 42 52 45 53 56 54 72 55 43 56 44 57
REMARK SMILES IDX 55 59 73 60 46 61 33 62 34 63 39 64 35 65 36 66 38 67 40 68
REMARK SMILES IDX 37 69 59 70 60 71 65 72 61 73 62 74 64 75 66 76 63 77 47 78
REMARK SMILES IDX 48 79 53 80 49 81 50 82 52 83 54 84 51 85
REMARK H PARENT 17 5 10 14 6 20 21 28 71 47 45 58
REMARK Flexibility Score: inf
ROOT
ATOM      1  C   UNL A   1      36.258  20.161  25.015  1.00  0.00     0.117 C 
ENDROOT
BRANCH   1   2
ATOM      2  N   UNL A   1      35.869  21.409  25.644  1.00  0.00    -0.356 N 
ATOM      3  C   UNL A   1      35.018  22.376  25.189  1.00  0.00     0.227 C 
ATOM      4  O   UNL A   1      34.829  23.367  25.897  1.00  0.00    -0.274 OA
ATOM      5  H   UNL A   1      36.275  21.584  26.523  1.00  0.00     0.163 HD
BRANCH   3   6
ATOM      6  C   UNL A   1      34.287  22.154  23.861  1.00  0.00     0.103 C 
ATOM      7  C   UNL A   1      33.022  24.169  23.209  1.00  0.00     0.106 C 
ATOM      8  C   UNL A   1      32.143  23.117  23.819  1.00  0.00    -0.006 C 
ATOM      9  C   UNL A   1      34.325  23.390  22.961  1.00  0.00     0.047 C 
ATOM     10  C   UNL A   1      32.823  22.012  24.147  1.00  0.00    -0.016 C 
BRANCH   7  11
ATOM     11  N   UNL A   1      32.345  24.655  22.020  1.00  0.00    -0.345 N 
ATOM     12  C   UNL A   1      32.028  25.919  21.585  1.00  0.00     0.268 C 
ATOM     13  O   UNL A   1      31.443  26.025  20.521  1.00  0.00    -0.268 OA
ATOM     14  H   UNL A   1      32.057  23.940  21.407  1.00  0.00     0.164 HD
BRANCH  12  15
ATOM     15  C   UNL A   1      32.484  27.079  22.320  1.00  0.00     0.105 A 
ATOM     16  C   UNL A   1      33.054  28.584  23.914  1.00  0.00     0.035 A 
ATOM     17  C   UNL A   1      33.997  28.645  22.909  1.00  0.00     0.094 A 
ATOM     18  C   UNL A   1      32.023  27.725  23.447  1.00  0.00     0.045 A 
ATOM     19  N   UNL A   1      33.610  27.773  21.921  1.00  0.00    -0.356 N 
ATOM     20  H   UNL A   1      34.066  27.660  21.057  1.00  0.00     0.166 HD
BRANCH  16  21
ATOM     21  C   UNL A   1      33.129  29.194  25.233  1.00  0.00     0.161 C 
ATOM     22  C   UNL A   1      31.988  30.057  25.685  1.00  0.00     0.093 C 
ATOM     23  O   UNL A   1      34.084  28.965  25.975  1.00  0.00    -0.294 OA
ENDBRANCH  16  21
ENDBRANCH  12  15
ENDBRANCH   7  11
ENDBRANCH   3   6
ENDBRANCH   1   2
BRANCH   1  24
ATOM     24  C   UNL A   1      37.725  20.175  24.577  1.00  0.00     0.042 C 
BRANCH  24  25
ATOM     25  C   UNL A   1      38.686  20.435  25.739  1.00  0.00     0.118 C 
BRANCH  25  26
ATOM     26  N   UNL A   1      39.719  19.413  25.808  1.00  0.00    -0.352 N 
ATOM     27  C   UNL A   1      41.067  19.508  26.026  1.00  0.00     0.251 C 
ATOM     28  H   UNL A   1      39.392  18.494  25.676  1.00  0.00     0.163 HD
ATOM     29  O   UNL A   1      41.766  18.527  25.773  1.00  0.00    -0.269 OA
BRANCH  27  30
ATOM     30  C   UNL A   1      41.712  20.745  26.516  1.00  0.00     0.039 A 
ATOM     31  C   UNL A   1      42.186  21.640  25.547  1.00  0.00     0.014 A 
ATOM     32  C   UNL A   1      41.939  21.008  27.872  1.00  0.00     0.014 A 
ATOM     33  C   UNL A   1      42.821  22.815  25.934  1.00  0.00     0.010 A 
ATOM     34  C   UNL A   1      42.554  22.198  28.266  1.00  0.00     0.010 A 
ATOM     35  C   UNL A   1      42.977  23.112  27.295  1.00  0.00    -0.014 A 
BRANCH  35  36
ATOM     36  C   UNL A   1      43.389  24.494  27.647  1.00  0.00     0.031 A 
ATOM     37  C   UNL A   1      42.163  25.401  27.814  1.00  0.00     0.074 A 
ATOM     38  C   UNL A   1      44.722  24.791  27.677  1.00  0.00     0.049 A 
ATOM     39  N   UNL A   1      41.982  26.632  27.451  1.00  0.00    -0.248 NA
ATOM     40  C   UNL A   1      40.911  24.810  28.363  1.00  0.00     0.031 C 
ATOM     41  C   UNL A   1      45.800  23.789  27.582  1.00  0.00     0.029 A 
ATOM     42  N   UNL A   1      45.447  25.966  27.783  1.00  0.00    -0.354 N 
ATOM     43  C   UNL A   1      40.689  27.015  27.876  1.00  0.00     0.074 A 
ATOM     44  C   UNL A   1      40.036  25.816  28.300  1.00  0.00     0.031 C 
ATOM     45  C   UNL A   1      47.011  24.386  27.556  1.00  0.00     0.029 A 
ATOM     46  C   UNL A   1      46.852  25.827  27.619  1.00  0.00     0.049 A 
ATOM     47  H   UNL A   1      45.019  26.835  27.961  1.00  0.00     0.167 HD
ATOM     48  C   UNL A   1      40.298  28.320  27.986  1.00  0.00     0.037 A 
ATOM     49  C   UNL A   1      47.816  26.794  27.483  1.00  0.00     0.037 A 
ATOM     50  C   UNL A   1      41.350  29.175  27.553  1.00  0.00     0.049 A 
ATOM     51  C   UNL A   1      47.121  28.078  27.639  1.00  0.00     0.074 A 
ATOM     52  C   UNL A   1      41.903  29.431  26.326  1.00  0.00     0.029 A 
ATOM     53  N   UNL A   1      42.198  29.626  28.534  1.00  0.00    -0.354 N 
ATOM     54  N   UNL A   1      46.733  28.585  28.770  1.00  0.00    -0.248 NA
ATOM     55  C   UNL A   1      46.767  28.831  26.427  1.00  0.00     0.031 C 
ATOM     56  C   UNL A   1      43.274  29.600  26.615  1.00  0.00     0.029 A 
ATOM     57  C   UNL A   1      43.460  29.646  28.002  1.00  0.00     0.049 A 
ATOM     58  H   UNL A   1      41.946  29.888  29.449  1.00  0.00     0.167 HD
ATOM     59  C   UNL A   1      45.812  29.519  28.360  1.00  0.00     0.074 A 
ATOM     60  C   UNL A   1      46.130  29.852  26.991  1.00  0.00     0.031 C 
ATOM     61  C   UNL A   1      44.572  29.510  28.910  1.00  0.00     0.037 A 
BRANCH  48  62
ATOM     62  C   UNL A   1      39.154  28.971  28.719  1.00  0.00     0.057 A 
ATOM     63  C   UNL A   1      39.016  28.717  30.108  1.00  0.00     0.134 A 
ATOM     64  C   UNL A   1      38.027  29.512  28.092  1.00  0.00     0.134 A 
ATOM     65  F   UNL A   1      40.043  28.242  30.830  1.00  0.00    -0.206 F 
ATOM     66  C   UNL A   1      37.801  28.851  30.784  1.00  0.00     0.040 A 
ATOM     67  C   UNL A   1      36.817  29.699  28.776  1.00  0.00     0.040 A 
ATOM     68  F   UNL A   1      38.015  29.789  26.783  1.00  0.00    -0.206 F 
ATOM     69  C   UNL A   1      36.687  29.325  30.109  1.00  0.00     0.006 A 
ENDBRANCH  48  62
BRANCH  49  70
ATOM     70  C   UNL A   1      49.291  26.888  27.137  1.00  0.00     0.057 A 
ATOM     71  C   UNL A   1      50.295  27.430  27.942  1.00  0.00     0.134 A 
ATOM     72  C   UNL A   1      49.778  26.376  25.898  1.00  0.00     0.134 A 
ATOM     73  F   UNL A   1      50.007  28.077  29.075  1.00  0.00    -0.206 F 
ATOM     74  C   UNL A   1      51.664  27.364  27.598  1.00  0.00     0.040 A 
ATOM     75  C   UNL A   1      51.132  26.273  25.559  1.00  0.00     0.040 A 
ATOM     76  F   UNL A   1      48.959  25.949  24.928  1.00  0.00    -0.206 F 
ATOM     77  C   UNL A   1      52.089  26.754  26.423  1.00  0.00     0.006 A 
ENDBRANCH  49  70
BRANCH  61  78
ATOM     78  C   UNL A   1      44.520  28.952  30.314  1.00  0.00     0.057 A 
ATOM     79  C   UNL A   1      45.103  29.670  31.365  1.00  0.00     0.134 A 
ATOM     80  C   UNL A   1      44.022  27.682  30.639  1.00  0.00     0.134 A 
ATOM     81  F   UNL A   1      45.603  30.894  31.146  1.00  0.00    -0.206 F 
ATOM     82  C   UNL A   1      45.192  29.150  32.663  1.00  0.00     0.040 A 
ATOM     83  C   UNL A   1      44.097  27.150  31.934  1.00  0.00     0.040 A 
ATOM     84  F   UNL A   1      43.465  26.906  29.709  1.00  0.00    -0.206 F 
ATOM     85  C   UNL A   1      44.690  27.885  32.952  1.00  0.00     0.006 A 
ENDBRANCH  61  78
ENDBRANCH  35  36
ENDBRANCH  27  30
ENDBRANCH  25  26
ENDBRANCH  24  25
ENDBRANCH   1  24
TORSDOF 13
ENDMDL
MODEL 2
REMARK VINA RESULT:     -11.7      4.966     10.085
REMARK SMILES CC(=O)c1c[nH]c(C(=O)N[C@H]2C=C[C@H](C(=O)NCCCNC(=O)c3ccc(-c4c5nc(c(-c6c(F)cccc6F)c6ccc([nH]6)c(-c6c(F)cccc6F)c6nc(c(-c7c(F)cccc7F)c7ccc4[nH]7)C=C6)C=C5)cc3)C2)c1
REMARK SMILES IDX 18 1 17 2 15 3 16 4 14 6 11 7 12 8 78 9 13 10 10 11 8 12
REMARK SMILES IDX 9 13 7 15 4 16 5 17 79 18 6 19 2 21 1 22 3 23 19 24 20 25
REMARK SMILES IDX 21 26 22 27 23 29 24 30 25 31 77 32 26 33 76 34 27 35 28 36
REMARK SMILES IDX 29 37 70 38 30 39 75 40 69 41 71 42 31 43 74 44 68 45 67 46
REMARK SMILES IDX 32 48 58 49 41 50 57 51 42 52 45 53 56 54 72 55 43 56 44 57
REMARK SMILES IDX 55 59 73 60 46 61 33 62 34 63 39 64 35 65 36 66 38 67 40 68
REMARK SMILES IDX 37 69 59 70 60 71 65 72 61 73 62 74 64 75 66 76 63 77 47 78
REMARK SMILES IDX 48 79 53 80 49 81 50 82 52 83 54 84 51 85
REMARK H PARENT 17 5 10 14 6 20 21 28 71 47 45 58
REMARK Flexibility Score: inf
ROOT
ATOM      1  C   UNL A   1      33.247  34.924  29.469  1.00  0.00     0.117 C 
ENDROOT
BRANCH   1   2
ATOM      2  N   UNL A   1      33.560  35.449  30.784  1.00  0.00    -0.356 N 
ATOM      3  C   UNL A   1      34.291  34.880  31.789  1.00  0.00     0.227 C 
ATOM      4  O   UNL A   1      34.433  35.513  32.837  1.00  0.00    -0.274 OA
ATOM      5  H   UNL A   1      33.196  36.342  30.981  1.00  0.00     0.163 HD
BRANCH   3   6
ATOM      6  C   UNL A   1      34.955  33.522  31.543  1.00  0.00     0.103 C 
ATOM      7  C   UNL A   1      36.325  32.853  33.483  1.00  0.00     0.106 C 
ATOM      8  C   UNL A   1      37.155  33.412  32.363  1.00  0.00    -0.006 C 
ATOM      9  C   UNL A   1      34.965  32.643  32.795  1.00  0.00     0.047 C 
ATOM     10  C   UNL A   1      36.416  33.749  31.300  1.00  0.00    -0.016 C 
BRANCH   7  11
ATOM     11  N   UNL A   1      36.989  31.646  33.944  1.00  0.00    -0.345 N 
ATOM     12  C   UNL A   1      37.978  31.430  34.873  1.00  0.00     0.268 C 
ATOM     13  O   UNL A   1      38.346  30.283  35.056  1.00  0.00    -0.268 OA
ATOM     14  H   UNL A   1      36.667  30.825  33.508  1.00  0.00     0.164 HD
BRANCH  12  15
ATOM     15  C   UNL A   1      38.473  32.525  35.679  1.00  0.00     0.105 A 
ATOM     16  C   UNL A   1      39.316  34.483  36.443  1.00  0.00     0.035 A 
ATOM     17  C   UNL A   1      38.323  34.077  37.310  1.00  0.00     0.094 A 
ATOM     18  C   UNL A   1      39.514  33.415  35.529  1.00  0.00     0.045 A 
ATOM     19  N   UNL A   1      37.860  32.860  36.871  1.00  0.00    -0.356 N 
ATOM     20  H   UNL A   1      37.191  32.309  37.337  1.00  0.00     0.166 HD
BRANCH  16  21
ATOM     21  C   UNL A   1      39.974  35.781  36.402  1.00  0.00     0.161 C 
ATOM     22  C   UNL A   1      41.066  36.059  37.393  1.00  0.00     0.093 C 
ATOM     23  O   UNL A   1      39.672  36.608  35.541  1.00  0.00    -0.294 OA
ENDBRANCH  16  21
ENDBRANCH  12  15
ENDBRANCH   7  11
ENDBRANCH   3   6
ENDBRANCH   1   2
BRANCH   1  24
ATOM     24  C   UNL A   1      34.394  35.141  28.478  1.00  0.00     0.042 C 
BRANCH  24  25
ATOM     25  C   UNL A   1      35.078  33.834  28.070  1.00  0.00     0.118 C 
BRANCH  25  26
ATOM     26  N   UNL A   1      34.123  32.739  27.999  1.00  0.00    -0.352 N 
ATOM     27  C   UNL A   1      34.302  31.383  28.046  1.00  0.00     0.251 C 
ATOM     28  H   UNL A   1      33.185  33.023  27.901  1.00  0.00     0.163 HD
ATOM     29  O   UNL A   1      33.367  30.662  27.698  1.00  0.00    -0.269 OA
BRANCH  27  30
ATOM     30  C   UNL A   1      35.578  30.759  28.462  1.00  0.00     0.039 A 
ATOM     31  C   UNL A   1      36.534  30.544  27.461  1.00  0.00     0.014 A 
ATOM     32  C   UNL A   1      35.823  30.309  29.765  1.00  0.00     0.014 A 
ATOM     33  C   UNL A   1      37.749  29.944  27.775  1.00  0.00     0.010 A 
ATOM     34  C   UNL A   1      37.051  29.730  30.089  1.00  0.00     0.010 A 
ATOM     35  C   UNL A   1      38.023  29.565  29.097  1.00  0.00    -0.014 A 
BRANCH  35  36
ATOM     36  C   UNL A   1      39.425  29.207  29.425  1.00  0.00     0.031 A 
ATOM     37  C   UNL A   1      40.185  30.425  29.967  1.00  0.00     0.074 A 
ATOM     38  C   UNL A   1      39.864  27.948  29.128  1.00  0.00     0.049 A 
ATOM     39  N   UNL A   1      41.404  30.811  29.749  1.00  0.00    -0.248 NA
ATOM     40  C   UNL A   1      39.439  31.424  30.779  1.00  0.00     0.031 C 
ATOM     41  C   UNL A   1      38.991  26.844  28.687  1.00  0.00     0.029 A 
ATOM     42  N   UNL A   1      41.106  27.335  29.124  1.00  0.00    -0.354 N 
ATOM     43  C   UNL A   1      41.624  31.974  30.520  1.00  0.00     0.074 A 
ATOM     44  C   UNL A   1      40.344  32.376  31.016  1.00  0.00     0.031 C 
ATOM     45  C   UNL A   1      39.718  25.746  28.389  1.00  0.00     0.029 A 
ATOM     46  C   UNL A   1      41.129  26.017  28.591  1.00  0.00     0.049 A 
ATOM     47  H   UNL A   1      41.915  27.780  29.466  1.00  0.00     0.167 HD
ATOM     48  C   UNL A   1      42.873  32.444  30.819  1.00  0.00     0.037 A 
ATOM     49  C   UNL A   1      42.201  25.219  28.277  1.00  0.00     0.037 A 
ATOM     50  C   UNL A   1      43.855  31.630  30.189  1.00  0.00     0.049 A 
ATOM     51  C   UNL A   1      43.393  25.966  28.698  1.00  0.00     0.074 A 
ATOM     52  C   UNL A   1      44.222  31.448  28.881  1.00  0.00     0.029 A 
ATOM     53  N   UNL A   1      44.355  30.598  30.944  1.00  0.00    -0.354 N 
ATOM     54  N   UNL A   1      43.806  26.086  29.923  1.00  0.00    -0.248 NA
ATOM     55  C   UNL A   1      44.153  26.698  27.674  1.00  0.00     0.031 C 
ATOM     56  C   UNL A   1      44.527  30.072  28.815  1.00  0.00     0.029 A 
ATOM     57  C   UNL A   1      44.534  29.531  30.106  1.00  0.00     0.049 A 
ATOM     58  H   UNL A   1      44.549  30.622  31.909  1.00  0.00     0.167 HD
ATOM     59  C   UNL A   1      44.650  27.167  29.832  1.00  0.00     0.074 A 
ATOM     60  C   UNL A   1      45.073  27.257  28.454  1.00  0.00     0.031 C 
ATOM     61  C   UNL A   1      44.483  28.209  30.682  1.00  0.00     0.037 A 
BRANCH  48  62
ATOM     62  C   UNL A   1      43.364  33.408  31.867  1.00  0.00     0.057 A 
ATOM     63  C   UNL A   1      43.098  33.112  33.229  1.00  0.00     0.134 A 
ATOM     64  C   UNL A   1      43.743  34.728  31.603  1.00  0.00     0.134 A 
ATOM     65  F   UNL A   1      42.770  31.868  33.616  1.00  0.00    -0.206 F 
ATOM     66  C   UNL A   1      43.066  34.091  34.223  1.00  0.00     0.040 A 
ATOM     67  C   UNL A   1      43.764  35.708  32.606  1.00  0.00     0.040 A 
ATOM     68  F   UNL A   1      44.011  35.148  30.361  1.00  0.00    -0.206 F 
ATOM     69  C   UNL A   1      43.381  35.404  33.907  1.00  0.00     0.006 A 
ENDBRANCH  48  62
BRANCH  49  70
ATOM     70  C   UNL A   1      42.469  23.905  27.568  1.00  0.00     0.057 A 
ATOM     71  C   UNL A   1      42.697  22.669  28.177  1.00  0.00     0.134 A 
ATOM     72  C   UNL A   1      42.486  23.841  26.143  1.00  0.00     0.134 A 
ATOM     73  F   UNL A   1      42.853  22.562  29.499  1.00  0.00    -0.206 F 
ATOM     74  C   UNL A   1      42.814  21.469  27.441  1.00  0.00     0.040 A 
ATOM     75  C   UNL A   1      42.566  22.657  25.402  1.00  0.00     0.040 A 
ATOM     76  F   UNL A   1      42.433  24.938  25.376  1.00  0.00    -0.206 F 
ATOM     77  C   UNL A   1      42.714  21.453  26.055  1.00  0.00     0.006 A 
ENDBRANCH  49  70
BRANCH  61  78
ATOM     78  C   UNL A   1      43.864  27.835  32.009  1.00  0.00     0.057 A 
ATOM     79  C   UNL A   1      44.595  27.063  32.919  1.00  0.00     0.134 A 
ATOM     80  C   UNL A   1      42.534  28.107  32.365  1.00  0.00     0.134 A 
ATOM     81  F   UNL A   1      45.875  26.755  32.664  1.00  0.00    -0.206 F 
ATOM     82  C   UNL A   1      44.034  26.584  34.111  1.00  0.00     0.040 A 
ATOM     83  C   UNL A   1      41.959  27.642  33.555  1.00  0.00     0.040 A 
ATOM     84  F   UNL A   1      41.743  28.817  31.559  1.00  0.00    -0.206 F 
ATOM     85  C   UNL A   1      42.711  26.871  34.433  1.00  0.00     0.006 A 
ENDBRANCH  61  78
ENDBRANCH  35  36
ENDBRANCH  27  30
ENDBRANCH  25  26
ENDBRANCH  24  25
ENDBRANCH   1  24
TORSDOF 13
ENDMDL
MODEL 3
REMARK VINA RESULT:     -11.7      2.437      7.174
REMARK SMILES CC(=O)c1c[nH]c(C(=O)N[C@H]2C=C[C@H](C(=O)NCCCNC(=O)c3ccc(-c4c5nc(c(-c6c(F)cccc6F)c6ccc([nH]6)c(-c6c(F)cccc6F)c6nc(c(-c7c(F)cccc7F)c7ccc4[nH]7)C=C6)C=C5)cc3)C2)c1
REMARK SMILES IDX 18 1 17 2 15 3 16 4 14 6 11 7 12 8 78 9 13 10 10 11 8 12
REMARK SMILES IDX 9 13 7 15 4 16 5 17 79 18 6 19 2 21 1 22 3 23 19 24 20 25
REMARK SMILES IDX 21 26 22 27 23 29 24 30 25 31 77 32 26 33 76 34 27 35 28 36
REMARK SMILES IDX 29 37 70 38 30 39 75 40 69 41 71 42 31 43 74 44 68 45 67 46
REMARK SMILES IDX 32 48 58 49 41 50 57 51 42 52 45 53 56 54 72 55 43 56 44 57
REMARK SMILES IDX 55 59 73 60 46 61 33 62 34 63 39 64 35 65 36 66 38 67 40 68
REMARK SMILES IDX 37 69 59 70 60 71 65 72 61 73 62 74 64 75 66 76 63 77 47 78
REMARK SMILES IDX 48 79 53 80 49 81 50 82 52 83 54 84 51 85
REMARK H PARENT 17 5 10 14 6 20 21 28 71 47 45 58
REMARK Flexibility Score: inf
ROOT
ATOM      1  C   UNL A   1      32.652  29.256  25.735  1.00  0.00     0.117 C 
ENDROOT
BRANCH   1   2
ATOM      2  N   UNL A   1      33.473  29.124  24.547  1.00  0.00    -0.356 N 
ATOM      3  C   UNL A   1      33.302  28.306  23.466  1.00  0.00     0.227 C 
ATOM      4  O   UNL A   1      34.132  28.360  22.556  1.00  0.00    -0.274 OA
ATOM      5  H   UNL A   1      34.266  29.706  24.514  1.00  0.00     0.163 HD
BRANCH   3   6
ATOM      6  C   UNL A   1      32.056  27.418  23.401  1.00  0.00     0.103 C 
ATOM      7  C   UNL A   1      32.628  25.169  22.562  1.00  0.00     0.106 C 
ATOM      8  C   UNL A   1      32.011  26.034  21.501  1.00  0.00    -0.006 C 
ATOM      9  C   UNL A   1      32.343  25.980  23.838  1.00  0.00     0.047 C 
ATOM     10  C   UNL A   1      31.675  27.245  21.962  1.00  0.00    -0.016 C 
BRANCH   7  11
ATOM     11  N   UNL A   1      31.979  23.872  22.484  1.00  0.00    -0.345 N 
ATOM     12  C   UNL A   1      32.273  22.653  23.048  1.00  0.00     0.268 C 
ATOM     13  O   UNL A   1      31.533  21.718  22.800  1.00  0.00    -0.268 OA
ATOM     14  H   UNL A   1      31.173  23.864  21.919  1.00  0.00     0.164 HD
BRANCH  12  15
ATOM     15  C   UNL A   1      33.360  22.531  23.994  1.00  0.00     0.105 A 
ATOM     16  C   UNL A   1      35.365  22.542  25.049  1.00  0.00     0.035 A 
ATOM     17  C   UNL A   1      34.400  22.928  25.957  1.00  0.00     0.094 A 
ATOM     18  C   UNL A   1      34.674  22.131  23.878  1.00  0.00     0.045 A 
ATOM     19  N   UNL A   1      33.183  22.860  25.324  1.00  0.00    -0.356 N 
ATOM     20  H   UNL A   1      32.313  23.021  25.755  1.00  0.00     0.166 HD
BRANCH  16  21
ATOM     21  C   UNL A   1      36.809  22.624  25.209  1.00  0.00     0.161 C 
ATOM     22  C   UNL A   1      37.369  23.703  26.089  1.00  0.00     0.093 C 
ATOM     23  O   UNL A   1      37.545  21.796  24.674  1.00  0.00    -0.294 OA
ENDBRANCH  16  21
ENDBRANCH  12  15
ENDBRANCH   7  11
ENDBRANCH   3   6
ENDBRANCH   1   2
BRANCH   1  24
ATOM     24  C   UNL A   1      33.332  28.657  26.970  1.00  0.00     0.042 C 
BRANCH  24  25
ATOM     25  C   UNL A   1      34.844  28.892  26.985  1.00  0.00     0.118 C 
BRANCH  25  26
ATOM     26  N   UNL A   1      35.177  30.138  27.658  1.00  0.00    -0.352 N 
ATOM     27  C   UNL A   1      36.258  30.489  28.419  1.00  0.00     0.251 C 
ATOM     28  H   UNL A   1      34.508  30.852  27.546  1.00  0.00     0.163 HD
ATOM     29  O   UNL A   1      36.182  31.513  29.098  1.00  0.00    -0.269 OA
BRANCH  27  30
ATOM     30  C   UNL A   1      37.490  29.672  28.483  1.00  0.00     0.039 A 
ATOM     31  C   UNL A   1      38.330  29.701  27.363  1.00  0.00     0.014 A 
ATOM     32  C   UNL A   1      37.794  28.826  29.557  1.00  0.00     0.014 A 
ATOM     33  C   UNL A   1      39.495  28.943  27.345  1.00  0.00     0.010 A 
ATOM     34  C   UNL A   1      38.976  28.082  29.554  1.00  0.00     0.010 A 
ATOM     35  C   UNL A   1      39.837  28.157  28.454  1.00  0.00    -0.014 A 
BRANCH  35  36
ATOM     36  C   UNL A   1      41.216  27.609  28.501  1.00  0.00     0.031 A 
ATOM     37  C   UNL A   1      41.233  26.138  28.064  1.00  0.00     0.074 A 
ATOM     38  C   UNL A   1      42.216  28.399  28.992  1.00  0.00     0.049 A 
ATOM     39  N   UNL A   1      41.906  25.136  28.537  1.00  0.00    -0.248 NA
ATOM     40  C   UNL A   1      40.267  25.696  27.021  1.00  0.00     0.031 C 
ATOM     41  C   UNL A   1      42.070  29.835  29.295  1.00  0.00     0.029 A 
ATOM     42  N   UNL A   1      43.538  28.178  29.342  1.00  0.00    -0.354 N 
ATOM     43  C   UNL A   1      41.589  24.004  27.753  1.00  0.00     0.074 A 
ATOM     44  C   UNL A   1      40.478  24.381  26.935  1.00  0.00     0.031 C 
ATOM     45  C   UNL A   1      43.201  30.329  29.843  1.00  0.00     0.029 A 
ATOM     46  C   UNL A   1      44.192  29.276  29.965  1.00  0.00     0.049 A 
ATOM     47  H   UNL A   1      43.992  27.321  29.170  1.00  0.00     0.167 HD
ATOM     48  C   UNL A   1      42.361  22.876  27.727  1.00  0.00     0.037 A 
ATOM     49  C   UNL A   1      45.413  29.327  30.588  1.00  0.00     0.037 A 
ATOM     50  C   UNL A   1      43.447  23.018  28.637  1.00  0.00     0.049 A 
ATOM     51  C   UNL A   1      46.010  27.997  30.409  1.00  0.00     0.074 A 
ATOM     52  C   UNL A   1      43.524  23.055  30.004  1.00  0.00     0.029 A 
ATOM     53  N   UNL A   1      44.615  23.506  28.105  1.00  0.00    -0.354 N 
ATOM     54  N   UNL A   1      46.556  27.564  29.313  1.00  0.00    -0.248 NA
ATOM     55  C   UNL A   1      45.933  27.043  31.525  1.00  0.00     0.031 C 
ATOM     56  C   UNL A   1      44.543  23.999  30.248  1.00  0.00     0.029 A 
ATOM     57  C   UNL A   1      45.172  24.334  29.043  1.00  0.00     0.049 A 
ATOM     58  H   UNL A   1      44.984  23.298  27.216  1.00  0.00     0.167 HD
ATOM     59  C   UNL A   1      46.566  26.206  29.520  1.00  0.00     0.074 A 
ATOM     60  C   UNL A   1      46.513  25.996  30.948  1.00  0.00     0.031 C 
ATOM     61  C   UNL A   1      46.035  25.390  28.576  1.00  0.00     0.037 A 
BRANCH  48  62
ATOM     62  C   UNL A   1      42.436  21.727  26.756  1.00  0.00     0.057 A 
ATOM     63  C   UNL A   1      41.750  20.529  27.079  1.00  0.00     0.134 A 
ATOM     64  C   UNL A   1      43.398  21.615  25.747  1.00  0.00     0.134 A 
ATOM     65  F   UNL A   1      40.771  20.518  27.999  1.00  0.00    -0.206 F 
ATOM     66  C   UNL A   1      42.102  19.288  26.545  1.00  0.00     0.040 A 
ATOM     67  C   UNL A   1      43.722  20.381  25.166  1.00  0.00     0.040 A 
ATOM     68  F   UNL A   1      44.127  22.664  25.351  1.00  0.00    -0.206 F 
ATOM     69  C   UNL A   1      43.110  19.209  25.596  1.00  0.00     0.006 A 
ENDBRANCH  48  62
BRANCH  49  70
ATOM     70  C   UNL A   1      46.214  30.293  31.441  1.00  0.00     0.057 A 
ATOM     71  C   UNL A   1      45.866  30.756  32.713  1.00  0.00     0.134 A 
ATOM     72  C   UNL A   1      47.462  30.805  30.978  1.00  0.00     0.134 A 
ATOM     73  F   UNL A   1      44.671  30.492  33.248  1.00  0.00    -0.206 F 
ATOM     74  C   UNL A   1      46.730  31.557  33.492  1.00  0.00     0.040 A 
ATOM     75  C   UNL A   1      48.343  31.570  31.751  1.00  0.00     0.040 A 
ATOM     76  F   UNL A   1      47.902  30.599  29.730  1.00  0.00    -0.206 F 
ATOM     77  C   UNL A   1      47.985  31.937  33.029  1.00  0.00     0.006 A 
ENDBRANCH  49  70
BRANCH  61  78
ATOM     78  C   UNL A   1      46.089  25.949  27.172  1.00  0.00     0.057 A 
ATOM     79  C   UNL A   1      47.326  26.101  26.535  1.00  0.00     0.134 A 
ATOM     80  C   UNL A   1      44.976  26.451  26.480  1.00  0.00     0.134 A 
ATOM     81  F   UNL A   1      48.444  25.648  27.121  1.00  0.00    -0.206 F 
ATOM     82  C   UNL A   1      47.450  26.722  25.286  1.00  0.00     0.040 A 
ATOM     83  C   UNL A   1      45.081  27.069  25.227  1.00  0.00     0.040 A 
ATOM     84  F   UNL A   1      43.753  26.376  27.006  1.00  0.00    -0.206 F 
ATOM     85  C   UNL A   1      46.326  27.211  24.627  1.00  0.00     0.006 A 
ENDBRANCH  61  78
ENDBRANCH  35  36
ENDBRANCH  27  30
ENDBRANCH  25  26
ENDBRANCH  24  25
ENDBRANCH   1  24
TORSDOF 13
ENDMDL
