MODEL 1
REMARK VINA RESULT:     -11.5      0.000      0.000
REMARK SMILES O=C(NCCCNC(=O)[C@@H](NC(=O)c1cscn1)c1ccccc1C(F)(F)F)c1ccc(-c2c3nc(c(-c4c(F)cccc4F)c4ccc([nH]4)c(-c4c(F)cccc4F)c4nc(c(-c5c(F)cccc5F)c5ccc2[nH]5)C=C4)C=C3)cc1
REMARK SMILES IDX 5 1 4 2 3 3 1 4 2 5 29 7 30 8 82 9 31 10 81 11 32 12 33 13
REMARK SMILES IDX 34 14 75 15 35 16 80 17 74 18 76 19 36 20 79 21 73 22 72 23
REMARK SMILES IDX 37 25 63 26 46 27 62 28 47 29 50 30 61 31 77 32 48 33 49 34
REMARK SMILES IDX 60 36 78 37 51 38 38 39 39 40 44 41 40 42 41 43 43 44 45 45
REMARK SMILES IDX 42 46 64 47 65 48 70 49 66 50 67 51 69 52 71 53 68 54 52 55
REMARK SMILES IDX 53 56 58 57 54 58 55 59 57 60 59 61 56 62 6 63 7 64 8 65
REMARK SMILES IDX 9 67 10 68 11 69 12 70 13 72 14 73 15 74 18 75 16 76 17 77
REMARK SMILES IDX 19 78 20 79 24 80 21 81 23 82 22 83 25 84 26 85 27 86 28 87
REMARK H PARENT 3 6 76 24 50 35 7 66 11 71
REMARK Flexibility Score: inf
ROOT
ATOM      1  C   UNL A   1      31.675  29.081  26.631  1.00  0.00     0.042 C 
ENDROOT
BRANCH   1   2
ATOM      2  C   UNL A   1      32.536  30.110  25.925  1.00  0.00     0.118 C 
BRANCH   2   3
ATOM      3  N   UNL A   1      32.172  31.483  26.263  1.00  0.00    -0.352 N 
ATOM      4  O   UNL A   1      32.177  33.435  27.386  1.00  0.00    -0.269 OA
ATOM      5  C   UNL A   1      32.743  32.371  27.150  1.00  0.00     0.251 C 
ATOM      6  H   UNL A   1      31.390  31.832  25.778  1.00  0.00     0.163 HD
BRANCH   5   7
ATOM      7  C   UNL A   1      34.020  32.050  27.835  1.00  0.00     0.039 A 
ATOM      8  C   UNL A   1      34.253  30.778  28.345  1.00  0.00     0.014 A 
ATOM      9  C   UNL A   1      35.018  33.026  27.952  1.00  0.00     0.014 A 
ATOM     10  C   UNL A   1      35.356  30.543  29.148  1.00  0.00     0.010 A 
ATOM     11  C   UNL A   1      36.213  32.736  28.628  1.00  0.00     0.010 A 
ATOM     12  C   UNL A   1      36.380  31.498  29.259  1.00  0.00    -0.014 A 
BRANCH  12  13
ATOM     13  C   UNL A   1      37.630  31.089  29.956  1.00  0.00     0.031 A 
ATOM     14  C   UNL A   1      37.888  31.426  31.397  1.00  0.00     0.074 A 
ATOM     15  C   UNL A   1      38.496  30.306  29.278  1.00  0.00     0.049 A 
ATOM     16  N   UNL A   1      38.887  31.052  32.158  1.00  0.00    -0.248 NA
ATOM     17  C   UNL A   1      36.918  32.300  32.073  1.00  0.00     0.031 C 
ATOM     18  C   UNL A   1      38.363  29.936  27.864  1.00  0.00     0.029 A 
ATOM     19  N   UNL A   1      39.617  29.630  29.686  1.00  0.00    -0.354 N 
ATOM     20  C   UNL A   1      38.679  31.657  33.391  1.00  0.00     0.074 A 
ATOM     21  C   UNL A   1      37.468  32.442  33.272  1.00  0.00     0.031 C 
ATOM     22  C   UNL A   1      39.292  29.024  27.554  1.00  0.00     0.029 A 
ATOM     23  C   UNL A   1      40.147  28.816  28.714  1.00  0.00     0.049 A 
ATOM     24  H   UNL A   1      40.004  29.720  30.588  1.00  0.00     0.167 HD
ATOM     25  C   UNL A   1      39.428  31.560  34.515  1.00  0.00     0.037 A 
ATOM     26  C   UNL A   1      41.215  27.998  28.740  1.00  0.00     0.037 A 
ATOM     27  C   UNL A   1      40.624  30.760  34.629  1.00  0.00     0.049 A 
ATOM     28  C   UNL A   1      42.013  27.903  30.005  1.00  0.00     0.074 A 
ATOM     29  C   UNL A   1      41.453  30.597  35.725  1.00  0.00     0.029 A 
ATOM     30  N   UNL A   1      41.154  29.982  33.610  1.00  0.00    -0.354 N 
ATOM     31  N   UNL A   1      41.801  28.487  31.158  1.00  0.00    -0.248 NA
ATOM     32  C   UNL A   1      43.205  27.048  29.968  1.00  0.00     0.031 C 
ATOM     33  C   UNL A   1      42.502  29.747  35.361  1.00  0.00     0.029 A 
ATOM     34  C   UNL A   1      42.305  29.345  34.050  1.00  0.00     0.049 A 
ATOM     35  H   UNL A   1      40.771  29.895  32.707  1.00  0.00     0.167 HD
ATOM     36  C   UNL A   1      42.837  28.079  31.983  1.00  0.00     0.074 A 
ATOM     37  C   UNL A   1      43.650  27.161  31.210  1.00  0.00     0.031 C 
ATOM     38  C   UNL A   1      43.105  28.446  33.259  1.00  0.00     0.037 A 
BRANCH  25  39
ATOM     39  C   UNL A   1      38.990  32.344  35.718  1.00  0.00     0.057 A 
ATOM     40  C   UNL A   1      38.216  31.769  36.734  1.00  0.00     0.134 A 
ATOM     41  C   UNL A   1      39.402  33.672  35.895  1.00  0.00     0.134 A 
ATOM     42  F   UNL A   1      37.779  30.506  36.622  1.00  0.00    -0.206 F 
ATOM     43  C   UNL A   1      37.858  32.489  37.876  1.00  0.00     0.040 A 
ATOM     44  C   UNL A   1      39.070  34.395  37.043  1.00  0.00     0.040 A 
ATOM     45  F   UNL A   1      40.152  34.282  34.965  1.00  0.00    -0.206 F 
ATOM     46  C   UNL A   1      38.293  33.804  38.037  1.00  0.00     0.006 A 
ENDBRANCH  25  39
BRANCH  26  47
ATOM     47  C   UNL A   1      41.601  27.239  27.524  1.00  0.00     0.057 A 
ATOM     48  C   UNL A   1      42.386  27.817  26.521  1.00  0.00     0.134 A 
ATOM     49  C   UNL A   1      41.197  25.911  27.341  1.00  0.00     0.134 A 
ATOM     50  F   UNL A   1      42.792  29.091  26.628  1.00  0.00    -0.206 F 
ATOM     51  C   UNL A   1      42.741  27.107  25.371  1.00  0.00     0.040 A 
ATOM     52  C   UNL A   1      41.572  25.178  26.215  1.00  0.00     0.040 A 
ATOM     53  F   UNL A   1      40.452  25.295  28.270  1.00  0.00    -0.206 F 
ATOM     54  C   UNL A   1      42.339  25.781  25.221  1.00  0.00     0.006 A 
ENDBRANCH  26  47
BRANCH  38  55
ATOM     55  C   UNL A   1      44.325  27.842  33.885  1.00  0.00     0.057 A 
ATOM     56  C   UNL A   1      45.573  28.477  33.820  1.00  0.00     0.134 A 
ATOM     57  C   UNL A   1      44.256  26.612  34.548  1.00  0.00     0.134 A 
ATOM     58  F   UNL A   1      45.706  29.650  33.182  1.00  0.00    -0.206 F 
ATOM     59  C   UNL A   1      46.716  27.893  34.364  1.00  0.00     0.040 A 
ATOM     60  C   UNL A   1      45.388  26.029  35.117  1.00  0.00     0.040 A 
ATOM     61  F   UNL A   1      43.091  25.955  34.649  1.00  0.00    -0.206 F 
ATOM     62  C   UNL A   1      46.624  26.665  35.018  1.00  0.00     0.006 A 
ENDBRANCH  38  55
ENDBRANCH  12  13
ENDBRANCH   5   7
ENDBRANCH   2   3
ENDBRANCH   1   2
BRANCH   1  63
ATOM     63  C   UNL A   1      32.433  27.811  26.992  1.00  0.00     0.117 C 
BRANCH  63  64
ATOM     64  N   UNL A   1      31.543  26.663  27.018  1.00  0.00    -0.354 N 
ATOM     65  C   UNL A   1      31.103  25.791  26.074  1.00  0.00     0.247 C 
ATOM     66  H   UNL A   1      31.180  26.477  27.913  1.00  0.00     0.163 HD
ATOM     67  O   UNL A   1      30.178  25.052  26.446  1.00  0.00    -0.272 OA
BRANCH  65  68
ATOM     68  C   UNL A   1      31.551  25.748  24.584  1.00  0.00     0.203 C 
BRANCH  68  69
ATOM     69  N   UNL A   1      31.345  24.405  24.059  1.00  0.00    -0.335 N 
ATOM     70  C   UNL A   1      32.177  23.311  24.028  1.00  0.00     0.271 C 
ATOM     71  H   UNL A   1      30.458  24.254  23.659  1.00  0.00     0.165 HD
ATOM     72  O   UNL A   1      31.724  22.244  23.629  1.00  0.00    -0.267 OA
BRANCH  70  73
ATOM     73  C   UNL A   1      33.598  23.477  24.349  1.00  0.00     0.139 A 
ATOM     74  C   UNL A   1      34.051  23.548  25.657  1.00  0.00     0.100 A 
ATOM     75  N   UNL A   1      34.609  23.524  23.391  1.00  0.00    -0.240 NA
ATOM     76  S   UNL A   1      35.762  23.553  25.699  1.00  0.00    -0.130 S 
ATOM     77  C   UNL A   1      35.781  23.542  23.987  1.00  0.00     0.176 A 
ENDBRANCH  70  73
ENDBRANCH  68  69
BRANCH  68  78
ATOM     78  C   UNL A   1      31.155  26.945  23.727  1.00  0.00    -0.004 A 
ATOM     79  C   UNL A   1      29.759  27.206  23.694  1.00  0.00     0.007 A 
ATOM     80  C   UNL A   1      32.014  27.826  23.025  1.00  0.00     0.061 A 
ATOM     81  C   UNL A   1      29.226  28.314  23.043  1.00  0.00     0.000 A 
ATOM     82  C   UNL A   1      31.446  28.952  22.381  1.00  0.00     0.013 A 
ATOM     83  C   UNL A   1      30.074  29.196  22.393  1.00  0.00     0.001 A 
BRANCH  80  84
ATOM     84  C   UNL A   1      33.517  27.687  22.875  1.00  0.00     0.416 C 
ATOM     85  F   UNL A   1      33.854  26.467  22.360  1.00  0.00    -0.166 F 
ATOM     86  F   UNL A   1      34.053  28.597  22.019  1.00  0.00    -0.166 F 
ATOM     87  F   UNL A   1      34.232  27.782  24.025  1.00  0.00    -0.166 F 
ENDBRANCH  80  84
ENDBRANCH  68  78
ENDBRANCH  65  68
ENDBRANCH  63  64
ENDBRANCH   1  63
TORSDOF 14
ENDMDL
MODEL 2
REMARK VINA RESULT:     -11.4      3.815      8.668
REMARK SMILES O=C(NCCCNC(=O)[C@@H](NC(=O)c1cscn1)c1ccccc1C(F)(F)F)c1ccc(-c2c3nc(c(-c4c(F)cccc4F)c4ccc([nH]4)c(-c4c(F)cccc4F)c4nc(c(-c5c(F)cccc5F)c5ccc2[nH]5)C=C4)C=C3)cc1
REMARK SMILES IDX 5 1 4 2 3 3 1 4 2 5 29 7 30 8 82 9 31 10 81 11 32 12 33 13
REMARK SMILES IDX 34 14 75 15 35 16 80 17 74 18 76 19 36 20 79 21 73 22 72 23
REMARK SMILES IDX 37 25 63 26 46 27 62 28 47 29 50 30 61 31 77 32 48 33 49 34
REMARK SMILES IDX 60 36 78 37 51 38 38 39 39 40 44 41 40 42 41 43 43 44 45 45
REMARK SMILES IDX 42 46 64 47 65 48 70 49 66 50 67 51 69 52 71 53 68 54 52 55
REMARK SMILES IDX 53 56 58 57 54 58 55 59 57 60 59 61 56 62 6 63 7 64 8 65
REMARK SMILES IDX 9 67 10 68 11 69 12 70 13 72 14 73 15 74 18 75 16 76 17 77
REMARK SMILES IDX 19 78 20 79 24 80 21 81 23 82 22 83 25 84 26 85 27 86 28 87
REMARK H PARENT 3 6 76 24 50 35 7 66 11 71
REMARK Flexibility Score: inf
ROOT
ATOM      1  C   UNL A   1      34.238  21.442  26.974  1.00  0.00     0.042 C 
ENDROOT
BRANCH   1   2
ATOM      2  C   UNL A   1      35.627  22.001  26.733  1.00  0.00     0.118 C 
BRANCH   2   3
ATOM      3  N   UNL A   1      36.477  21.098  25.963  1.00  0.00    -0.352 N 
ATOM      4  O   UNL A   1      38.285  20.386  24.825  1.00  0.00    -0.269 OA
ATOM      5  C   UNL A   1      37.806  21.200  25.610  1.00  0.00     0.251 C 
ATOM      6  H   UNL A   1      36.028  20.283  25.644  1.00  0.00     0.163 HD
BRANCH   5   7
ATOM      7  C   UNL A   1      38.658  22.287  26.151  1.00  0.00     0.039 A 
ATOM      8  C   UNL A   1      38.332  23.622  25.934  1.00  0.00     0.014 A 
ATOM      9  C   UNL A   1      39.793  21.977  26.913  1.00  0.00     0.014 A 
ATOM     10  C   UNL A   1      39.230  24.620  26.271  1.00  0.00     0.010 A 
ATOM     11  C   UNL A   1      40.619  23.003  27.398  1.00  0.00     0.010 A 
ATOM     12  C   UNL A   1      40.360  24.335  27.055  1.00  0.00    -0.014 A 
BRANCH  12  13
ATOM     13  C   UNL A   1      41.154  25.487  27.562  1.00  0.00     0.031 A 
ATOM     14  C   UNL A   1      42.549  25.769  27.081  1.00  0.00     0.074 A 
ATOM     15  C   UNL A   1      40.541  26.345  28.406  1.00  0.00     0.049 A 
ATOM     16  N   UNL A   1      43.320  26.791  27.363  1.00  0.00    -0.248 NA
ATOM     17  C   UNL A   1      43.168  24.785  26.180  1.00  0.00     0.031 C 
ATOM     18  C   UNL A   1      39.197  26.158  28.963  1.00  0.00     0.029 A 
ATOM     19  N   UNL A   1      40.928  27.567  28.894  1.00  0.00    -0.354 N 
ATOM     20  C   UNL A   1      44.517  26.565  26.695  1.00  0.00     0.074 A 
ATOM     21  C   UNL A   1      44.380  25.297  26.009  1.00  0.00     0.031 C 
ATOM     22  C   UNL A   1      38.832  27.264  29.622  1.00  0.00     0.029 A 
ATOM     23  C   UNL A   1      39.948  28.200  29.619  1.00  0.00     0.049 A 
ATOM     24  H   UNL A   1      41.821  27.953  28.739  1.00  0.00     0.167 HD
ATOM     25  C   UNL A   1      45.622  27.347  26.658  1.00  0.00     0.037 A 
ATOM     26  C   UNL A   1      39.944  29.397  30.233  1.00  0.00     0.037 A 
ATOM     27  C   UNL A   1      45.742  28.617  27.331  1.00  0.00     0.049 A 
ATOM     28  C   UNL A   1      41.178  30.243  30.159  1.00  0.00     0.074 A 
ATOM     29  C   UNL A   1      46.821  29.484  27.354  1.00  0.00     0.029 A 
ATOM     30  N   UNL A   1      44.743  29.207  28.092  1.00  0.00    -0.354 N 
ATOM     31  N   UNL A   1      42.301  30.008  29.526  1.00  0.00    -0.248 NA
ATOM     32  C   UNL A   1      41.151  31.512  30.896  1.00  0.00     0.031 C 
ATOM     33  C   UNL A   1      46.488  30.581  28.155  1.00  0.00     0.029 A 
ATOM     34  C   UNL A   1      45.185  30.420  28.598  1.00  0.00     0.049 A 
ATOM     35  H   UNL A   1      43.852  28.820  28.251  1.00  0.00     0.167 HD
ATOM     36  C   UNL A   1      43.119  31.094  29.794  1.00  0.00     0.074 A 
ATOM     37  C   UNL A   1      42.344  32.009  30.610  1.00  0.00     0.031 C 
ATOM     38  C   UNL A   1      44.402  31.308  29.417  1.00  0.00     0.037 A 
BRANCH  25  39
ATOM     39  C   UNL A   1      46.803  26.853  25.872  1.00  0.00     0.057 A 
ATOM     40  C   UNL A   1      47.024  27.245  24.546  1.00  0.00     0.134 A 
ATOM     41  C   UNL A   1      47.765  26.028  26.469  1.00  0.00     0.134 A 
ATOM     42  F   UNL A   1      46.137  28.026  23.911  1.00  0.00    -0.206 F 
ATOM     43  C   UNL A   1      48.154  26.826  23.839  1.00  0.00     0.040 A 
ATOM     44  C   UNL A   1      48.909  25.620  25.780  1.00  0.00     0.040 A 
ATOM     45  F   UNL A   1      47.619  25.621  27.740  1.00  0.00    -0.206 F 
ATOM     46  C   UNL A   1      49.104  26.017  24.460  1.00  0.00     0.006 A 
ENDBRANCH  25  39
BRANCH  26  47
ATOM     47  C   UNL A   1      38.747  29.840  30.992  1.00  0.00     0.057 A 
ATOM     48  C   UNL A   1      38.554  29.478  32.329  1.00  0.00     0.134 A 
ATOM     49  C   UNL A   1      37.769  30.645  30.394  1.00  0.00     0.134 A 
ATOM     50  F   UNL A   1      39.446  28.696  32.953  1.00  0.00    -0.206 F 
ATOM     51  C   UNL A   1      37.423  29.887  33.039  1.00  0.00     0.040 A 
ATOM     52  C   UNL A   1      36.652  31.089  31.101  1.00  0.00     0.040 A 
ATOM     53  F   UNL A   1      37.899  31.036  29.118  1.00  0.00    -0.206 F 
ATOM     54  C   UNL A   1      36.472  30.701  32.426  1.00  0.00     0.006 A 
ENDBRANCH  26  47
BRANCH  38  55
ATOM     55  C   UNL A   1      45.031  32.584  29.886  1.00  0.00     0.057 A 
ATOM     56  C   UNL A   1      45.738  32.652  31.095  1.00  0.00     0.134 A 
ATOM     57  C   UNL A   1      44.922  33.757  29.131  1.00  0.00     0.134 A 
ATOM     58  F   UNL A   1      45.862  31.565  31.872  1.00  0.00    -0.206 F 
ATOM     59  C   UNL A   1      46.285  33.850  31.552  1.00  0.00     0.040 A 
ATOM     60  C   UNL A   1      45.486  34.956  29.566  1.00  0.00     0.040 A 
ATOM     61  F   UNL A   1      44.262  33.758  27.963  1.00  0.00    -0.206 F 
ATOM     62  C   UNL A   1      46.162  35.007  30.784  1.00  0.00     0.006 A 
ENDBRANCH  38  55
ENDBRANCH  12  13
ENDBRANCH   5   7
ENDBRANCH   2   3
ENDBRANCH   1   2
BRANCH   1  63
ATOM     63  C   UNL A   1      33.383  22.327  27.870  1.00  0.00     0.117 C 
BRANCH  63  64
ATOM     64  N   UNL A   1      31.987  22.277  27.470  1.00  0.00    -0.354 N 
ATOM     65  C   UNL A   1      31.200  23.066  26.693  1.00  0.00     0.247 C 
ATOM     66  H   UNL A   1      31.507  21.503  27.843  1.00  0.00     0.163 HD
ATOM     67  O   UNL A   1      29.989  22.802  26.751  1.00  0.00    -0.272 OA
BRANCH  65  68
ATOM     68  C   UNL A   1      31.664  24.312  25.885  1.00  0.00     0.203 C 
BRANCH  68  69
ATOM     69  N   UNL A   1      31.615  25.487  26.745  1.00  0.00    -0.335 N 
ATOM     70  C   UNL A   1      31.200  26.773  26.493  1.00  0.00     0.271 C 
ATOM     71  H   UNL A   1      31.932  25.334  27.664  1.00  0.00     0.165 HD
ATOM     72  O   UNL A   1      31.147  27.563  27.428  1.00  0.00    -0.267 OA
BRANCH  70  73
ATOM     73  C   UNL A   1      30.955  27.193  25.110  1.00  0.00     0.139 A 
ATOM     74  C   UNL A   1      31.886  27.924  24.389  1.00  0.00     0.100 A 
ATOM     75  N   UNL A   1      29.810  26.858  24.389  1.00  0.00    -0.240 NA
ATOM     76  S   UNL A   1      31.384  28.095  22.761  1.00  0.00    -0.130 S 
ATOM     77  C   UNL A   1      29.939  27.261  23.144  1.00  0.00     0.176 A 
ENDBRANCH  70  73
ENDBRANCH  68  69
BRANCH  68  78
ATOM     78  C   UNL A   1      32.869  24.113  24.974  1.00  0.00    -0.004 A 
ATOM     79  C   UNL A   1      33.987  24.929  25.295  1.00  0.00     0.007 A 
ATOM     80  C   UNL A   1      33.002  23.191  23.906  1.00  0.00     0.061 A 
ATOM     81  C   UNL A   1      35.206  24.812  24.632  1.00  0.00     0.000 A 
ATOM     82  C   UNL A   1      34.256  23.087  23.257  1.00  0.00     0.013 A 
ATOM     83  C   UNL A   1      35.344  23.880  23.617  1.00  0.00     0.001 A 
BRANCH  80  84
ATOM     84  C   UNL A   1      31.915  22.285  23.360  1.00  0.00     0.416 C 
ATOM     85  F   UNL A   1      32.248  21.798  22.128  1.00  0.00    -0.166 F 
ATOM     86  F   UNL A   1      31.700  21.187  24.132  1.00  0.00    -0.166 F 
ATOM     87  F   UNL A   1      30.702  22.867  23.182  1.00  0.00    -0.166 F 
ENDBRANCH  80  84
ENDBRANCH  68  78
ENDBRANCH  65  68
ENDBRANCH  63  64
ENDBRANCH   1  63
TORSDOF 14
ENDMDL
MODEL 3
REMARK VINA RESULT:     -11.4      4.523      8.164
REMARK SMILES O=C(NCCCNC(=O)[C@@H](NC(=O)c1cscn1)c1ccccc1C(F)(F)F)c1ccc(-c2c3nc(c(-c4c(F)cccc4F)c4ccc([nH]4)c(-c4c(F)cccc4F)c4nc(c(-c5c(F)cccc5F)c5ccc2[nH]5)C=C4)C=C3)cc1
REMARK SMILES IDX 5 1 4 2 3 3 1 4 2 5 29 7 30 8 82 9 31 10 81 11 32 12 33 13
REMARK SMILES IDX 34 14 75 15 35 16 80 17 74 18 76 19 36 20 79 21 73 22 72 23
REMARK SMILES IDX 37 25 63 26 46 27 62 28 47 29 50 30 61 31 77 32 48 33 49 34
REMARK SMILES IDX 60 36 78 37 51 38 38 39 39 40 44 41 40 42 41 43 43 44 45 45
REMARK SMILES IDX 42 46 64 47 65 48 70 49 66 50 67 51 69 52 71 53 68 54 52 55
REMARK SMILES IDX 53 56 58 57 54 58 55 59 57 60 59 61 56 62 6 63 7 64 8 65
REMARK SMILES IDX 9 67 10 68 11 69 12 70 13 72 14 73 15 74 18 75 16 76 17 77
REMARK SMILES IDX 19 78 20 79 24 80 21 81 23 82 22 83 25 84 26 85 27 86 28 87
REMARK H PARENT 3 6 76 24 50 35 7 66 11 71
REMARK Flexibility Score: inf
ROOT
ATOM      1  C   UNL A   1      33.349  28.602  26.291  1.00  0.00     0.042 C 
ENDROOT
BRANCH   1   2
ATOM      2  C   UNL A   1      34.577  28.714  27.173  1.00  0.00     0.118 C 
BRANCH   2   3
ATOM      3  N   UNL A   1      34.559  29.900  28.024  1.00  0.00    -0.352 N 
ATOM      4  O   UNL A   1      35.266  31.383  29.564  1.00  0.00    -0.269 OA
ATOM      5  C   UNL A   1      35.548  30.457  28.808  1.00  0.00     0.251 C 
ATOM      6  H   UNL A   1      33.701  30.381  28.040  1.00  0.00     0.163 HD
BRANCH   5   7
ATOM      7  C   UNL A   1      36.938  29.941  28.763  1.00  0.00     0.039 A 
ATOM      8  C   UNL A   1      37.711  30.077  27.615  1.00  0.00     0.014 A 
ATOM      9  C   UNL A   1      37.498  29.332  29.894  1.00  0.00     0.014 A 
ATOM     10  C   UNL A   1      38.928  29.426  27.515  1.00  0.00     0.010 A 
ATOM     11  C   UNL A   1      38.802  28.814  29.844  1.00  0.00     0.010 A 
ATOM     12  C   UNL A   1      39.519  28.830  28.642  1.00  0.00    -0.014 A 
BRANCH  12  13
ATOM     13  C   UNL A   1      40.920  28.348  28.510  1.00  0.00     0.031 A 
ATOM     14  C   UNL A   1      41.244  26.929  28.136  1.00  0.00     0.074 A 
ATOM     15  C   UNL A   1      41.909  29.258  28.638  1.00  0.00     0.049 A 
ATOM     16  N   UNL A   1      42.416  26.395  27.892  1.00  0.00    -0.248 NA
ATOM     17  C   UNL A   1      40.124  25.982  28.034  1.00  0.00     0.031 C 
ATOM     18  C   UNL A   1      41.715  30.659  29.027  1.00  0.00     0.029 A 
ATOM     19  N   UNL A   1      43.256  29.170  28.399  1.00  0.00    -0.354 N 
ATOM     20  C   UNL A   1      42.179  25.053  27.627  1.00  0.00     0.074 A 
ATOM     21  C   UNL A   1      40.752  24.845  27.761  1.00  0.00     0.031 C 
ATOM     22  C   UNL A   1      42.871  31.320  28.896  1.00  0.00     0.029 A 
ATOM     23  C   UNL A   1      43.909  30.375  28.511  1.00  0.00     0.049 A 
ATOM     24  H   UNL A   1      43.711  28.327  28.170  1.00  0.00     0.167 HD
ATOM     25  C   UNL A   1      43.071  24.088  27.297  1.00  0.00     0.037 A 
ATOM     26  C   UNL A   1      45.206  30.690  28.338  1.00  0.00     0.037 A 
ATOM     27  C   UNL A   1      44.489  24.308  27.148  1.00  0.00     0.049 A 
ATOM     28  C   UNL A   1      46.163  29.601  27.961  1.00  0.00     0.074 A 
ATOM     29  C   UNL A   1      45.475  23.395  26.818  1.00  0.00     0.029 A 
ATOM     30  N   UNL A   1      45.120  25.533  27.311  1.00  0.00    -0.354 N 
ATOM     31  N   UNL A   1      45.918  28.337  27.719  1.00  0.00    -0.248 NA
ATOM     32  C   UNL A   1      47.577  29.979  27.845  1.00  0.00     0.031 C 
ATOM     33  C   UNL A   1      46.706  24.060  26.813  1.00  0.00     0.029 A 
ATOM     34  C   UNL A   1      46.484  25.396  27.098  1.00  0.00     0.049 A 
ATOM     35  H   UNL A   1      44.667  26.375  27.544  1.00  0.00     0.167 HD
ATOM     36  C   UNL A   1      47.147  27.764  27.432  1.00  0.00     0.074 A 
ATOM     37  C   UNL A   1      48.128  28.830  27.484  1.00  0.00     0.031 C 
ATOM     38  C   UNL A   1      47.442  26.468  27.168  1.00  0.00     0.037 A 
BRANCH  25  39
ATOM     39  C   UNL A   1      42.550  22.696  27.084  1.00  0.00     0.057 A 
ATOM     40  C   UNL A   1      42.410  22.147  25.804  1.00  0.00     0.134 A 
ATOM     41  C   UNL A   1      42.246  21.871  28.176  1.00  0.00     0.134 A 
ATOM     42  F   UNL A   1      42.675  22.885  24.716  1.00  0.00    -0.206 F 
ATOM     43  C   UNL A   1      41.977  20.832  25.615  1.00  0.00     0.040 A 
ATOM     44  C   UNL A   1      41.833  20.548  28.001  1.00  0.00     0.040 A 
ATOM     45  F   UNL A   1      42.365  22.331  29.431  1.00  0.00    -0.206 F 
ATOM     46  C   UNL A   1      41.695  20.026  26.717  1.00  0.00     0.006 A 
ENDBRANCH  25  39
BRANCH  26  47
ATOM     47  C   UNL A   1      45.668  32.084  28.556  1.00  0.00     0.057 A 
ATOM     48  C   UNL A   1      45.700  33.015  27.512  1.00  0.00     0.134 A 
ATOM     49  C   UNL A   1      46.083  32.520  29.821  1.00  0.00     0.134 A 
ATOM     50  F   UNL A   1      45.331  32.656  26.274  1.00  0.00    -0.206 F 
ATOM     51  C   UNL A   1      46.144  34.323  27.715  1.00  0.00     0.040 A 
ATOM     52  C   UNL A   1      46.496  33.833  30.045  1.00  0.00     0.040 A 
ATOM     53  F   UNL A   1      46.066  31.680  30.866  1.00  0.00    -0.206 F 
ATOM     54  C   UNL A   1      46.536  34.736  28.987  1.00  0.00     0.006 A 
ENDBRANCH  26  47
BRANCH  38  55
ATOM     55  C   UNL A   1      48.884  26.151  26.914  1.00  0.00     0.057 A 
ATOM     56  C   UNL A   1      49.747  25.780  27.954  1.00  0.00     0.134 A 
ATOM     57  C   UNL A   1      49.418  26.227  25.623  1.00  0.00     0.134 A 
ATOM     58  F   UNL A   1      49.298  25.707  29.217  1.00  0.00    -0.206 F 
ATOM     59  C   UNL A   1      51.100  25.528  27.724  1.00  0.00     0.040 A 
ATOM     60  C   UNL A   1      50.764  25.954  25.376  1.00  0.00     0.040 A 
ATOM     61  F   UNL A   1      48.644  26.572  24.584  1.00  0.00    -0.206 F 
ATOM     62  C   UNL A   1      51.610  25.612  26.430  1.00  0.00     0.006 A 
ENDBRANCH  38  55
ENDBRANCH  12  13
ENDBRANCH   5   7
ENDBRANCH   2   3
ENDBRANCH   1   2
BRANCH   1  63
ATOM     63  C   UNL A   1      32.900  27.165  26.067  1.00  0.00     0.117 C 
BRANCH  63  64
ATOM     64  N   UNL A   1      34.015  26.330  25.656  1.00  0.00    -0.354 N 
ATOM     65  C   UNL A   1      34.132  25.247  24.843  1.00  0.00     0.247 C 
ATOM     66  H   UNL A   1      34.872  26.609  26.050  1.00  0.00     0.163 HD
ATOM     67  O   UNL A   1      35.234  24.679  24.898  1.00  0.00    -0.272 OA
BRANCH  65  68
ATOM     68  C   UNL A   1      32.993  24.609  23.996  1.00  0.00     0.203 C 
BRANCH  68  69
ATOM     69  N   UNL A   1      33.217  24.909  22.588  1.00  0.00    -0.335 N 
ATOM     70  C   UNL A   1      32.870  26.005  21.834  1.00  0.00     0.271 C 
ATOM     71  H   UNL A   1      33.699  24.209  22.092  1.00  0.00     0.165 HD
ATOM     72  O   UNL A   1      33.278  26.072  20.680  1.00  0.00    -0.267 OA
BRANCH  70  73
ATOM     73  C   UNL A   1      31.932  26.989  22.381  1.00  0.00     0.139 A 
ATOM     74  C   UNL A   1      32.333  28.269  22.733  1.00  0.00     0.100 A 
ATOM     75  N   UNL A   1      30.568  26.753  22.546  1.00  0.00    -0.240 NA
ATOM     76  S   UNL A   1      30.979  29.226  23.160  1.00  0.00    -0.130 S 
ATOM     77  C   UNL A   1      29.971  27.861  22.927  1.00  0.00     0.176 A 
ENDBRANCH  70  73
ENDBRANCH  68  69
BRANCH  68  78
ATOM     78  C   UNL A   1      32.568  23.200  24.393  1.00  0.00    -0.004 A 
ATOM     79  C   UNL A   1      33.139  22.170  23.597  1.00  0.00     0.007 A 
ATOM     80  C   UNL A   1      31.730  22.822  25.470  1.00  0.00     0.061 A 
ATOM     81  C   UNL A   1      32.939  20.821  23.876  1.00  0.00     0.000 A 
ATOM     82  C   UNL A   1      31.554  21.443  25.737  1.00  0.00     0.013 A 
ATOM     83  C   UNL A   1      32.153  20.456  24.956  1.00  0.00     0.001 A 
BRANCH  80  84
ATOM     84  C   UNL A   1      30.971  23.759  26.390  1.00  0.00     0.416 C 
ATOM     85  F   UNL A   1      30.079  23.076  27.168  1.00  0.00    -0.166 F 
ATOM     86  F   UNL A   1      31.778  24.416  27.265  1.00  0.00    -0.166 F 
ATOM     87  F   UNL A   1      30.226  24.711  25.773  1.00  0.00    -0.166 F 
ENDBRANCH  80  84
ENDBRANCH  68  78
ENDBRANCH  65  68
ENDBRANCH  63  64
ENDBRANCH   1  63
TORSDOF 14
ENDMDL
