MODEL 1
REMARK VINA RESULT:     -12.0      0.000      0.000
REMARK SMILES Cc1nn(-c2cccc(C(=O)NCCCNC(=O)c3ccc(-c4c5nc(c(-c6c(F)cccc6F)c6ccc([nH]6)c(-c6c(F)cccc6F)c6nc(c(-c7c(F)cccc7F)c7ccc4[nH]7)C=C6)C=C5)cc3)c2)c(C)c1Cl
REMARK SMILES IDX 14 1 13 2 12 3 10 4 11 5 9 7 5 8 6 9 73 10 7 11 8 12 4 13
REMARK SMILES IDX 1 14 2 15 3 16 76 17 74 18 77 19 75 20 15 21 16 22 17 23
REMARK SMILES IDX 18 25 19 26 20 27 72 28 21 29 71 30 22 31 23 32 24 33 65 34
REMARK SMILES IDX 25 35 70 36 64 37 66 38 26 39 69 40 63 41 62 42 27 44 53 45
REMARK SMILES IDX 36 46 52 47 37 48 40 49 51 50 67 51 38 52 39 53 50 55 68 56
REMARK SMILES IDX 41 57 28 58 29 59 34 60 30 61 31 62 33 63 35 64 32 65 54 66
REMARK SMILES IDX 55 67 60 68 56 69 57 70 59 71 61 72 58 73 42 74 43 75 48 76
REMARK SMILES IDX 44 77 45 78 47 79 49 80 46 81
REMARK H PARENT 12 6 16 24 66 43 40 54
REMARK Flexibility Score: inf
ROOT
ATOM      1  C   UNL A   1      33.831  28.839  27.213  1.00  0.00     0.042 C 
ENDROOT
BRANCH   1   2
ATOM      2  C   UNL A   1      33.773  27.696  26.187  1.00  0.00     0.118 C 
BRANCH   2   3
ATOM      3  N   UNL A   1      32.777  26.687  26.515  1.00  0.00    -0.352 N 
ATOM      4  C   UNL A   1      32.630  25.355  26.201  1.00  0.00     0.251 C 
ATOM      5  O   UNL A   1      31.699  24.762  26.749  1.00  0.00    -0.269 OA
ATOM      6  H   UNL A   1      32.052  27.031  27.085  1.00  0.00     0.163 HD
BRANCH   4   7
ATOM      7  C   UNL A   1      33.510  24.594  25.259  1.00  0.00     0.041 A 
ATOM      8  C   UNL A   1      35.423  23.186  24.708  1.00  0.00     0.066 A 
ATOM      9  C   UNL A   1      35.145  23.265  23.349  1.00  0.00     0.028 A 
ATOM     10  C   UNL A   1      34.644  23.886  25.639  1.00  0.00     0.042 A 
ATOM     11  C   UNL A   1      34.006  23.963  22.944  1.00  0.00     0.003 A 
ATOM     12  C   UNL A   1      33.190  24.607  23.890  1.00  0.00     0.014 A 
BRANCH   8  13
ATOM     13  N   UNL A   1      36.486  22.396  25.202  1.00  0.00    -0.236 N 
ATOM     14  C   UNL A   1      38.199  19.295  25.041  1.00  0.00     0.070 C 
ATOM     15  C   UNL A   1      37.751  20.690  25.268  1.00  0.00     0.079 A 
ATOM     16  N   UNL A   1      36.475  21.051  25.059  1.00  0.00    -0.171 NA
ATOM     17  C   UNL A   1      38.534  21.779  25.707  1.00  0.00     0.085 A 
ATOM     18  C   UNL A   1      37.685  22.860  25.718  1.00  0.00     0.060 A 
ATOM     19  Cl  UNL A   1      40.172  21.739  26.143  1.00  0.00    -0.080 Cl
ATOM     20  C   UNL A   1      37.897  24.249  26.203  1.00  0.00     0.068 C 
ENDBRANCH   8  13
ENDBRANCH   4   7
ENDBRANCH   2   3
ENDBRANCH   1   2
BRANCH   1  21
ATOM     21  C   UNL A   1      35.254  29.276  27.510  1.00  0.00     0.118 C 
BRANCH  21  22
ATOM     22  N   UNL A   1      35.400  29.771  28.883  1.00  0.00    -0.352 N 
ATOM     23  C   UNL A   1      36.415  29.533  29.793  1.00  0.00     0.251 C 
ATOM     24  H   UNL A   1      34.673  30.355  29.202  1.00  0.00     0.163 HD
ATOM     25  O   UNL A   1      36.259  29.738  30.981  1.00  0.00    -0.269 OA
BRANCH  23  26
ATOM     26  C   UNL A   1      37.691  29.005  29.281  1.00  0.00     0.039 A 
ATOM     27  C   UNL A   1      38.324  29.591  28.185  1.00  0.00     0.014 A 
ATOM     28  C   UNL A   1      38.287  27.969  29.989  1.00  0.00     0.014 A 
ATOM     29  C   UNL A   1      39.620  29.191  27.877  1.00  0.00     0.010 A 
ATOM     30  C   UNL A   1      39.621  27.718  29.805  1.00  0.00     0.010 A 
ATOM     31  C   UNL A   1      40.280  28.277  28.718  1.00  0.00    -0.014 A 
BRANCH  31  32
ATOM     32  C   UNL A   1      41.685  27.955  28.508  1.00  0.00     0.031 A 
ATOM     33  C   UNL A   1      41.945  26.712  27.736  1.00  0.00     0.074 A 
ATOM     34  C   UNL A   1      42.699  28.787  28.827  1.00  0.00     0.049 A 
ATOM     35  N   UNL A   1      42.370  25.580  28.189  1.00  0.00    -0.248 NA
ATOM     36  C   UNL A   1      41.570  26.680  26.314  1.00  0.00     0.031 C 
ATOM     37  C   UNL A   1      42.646  30.182  29.284  1.00  0.00     0.029 A 
ATOM     38  N   UNL A   1      44.036  28.558  28.728  1.00  0.00    -0.354 N 
ATOM     39  C   UNL A   1      42.522  24.751  27.082  1.00  0.00     0.074 A 
ATOM     40  C   UNL A   1      41.853  25.414  25.993  1.00  0.00     0.031 C 
ATOM     41  C   UNL A   1      43.875  30.735  29.206  1.00  0.00     0.029 A 
ATOM     42  C   UNL A   1      44.825  29.686  28.897  1.00  0.00     0.049 A 
ATOM     43  H   UNL A   1      44.412  27.665  28.550  1.00  0.00     0.167 HD
ATOM     44  C   UNL A   1      43.393  23.704  27.103  1.00  0.00     0.037 A 
ATOM     45  C   UNL A   1      46.172  29.752  28.799  1.00  0.00     0.037 A 
ATOM     46  C   UNL A   1      43.806  23.402  28.452  1.00  0.00     0.049 A 
ATOM     47  C   UNL A   1      46.693  28.379  28.988  1.00  0.00     0.074 A 
ATOM     48  C   UNL A   1      43.167  23.007  29.611  1.00  0.00     0.029 A 
ATOM     49  N   UNL A   1      45.037  23.865  28.846  1.00  0.00    -0.354 N 
ATOM     50  N   UNL A   1      46.619  27.719  30.109  1.00  0.00    -0.248 NA
ATOM     51  C   UNL A   1      46.923  27.568  27.803  1.00  0.00     0.031 C 
ATOM     52  C   UNL A   1      43.849  23.696  30.661  1.00  0.00     0.029 A 
ATOM     53  C   UNL A   1      44.898  24.419  30.092  1.00  0.00     0.049 A 
ATOM     54  H   UNL A   1      45.871  23.809  28.327  1.00  0.00     0.167 HD
ATOM     55  C   UNL A   1      46.354  26.411  29.733  1.00  0.00     0.074 A 
ATOM     56  C   UNL A   1      46.671  26.359  28.308  1.00  0.00     0.031 C 
ATOM     57  C   UNL A   1      45.643  25.573  30.547  1.00  0.00     0.037 A 
BRANCH  44  58
ATOM     58  C   UNL A   1      44.183  23.214  25.911  1.00  0.00     0.057 A 
ATOM     59  C   UNL A   1      44.217  21.833  25.632  1.00  0.00     0.134 A 
ATOM     60  C   UNL A   1      45.143  23.981  25.221  1.00  0.00     0.134 A 
ATOM     61  F   UNL A   1      43.361  20.989  26.229  1.00  0.00    -0.206 F 
ATOM     62  C   UNL A   1      45.186  21.255  24.803  1.00  0.00     0.040 A 
ATOM     63  C   UNL A   1      46.082  23.420  24.351  1.00  0.00     0.040 A 
ATOM     64  F   UNL A   1      45.296  25.294  25.427  1.00  0.00    -0.206 F 
ATOM     65  C   UNL A   1      46.131  22.049  24.166  1.00  0.00     0.006 A 
ENDBRANCH  44  58
BRANCH  45  66
ATOM     66  C   UNL A   1      46.990  30.850  28.245  1.00  0.00     0.057 A 
ATOM     67  C   UNL A   1      46.710  31.392  26.985  1.00  0.00     0.134 A 
ATOM     68  C   UNL A   1      47.871  31.584  29.059  1.00  0.00     0.134 A 
ATOM     69  F   UNL A   1      45.855  30.778  26.155  1.00  0.00    -0.206 F 
ATOM     70  C   UNL A   1      47.245  32.618  26.570  1.00  0.00     0.040 A 
ATOM     71  C   UNL A   1      48.415  32.807  28.655  1.00  0.00     0.040 A 
ATOM     72  F   UNL A   1      48.156  31.185  30.307  1.00  0.00    -0.206 F 
ATOM     73  C   UNL A   1      48.088  33.337  27.413  1.00  0.00     0.006 A 
ENDBRANCH  45  66
BRANCH  57  74
ATOM     74  C   UNL A   1      45.425  26.001  31.975  1.00  0.00     0.057 A 
ATOM     75  C   UNL A   1      44.273  26.652  32.444  1.00  0.00     0.134 A 
ATOM     76  C   UNL A   1      46.365  25.616  32.937  1.00  0.00     0.134 A 
ATOM     77  F   UNL A   1      43.274  26.978  31.617  1.00  0.00    -0.206 F 
ATOM     78  C   UNL A   1      44.089  26.943  33.800  1.00  0.00     0.040 A 
ATOM     79  C   UNL A   1      46.178  25.869  34.298  1.00  0.00     0.040 A 
ATOM     80  F   UNL A   1      47.467  24.941  32.572  1.00  0.00    -0.206 F 
ATOM     81  C   UNL A   1      45.042  26.546  34.733  1.00  0.00     0.006 A 
ENDBRANCH  57  74
ENDBRANCH  31  32
ENDBRANCH  23  26
ENDBRANCH  21  22
ENDBRANCH   1  21
TORSDOF 11
ENDMDL
MODEL 2
REMARK VINA RESULT:     -11.8      1.802      2.225
REMARK SMILES Cc1nn(-c2cccc(C(=O)NCCCNC(=O)c3ccc(-c4c5nc(c(-c6c(F)cccc6F)c6ccc([nH]6)c(-c6c(F)cccc6F)c6nc(c(-c7c(F)cccc7F)c7ccc4[nH]7)C=C6)C=C5)cc3)c2)c(C)c1Cl
REMARK SMILES IDX 14 1 13 2 12 3 10 4 11 5 9 7 5 8 6 9 73 10 7 11 8 12 4 13
REMARK SMILES IDX 1 14 2 15 3 16 76 17 74 18 77 19 75 20 15 21 16 22 17 23
REMARK SMILES IDX 18 25 19 26 20 27 72 28 21 29 71 30 22 31 23 32 24 33 65 34
REMARK SMILES IDX 25 35 70 36 64 37 66 38 26 39 69 40 63 41 62 42 27 44 53 45
REMARK SMILES IDX 36 46 52 47 37 48 40 49 51 50 67 51 38 52 39 53 50 55 68 56
REMARK SMILES IDX 41 57 28 58 29 59 34 60 30 61 31 62 33 63 35 64 32 65 54 66
REMARK SMILES IDX 55 67 60 68 56 69 57 70 59 71 61 72 58 73 42 74 43 75 48 76
REMARK SMILES IDX 44 77 45 78 47 79 49 80 46 81
REMARK H PARENT 12 6 16 24 66 43 40 54
REMARK Flexibility Score: inf
ROOT
ATOM      1  C   UNL A   1      33.843  28.878  26.974  1.00  0.00     0.042 C 
ENDROOT
BRANCH   1   2
ATOM      2  C   UNL A   1      33.062  29.886  26.116  1.00  0.00     0.118 C 
BRANCH   2   3
ATOM      3  N   UNL A   1      33.277  29.703  24.688  1.00  0.00    -0.352 N 
ATOM      4  C   UNL A   1      32.912  28.729  23.787  1.00  0.00     0.251 C 
ATOM      5  O   UNL A   1      33.178  28.949  22.603  1.00  0.00    -0.269 OA
ATOM      6  H   UNL A   1      33.794  30.433  24.279  1.00  0.00     0.163 HD
BRANCH   4   7
ATOM      7  C   UNL A   1      32.225  27.446  24.141  1.00  0.00     0.041 A 
ATOM      8  C   UNL A   1      32.178  25.075  24.705  1.00  0.00     0.066 A 
ATOM      9  C   UNL A   1      30.789  25.061  24.717  1.00  0.00     0.028 A 
ATOM     10  C   UNL A   1      32.878  26.241  24.370  1.00  0.00     0.042 A 
ATOM     11  C   UNL A   1      30.111  26.262  24.499  1.00  0.00     0.003 A 
ATOM     12  C   UNL A   1      30.823  27.443  24.229  1.00  0.00     0.014 A 
BRANCH   8  13
ATOM     13  N   UNL A   1      32.933  23.927  25.038  1.00  0.00    -0.236 N 
ATOM     14  C   UNL A   1      34.025  21.738  27.606  1.00  0.00     0.070 C 
ATOM     15  C   UNL A   1      33.669  22.413  26.334  1.00  0.00     0.079 A 
ATOM     16  N   UNL A   1      33.354  23.717  26.307  1.00  0.00    -0.171 NA
ATOM     17  C   UNL A   1      33.608  21.835  25.048  1.00  0.00     0.085 A 
ATOM     18  C   UNL A   1      33.191  22.844  24.213  1.00  0.00     0.060 A 
ATOM     19  Cl  UNL A   1      33.993  20.237  24.636  1.00  0.00    -0.080 Cl
ATOM     20  C   UNL A   1      33.061  22.880  22.733  1.00  0.00     0.068 C 
ENDBRANCH   8  13
ENDBRANCH   4   7
ENDBRANCH   2   3
ENDBRANCH   1   2
BRANCH   1  21
ATOM     21  C   UNL A   1      35.264  29.338  27.254  1.00  0.00     0.118 C 
BRANCH  21  22
ATOM     22  N   UNL A   1      35.403  29.891  28.605  1.00  0.00    -0.352 N 
ATOM     23  C   UNL A   1      36.411  29.688  29.532  1.00  0.00     0.251 C 
ATOM     24  H   UNL A   1      34.678  30.492  28.894  1.00  0.00     0.163 HD
ATOM     25  O   UNL A   1      36.249  29.945  30.709  1.00  0.00    -0.269 OA
BRANCH  23  26
ATOM     26  C   UNL A   1      37.687  29.132  29.051  1.00  0.00     0.039 A 
ATOM     27  C   UNL A   1      38.349  29.689  27.957  1.00  0.00     0.014 A 
ATOM     28  C   UNL A   1      38.255  28.098  29.786  1.00  0.00     0.014 A 
ATOM     29  C   UNL A   1      39.644  29.263  27.679  1.00  0.00     0.010 A 
ATOM     30  C   UNL A   1      39.587  27.824  29.630  1.00  0.00     0.010 A 
ATOM     31  C   UNL A   1      40.274  28.354  28.546  1.00  0.00    -0.014 A 
BRANCH  31  32
ATOM     32  C   UNL A   1      41.677  28.006  28.366  1.00  0.00     0.031 A 
ATOM     33  C   UNL A   1      41.931  26.757  27.602  1.00  0.00     0.074 A 
ATOM     34  C   UNL A   1      42.699  28.821  28.705  1.00  0.00     0.049 A 
ATOM     35  N   UNL A   1      42.326  25.619  28.067  1.00  0.00    -0.248 NA
ATOM     36  C   UNL A   1      41.586  26.728  26.173  1.00  0.00     0.031 C 
ATOM     37  C   UNL A   1      42.661  30.218  29.159  1.00  0.00     0.029 A 
ATOM     38  N   UNL A   1      44.033  28.568  28.635  1.00  0.00    -0.354 N 
ATOM     39  C   UNL A   1      42.486  24.784  26.964  1.00  0.00     0.074 A 
ATOM     40  C   UNL A   1      41.852  25.457  25.860  1.00  0.00     0.031 C 
ATOM     41  C   UNL A   1      43.902  30.748  29.105  1.00  0.00     0.029 A 
ATOM     42  C   UNL A   1      44.839  29.682  28.818  1.00  0.00     0.049 A 
ATOM     43  H   UNL A   1      44.397  27.668  28.467  1.00  0.00     0.167 HD
ATOM     44  C   UNL A   1      43.338  23.722  27.006  1.00  0.00     0.037 A 
ATOM     45  C   UNL A   1      46.188  29.724  28.748  1.00  0.00     0.037 A 
ATOM     46  C   UNL A   1      43.718  23.416  28.364  1.00  0.00     0.049 A 
ATOM     47  C   UNL A   1      46.681  28.342  28.951  1.00  0.00     0.074 A 
ATOM     48  C   UNL A   1      43.047  23.035  29.510  1.00  0.00     0.029 A 
ATOM     49  N   UNL A   1      44.948  23.858  28.783  1.00  0.00    -0.354 N 
ATOM     50  N   UNL A   1      46.571  27.685  30.072  1.00  0.00    -0.248 NA
ATOM     51  C   UNL A   1      46.921  27.525  27.773  1.00  0.00     0.031 C 
ATOM     52  C   UNL A   1      43.718  23.714  30.573  1.00  0.00     0.029 A 
ATOM     53  C   UNL A   1      44.792  24.417  30.024  1.00  0.00     0.049 A 
ATOM     54  H   UNL A   1      45.791  23.786  28.281  1.00  0.00     0.167 HD
ATOM     55  C   UNL A   1      46.291  26.382  29.693  1.00  0.00     0.074 A 
ATOM     56  C   UNL A   1      46.637  26.321  28.275  1.00  0.00     0.031 C 
ATOM     57  C   UNL A   1      45.548  25.559  30.493  1.00  0.00     0.037 A 
BRANCH  44  58
ATOM     58  C   UNL A   1      44.145  23.215  25.832  1.00  0.00     0.057 A 
ATOM     59  C   UNL A   1      44.138  21.837  25.540  1.00  0.00     0.134 A 
ATOM     60  C   UNL A   1      45.149  23.955  25.176  1.00  0.00     0.134 A 
ATOM     61  F   UNL A   1      43.237  21.018  26.105  1.00  0.00    -0.206 F 
ATOM     62  C   UNL A   1      45.111  21.232  24.733  1.00  0.00     0.040 A 
ATOM     63  C   UNL A   1      46.093  23.369  24.328  1.00  0.00     0.040 A 
ATOM     64  F   UNL A   1      45.341  25.260  25.399  1.00  0.00    -0.206 F 
ATOM     65  C   UNL A   1      46.099  21.999  24.131  1.00  0.00     0.006 A 
ENDBRANCH  44  58
BRANCH  45  66
ATOM     66  C   UNL A   1      47.038  30.805  28.210  1.00  0.00     0.057 A 
ATOM     67  C   UNL A   1      46.827  31.314  26.922  1.00  0.00     0.134 A 
ATOM     68  C   UNL A   1      47.875  31.561  29.050  1.00  0.00     0.134 A 
ATOM     69  F   UNL A   1      46.016  30.677  26.065  1.00  0.00    -0.206 F 
ATOM     70  C   UNL A   1      47.386  32.528  26.504  1.00  0.00     0.040 A 
ATOM     71  C   UNL A   1      48.442  32.771  28.643  1.00  0.00     0.040 A 
ATOM     72  F   UNL A   1      48.091  31.195  30.322  1.00  0.00    -0.206 F 
ATOM     73  C   UNL A   1      48.184  33.269  27.371  1.00  0.00     0.006 A 
ENDBRANCH  45  66
BRANCH  57  74
ATOM     74  C   UNL A   1      45.308  25.994  31.915  1.00  0.00     0.057 A 
ATOM     75  C   UNL A   1      44.178  26.703  32.351  1.00  0.00     0.134 A 
ATOM     76  C   UNL A   1      46.195  25.557  32.904  1.00  0.00     0.134 A 
ATOM     77  F   UNL A   1      43.223  27.083  31.494  1.00  0.00    -0.206 F 
ATOM     78  C   UNL A   1      43.966  27.000  33.701  1.00  0.00     0.040 A 
ATOM     79  C   UNL A   1      45.979  25.817  34.260  1.00  0.00     0.040 A 
ATOM     80  F   UNL A   1      47.271  24.827  32.572  1.00  0.00    -0.206 F 
ATOM     81  C   UNL A   1      44.866  26.550  34.662  1.00  0.00     0.006 A 
ENDBRANCH  57  74
ENDBRANCH  31  32
ENDBRANCH  23  26
ENDBRANCH  21  22
ENDBRANCH   1  21
TORSDOF 11
ENDMDL
MODEL 3
REMARK VINA RESULT:     -11.7      3.566      7.943
REMARK SMILES Cc1nn(-c2cccc(C(=O)NCCCNC(=O)c3ccc(-c4c5nc(c(-c6c(F)cccc6F)c6ccc([nH]6)c(-c6c(F)cccc6F)c6nc(c(-c7c(F)cccc7F)c7ccc4[nH]7)C=C6)C=C5)cc3)c2)c(C)c1Cl
REMARK SMILES IDX 14 1 13 2 12 3 10 4 11 5 9 7 5 8 6 9 73 10 7 11 8 12 4 13
REMARK SMILES IDX 1 14 2 15 3 16 76 17 74 18 77 19 75 20 15 21 16 22 17 23
REMARK SMILES IDX 18 25 19 26 20 27 72 28 21 29 71 30 22 31 23 32 24 33 65 34
REMARK SMILES IDX 25 35 70 36 64 37 66 38 26 39 69 40 63 41 62 42 27 44 53 45
REMARK SMILES IDX 36 46 52 47 37 48 40 49 51 50 67 51 38 52 39 53 50 55 68 56
REMARK SMILES IDX 41 57 28 58 29 59 34 60 30 61 31 62 33 63 35 64 32 65 54 66
REMARK SMILES IDX 55 67 60 68 56 69 57 70 59 71 61 72 58 73 42 74 43 75 48 76
REMARK SMILES IDX 44 77 45 78 47 79 49 80 46 81
REMARK H PARENT 12 6 16 24 66 43 40 54
REMARK Flexibility Score: inf
ROOT
ATOM      1  C   UNL A   1      39.188  21.249  25.921  1.00  0.00     0.042 C 
ENDROOT
BRANCH   1   2
ATOM      2  C   UNL A   1      38.155  22.378  25.776  1.00  0.00     0.118 C 
BRANCH   2   3
ATOM      3  N   UNL A   1      37.739  22.593  24.398  1.00  0.00    -0.352 N 
ATOM      4  C   UNL A   1      36.515  22.700  23.778  1.00  0.00     0.251 C 
ATOM      5  O   UNL A   1      36.531  22.995  22.580  1.00  0.00    -0.269 OA
ATOM      6  H   UNL A   1      38.496  22.683  23.776  1.00  0.00     0.163 HD
BRANCH   4   7
ATOM      7  C   UNL A   1      35.193  22.487  24.447  1.00  0.00     0.041 A 
ATOM      8  C   UNL A   1      33.043  23.230  25.325  1.00  0.00     0.066 A 
ATOM      9  C   UNL A   1      32.753  21.960  25.809  1.00  0.00     0.028 A 
ATOM     10  C   UNL A   1      34.269  23.494  24.701  1.00  0.00     0.042 A 
ATOM     11  C   UNL A   1      33.663  20.931  25.558  1.00  0.00     0.003 A 
ATOM     12  C   UNL A   1      34.861  21.189  24.871  1.00  0.00     0.014 A 
BRANCH   8  13
ATOM     13  N   UNL A   1      32.117  24.292  25.433  1.00  0.00    -0.236 N 
ATOM     14  C   UNL A   1      31.409  27.481  26.814  1.00  0.00     0.070 C 
ATOM     15  C   UNL A   1      31.453  26.217  26.040  1.00  0.00     0.079 A 
ATOM     16  N   UNL A   1      32.189  25.175  26.456  1.00  0.00    -0.171 NA
ATOM     17  C   UNL A   1      30.779  25.930  24.833  1.00  0.00     0.085 A 
ATOM     18  C   UNL A   1      31.171  24.658  24.489  1.00  0.00     0.060 A 
ATOM     19  Cl  UNL A   1      29.701  26.944  24.008  1.00  0.00    -0.080 Cl
ATOM     20  C   UNL A   1      30.706  23.768  23.393  1.00  0.00     0.068 C 
ENDBRANCH   8  13
ENDBRANCH   4   7
ENDBRANCH   2   3
ENDBRANCH   1   2
BRANCH   1  21
ATOM     21  C   UNL A   1      40.326  21.626  26.854  1.00  0.00     0.118 C 
BRANCH  21  22
ATOM     22  N   UNL A   1      41.565  21.903  26.121  1.00  0.00    -0.352 N 
ATOM     23  C   UNL A   1      42.198  23.115  25.903  1.00  0.00     0.251 C 
ATOM     24  H   UNL A   1      42.011  21.117  25.729  1.00  0.00     0.163 HD
ATOM     25  O   UNL A   1      43.029  23.245  25.026  1.00  0.00    -0.269 OA
BRANCH  23  26
ATOM     26  C   UNL A   1      41.820  24.254  26.757  1.00  0.00     0.039 A 
ATOM     27  C   UNL A   1      42.406  24.440  28.010  1.00  0.00     0.014 A 
ATOM     28  C   UNL A   1      40.936  25.187  26.230  1.00  0.00     0.014 A 
ATOM     29  C   UNL A   1      42.171  25.637  28.679  1.00  0.00     0.010 A 
ATOM     30  C   UNL A   1      40.864  26.431  26.796  1.00  0.00     0.010 A 
ATOM     31  C   UNL A   1      41.427  26.648  28.047  1.00  0.00    -0.014 A 
BRANCH  31  32
ATOM     32  C   UNL A   1      41.294  27.964  28.658  1.00  0.00     0.031 A 
ATOM     33  C   UNL A   1      42.367  28.935  28.317  1.00  0.00     0.074 A 
ATOM     34  C   UNL A   1      40.204  28.362  29.347  1.00  0.00     0.049 A 
ATOM     35  N   UNL A   1      43.330  29.339  29.076  1.00  0.00    -0.248 NA
ATOM     36  C   UNL A   1      42.457  29.421  26.932  1.00  0.00     0.031 C 
ATOM     37  C   UNL A   1      38.911  27.684  29.513  1.00  0.00     0.029 A 
ATOM     38  N   UNL A   1      40.009  29.538  30.002  1.00  0.00    -0.354 N 
ATOM     39  C   UNL A   1      44.030  30.292  28.341  1.00  0.00     0.074 A 
ATOM     40  C   UNL A   1      43.562  30.171  26.985  1.00  0.00     0.031 C 
ATOM     41  C   UNL A   1      38.006  28.547  30.022  1.00  0.00     0.029 A 
ATOM     42  C   UNL A   1      38.700  29.758  30.407  1.00  0.00     0.049 A 
ATOM     43  H   UNL A   1      40.735  30.180  30.174  1.00  0.00     0.167 HD
ATOM     44  C   UNL A   1      44.759  31.261  28.962  1.00  0.00     0.037 A 
ATOM     45  C   UNL A   1      38.221  30.859  31.028  1.00  0.00     0.037 A 
ATOM     46  C   UNL A   1      44.972  30.937  30.352  1.00  0.00     0.049 A 
ATOM     47  C   UNL A   1      39.374  31.550  31.649  1.00  0.00     0.074 A 
ATOM     48  C   UNL A   1      45.588  29.909  31.039  1.00  0.00     0.029 A 
ATOM     49  N   UNL A   1      44.169  31.568  31.270  1.00  0.00    -0.354 N 
ATOM     50  N   UNL A   1      40.069  31.064  32.639  1.00  0.00    -0.248 NA
ATOM     51  C   UNL A   1      40.028  32.601  30.888  1.00  0.00     0.031 C 
ATOM     52  C   UNL A   1      44.765  29.687  32.185  1.00  0.00     0.029 A 
ATOM     53  C   UNL A   1      43.733  30.627  32.164  1.00  0.00     0.049 A 
ATOM     54  H   UNL A   1      43.946  32.527  31.282  1.00  0.00     0.167 HD
ATOM     55  C   UNL A   1      41.379  31.422  32.362  1.00  0.00     0.074 A 
ATOM     56  C   UNL A   1      41.275  32.463  31.342  1.00  0.00     0.031 C 
ATOM     57  C   UNL A   1      42.425  30.648  32.782  1.00  0.00     0.037 A 
BRANCH  44  58
ATOM     58  C   UNL A   1      44.936  32.671  28.447  1.00  0.00     0.057 A 
ATOM     59  C   UNL A   1      43.805  33.503  28.325  1.00  0.00     0.134 A 
ATOM     60  C   UNL A   1      46.091  33.140  27.789  1.00  0.00     0.134 A 
ATOM     61  F   UNL A   1      42.639  33.168  28.898  1.00  0.00    -0.206 F 
ATOM     62  C   UNL A   1      43.803  34.660  27.536  1.00  0.00     0.040 A 
ATOM     63  C   UNL A   1      46.113  34.321  27.042  1.00  0.00     0.040 A 
ATOM     64  F   UNL A   1      47.227  32.436  27.744  1.00  0.00    -0.206 F 
ATOM     65  C   UNL A   1      44.958  35.068  26.882  1.00  0.00     0.006 A 
ENDBRANCH  44  58
BRANCH  45  66
ATOM     66  C   UNL A   1      36.904  31.504  30.847  1.00  0.00     0.057 A 
ATOM     67  C   UNL A   1      36.051  31.718  31.936  1.00  0.00     0.134 A 
ATOM     68  C   UNL A   1      36.585  32.188  29.660  1.00  0.00     0.134 A 
ATOM     69  F   UNL A   1      36.297  31.133  33.117  1.00  0.00    -0.206 F 
ATOM     70  C   UNL A   1      34.960  32.594  31.863  1.00  0.00     0.040 A 
ATOM     71  C   UNL A   1      35.498  33.062  29.573  1.00  0.00     0.040 A 
ATOM     72  F   UNL A   1      37.373  32.103  28.578  1.00  0.00    -0.206 F 
ATOM     73  C   UNL A   1      34.691  33.281  30.683  1.00  0.00     0.006 A 
ENDBRANCH  45  66
BRANCH  57  74
ATOM     74  C   UNL A   1      42.141  29.580  33.805  1.00  0.00     0.057 A 
ATOM     75  C   UNL A   1      41.795  28.255  33.498  1.00  0.00     0.134 A 
ATOM     76  C   UNL A   1      42.358  29.875  35.155  1.00  0.00     0.134 A 
ATOM     77  F   UNL A   1      41.656  27.849  32.230  1.00  0.00    -0.206 F 
ATOM     78  C   UNL A   1      41.632  27.283  34.491  1.00  0.00     0.040 A 
ATOM     79  C   UNL A   1      42.232  28.907  36.155  1.00  0.00     0.040 A 
ATOM     80  F   UNL A   1      42.744  31.107  35.523  1.00  0.00    -0.206 F 
ATOM     81  C   UNL A   1      41.856  27.608  35.825  1.00  0.00     0.006 A 
ENDBRANCH  57  74
ENDBRANCH  31  32
ENDBRANCH  23  26
ENDBRANCH  21  22
ENDBRANCH   1  21
TORSDOF 11
ENDMDL
