MODEL 1
REMARK VINA RESULT:     -12.5      0.000      0.000
REMARK SMILES O=C(NCCCNC(=O)c1ccc(-c2c3nc(c(-c4c(F)cccc4F)c4ccc([nH]4)c(-c4c(F)cccc4F)c4nc(c(-c5c(F)cccc5F)c5ccc2[nH]5)C=C4)C=C3)cc1)C1=Cc2cc(Cl)ccc2O[C@@H]1C(F)(F)F
REMARK SMILES IDX 5 1 4 2 3 3 1 4 2 5 64 7 65 8 74 9 66 10 73 11 67 12 72 13
REMARK SMILES IDX 68 14 71 15 69 16 70 17 75 18 76 19 77 20 78 21 6 22 7 23
REMARK SMILES IDX 8 24 9 26 10 27 11 28 63 29 12 30 62 31 13 32 14 33 15 34
REMARK SMILES IDX 56 35 16 36 61 37 55 38 57 39 17 40 60 41 54 42 53 43 18 45
REMARK SMILES IDX 44 46 27 47 43 48 28 49 31 50 42 51 58 52 29 53 30 54 41 56
REMARK SMILES IDX 59 57 32 58 19 59 20 60 25 61 21 62 22 63 24 64 26 65 23 66
REMARK SMILES IDX 45 67 46 68 51 69 47 70 48 71 50 72 52 73 49 74 33 75 34 76
REMARK SMILES IDX 39 77 35 78 36 79 38 80 40 81 37 82
REMARK H PARENT 3 6 7 25 57 44 31 55
REMARK Flexibility Score: inf
ROOT
ATOM      1  C   UNL A   1      36.930  23.443  25.170  1.00  0.00     0.042 C 
ENDROOT
BRANCH   1   2
ATOM      2  C   UNL A   1      35.479  23.873  25.352  1.00  0.00     0.118 C 
BRANCH   2   3
ATOM      3  N   UNL A   1      34.837  23.251  26.512  1.00  0.00    -0.352 N 
ATOM      4  O   UNL A   1      33.860  21.595  27.713  1.00  0.00    -0.270 OA
ATOM      5  C   UNL A   1      34.165  22.059  26.624  1.00  0.00     0.251 C 
ATOM      6  H   UNL A   1      34.896  23.772  27.346  1.00  0.00     0.163 HD
BRANCH   5   7
ATOM      7  C   UNL A   1      33.881  21.334  25.373  1.00  0.00     0.067 C 
ATOM      8  C   UNL A   1      34.805  20.456  24.964  1.00  0.00     0.025 C 
ATOM      9  C   UNL A   1      32.463  21.318  24.896  1.00  0.00     0.314 C 
ATOM     10  C   UNL A   1      34.235  19.150  24.617  1.00  0.00     0.019 A 
ATOM     11  O   UNL A   1      31.930  19.975  24.786  1.00  0.00    -0.475 OA
ATOM     12  C   UNL A   1      35.093  18.045  24.661  1.00  0.00     0.032 A 
ATOM     13  C   UNL A   1      32.842  18.954  24.679  1.00  0.00     0.128 A 
ATOM     14  C   UNL A   1      34.563  16.774  24.878  1.00  0.00     0.041 A 
ATOM     15  C   UNL A   1      32.321  17.673  24.852  1.00  0.00     0.048 A 
ATOM     16  Cl  UNL A   1      35.631  15.452  25.146  1.00  0.00    -0.084 Cl
ATOM     17  C   UNL A   1      33.186  16.587  24.990  1.00  0.00     0.024 A 
BRANCH   9  18
ATOM     18  C   UNL A   1      32.313  22.074  23.567  1.00  0.00     0.429 C 
ATOM     19  F   UNL A   1      33.502  22.584  23.161  1.00  0.00    -0.167 F 
ATOM     20  F   UNL A   1      31.875  21.267  22.573  1.00  0.00    -0.167 F 
ATOM     21  F   UNL A   1      31.444  23.108  23.659  1.00  0.00    -0.167 F 
ENDBRANCH   9  18
ENDBRANCH   5   7
ENDBRANCH   2   3
ENDBRANCH   1   2
BRANCH   1  22
ATOM     22  C   UNL A   1      37.863  24.100  26.180  1.00  0.00     0.118 C 
BRANCH  22  23
ATOM     23  N   UNL A   1      39.280  23.857  25.941  1.00  0.00    -0.352 N 
ATOM     24  C   UNL A   1      40.385  24.484  26.476  1.00  0.00     0.251 C 
ATOM     25  H   UNL A   1      39.478  23.135  25.302  1.00  0.00     0.163 HD
ATOM     26  O   UNL A   1      41.507  24.160  26.093  1.00  0.00    -0.269 OA
BRANCH  24  27
ATOM     27  C   UNL A   1      40.231  25.573  27.470  1.00  0.00     0.039 A 
ATOM     28  C   UNL A   1      39.407  25.371  28.582  1.00  0.00     0.014 A 
ATOM     29  C   UNL A   1      40.906  26.785  27.328  1.00  0.00     0.014 A 
ATOM     30  C   UNL A   1      39.325  26.351  29.576  1.00  0.00     0.010 A 
ATOM     31  C   UNL A   1      40.932  27.694  28.377  1.00  0.00     0.010 A 
ATOM     32  C   UNL A   1      40.120  27.505  29.502  1.00  0.00    -0.014 A 
BRANCH  32  33
ATOM     33  C   UNL A   1      40.086  28.553  30.556  1.00  0.00     0.031 A 
ATOM     34  C   UNL A   1      39.070  29.664  30.474  1.00  0.00     0.074 A 
ATOM     35  C   UNL A   1      41.012  28.555  31.536  1.00  0.00     0.049 A 
ATOM     36  N   UNL A   1      38.928  30.717  31.239  1.00  0.00    -0.248 NA
ATOM     37  C   UNL A   1      38.120  29.616  29.349  1.00  0.00     0.031 C 
ATOM     38  C   UNL A   1      42.102  27.587  31.679  1.00  0.00     0.029 A 
ATOM     39  N   UNL A   1      41.184  29.404  32.599  1.00  0.00    -0.354 N 
ATOM     40  C   UNL A   1      37.908  31.466  30.664  1.00  0.00     0.074 A 
ATOM     41  C   UNL A   1      37.521  30.791  29.448  1.00  0.00     0.031 C 
ATOM     42  C   UNL A   1      42.802  27.872  32.789  1.00  0.00     0.029 A 
ATOM     43  C   UNL A   1      42.231  29.058  33.418  1.00  0.00     0.049 A 
ATOM     44  H   UNL A   1      40.611  30.189  32.759  1.00  0.00     0.167 HD
ATOM     45  C   UNL A   1      37.315  32.592  31.126  1.00  0.00     0.037 A 
ATOM     46  C   UNL A   1      42.671  29.627  34.555  1.00  0.00     0.037 A 
ATOM     47  C   UNL A   1      37.657  33.220  32.373  1.00  0.00     0.049 A 
ATOM     48  C   UNL A   1      41.948  30.832  35.093  1.00  0.00     0.074 A 
ATOM     49  C   UNL A   1      37.065  34.313  32.982  1.00  0.00     0.029 A 
ATOM     50  N   UNL A   1      38.678  32.797  33.210  1.00  0.00    -0.354 N 
ATOM     51  N   UNL A   1      40.933  31.483  34.580  1.00  0.00    -0.248 NA
ATOM     52  C   UNL A   1      42.420  31.366  36.377  1.00  0.00     0.031 C 
ATOM     53  C   UNL A   1      37.752  34.570  34.174  1.00  0.00     0.029 A 
ATOM     54  C   UNL A   1      38.741  33.610  34.329  1.00  0.00     0.049 A 
ATOM     55  H   UNL A   1      39.273  32.032  33.035  1.00  0.00     0.167 HD
ATOM     56  C   UNL A   1      40.626  32.488  35.490  1.00  0.00     0.074 A 
ATOM     57  C   UNL A   1      41.553  32.345  36.594  1.00  0.00     0.031 C 
ATOM     58  C   UNL A   1      39.667  33.443  35.419  1.00  0.00     0.037 A 
BRANCH  45  59
ATOM     59  C   UNL A   1      36.225  33.195  30.284  1.00  0.00     0.057 A 
ATOM     60  C   UNL A   1      36.505  33.956  29.141  1.00  0.00     0.134 A 
ATOM     61  C   UNL A   1      34.878  33.013  30.622  1.00  0.00     0.134 A 
ATOM     62  F   UNL A   1      37.774  34.184  28.769  1.00  0.00    -0.206 F 
ATOM     63  C   UNL A   1      35.489  34.547  28.388  1.00  0.00     0.040 A 
ATOM     64  C   UNL A   1      33.852  33.572  29.858  1.00  0.00     0.040 A 
ATOM     65  F   UNL A   1      34.537  32.292  31.700  1.00  0.00    -0.206 F 
ATOM     66  C   UNL A   1      34.156  34.351  28.743  1.00  0.00     0.006 A 
ENDBRANCH  45  59
BRANCH  46  67
ATOM     67  C   UNL A   1      43.813  29.030  35.293  1.00  0.00     0.057 A 
ATOM     68  C   UNL A   1      45.128  29.432  35.032  1.00  0.00     0.134 A 
ATOM     69  C   UNL A   1      43.621  28.055  36.279  1.00  0.00     0.134 A 
ATOM     70  F   UNL A   1      45.378  30.353  34.089  1.00  0.00    -0.206 F 
ATOM     71  C   UNL A   1      46.214  28.871  35.707  1.00  0.00     0.040 A 
ATOM     72  C   UNL A   1      44.696  27.503  36.978  1.00  0.00     0.040 A 
ATOM     73  F   UNL A   1      42.385  27.636  36.585  1.00  0.00    -0.206 F 
ATOM     74  C   UNL A   1      45.998  27.907  36.687  1.00  0.00     0.006 A 
ENDBRANCH  46  67
BRANCH  58  75
ATOM     75  C   UNL A   1      39.552  34.379  36.585  1.00  0.00     0.057 A 
ATOM     76  C   UNL A   1      38.849  34.033  37.745  1.00  0.00     0.134 A 
ATOM     77  C   UNL A   1      40.175  35.632  36.553  1.00  0.00     0.134 A 
ATOM     78  F   UNL A   1      38.221  32.850  37.833  1.00  0.00    -0.206 F 
ATOM     79  C   UNL A   1      38.742  34.915  38.821  1.00  0.00     0.040 A 
ATOM     80  C   UNL A   1      40.099  36.512  37.633  1.00  0.00     0.040 A 
ATOM     81  F   UNL A   1      40.874  36.019  35.475  1.00  0.00    -0.206 F 
ATOM     82  C   UNL A   1      39.373  36.157  38.768  1.00  0.00     0.006 A 
ENDBRANCH  58  75
ENDBRANCH  32  33
ENDBRANCH  24  27
ENDBRANCH  22  23
ENDBRANCH   1  22
TORSDOF 11
ENDMDL
MODEL 2
REMARK VINA RESULT:     -12.5      4.546      8.678
REMARK SMILES O=C(NCCCNC(=O)c1ccc(-c2c3nc(c(-c4c(F)cccc4F)c4ccc([nH]4)c(-c4c(F)cccc4F)c4nc(c(-c5c(F)cccc5F)c5ccc2[nH]5)C=C4)C=C3)cc1)C1=Cc2cc(Cl)ccc2O[C@@H]1C(F)(F)F
REMARK SMILES IDX 5 1 4 2 3 3 1 4 2 5 64 7 65 8 74 9 66 10 73 11 67 12 72 13
REMARK SMILES IDX 68 14 71 15 69 16 70 17 75 18 76 19 77 20 78 21 6 22 7 23
REMARK SMILES IDX 8 24 9 26 10 27 11 28 63 29 12 30 62 31 13 32 14 33 15 34
REMARK SMILES IDX 56 35 16 36 61 37 55 38 57 39 17 40 60 41 54 42 53 43 18 45
REMARK SMILES IDX 44 46 27 47 43 48 28 49 31 50 42 51 58 52 29 53 30 54 41 56
REMARK SMILES IDX 59 57 32 58 19 59 20 60 25 61 21 62 22 63 24 64 26 65 23 66
REMARK SMILES IDX 45 67 46 68 51 69 47 70 48 71 50 72 52 73 49 74 33 75 34 76
REMARK SMILES IDX 39 77 35 78 36 79 38 80 40 81 37 82
REMARK H PARENT 3 6 7 25 57 44 31 55
REMARK Flexibility Score: inf
ROOT
ATOM      1  C   UNL A   1      32.321  27.814  27.633  1.00  0.00     0.042 C 
ENDROOT
BRANCH   1   2
ATOM      2  C   UNL A   1      31.540  27.284  26.435  1.00  0.00     0.118 C 
BRANCH   2   3
ATOM      3  N   UNL A   1      31.330  25.836  26.482  1.00  0.00    -0.352 N 
ATOM      4  O   UNL A   1      31.881  23.644  26.304  1.00  0.00    -0.270 OA
ATOM      5  C   UNL A   1      32.107  24.809  26.007  1.00  0.00     0.251 C 
ATOM      6  H   UNL A   1      30.497  25.553  26.925  1.00  0.00     0.163 HD
BRANCH   5   7
ATOM      7  C   UNL A   1      33.262  25.178  25.171  1.00  0.00     0.067 C 
ATOM      8  C   UNL A   1      34.462  25.164  25.764  1.00  0.00     0.025 C 
ATOM      9  C   UNL A   1      33.077  25.135  23.687  1.00  0.00     0.314 C 
ATOM     10  C   UNL A   1      35.471  24.433  24.990  1.00  0.00     0.019 A 
ATOM     11  O   UNL A   1      33.995  24.219  23.040  1.00  0.00    -0.475 OA
ATOM     12  C   UNL A   1      36.573  23.929  25.689  1.00  0.00     0.032 A 
ATOM     13  C   UNL A   1      35.134  23.892  23.734  1.00  0.00     0.128 A 
ATOM     14  C   UNL A   1      37.256  22.823  25.186  1.00  0.00     0.041 A 
ATOM     15  C   UNL A   1      35.852  22.813  23.221  1.00  0.00     0.048 A 
ATOM     16  Cl  UNL A   1      38.470  22.074  26.149  1.00  0.00    -0.084 Cl
ATOM     17  C   UNL A   1      36.891  22.255  23.966  1.00  0.00     0.024 A 
BRANCH   9  18
ATOM     18  C   UNL A   1      33.183  26.539  23.071  1.00  0.00     0.429 C 
ATOM     19  F   UNL A   1      33.727  26.485  21.830  1.00  0.00    -0.167 F 
ATOM     20  F   UNL A   1      31.971  27.126  22.940  1.00  0.00    -0.167 F 
ATOM     21  F   UNL A   1      33.955  27.368  23.812  1.00  0.00    -0.167 F 
ENDBRANCH   9  18
ENDBRANCH   5   7
ENDBRANCH   2   3
ENDBRANCH   1   2
BRANCH   1  22
ATOM     22  C   UNL A   1      33.540  28.628  27.219  1.00  0.00     0.118 C 
BRANCH  22  23
ATOM     23  N   UNL A   1      33.532  30.009  27.685  1.00  0.00    -0.352 N 
ATOM     24  C   UNL A   1      34.547  30.760  28.237  1.00  0.00     0.251 C 
ATOM     25  H   UNL A   1      32.670  30.476  27.591  1.00  0.00     0.163 HD
ATOM     26  O   UNL A   1      34.312  31.905  28.620  1.00  0.00    -0.269 OA
BRANCH  24  27
ATOM     27  C   UNL A   1      35.903  30.188  28.414  1.00  0.00     0.039 A 
ATOM     28  C   UNL A   1      36.798  30.207  27.338  1.00  0.00     0.014 A 
ATOM     29  C   UNL A   1      36.310  29.650  29.634  1.00  0.00     0.014 A 
ATOM     30  C   UNL A   1      38.110  29.758  27.515  1.00  0.00     0.010 A 
ATOM     31  C   UNL A   1      37.646  29.336  29.845  1.00  0.00     0.010 A 
ATOM     32  C   UNL A   1      38.557  29.357  28.782  1.00  0.00    -0.014 A 
BRANCH  32  33
ATOM     33  C   UNL A   1      39.954  28.905  29.017  1.00  0.00     0.031 A 
ATOM     34  C   UNL A   1      40.940  29.833  29.682  1.00  0.00     0.074 A 
ATOM     35  C   UNL A   1      40.359  27.701  28.566  1.00  0.00     0.049 A 
ATOM     36  N   UNL A   1      42.220  29.665  29.901  1.00  0.00    -0.248 NA
ATOM     37  C   UNL A   1      40.432  31.148  30.108  1.00  0.00     0.031 C 
ATOM     38  C   UNL A   1      39.528  26.744  27.831  1.00  0.00     0.029 A 
ATOM     39  N   UNL A   1      41.576  27.076  28.659  1.00  0.00    -0.354 N 
ATOM     40  C   UNL A   1      42.668  30.862  30.448  1.00  0.00     0.074 A 
ATOM     41  C   UNL A   1      41.546  31.772  30.455  1.00  0.00     0.031 C 
ATOM     42  C   UNL A   1      40.247  25.639  27.578  1.00  0.00     0.029 A 
ATOM     43  C   UNL A   1      41.595  25.820  28.104  1.00  0.00     0.049 A 
ATOM     44  H   UNL A   1      42.363  27.490  29.083  1.00  0.00     0.167 HD
ATOM     45  C   UNL A   1      43.892  31.167  30.939  1.00  0.00     0.037 A 
ATOM     46  C   UNL A   1      42.587  24.913  28.039  1.00  0.00     0.037 A 
ATOM     47  C   UNL A   1      44.985  30.235  30.995  1.00  0.00     0.049 A 
ATOM     48  C   UNL A   1      43.916  25.241  28.663  1.00  0.00     0.074 A 
ATOM     49  C   UNL A   1      46.241  30.406  31.549  1.00  0.00     0.029 A 
ATOM     50  N   UNL A   1      44.943  28.946  30.485  1.00  0.00    -0.354 N 
ATOM     51  N   UNL A   1      44.303  26.348  29.249  1.00  0.00    -0.248 NA
ATOM     52  C   UNL A   1      44.938  24.187  28.634  1.00  0.00     0.031 C 
ATOM     53  C   UNL A   1      46.970  29.229  31.346  1.00  0.00     0.029 A 
ATOM     54  C   UNL A   1      46.153  28.310  30.705  1.00  0.00     0.049 A 
ATOM     55  H   UNL A   1      44.167  28.542  30.032  1.00  0.00     0.167 HD
ATOM     56  C   UNL A   1      45.603  26.116  29.681  1.00  0.00     0.074 A 
ATOM     57  C   UNL A   1      45.928  24.756  29.306  1.00  0.00     0.031 C 
ATOM     58  C   UNL A   1      46.450  26.952  30.329  1.00  0.00     0.037 A 
BRANCH  45  59
ATOM     59  C   UNL A   1      44.096  32.557  31.474  1.00  0.00     0.057 A 
ATOM     60  C   UNL A   1      44.468  33.625  30.645  1.00  0.00     0.134 A 
ATOM     61  C   UNL A   1      43.920  32.833  32.836  1.00  0.00     0.134 A 
ATOM     62  F   UNL A   1      44.669  33.428  29.332  1.00  0.00    -0.206 F 
ATOM     63  C   UNL A   1      44.696  34.904  31.155  1.00  0.00     0.040 A 
ATOM     64  C   UNL A   1      44.113  34.115  33.353  1.00  0.00     0.040 A 
ATOM     65  F   UNL A   1      43.560  31.860  33.687  1.00  0.00    -0.206 F 
ATOM     66  C   UNL A   1      44.513  35.153  32.513  1.00  0.00     0.006 A 
ENDBRANCH  45  59
BRANCH  46  67
ATOM     67  C   UNL A   1      42.344  23.586  27.417  1.00  0.00     0.057 A 
ATOM     68  C   UNL A   1      41.981  22.481  28.195  1.00  0.00     0.134 A 
ATOM     69  C   UNL A   1      42.459  23.391  26.035  1.00  0.00     0.134 A 
ATOM     70  F   UNL A   1      41.869  22.601  29.527  1.00  0.00    -0.206 F 
ATOM     71  C   UNL A   1      41.762  21.224  27.628  1.00  0.00     0.040 A 
ATOM     72  C   UNL A   1      42.220  22.146  25.451  1.00  0.00     0.040 A 
ATOM     73  F   UNL A   1      42.791  24.412  25.232  1.00  0.00    -0.206 F 
ATOM     74  C   UNL A   1      41.876  21.056  26.251  1.00  0.00     0.006 A 
ENDBRANCH  46  67
BRANCH  58  75
ATOM     75  C   UNL A   1      47.794  26.401  30.703  1.00  0.00     0.057 A 
ATOM     76  C   UNL A   1      48.882  26.441  29.823  1.00  0.00     0.134 A 
ATOM     77  C   UNL A   1      48.006  25.847  31.972  1.00  0.00     0.134 A 
ATOM     78  F   UNL A   1      48.741  26.950  28.589  1.00  0.00    -0.206 F 
ATOM     79  C   UNL A   1      50.126  25.919  30.179  1.00  0.00     0.040 A 
ATOM     80  C   UNL A   1      49.252  25.348  32.350  1.00  0.00     0.040 A 
ATOM     81  F   UNL A   1      47.008  25.790  32.867  1.00  0.00    -0.206 F 
ATOM     82  C   UNL A   1      50.314  25.375  31.448  1.00  0.00     0.006 A 
ENDBRANCH  58  75
ENDBRANCH  32  33
ENDBRANCH  24  27
ENDBRANCH  22  23
ENDBRANCH   1  22
TORSDOF 11
ENDMDL
MODEL 3
REMARK VINA RESULT:     -12.5      6.638     10.994
REMARK SMILES O=C(NCCCNC(=O)c1ccc(-c2c3nc(c(-c4c(F)cccc4F)c4ccc([nH]4)c(-c4c(F)cccc4F)c4nc(c(-c5c(F)cccc5F)c5ccc2[nH]5)C=C4)C=C3)cc1)C1=Cc2cc(Cl)ccc2O[C@@H]1C(F)(F)F
REMARK SMILES IDX 5 1 4 2 3 3 1 4 2 5 64 7 65 8 74 9 66 10 73 11 67 12 72 13
REMARK SMILES IDX 68 14 71 15 69 16 70 17 75 18 76 19 77 20 78 21 6 22 7 23
REMARK SMILES IDX 8 24 9 26 10 27 11 28 63 29 12 30 62 31 13 32 14 33 15 34
REMARK SMILES IDX 56 35 16 36 61 37 55 38 57 39 17 40 60 41 54 42 53 43 18 45
REMARK SMILES IDX 44 46 27 47 43 48 28 49 31 50 42 51 58 52 29 53 30 54 41 56
REMARK SMILES IDX 59 57 32 58 19 59 20 60 25 61 21 62 22 63 24 64 26 65 23 66
REMARK SMILES IDX 45 67 46 68 51 69 47 70 48 71 50 72 52 73 49 74 33 75 34 76
REMARK SMILES IDX 39 77 35 78 36 79 38 80 40 81 37 82
REMARK H PARENT 3 6 7 25 57 44 31 55
REMARK Flexibility Score: inf
ROOT
ATOM      1  C   UNL A   1      33.334  28.397  27.138  1.00  0.00     0.042 C 
ENDROOT
BRANCH   1   2
ATOM      2  C   UNL A   1      33.367  27.325  26.054  1.00  0.00     0.118 C 
BRANCH   2   3
ATOM      3  N   UNL A   1      33.776  27.842  24.747  1.00  0.00    -0.352 N 
ATOM      4  O   UNL A   1      33.567  28.983  22.799  1.00  0.00    -0.270 OA
ATOM      5  C   UNL A   1      33.036  28.427  23.750  1.00  0.00     0.251 C 
ATOM      6  H   UNL A   1      34.738  27.755  24.551  1.00  0.00     0.163 HD
BRANCH   5   7
ATOM      7  C   UNL A   1      31.572  28.407  23.909  1.00  0.00     0.067 C 
ATOM      8  C   UNL A   1      31.016  29.479  24.489  1.00  0.00     0.025 C 
ATOM      9  C   UNL A   1      30.803  27.433  23.073  1.00  0.00     0.314 C 
ATOM     10  C   UNL A   1      29.874  30.005  23.734  1.00  0.00     0.019 A 
ATOM     11  O   UNL A   1      29.839  28.084  22.208  1.00  0.00    -0.475 OA
ATOM     12  C   UNL A   1      29.535  31.347  23.940  1.00  0.00     0.032 A 
ATOM     13  C   UNL A   1      29.441  29.348  22.567  1.00  0.00     0.128 A 
ATOM     14  C   UNL A   1      28.870  32.048  22.935  1.00  0.00     0.041 A 
ATOM     15  C   UNL A   1      28.739  30.049  21.588  1.00  0.00     0.048 A 
ATOM     16  Cl  UNL A   1      28.647  33.746  23.101  1.00  0.00    -0.084 Cl
ATOM     17  C   UNL A   1      28.486  31.410  21.757  1.00  0.00     0.024 A 
BRANCH   9  18
ATOM     18  C   UNL A   1      30.122  26.367  23.944  1.00  0.00     0.429 C 
ATOM     19  F   UNL A   1      28.791  26.312  23.693  1.00  0.00    -0.167 F 
ATOM     20  F   UNL A   1      30.615  25.129  23.705  1.00  0.00    -0.167 F 
ATOM     21  F   UNL A   1      30.272  26.612  25.267  1.00  0.00    -0.167 F 
ENDBRANCH   9  18
ENDBRANCH   5   7
ENDBRANCH   2   3
ENDBRANCH   1   2
BRANCH   1  22
ATOM     22  C   UNL A   1      34.682  29.084  27.317  1.00  0.00     0.118 C 
BRANCH  22  23
ATOM     23  N   UNL A   1      34.738  30.026  28.428  1.00  0.00    -0.352 N 
ATOM     24  C   UNL A   1      35.808  30.411  29.206  1.00  0.00     0.251 C 
ATOM     25  H   UNL A   1      33.881  30.452  28.658  1.00  0.00     0.163 HD
ATOM     26  O   UNL A   1      35.627  31.187  30.142  1.00  0.00    -0.269 OA
BRANCH  24  27
ATOM     27  C   UNL A   1      37.164  29.864  28.954  1.00  0.00     0.039 A 
ATOM     28  C   UNL A   1      37.706  29.950  27.668  1.00  0.00     0.014 A 
ATOM     29  C   UNL A   1      37.913  29.285  29.977  1.00  0.00     0.014 A 
ATOM     30  C   UNL A   1      39.018  29.525  27.434  1.00  0.00     0.010 A 
ATOM     31  C   UNL A   1      39.256  28.994  29.777  1.00  0.00     0.010 A 
ATOM     32  C   UNL A   1      39.819  29.081  28.497  1.00  0.00    -0.014 A 
BRANCH  32  33
ATOM     33  C   UNL A   1      41.228  28.653  28.295  1.00  0.00     0.031 A 
ATOM     34  C   UNL A   1      41.533  27.217  27.950  1.00  0.00     0.074 A 
ATOM     35  C   UNL A   1      42.234  29.526  28.499  1.00  0.00     0.049 A 
ATOM     36  N   UNL A   1      42.692  26.624  27.816  1.00  0.00    -0.248 NA
ATOM     37  C   UNL A   1      40.381  26.314  27.785  1.00  0.00     0.031 C 
ATOM     38  C   UNL A   1      42.079  30.921  28.922  1.00  0.00     0.029 A 
ATOM     39  N   UNL A   1      43.592  29.368  28.380  1.00  0.00    -0.354 N 
ATOM     40  C   UNL A   1      42.404  25.282  27.595  1.00  0.00     0.074 A 
ATOM     41  C   UNL A   1      40.971  25.134  27.691  1.00  0.00     0.031 C 
ATOM     42  C   UNL A   1      43.289  31.500  28.985  1.00  0.00     0.029 A 
ATOM     43  C   UNL A   1      44.305  30.513  28.638  1.00  0.00     0.049 A 
ATOM     44  H   UNL A   1      44.014  28.513  28.134  1.00  0.00     0.167 HD
ATOM     45  C   UNL A   1      43.251  24.267  27.299  1.00  0.00     0.037 A 
ATOM     46  C   UNL A   1      45.631  30.741  28.588  1.00  0.00     0.037 A 
ATOM     47  C   UNL A   1      44.670  24.434  27.136  1.00  0.00     0.049 A 
ATOM     48  C   UNL A   1      46.548  29.621  28.178  1.00  0.00     0.074 A 
ATOM     49  C   UNL A   1      45.612  23.497  26.751  1.00  0.00     0.029 A 
ATOM     50  N   UNL A   1      45.348  25.627  27.337  1.00  0.00    -0.354 N 
ATOM     51  N   UNL A   1      46.254  28.376  27.894  1.00  0.00    -0.248 NA
ATOM     52  C   UNL A   1      47.976  29.945  28.063  1.00  0.00     0.031 C 
ATOM     53  C   UNL A   1      46.866  24.118  26.750  1.00  0.00     0.029 A 
ATOM     54  C   UNL A   1      46.698  25.452  27.091  1.00  0.00     0.049 A 
ATOM     55  H   UNL A   1      44.930  26.475  27.615  1.00  0.00     0.167 HD
ATOM     56  C   UNL A   1      47.455  27.773  27.541  1.00  0.00     0.074 A 
ATOM     57  C   UNL A   1      48.475  28.797  27.629  1.00  0.00     0.031 C 
ATOM     58  C   UNL A   1      47.694  26.489  27.177  1.00  0.00     0.037 A 
BRANCH  45  59
ATOM     59  C   UNL A   1      42.654  22.901  27.111  1.00  0.00     0.057 A 
ATOM     60  C   UNL A   1      42.270  22.103  28.198  1.00  0.00     0.134 A 
ATOM     61  C   UNL A   1      42.463  22.374  25.828  1.00  0.00     0.134 A 
ATOM     62  F   UNL A   1      42.441  22.538  29.456  1.00  0.00    -0.206 F 
ATOM     63  C   UNL A   1      41.755  20.817  28.017  1.00  0.00     0.040 A 
ATOM     64  C   UNL A   1      41.918  21.104  25.633  1.00  0.00     0.040 A 
ATOM     65  F   UNL A   1      42.803  23.085  24.741  1.00  0.00    -0.206 F 
ATOM     66  C   UNL A   1      41.573  20.317  26.730  1.00  0.00     0.006 A 
ENDBRANCH  45  59
BRANCH  46  67
ATOM     67  C   UNL A   1      46.164  32.098  28.871  1.00  0.00     0.057 A 
ATOM     68  C   UNL A   1      46.287  33.051  27.853  1.00  0.00     0.134 A 
ATOM     69  C   UNL A   1      46.553  32.480  30.160  1.00  0.00     0.134 A 
ATOM     70  F   UNL A   1      45.944  32.740  26.594  1.00  0.00    -0.206 F 
ATOM     71  C   UNL A   1      46.799  34.326  28.100  1.00  0.00     0.040 A 
ATOM     72  C   UNL A   1      47.045  33.759  30.426  1.00  0.00     0.040 A 
ATOM     73  F   UNL A   1      46.449  31.618  31.182  1.00  0.00    -0.206 F 
ATOM     74  C   UNL A   1      47.175  34.685  29.391  1.00  0.00     0.006 A 
ENDBRANCH  46  67
BRANCH  58  75
ATOM     75  C   UNL A   1      49.105  26.136  26.813  1.00  0.00     0.057 A 
ATOM     76  C   UNL A   1      49.619  26.366  25.531  1.00  0.00     0.134 A 
ATOM     77  C   UNL A   1      49.967  25.582  27.768  1.00  0.00     0.134 A 
ATOM     78  F   UNL A   1      48.840  26.885  24.569  1.00  0.00    -0.206 F 
ATOM     79  C   UNL A   1      50.931  26.027  25.202  1.00  0.00     0.040 A 
ATOM     80  C   UNL A   1      51.289  25.265  27.459  1.00  0.00     0.040 A 
ATOM     81  F   UNL A   1      49.540  25.348  29.018  1.00  0.00    -0.206 F 
ATOM     82  C   UNL A   1      51.772  25.479  26.169  1.00  0.00     0.006 A 
ENDBRANCH  58  75
ENDBRANCH  32  33
ENDBRANCH  24  27
ENDBRANCH  22  23
ENDBRANCH   1  22
TORSDOF 11
ENDMDL
