MODEL 1
REMARK VINA RESULT:     -12.0      0.000      0.000
REMARK SMILES O=C(NCCCNC(=O)c1ccc(CNC(=O)c2cccnc2)o1)c1ccc(-c2c3nc(c(-c4c(F)cccc4F)c4ccc([nH]4)c(-c4c(F)cccc4F)c4nc(c(-c5c(F)cccc5F)c5ccc2[nH]5)C=C4)C=C3)cc1
REMARK SMILES IDX 5 1 4 2 3 3 1 4 2 5 25 7 26 8 78 9 27 10 77 11 28 12 29 13
REMARK SMILES IDX 30 14 71 15 31 16 76 17 70 18 72 19 32 20 75 21 69 22 68 23
REMARK SMILES IDX 33 25 59 26 42 27 58 28 43 29 46 30 57 31 73 32 44 33 45 34
REMARK SMILES IDX 56 36 74 37 47 38 34 39 35 40 40 41 36 42 37 43 39 44 41 45
REMARK SMILES IDX 38 46 60 47 61 48 66 49 62 50 63 51 65 52 67 53 64 54 48 55
REMARK SMILES IDX 49 56 54 57 50 58 51 59 53 60 55 61 52 62 6 63 7 64 8 65
REMARK SMILES IDX 9 67 10 68 11 69 24 70 12 71 13 72 14 73 15 74 16 75 17 77
REMARK SMILES IDX 18 78 19 79 23 80 20 81 22 82 21 83
REMARK H PARENT 3 6 72 24 46 35 7 66 15 76
REMARK Flexibility Score: inf
ROOT
ATOM      1  C   UNL A   1      31.468  32.378  26.575  1.00  0.00     0.042 C 
ENDROOT
BRANCH   1   2
ATOM      2  C   UNL A   1      32.707  33.005  27.202  1.00  0.00     0.118 C 
BRANCH   2   3
ATOM      3  N   UNL A   1      32.464  34.343  27.723  1.00  0.00    -0.352 N 
ATOM      4  O   UNL A   1      32.550  36.081  29.146  1.00  0.00    -0.269 OA
ATOM      5  C   UNL A   1      33.038  35.017  28.773  1.00  0.00     0.251 C 
ATOM      6  H   UNL A   1      31.771  34.851  27.240  1.00  0.00     0.163 HD
BRANCH   5   7
ATOM      7  C   UNL A   1      34.218  34.467  29.477  1.00  0.00     0.039 A 
ATOM      8  C   UNL A   1      35.510  34.644  28.980  1.00  0.00     0.014 A 
ATOM      9  C   UNL A   1      34.028  33.787  30.687  1.00  0.00     0.014 A 
ATOM     10  C   UNL A   1      36.583  34.002  29.592  1.00  0.00     0.010 A 
ATOM     11  C   UNL A   1      35.121  33.222  31.351  1.00  0.00     0.010 A 
ATOM     12  C   UNL A   1      36.403  33.285  30.786  1.00  0.00    -0.014 A 
BRANCH  12  13
ATOM     13  C   UNL A   1      37.572  32.631  31.427  1.00  0.00     0.031 A 
ATOM     14  C   UNL A   1      38.062  33.074  32.778  1.00  0.00     0.074 A 
ATOM     15  C   UNL A   1      38.173  31.601  30.800  1.00  0.00     0.049 A 
ATOM     16  N   UNL A   1      39.035  32.582  33.505  1.00  0.00    -0.248 NA
ATOM     17  C   UNL A   1      37.380  34.223  33.393  1.00  0.00     0.031 C 
ATOM     18  C   UNL A   1      37.800  31.085  29.481  1.00  0.00     0.029 A 
ATOM     19  N   UNL A   1      39.201  30.786  31.198  1.00  0.00    -0.354 N 
ATOM     20  C   UNL A   1      39.100  33.374  34.645  1.00  0.00     0.074 A 
ATOM     21  C   UNL A   1      38.082  34.393  34.505  1.00  0.00     0.031 C 
ATOM     22  C   UNL A   1      38.548  30.007  29.205  1.00  0.00     0.029 A 
ATOM     23  C   UNL A   1      39.485  29.787  30.300  1.00  0.00     0.049 A 
ATOM     24  H   UNL A   1      39.689  30.906  32.044  1.00  0.00     0.167 HD
ATOM     25  C   UNL A   1      39.925  33.256  35.714  1.00  0.00     0.037 A 
ATOM     26  C   UNL A   1      40.398  28.799  30.352  1.00  0.00     0.037 A 
ATOM     27  C   UNL A   1      40.916  32.224  35.867  1.00  0.00     0.049 A 
ATOM     28  C   UNL A   1      41.297  28.691  31.547  1.00  0.00     0.074 A 
ATOM     29  C   UNL A   1      41.767  31.995  36.936  1.00  0.00     0.029 A 
ATOM     30  N   UNL A   1      41.192  31.246  34.923  1.00  0.00    -0.354 N 
ATOM     31  N   UNL A   1      41.321  29.426  32.632  1.00  0.00    -0.248 NA
ATOM     32  C   UNL A   1      42.300  27.617  31.523  1.00  0.00     0.031 C 
ATOM     33  C   UNL A   1      42.581  30.901  36.623  1.00  0.00     0.029 A 
ATOM     34  C   UNL A   1      42.211  30.424  35.376  1.00  0.00     0.049 A 
ATOM     35  H   UNL A   1      40.731  31.149  34.058  1.00  0.00     0.167 HD
ATOM     36  C   UNL A   1      42.324  28.893  33.429  1.00  0.00     0.074 A 
ATOM     37  C   UNL A   1      42.876  27.764  32.708  1.00  0.00     0.031 C 
ATOM     38  C   UNL A   1      42.748  29.301  34.650  1.00  0.00     0.037 A 
BRANCH  25  39
ATOM     39  C   UNL A   1      39.801  34.287  36.797  1.00  0.00     0.057 A 
ATOM     40  C   UNL A   1      39.005  34.081  37.932  1.00  0.00     0.134 A 
ATOM     41  C   UNL A   1      40.514  35.491  36.718  1.00  0.00     0.134 A 
ATOM     42  F   UNL A   1      38.287  32.955  38.062  1.00  0.00    -0.206 F 
ATOM     43  C   UNL A   1      38.903  35.046  38.936  1.00  0.00     0.040 A 
ATOM     44  C   UNL A   1      40.437  36.453  37.726  1.00  0.00     0.040 A 
ATOM     45  F   UNL A   1      41.299  35.749  35.662  1.00  0.00    -0.206 F 
ATOM     46  C   UNL A   1      39.625  36.233  38.837  1.00  0.00     0.006 A 
ENDBRANCH  25  39
BRANCH  26  47
ATOM     47  C   UNL A   1      40.485  27.822  29.240  1.00  0.00     0.057 A 
ATOM     48  C   UNL A   1      39.662  26.691  29.211  1.00  0.00     0.134 A 
ATOM     49  C   UNL A   1      41.374  28.005  28.174  1.00  0.00     0.134 A 
ATOM     50  F   UNL A   1      38.804  26.456  30.214  1.00  0.00    -0.206 F 
ATOM     51  C   UNL A   1      39.723  25.771  28.164  1.00  0.00     0.040 A 
ATOM     52  C   UNL A   1      41.429  27.105  27.109  1.00  0.00     0.040 A 
ATOM     53  F   UNL A   1      42.182  29.074  28.142  1.00  0.00    -0.206 F 
ATOM     54  C   UNL A   1      40.605  25.981  27.105  1.00  0.00     0.006 A 
ENDBRANCH  26  47
BRANCH  38  55
ATOM     55  C   UNL A   1      43.840  28.502  35.292  1.00  0.00     0.057 A 
ATOM     56  C   UNL A   1      45.192  28.808  35.097  1.00  0.00     0.134 A 
ATOM     57  C   UNL A   1      43.533  27.423  36.131  1.00  0.00     0.134 A 
ATOM     58  F   UNL A   1      45.551  29.820  34.293  1.00  0.00    -0.206 F 
ATOM     59  C   UNL A   1      46.203  28.055  35.696  1.00  0.00     0.040 A 
ATOM     60  C   UNL A   1      44.534  26.676  36.753  1.00  0.00     0.040 A 
ATOM     61  F   UNL A   1      42.257  27.082  36.363  1.00  0.00    -0.206 F 
ATOM     62  C   UNL A   1      45.873  26.988  36.531  1.00  0.00     0.006 A 
ENDBRANCH  38  55
ENDBRANCH  12  13
ENDBRANCH   5   7
ENDBRANCH   2   3
ENDBRANCH   1   2
BRANCH   1  63
ATOM     63  C   UNL A   1      31.399  30.860  26.700  1.00  0.00     0.118 C 
BRANCH  63  64
ATOM     64  N   UNL A   1      32.709  30.243  26.572  1.00  0.00    -0.349 N 
ATOM     65  C   UNL A   1      33.041  28.953  26.231  1.00  0.00     0.286 C 
ATOM     66  H   UNL A   1      33.471  30.837  26.758  1.00  0.00     0.163 HD
ATOM     67  O   UNL A   1      34.199  28.599  26.458  1.00  0.00    -0.266 OA
BRANCH  65  68
ATOM     68  C   UNL A   1      32.045  28.096  25.632  1.00  0.00     0.191 A 
ATOM     69  C   UNL A   1      31.520  26.867  25.989  1.00  0.00     0.056 A 
ATOM     70  O   UNL A   1      31.422  28.534  24.495  1.00  0.00    -0.454 OA
ATOM     71  C   UNL A   1      30.558  26.526  25.008  1.00  0.00     0.048 A 
ATOM     72  C   UNL A   1      30.533  27.574  24.115  1.00  0.00     0.124 A 
BRANCH  72  73
ATOM     73  C   UNL A   1      29.790  27.831  22.859  1.00  0.00     0.191 C 
BRANCH  73  74
ATOM     74  N   UNL A   1      28.366  27.762  23.116  1.00  0.00    -0.345 N 
ATOM     75  C   UNL A   1      27.449  28.780  23.126  1.00  0.00     0.253 C 
ATOM     76  H   UNL A   1      28.010  26.865  23.309  1.00  0.00     0.164 HD
ATOM     77  O   UNL A   1      26.299  28.578  23.501  1.00  0.00    -0.269 OA
BRANCH  75  78
ATOM     78  C   UNL A   1      27.841  30.135  22.704  1.00  0.00     0.058 A 
ATOM     79  C   UNL A   1      28.064  31.173  23.610  1.00  0.00     0.017 A 
ATOM     80  C   UNL A   1      28.027  30.386  21.353  1.00  0.00     0.124 A 
ATOM     81  C   UNL A   1      28.404  32.434  23.125  1.00  0.00     0.021 A 
ATOM     82  N   UNL A   1      28.359  31.604  20.857  1.00  0.00    -0.264 NA
ATOM     83  C   UNL A   1      28.533  32.600  21.754  1.00  0.00     0.111 A 
ENDBRANCH  75  78
ENDBRANCH  73  74
ENDBRANCH  72  73
ENDBRANCH  65  68
ENDBRANCH  63  64
ENDBRANCH   1  63
TORSDOF 13
ENDMDL
MODEL 2
REMARK VINA RESULT:     -12.0      4.921     10.257
REMARK SMILES O=C(NCCCNC(=O)c1ccc(CNC(=O)c2cccnc2)o1)c1ccc(-c2c3nc(c(-c4c(F)cccc4F)c4ccc([nH]4)c(-c4c(F)cccc4F)c4nc(c(-c5c(F)cccc5F)c5ccc2[nH]5)C=C4)C=C3)cc1
REMARK SMILES IDX 5 1 4 2 3 3 1 4 2 5 25 7 26 8 78 9 27 10 77 11 28 12 29 13
REMARK SMILES IDX 30 14 71 15 31 16 76 17 70 18 72 19 32 20 75 21 69 22 68 23
REMARK SMILES IDX 33 25 59 26 42 27 58 28 43 29 46 30 57 31 73 32 44 33 45 34
REMARK SMILES IDX 56 36 74 37 47 38 34 39 35 40 40 41 36 42 37 43 39 44 41 45
REMARK SMILES IDX 38 46 60 47 61 48 66 49 62 50 63 51 65 52 67 53 64 54 48 55
REMARK SMILES IDX 49 56 54 57 50 58 51 59 53 60 55 61 52 62 6 63 7 64 8 65
REMARK SMILES IDX 9 67 10 68 11 69 24 70 12 71 13 72 14 73 15 74 16 75 17 77
REMARK SMILES IDX 18 78 19 79 23 80 20 81 22 82 21 83
REMARK H PARENT 3 6 72 24 46 35 7 66 15 76
REMARK Flexibility Score: inf
ROOT
ATOM      1  C   UNL A   1      35.199  33.402  28.069  1.00  0.00     0.042 C 
ENDROOT
BRANCH   1   2
ATOM      2  C   UNL A   1      34.935  32.343  29.133  1.00  0.00     0.118 C 
BRANCH   2   3
ATOM      3  N   UNL A   1      34.346  31.127  28.589  1.00  0.00    -0.352 N 
ATOM      4  O   UNL A   1      34.247  29.125  27.572  1.00  0.00    -0.269 OA
ATOM      5  C   UNL A   1      34.928  29.958  28.163  1.00  0.00     0.251 C 
ATOM      6  H   UNL A   1      33.363  31.146  28.514  1.00  0.00     0.163 HD
BRANCH   5   7
ATOM      7  C   UNL A   1      36.369  29.702  28.383  1.00  0.00     0.039 A 
ATOM      8  C   UNL A   1      37.320  30.011  27.410  1.00  0.00     0.014 A 
ATOM      9  C   UNL A   1      36.783  29.173  29.612  1.00  0.00     0.014 A 
ATOM     10  C   UNL A   1      38.648  29.637  27.592  1.00  0.00     0.010 A 
ATOM     11  C   UNL A   1      38.133  28.883  29.830  1.00  0.00     0.010 A 
ATOM     12  C   UNL A   1      39.072  29.070  28.805  1.00  0.00    -0.014 A 
BRANCH  12  13
ATOM     13  C   UNL A   1      40.501  28.703  28.978  1.00  0.00     0.031 A 
ATOM     14  C   UNL A   1      41.018  27.366  28.522  1.00  0.00     0.074 A 
ATOM     15  C   UNL A   1      41.348  29.602  29.515  1.00  0.00     0.049 A 
ATOM     16  N   UNL A   1      42.243  26.902  28.550  1.00  0.00    -0.248 NA
ATOM     17  C   UNL A   1      40.034  26.421  27.972  1.00  0.00     0.031 C 
ATOM     18  C   UNL A   1      40.967  30.928  30.007  1.00  0.00     0.029 A 
ATOM     19  N   UNL A   1      42.704  29.551  29.710  1.00  0.00    -0.354 N 
ATOM     20  C   UNL A   1      42.174  25.608  28.049  1.00  0.00     0.074 A 
ATOM     21  C   UNL A   1      40.783  25.351  27.745  1.00  0.00     0.031 C 
ATOM     22  C   UNL A   1      42.071  31.585  30.393  1.00  0.00     0.029 A 
ATOM     23  C   UNL A   1      43.227  30.712  30.225  1.00  0.00     0.049 A 
ATOM     24  H   UNL A   1      43.250  28.759  29.503  1.00  0.00     0.167 HD
ATOM     25  C   UNL A   1      43.179  24.720  27.852  1.00  0.00     0.037 A 
ATOM     26  C   UNL A   1      44.496  31.040  30.528  1.00  0.00     0.037 A 
ATOM     27  C   UNL A   1      44.567  24.987  28.125  1.00  0.00     0.049 A 
ATOM     28  C   UNL A   1      45.589  30.039  30.298  1.00  0.00     0.074 A 
ATOM     29  C   UNL A   1      45.662  24.166  27.914  1.00  0.00     0.029 A 
ATOM     30  N   UNL A   1      45.051  26.166  28.672  1.00  0.00    -0.354 N 
ATOM     31  N   UNL A   1      45.511  28.834  29.790  1.00  0.00    -0.248 NA
ATOM     32  C   UNL A   1      46.947  30.444  30.687  1.00  0.00     0.031 C 
ATOM     33  C   UNL A   1      46.806  24.835  28.365  1.00  0.00     0.029 A 
ATOM     34  C   UNL A   1      46.427  26.087  28.821  1.00  0.00     0.049 A 
ATOM     35  H   UNL A   1      44.501  26.944  28.917  1.00  0.00     0.167 HD
ATOM     36  C   UNL A   1      46.809  28.343  29.779  1.00  0.00     0.074 A 
ATOM     37  C   UNL A   1      47.656  29.386  30.319  1.00  0.00     0.031 C 
ATOM     38  C   UNL A   1      47.258  27.135  29.357  1.00  0.00     0.037 A 
BRANCH  25  39
ATOM     39  C   UNL A   1      42.808  23.363  27.329  1.00  0.00     0.057 A 
ATOM     40  C   UNL A   1      42.884  23.045  25.967  1.00  0.00     0.134 A 
ATOM     41  C   UNL A   1      42.397  22.351  28.207  1.00  0.00     0.134 A 
ATOM     42  F   UNL A   1      43.257  23.973  25.072  1.00  0.00    -0.206 F 
ATOM     43  C   UNL A   1      42.541  21.776  25.494  1.00  0.00     0.040 A 
ATOM     44  C   UNL A   1      42.074  21.073  27.749  1.00  0.00     0.040 A 
ATOM     45  F   UNL A   1      42.308  22.587  29.524  1.00  0.00    -0.206 F 
ATOM     46  C   UNL A   1      42.140  20.785  26.387  1.00  0.00     0.006 A 
ENDBRANCH  25  39
BRANCH  26  47
ATOM     47  C   UNL A   1      44.797  32.391  31.059  1.00  0.00     0.057 A 
ATOM     48  C   UNL A   1      45.114  33.448  30.199  1.00  0.00     0.134 A 
ATOM     49  C   UNL A   1      44.756  32.662  32.432  1.00  0.00     0.134 A 
ATOM     50  F   UNL A   1      45.185  33.243  28.876  1.00  0.00    -0.206 F 
ATOM     51  C   UNL A   1      45.386  34.728  30.685  1.00  0.00     0.040 A 
ATOM     52  C   UNL A   1      45.002  33.942  32.930  1.00  0.00     0.040 A 
ATOM     53  F   UNL A   1      44.451  31.691  33.305  1.00  0.00    -0.206 F 
ATOM     54  C   UNL A   1      45.323  34.978  32.055  1.00  0.00     0.006 A 
ENDBRANCH  26  47
BRANCH  38  55
ATOM     55  C   UNL A   1      48.735  26.895  29.435  1.00  0.00     0.057 A 
ATOM     56  C   UNL A   1      49.320  26.238  30.523  1.00  0.00     0.134 A 
ATOM     57  C   UNL A   1      49.580  27.312  28.397  1.00  0.00     0.134 A 
ATOM     58  F   UNL A   1      48.567  25.827  31.555  1.00  0.00    -0.206 F 
ATOM     59  C   UNL A   1      50.698  26.022  30.589  1.00  0.00     0.040 A 
ATOM     60  C   UNL A   1      50.955  27.083  28.442  1.00  0.00     0.040 A 
ATOM     61  F   UNL A   1      49.080  27.943  27.324  1.00  0.00    -0.206 F 
ATOM     62  C   UNL A   1      51.518  26.441  29.543  1.00  0.00     0.006 A 
ENDBRANCH  38  55
ENDBRANCH  12  13
ENDBRANCH   5   7
ENDBRANCH   2   3
ENDBRANCH   1   2
BRANCH   1  63
ATOM     63  C   UNL A   1      35.351  34.818  28.615  1.00  0.00     0.118 C 
BRANCH  63  64
ATOM     64  N   UNL A   1      34.174  35.630  28.359  1.00  0.00    -0.349 N 
ATOM     65  C   UNL A   1      33.176  36.023  29.219  1.00  0.00     0.286 C 
ATOM     66  H   UNL A   1      34.077  35.945  27.432  1.00  0.00     0.163 HD
ATOM     67  O   UNL A   1      32.148  36.473  28.709  1.00  0.00    -0.266 OA
BRANCH  65  68
ATOM     68  C   UNL A   1      33.374  35.899  30.644  1.00  0.00     0.191 A 
ATOM     69  C   UNL A   1      33.460  36.826  31.668  1.00  0.00     0.056 A 
ATOM     70  O   UNL A   1      33.472  34.641  31.172  1.00  0.00    -0.454 OA
ATOM     71  C   UNL A   1      33.651  36.100  32.868  1.00  0.00     0.048 A 
ATOM     72  C   UNL A   1      33.653  34.769  32.516  1.00  0.00     0.124 A 
BRANCH  72  73
ATOM     73  C   UNL A   1      33.844  33.510  33.273  1.00  0.00     0.191 C 
BRANCH  73  74
ATOM     74  N   UNL A   1      34.725  33.750  34.397  1.00  0.00    -0.345 N 
ATOM     75  C   UNL A   1      36.094  33.700  34.435  1.00  0.00     0.253 C 
ATOM     76  H   UNL A   1      34.283  33.979  35.245  1.00  0.00     0.164 HD
ATOM     77  O   UNL A   1      36.691  33.792  35.503  1.00  0.00    -0.269 OA
BRANCH  75  78
ATOM     78  C   UNL A   1      36.864  33.516  33.194  1.00  0.00     0.058 A 
ATOM     79  C   UNL A   1      37.083  32.262  32.620  1.00  0.00     0.017 A 
ATOM     80  C   UNL A   1      37.369  34.635  32.549  1.00  0.00     0.124 A 
ATOM     81  C   UNL A   1      37.849  32.173  31.459  1.00  0.00     0.021 A 
ATOM     82  N   UNL A   1      38.115  34.574  31.417  1.00  0.00    -0.264 NA
ATOM     83  C   UNL A   1      38.342  33.345  30.904  1.00  0.00     0.111 A 
ENDBRANCH  75  78
ENDBRANCH  73  74
ENDBRANCH  72  73
ENDBRANCH  65  68
ENDBRANCH  63  64
ENDBRANCH   1  63
TORSDOF 13
ENDMDL
MODEL 3
REMARK VINA RESULT:     -12.0      0.685      1.497
REMARK SMILES O=C(NCCCNC(=O)c1ccc(CNC(=O)c2cccnc2)o1)c1ccc(-c2c3nc(c(-c4c(F)cccc4F)c4ccc([nH]4)c(-c4c(F)cccc4F)c4nc(c(-c5c(F)cccc5F)c5ccc2[nH]5)C=C4)C=C3)cc1
REMARK SMILES IDX 5 1 4 2 3 3 1 4 2 5 25 7 26 8 78 9 27 10 77 11 28 12 29 13
REMARK SMILES IDX 30 14 71 15 31 16 76 17 70 18 72 19 32 20 75 21 69 22 68 23
REMARK SMILES IDX 33 25 59 26 42 27 58 28 43 29 46 30 57 31 73 32 44 33 45 34
REMARK SMILES IDX 56 36 74 37 47 38 34 39 35 40 40 41 36 42 37 43 39 44 41 45
REMARK SMILES IDX 38 46 60 47 61 48 66 49 62 50 63 51 65 52 67 53 64 54 48 55
REMARK SMILES IDX 49 56 54 57 50 58 51 59 53 60 55 61 52 62 6 63 7 64 8 65
REMARK SMILES IDX 9 67 10 68 11 69 24 70 12 71 13 72 14 73 15 74 16 75 17 77
REMARK SMILES IDX 18 78 19 79 23 80 20 81 22 82 21 83
REMARK H PARENT 3 6 72 24 46 35 7 66 15 76
REMARK Flexibility Score: inf
ROOT
ATOM      1  C   UNL A   1      31.403  32.246  26.600  1.00  0.00     0.042 C 
ENDROOT
BRANCH   1   2
ATOM      2  C   UNL A   1      32.687  32.967  26.995  1.00  0.00     0.118 C 
BRANCH   2   3
ATOM      3  N   UNL A   1      32.442  34.256  27.626  1.00  0.00    -0.352 N 
ATOM      4  O   UNL A   1      32.533  35.870  29.187  1.00  0.00    -0.269 OA
ATOM      5  C   UNL A   1      33.022  34.844  28.723  1.00  0.00     0.251 C 
ATOM      6  H   UNL A   1      31.741  34.797  27.194  1.00  0.00     0.163 HD
BRANCH   5   7
ATOM      7  C   UNL A   1      34.212  34.245  29.368  1.00  0.00     0.039 A 
ATOM      8  C   UNL A   1      35.505  34.578  28.962  1.00  0.00     0.014 A 
ATOM      9  C   UNL A   1      34.028  33.354  30.433  1.00  0.00     0.014 A 
ATOM     10  C   UNL A   1      36.597  33.900  29.495  1.00  0.00     0.010 A 
ATOM     11  C   UNL A   1      35.133  32.742  31.032  1.00  0.00     0.010 A 
ATOM     12  C   UNL A   1      36.426  32.975  30.538  1.00  0.00    -0.014 A 
BRANCH  12  13
ATOM     13  C   UNL A   1      37.614  32.285  31.103  1.00  0.00     0.031 A 
ATOM     14  C   UNL A   1      38.101  32.593  32.492  1.00  0.00     0.074 A 
ATOM     15  C   UNL A   1      38.234  31.340  30.369  1.00  0.00     0.049 A 
ATOM     16  N   UNL A   1      39.089  32.051  33.159  1.00  0.00    -0.248 NA
ATOM     17  C   UNL A   1      37.396  33.655  33.227  1.00  0.00     0.031 C 
ATOM     18  C   UNL A   1      37.865  30.958  29.004  1.00  0.00     0.029 A 
ATOM     19  N   UNL A   1      39.282  30.513  30.675  1.00  0.00    -0.354 N 
ATOM     20  C   UNL A   1      39.142  32.719  34.376  1.00  0.00     0.074 A 
ATOM     21  C   UNL A   1      38.101  33.724  34.348  1.00  0.00     0.031 C 
ATOM     22  C   UNL A   1      38.636  29.933  28.613  1.00  0.00     0.029 A 
ATOM     23  C   UNL A   1      39.585  29.620  29.676  1.00  0.00     0.049 A 
ATOM     24  H   UNL A   1      39.773  30.554  31.528  1.00  0.00     0.167 HD
ATOM     25  C   UNL A   1      39.976  32.509  35.424  1.00  0.00     0.037 A 
ATOM     26  C   UNL A   1      40.520  28.655  29.620  1.00  0.00     0.037 A 
ATOM     27  C   UNL A   1      40.992  31.489  35.464  1.00  0.00     0.049 A 
ATOM     28  C   UNL A   1      41.428  28.442  30.794  1.00  0.00     0.074 A 
ATOM     29  C   UNL A   1      41.854  31.169  36.500  1.00  0.00     0.029 A 
ATOM     30  N   UNL A   1      41.284  30.624  34.421  1.00  0.00    -0.354 N 
ATOM     31  N   UNL A   1      41.441  29.058  31.950  1.00  0.00    -0.248 NA
ATOM     32  C   UNL A   1      42.455  27.400  30.654  1.00  0.00     0.031 C 
ATOM     33  C   UNL A   1      42.691  30.133  36.071  1.00  0.00     0.029 A 
ATOM     34  C   UNL A   1      42.324  29.782  34.782  1.00  0.00     0.049 A 
ATOM     35  H   UNL A   1      40.820  30.608  33.553  1.00  0.00     0.167 HD
ATOM     36  C   UNL A   1      42.461  28.468  32.683  1.00  0.00     0.074 A 
ATOM     37  C   UNL A   1      43.035  27.435  31.845  1.00  0.00     0.031 C 
ATOM     38  C   UNL A   1      42.883  28.755  33.939  1.00  0.00     0.037 A 
BRANCH  25  39
ATOM     39  C   UNL A   1      39.836  33.416  36.611  1.00  0.00     0.057 A 
ATOM     40  C   UNL A   1      38.956  33.132  37.664  1.00  0.00     0.134 A 
ATOM     41  C   UNL A   1      40.614  34.577  36.715  1.00  0.00     0.134 A 
ATOM     42  F   UNL A   1      38.172  32.044  37.619  1.00  0.00    -0.206 F 
ATOM     43  C   UNL A   1      38.838  33.982  38.766  1.00  0.00     0.040 A 
ATOM     44  C   UNL A   1      40.522  35.422  37.822  1.00  0.00     0.040 A 
ATOM     45  F   UNL A   1      41.481  34.904  35.745  1.00  0.00    -0.206 F 
ATOM     46  C   UNL A   1      39.627  35.127  38.849  1.00  0.00     0.006 A 
ENDBRANCH  25  39
BRANCH  26  47
ATOM     47  C   UNL A   1      40.623  27.802  28.411  1.00  0.00     0.057 A 
ATOM     48  C   UNL A   1      41.403  28.195  27.319  1.00  0.00     0.134 A 
ATOM     49  C   UNL A   1      39.962  26.572  28.327  1.00  0.00     0.134 A 
ATOM     50  F   UNL A   1      42.045  29.371  27.336  1.00  0.00    -0.206 F 
ATOM     51  C   UNL A   1      41.520  27.395  26.180  1.00  0.00     0.040 A 
ATOM     52  C   UNL A   1      40.088  25.751  27.205  1.00  0.00     0.040 A 
ATOM     53  F   UNL A   1      39.205  26.138  29.345  1.00  0.00    -0.206 F 
ATOM     54  C   UNL A   1      40.866  26.166  26.125  1.00  0.00     0.006 A 
ENDBRANCH  26  47
BRANCH  38  55
ATOM     55  C   UNL A   1      43.996  27.918  34.490  1.00  0.00     0.057 A 
ATOM     56  C   UNL A   1      43.754  26.702  35.140  1.00  0.00     0.134 A 
ATOM     57  C   UNL A   1      45.329  28.326  34.352  1.00  0.00     0.134 A 
ATOM     58  F   UNL A   1      42.498  26.264  35.317  1.00  0.00    -0.206 F 
ATOM     59  C   UNL A   1      44.798  25.930  35.654  1.00  0.00     0.040 A 
ATOM     60  C   UNL A   1      46.382  27.553  34.842  1.00  0.00     0.040 A 
ATOM     61  F   UNL A   1      45.628  29.479  33.734  1.00  0.00    -0.206 F 
ATOM     62  C   UNL A   1      46.117  26.354  35.500  1.00  0.00     0.006 A 
ENDBRANCH  38  55
ENDBRANCH  12  13
ENDBRANCH   5   7
ENDBRANCH   2   3
ENDBRANCH   1   2
BRANCH   1  63
ATOM     63  C   UNL A   1      31.413  30.746  26.879  1.00  0.00     0.118 C 
BRANCH  63  64
ATOM     64  N   UNL A   1      32.739  30.172  26.725  1.00  0.00    -0.349 N 
ATOM     65  C   UNL A   1      33.106  28.914  26.309  1.00  0.00     0.286 C 
ATOM     66  H   UNL A   1      33.484  30.773  26.952  1.00  0.00     0.163 HD
ATOM     67  O   UNL A   1      34.272  28.576  26.523  1.00  0.00    -0.266 OA
BRANCH  65  68
ATOM     68  C   UNL A   1      32.137  28.070  25.651  1.00  0.00     0.191 A 
ATOM     69  C   UNL A   1      31.650  26.803  25.923  1.00  0.00     0.056 A 
ATOM     70  O   UNL A   1      31.500  28.565  24.546  1.00  0.00    -0.454 OA
ATOM     71  C   UNL A   1      30.699  26.501  24.919  1.00  0.00     0.048 A 
ATOM     72  C   UNL A   1      30.641  27.606  24.099  1.00  0.00     0.124 A 
BRANCH  72  73
ATOM     73  C   UNL A   1      29.890  27.925  22.863  1.00  0.00     0.191 C 
BRANCH  73  74
ATOM     74  N   UNL A   1      28.469  27.818  23.118  1.00  0.00    -0.345 N 
ATOM     75  C   UNL A   1      27.525  28.811  23.126  1.00  0.00     0.253 C 
ATOM     76  H   UNL A   1      28.137  26.912  23.311  1.00  0.00     0.164 HD
ATOM     77  O   UNL A   1      26.379  28.578  23.499  1.00  0.00    -0.269 OA
BRANCH  75  78
ATOM     78  C   UNL A   1      27.880  30.176  22.703  1.00  0.00     0.058 A 
ATOM     79  C   UNL A   1      28.105  31.212  23.611  1.00  0.00     0.017 A 
ATOM     80  C   UNL A   1      28.028  30.438  21.350  1.00  0.00     0.124 A 
ATOM     81  C   UNL A   1      28.408  32.483  23.126  1.00  0.00     0.021 A 
ATOM     82  N   UNL A   1      28.325  31.666  20.853  1.00  0.00    -0.264 NA
ATOM     83  C   UNL A   1      28.501  32.659  21.753  1.00  0.00     0.111 A 
ENDBRANCH  75  78
ENDBRANCH  73  74
ENDBRANCH  72  73
ENDBRANCH  65  68
ENDBRANCH  63  64
ENDBRANCH   1  63
TORSDOF 13
ENDMDL
