MODEL 1
REMARK VINA RESULT:     -11.7      0.000      0.000
REMARK SMILES O=C(CSc1nnc(-c2cccc(C(F)(F)F)c2F)o1)NCCCNC(=O)c1ccc(-c2c3nc(c(-c4c(F)cccc4F)c4ccc([nH]4)c(-c4c(F)cccc4F)c4nc(c(-c5c(F)cccc5F)c5ccc2[nH]5)C=C4)C=C3)cc1
REMARK SMILES IDX 22 1 21 2 1 3 2 4 3 6 4 7 5 8 6 9 20 10 7 11 8 12 9 13 10 14
REMARK SMILES IDX 18 15 11 16 13 17 19 18 12 19 14 20 15 21 16 22 17 23 23 24
REMARK SMILES IDX 24 25 25 26 26 27 27 29 28 30 29 31 81 32 30 33 80 34 31 35
REMARK SMILES IDX 32 36 33 37 74 38 34 39 79 40 73 41 75 42 35 43 78 44 72 45
REMARK SMILES IDX 71 46 36 48 62 49 45 50 61 51 46 52 49 53 60 54 76 55 47 56
REMARK SMILES IDX 48 57 59 59 77 60 50 61 37 62 38 63 43 64 39 65 40 66 42 67
REMARK SMILES IDX 44 68 41 69 63 70 64 71 69 72 65 73 66 74 68 75 70 76 67 77
REMARK SMILES IDX 51 78 52 79 57 80 53 81 54 82 56 83 58 84 55 85
REMARK H PARENT 21 5 25 28 75 47 49 58
REMARK Flexibility Score: inf
ROOT
ATOM      1  C   UNL A   1      36.985  21.567  24.433  1.00  0.00     0.117 C 
ENDROOT
BRANCH   1   2
ATOM      2  N   UNL A   1      36.240  21.951  25.617  1.00  0.00    -0.355 N 
ATOM      3  O   UNL A   1      35.369  23.878  24.732  1.00  0.00    -0.274 OA
ATOM      4  C   UNL A   1      35.423  23.061  25.647  1.00  0.00     0.230 C 
ATOM      5  H   UNL A   1      36.321  21.397  26.428  1.00  0.00     0.163 HD
BRANCH   4   6
ATOM      6  C   UNL A   1      34.674  23.291  26.947  1.00  0.00     0.179 C 
BRANCH   6   7
ATOM      7  S   UNL A   1      33.212  22.244  27.151  1.00  0.00    -0.055 SA
BRANCH   7   8
ATOM      8  C   UNL A   1      31.949  23.360  26.735  1.00  0.00     0.277 A 
ATOM      9  N   UNL A   1      30.737  23.328  27.248  1.00  0.00    -0.101 NA
ATOM     10  O   UNL A   1      32.150  24.452  25.932  1.00  0.00    -0.411 OA
ATOM     11  N   UNL A   1      30.088  24.460  26.799  1.00  0.00    -0.107 NA
ATOM     12  C   UNL A   1      30.941  25.089  26.018  1.00  0.00     0.251 A 
BRANCH  12  13
ATOM     13  C   UNL A   1      30.834  26.384  25.377  1.00  0.00     0.075 A 
ATOM     14  C   UNL A   1      30.155  26.500  24.155  1.00  0.00     0.017 A 
ATOM     15  C   UNL A   1      31.407  27.527  25.945  1.00  0.00     0.148 A 
ATOM     16  C   UNL A   1      30.035  27.740  23.527  1.00  0.00     0.002 A 
ATOM     17  C   UNL A   1      31.319  28.773  25.317  1.00  0.00     0.092 A 
ATOM     18  F   UNL A   1      32.073  27.418  27.104  1.00  0.00    -0.205 F 
ATOM     19  C   UNL A   1      30.614  28.869  24.105  1.00  0.00     0.016 A 
BRANCH  17  20
ATOM     20  C   UNL A   1      31.962  29.995  25.904  1.00  0.00     0.419 C 
ATOM     21  F   UNL A   1      31.350  31.140  25.488  1.00  0.00    -0.166 F 
ATOM     22  F   UNL A   1      31.880  30.011  27.265  1.00  0.00    -0.166 F 
ATOM     23  F   UNL A   1      33.280  30.155  25.611  1.00  0.00    -0.166 F 
ENDBRANCH  17  20
ENDBRANCH  12  13
ENDBRANCH   7   8
ENDBRANCH   6   7
ENDBRANCH   4   6
ENDBRANCH   1   2
BRANCH   1  24
ATOM     24  C   UNL A   1      37.841  20.324  24.648  1.00  0.00     0.042 C 
BRANCH  24  25
ATOM     25  C   UNL A   1      38.810  20.409  25.824  1.00  0.00     0.118 C 
BRANCH  25  26
ATOM     26  N   UNL A   1      39.886  19.428  25.761  1.00  0.00    -0.352 N 
ATOM     27  C   UNL A   1      41.231  19.554  26.005  1.00  0.00     0.251 C 
ATOM     28  H   UNL A   1      39.600  18.522  25.500  1.00  0.00     0.163 HD
ATOM     29  O   UNL A   1      41.980  18.608  25.762  1.00  0.00    -0.269 OA
BRANCH  27  30
ATOM     30  C   UNL A   1      41.802  20.816  26.524  1.00  0.00     0.039 A 
ATOM     31  C   UNL A   1      42.265  21.766  25.606  1.00  0.00     0.014 A 
ATOM     32  C   UNL A   1      41.909  21.067  27.894  1.00  0.00     0.014 A 
ATOM     33  C   UNL A   1      42.748  22.997  26.058  1.00  0.00     0.010 A 
ATOM     34  C   UNL A   1      42.328  22.321  28.341  1.00  0.00     0.010 A 
ATOM     35  C   UNL A   1      42.735  23.305  27.428  1.00  0.00    -0.014 A 
BRANCH  35  36
ATOM     36  C   UNL A   1      43.093  24.663  27.917  1.00  0.00     0.031 A 
ATOM     37  C   UNL A   1      42.028  25.687  28.190  1.00  0.00     0.074 A 
ATOM     38  C   UNL A   1      44.393  24.996  28.047  1.00  0.00     0.049 A 
ATOM     39  N   UNL A   1      42.163  26.944  28.528  1.00  0.00    -0.248 NA
ATOM     40  C   UNL A   1      40.631  25.248  28.050  1.00  0.00     0.031 C 
ATOM     41  C   UNL A   1      45.523  24.101  27.788  1.00  0.00     0.029 A 
ATOM     42  N   UNL A   1      44.985  26.178  28.418  1.00  0.00    -0.354 N 
ATOM     43  C   UNL A   1      40.873  27.448  28.636  1.00  0.00     0.074 A 
ATOM     44  C   UNL A   1      39.970  26.373  28.282  1.00  0.00     0.031 C 
ATOM     45  C   UNL A   1      46.667  24.758  28.029  1.00  0.00     0.029 A 
ATOM     46  C   UNL A   1      46.359  26.133  28.408  1.00  0.00     0.049 A 
ATOM     47  H   UNL A   1      44.474  26.982  28.667  1.00  0.00     0.167 HD
ATOM     48  C   UNL A   1      40.479  28.687  29.013  1.00  0.00     0.037 A 
ATOM     49  C   UNL A   1      47.272  27.093  28.658  1.00  0.00     0.037 A 
ATOM     50  C   UNL A   1      41.379  29.749  29.380  1.00  0.00     0.049 A 
ATOM     51  C   UNL A   1      46.810  28.474  29.030  1.00  0.00     0.074 A 
ATOM     52  C   UNL A   1      41.067  31.023  29.824  1.00  0.00     0.029 A 
ATOM     53  N   UNL A   1      42.764  29.666  29.344  1.00  0.00    -0.354 N 
ATOM     54  N   UNL A   1      45.586  28.922  29.171  1.00  0.00    -0.248 NA
ATOM     55  C   UNL A   1      47.849  29.484  29.273  1.00  0.00     0.031 C 
ATOM     56  C   UNL A   1      42.260  31.729  30.002  1.00  0.00     0.029 A 
ATOM     57  C   UNL A   1      43.317  30.876  29.728  1.00  0.00     0.049 A 
ATOM     58  H   UNL A   1      43.275  28.866  29.084  1.00  0.00     0.167 HD
ATOM     59  C   UNL A   1      45.708  30.254  29.544  1.00  0.00     0.074 A 
ATOM     60  C   UNL A   1      47.125  30.542  29.615  1.00  0.00     0.031 C 
ATOM     61  C   UNL A   1      44.730  31.154  29.804  1.00  0.00     0.037 A 
BRANCH  48  62
ATOM     62  C   UNL A   1      39.007  28.975  29.061  1.00  0.00     0.057 A 
ATOM     63  C   UNL A   1      38.341  29.497  27.944  1.00  0.00     0.134 A 
ATOM     64  C   UNL A   1      38.265  28.819  30.240  1.00  0.00     0.134 A 
ATOM     65  F   UNL A   1      38.996  29.681  26.786  1.00  0.00    -0.206 F 
ATOM     66  C   UNL A   1      36.998  29.870  28.002  1.00  0.00     0.040 A 
ATOM     67  C   UNL A   1      36.913  29.164  30.302  1.00  0.00     0.040 A 
ATOM     68  F   UNL A   1      38.839  28.318  31.343  1.00  0.00    -0.206 F 
ATOM     69  C   UNL A   1      36.279  29.702  29.184  1.00  0.00     0.006 A 
ENDBRANCH  48  62
BRANCH  49  70
ATOM     70  C   UNL A   1      48.719  26.767  28.579  1.00  0.00     0.057 A 
ATOM     71  C   UNL A   1      49.434  26.889  27.381  1.00  0.00     0.134 A 
ATOM     72  C   UNL A   1      49.411  26.293  29.698  1.00  0.00     0.134 A 
ATOM     73  F   UNL A   1      48.827  27.332  26.271  1.00  0.00    -0.206 F 
ATOM     74  C   UNL A   1      50.780  26.531  27.294  1.00  0.00     0.040 A 
ATOM     75  C   UNL A   1      50.765  25.955  29.632  1.00  0.00     0.040 A 
ATOM     76  F   UNL A   1      48.786  26.172  30.879  1.00  0.00    -0.206 F 
ATOM     77  C   UNL A   1      51.450  26.065  28.424  1.00  0.00     0.006 A 
ENDBRANCH  49  70
BRANCH  61  78
ATOM     78  C   UNL A   1      45.138  32.537  30.216  1.00  0.00     0.057 A 
ATOM     79  C   UNL A   1      45.322  32.852  31.569  1.00  0.00     0.134 A 
ATOM     80  C   UNL A   1      45.245  33.582  29.289  1.00  0.00     0.134 A 
ATOM     81  F   UNL A   1      45.223  31.900  32.510  1.00  0.00    -0.206 F 
ATOM     82  C   UNL A   1      45.572  34.160  31.988  1.00  0.00     0.040 A 
ATOM     83  C   UNL A   1      45.520  34.888  29.693  1.00  0.00     0.040 A 
ATOM     84  F   UNL A   1      45.090  33.344  27.978  1.00  0.00    -0.206 F 
ATOM     85  C   UNL A   1      45.672  35.183  31.047  1.00  0.00     0.006 A 
ENDBRANCH  61  78
ENDBRANCH  35  36
ENDBRANCH  27  30
ENDBRANCH  25  26
ENDBRANCH  24  25
ENDBRANCH   1  24
TORSDOF 14
ENDMDL
MODEL 2
REMARK VINA RESULT:     -11.5      5.020      8.233
REMARK SMILES O=C(CSc1nnc(-c2cccc(C(F)(F)F)c2F)o1)NCCCNC(=O)c1ccc(-c2c3nc(c(-c4c(F)cccc4F)c4ccc([nH]4)c(-c4c(F)cccc4F)c4nc(c(-c5c(F)cccc5F)c5ccc2[nH]5)C=C4)C=C3)cc1
REMARK SMILES IDX 22 1 21 2 1 3 2 4 3 6 4 7 5 8 6 9 20 10 7 11 8 12 9 13 10 14
REMARK SMILES IDX 18 15 11 16 13 17 19 18 12 19 14 20 15 21 16 22 17 23 23 24
REMARK SMILES IDX 24 25 25 26 26 27 27 29 28 30 29 31 81 32 30 33 80 34 31 35
REMARK SMILES IDX 32 36 33 37 74 38 34 39 79 40 73 41 75 42 35 43 78 44 72 45
REMARK SMILES IDX 71 46 36 48 62 49 45 50 61 51 46 52 49 53 60 54 76 55 47 56
REMARK SMILES IDX 48 57 59 59 77 60 50 61 37 62 38 63 43 64 39 65 40 66 42 67
REMARK SMILES IDX 44 68 41 69 63 70 64 71 69 72 65 73 66 74 68 75 70 76 67 77
REMARK SMILES IDX 51 78 52 79 57 80 53 81 54 82 56 83 58 84 55 85
REMARK H PARENT 21 5 25 28 75 47 49 58
REMARK Flexibility Score: inf
ROOT
ATOM      1  C   UNL A   1      44.584  23.539  26.721  1.00  0.00     0.117 C 
ENDROOT
BRANCH   1   2
ATOM      2  N   UNL A   1      44.180  22.479  25.817  1.00  0.00    -0.355 N 
ATOM      3  O   UNL A   1      46.230  21.456  25.725  1.00  0.00    -0.274 OA
ATOM      4  C   UNL A   1      45.036  21.465  25.439  1.00  0.00     0.230 C 
ATOM      5  H   UNL A   1      43.261  22.483  25.461  1.00  0.00     0.163 HD
BRANCH   4   6
ATOM      6  C   UNL A   1      44.439  20.405  24.530  1.00  0.00     0.179 C 
BRANCH   6   7
ATOM      7  S   UNL A   1      43.877  18.920  25.398  1.00  0.00    -0.055 SA
BRANCH   7   8
ATOM      8  C   UNL A   1      42.468  19.527  26.209  1.00  0.00     0.277 A 
ATOM      9  N   UNL A   1      42.117  19.188  27.432  1.00  0.00    -0.101 NA
ATOM     10  O   UNL A   1      41.674  20.516  25.690  1.00  0.00    -0.411 OA
ATOM     11  N   UNL A   1      41.053  19.997  27.775  1.00  0.00    -0.107 NA
ATOM     12  C   UNL A   1      40.810  20.753  26.726  1.00  0.00     0.251 A 
BRANCH  12  13
ATOM     13  C   UNL A   1      39.886  21.858  26.570  1.00  0.00     0.075 A 
ATOM     14  C   UNL A   1      40.128  23.065  27.244  1.00  0.00     0.017 A 
ATOM     15  C   UNL A   1      38.744  21.747  25.770  1.00  0.00     0.148 A 
ATOM     16  C   UNL A   1      39.254  24.143  27.100  1.00  0.00     0.002 A 
ATOM     17  C   UNL A   1      37.845  22.808  25.635  1.00  0.00     0.092 A 
ATOM     18  F   UNL A   1      38.499  20.589  25.139  1.00  0.00    -0.205 F 
ATOM     19  C   UNL A   1      38.119  24.014  26.301  1.00  0.00     0.016 A 
BRANCH  17  20
ATOM     20  C   UNL A   1      36.600  22.681  24.806  1.00  0.00     0.419 C 
ATOM     21  F   UNL A   1      35.856  23.823  24.828  1.00  0.00    -0.166 F 
ATOM     22  F   UNL A   1      36.883  22.456  23.491  1.00  0.00    -0.166 F 
ATOM     23  F   UNL A   1      35.753  21.684  25.178  1.00  0.00    -0.166 F 
ENDBRANCH  17  20
ENDBRANCH  12  13
ENDBRANCH   7   8
ENDBRANCH   6   7
ENDBRANCH   4   6
ENDBRANCH   1   2
BRANCH   1  24
ATOM     24  C   UNL A   1      45.527  24.545  26.070  1.00  0.00     0.042 C 
BRANCH  24  25
ATOM     25  C   UNL A   1      44.901  25.901  25.758  1.00  0.00     0.118 C 
BRANCH  25  26
ATOM     26  N   UNL A   1      43.583  25.803  25.144  1.00  0.00    -0.352 N 
ATOM     27  C   UNL A   1      42.350  26.206  25.594  1.00  0.00     0.251 C 
ATOM     28  H   UNL A   1      43.575  25.377  24.256  1.00  0.00     0.163 HD
ATOM     29  O   UNL A   1      41.345  25.902  24.954  1.00  0.00    -0.269 OA
BRANCH  27  30
ATOM     30  C   UNL A   1      42.205  26.971  26.852  1.00  0.00     0.039 A 
ATOM     31  C   UNL A   1      42.476  28.343  26.834  1.00  0.00     0.014 A 
ATOM     32  C   UNL A   1      41.829  26.355  28.048  1.00  0.00     0.014 A 
ATOM     33  C   UNL A   1      42.284  29.109  27.987  1.00  0.00     0.010 A 
ATOM     34  C   UNL A   1      41.573  27.130  29.180  1.00  0.00     0.010 A 
ATOM     35  C   UNL A   1      41.781  28.517  29.156  1.00  0.00    -0.014 A 
BRANCH  35  36
ATOM     36  C   UNL A   1      41.417  29.338  30.342  1.00  0.00     0.031 A 
ATOM     37  C   UNL A   1      40.205  30.226  30.321  1.00  0.00     0.074 A 
ATOM     38  C   UNL A   1      42.228  29.336  31.420  1.00  0.00     0.049 A 
ATOM     39  N   UNL A   1      39.793  31.077  31.225  1.00  0.00    -0.248 NA
ATOM     40  C   UNL A   1      39.354  30.161  29.123  1.00  0.00     0.031 C 
ATOM     41  C   UNL A   1      43.448  28.538  31.554  1.00  0.00     0.029 A 
ATOM     42  N   UNL A   1      42.156  30.032  32.600  1.00  0.00    -0.354 N 
ATOM     43  C   UNL A   1      38.641  31.653  30.706  1.00  0.00     0.074 A 
ATOM     44  C   UNL A   1      38.444  31.088  29.388  1.00  0.00     0.031 C 
ATOM     45  C   UNL A   1      43.996  28.773  32.756  1.00  0.00     0.029 A 
ATOM     46  C   UNL A   1      43.199  29.775  33.457  1.00  0.00     0.049 A 
ATOM     47  H   UNL A   1      41.426  30.658  32.814  1.00  0.00     0.167 HD
ATOM     48  C   UNL A   1      37.813  32.556  31.284  1.00  0.00     0.037 A 
ATOM     49  C   UNL A   1      43.495  30.296  34.664  1.00  0.00     0.037 A 
ATOM     50  C   UNL A   1      38.003  33.104  32.602  1.00  0.00     0.049 A 
ATOM     51  C   UNL A   1      42.586  31.332  35.265  1.00  0.00     0.074 A 
ATOM     52  C   UNL A   1      37.188  33.988  33.289  1.00  0.00     0.029 A 
ATOM     53  N   UNL A   1      39.080  32.827  33.431  1.00  0.00    -0.354 N 
ATOM     54  N   UNL A   1      41.476  31.832  34.781  1.00  0.00    -0.248 NA
ATOM     55  C   UNL A   1      42.969  31.879  36.574  1.00  0.00     0.031 C 
ATOM     56  C   UNL A   1      37.798  34.289  34.509  1.00  0.00     0.029 A 
ATOM     57  C   UNL A   1      38.964  33.547  34.609  1.00  0.00     0.049 A 
ATOM     58  H   UNL A   1      39.817  32.210  33.214  1.00  0.00     0.167 HD
ATOM     59  C   UNL A   1      41.015  32.732  35.734  1.00  0.00     0.074 A 
ATOM     60  C   UNL A   1      41.961  32.703  36.830  1.00  0.00     0.031 C 
ATOM     61  C   UNL A   1      39.905  33.508  35.700  1.00  0.00     0.037 A 
BRANCH  48  62
ATOM     62  C   UNL A   1      36.614  33.012  30.506  1.00  0.00     0.057 A 
ATOM     63  C   UNL A   1      35.351  32.451  30.741  1.00  0.00     0.134 A 
ATOM     64  C   UNL A   1      36.723  33.941  29.462  1.00  0.00     0.134 A 
ATOM     65  F   UNL A   1      35.179  31.548  31.719  1.00  0.00    -0.206 F 
ATOM     66  C   UNL A   1      34.247  32.785  29.957  1.00  0.00     0.040 A 
ATOM     67  C   UNL A   1      35.619  34.302  28.689  1.00  0.00     0.040 A 
ATOM     68  F   UNL A   1      37.901  34.520  29.189  1.00  0.00    -0.206 F 
ATOM     69  C   UNL A   1      34.378  33.715  28.928  1.00  0.00     0.006 A 
ENDBRANCH  48  62
BRANCH  49  70
ATOM     70  C   UNL A   1      44.704  29.828  35.389  1.00  0.00     0.057 A 
ATOM     71  C   UNL A   1      45.958  30.416  35.181  1.00  0.00     0.134 A 
ATOM     72  C   UNL A   1      44.636  28.757  36.285  1.00  0.00     0.134 A 
ATOM     73  F   UNL A   1      46.093  31.443  34.329  1.00  0.00    -0.206 F 
ATOM     74  C   UNL A   1      47.104  29.940  35.820  1.00  0.00     0.040 A 
ATOM     75  C   UNL A   1      45.768  28.287  36.952  1.00  0.00     0.040 A 
ATOM     76  F   UNL A   1      43.459  28.165  36.542  1.00  0.00    -0.206 F 
ATOM     77  C   UNL A   1      47.010  28.874  36.712  1.00  0.00     0.006 A 
ENDBRANCH  49  70
BRANCH  61  78
ATOM     78  C   UNL A   1      39.622  34.382  36.886  1.00  0.00     0.057 A 
ATOM     79  C   UNL A   1      40.046  35.717  36.903  1.00  0.00     0.134 A 
ATOM     80  C   UNL A   1      39.026  33.877  38.048  1.00  0.00     0.134 A 
ATOM     81  F   UNL A   1      40.634  36.260  35.826  1.00  0.00    -0.206 F 
ATOM     82  C   UNL A   1      39.912  36.511  38.043  1.00  0.00     0.040 A 
ATOM     83  C   UNL A   1      38.863  34.669  39.185  1.00  0.00     0.040 A 
ATOM     84  F   UNL A   1      38.588  32.609  38.092  1.00  0.00    -0.206 F 
ATOM     85  C   UNL A   1      39.318  35.986  39.189  1.00  0.00     0.006 A 
ENDBRANCH  61  78
ENDBRANCH  35  36
ENDBRANCH  27  30
ENDBRANCH  25  26
ENDBRANCH  24  25
ENDBRANCH   1  24
TORSDOF 14
ENDMDL
MODEL 3
REMARK VINA RESULT:     -11.5      0.393      6.238
REMARK SMILES O=C(CSc1nnc(-c2cccc(C(F)(F)F)c2F)o1)NCCCNC(=O)c1ccc(-c2c3nc(c(-c4c(F)cccc4F)c4ccc([nH]4)c(-c4c(F)cccc4F)c4nc(c(-c5c(F)cccc5F)c5ccc2[nH]5)C=C4)C=C3)cc1
REMARK SMILES IDX 22 1 21 2 1 3 2 4 3 6 4 7 5 8 6 9 20 10 7 11 8 12 9 13 10 14
REMARK SMILES IDX 18 15 11 16 13 17 19 18 12 19 14 20 15 21 16 22 17 23 23 24
REMARK SMILES IDX 24 25 25 26 26 27 27 29 28 30 29 31 81 32 30 33 80 34 31 35
REMARK SMILES IDX 32 36 33 37 74 38 34 39 79 40 73 41 75 42 35 43 78 44 72 45
REMARK SMILES IDX 71 46 36 48 62 49 45 50 61 51 46 52 49 53 60 54 76 55 47 56
REMARK SMILES IDX 48 57 59 59 77 60 50 61 37 62 38 63 43 64 39 65 40 66 42 67
REMARK SMILES IDX 44 68 41 69 63 70 64 71 69 72 65 73 66 74 68 75 70 76 67 77
REMARK SMILES IDX 51 78 52 79 57 80 53 81 54 82 56 83 58 84 55 85
REMARK H PARENT 21 5 25 28 75 47 49 58
REMARK Flexibility Score: inf
ROOT
ATOM      1  C   UNL A   1      37.318  21.278  24.547  1.00  0.00     0.117 C 
ENDROOT
BRANCH   1   2
ATOM      2  N   UNL A   1      36.604  21.890  25.651  1.00  0.00    -0.355 N 
ATOM      3  O   UNL A   1      34.725  22.424  24.449  1.00  0.00    -0.274 OA
ATOM      4  C   UNL A   1      35.313  22.361  25.526  1.00  0.00     0.230 C 
ATOM      5  H   UNL A   1      37.057  21.972  26.522  1.00  0.00     0.163 HD
BRANCH   4   6
ATOM      6  C   UNL A   1      34.693  22.925  26.792  1.00  0.00     0.179 C 
BRANCH   6   7
ATOM      7  S   UNL A   1      33.167  22.094  27.298  1.00  0.00    -0.055 SA
BRANCH   7   8
ATOM      8  C   UNL A   1      31.983  23.281  26.847  1.00  0.00     0.277 A 
ATOM      9  N   UNL A   1      30.778  23.357  27.372  1.00  0.00    -0.101 NA
ATOM     10  O   UNL A   1      32.253  24.322  25.998  1.00  0.00    -0.411 OA
ATOM     11  N   UNL A   1      30.207  24.514  26.881  1.00  0.00    -0.107 NA
ATOM     12  C   UNL A   1      31.094  25.047  26.068  1.00  0.00     0.251 A 
BRANCH  12  13
ATOM     13  C   UNL A   1      31.073  26.320  25.375  1.00  0.00     0.075 A 
ATOM     14  C   UNL A   1      30.695  26.369  24.025  1.00  0.00     0.017 A 
ATOM     15  C   UNL A   1      31.436  27.507  26.020  1.00  0.00     0.148 A 
ATOM     16  C   UNL A   1      30.661  27.586  23.343  1.00  0.00     0.002 A 
ATOM     17  C   UNL A   1      31.432  28.731  25.346  1.00  0.00     0.092 A 
ATOM     18  F   UNL A   1      31.815  27.462  27.306  1.00  0.00    -0.205 F 
ATOM     19  C   UNL A   1      31.029  28.759  24.000  1.00  0.00     0.016 A 
BRANCH  17  20
ATOM     20  C   UNL A   1      31.854  30.002  26.024  1.00  0.00     0.419 C 
ATOM     21  F   UNL A   1      31.136  31.074  25.586  1.00  0.00    -0.166 F 
ATOM     22  F   UNL A   1      31.651  29.953  27.372  1.00  0.00    -0.166 F 
ATOM     23  F   UNL A   1      33.161  30.342  25.858  1.00  0.00    -0.166 F 
ENDBRANCH  17  20
ENDBRANCH  12  13
ENDBRANCH   7   8
ENDBRANCH   6   7
ENDBRANCH   4   6
ENDBRANCH   1   2
BRANCH   1  24
ATOM     24  C   UNL A   1      38.053  20.004  24.949  1.00  0.00     0.042 C 
BRANCH  24  25
ATOM     25  C   UNL A   1      39.089  20.184  26.055  1.00  0.00     0.118 C 
BRANCH  25  26
ATOM     26  N   UNL A   1      40.217  19.267  25.948  1.00  0.00    -0.352 N 
ATOM     27  C   UNL A   1      41.564  19.479  26.107  1.00  0.00     0.251 C 
ATOM     28  H   UNL A   1      39.971  18.340  25.726  1.00  0.00     0.163 HD
ATOM     29  O   UNL A   1      42.352  18.573  25.840  1.00  0.00    -0.269 OA
BRANCH  27  30
ATOM     30  C   UNL A   1      42.088  20.786  26.561  1.00  0.00     0.039 A 
ATOM     31  C   UNL A   1      42.530  21.699  25.598  1.00  0.00     0.014 A 
ATOM     32  C   UNL A   1      42.171  21.113  27.917  1.00  0.00     0.014 A 
ATOM     33  C   UNL A   1      42.968  22.968  25.986  1.00  0.00     0.010 A 
ATOM     34  C   UNL A   1      42.544  22.403  28.299  1.00  0.00     0.010 A 
ATOM     35  C   UNL A   1      42.929  23.349  27.337  1.00  0.00    -0.014 A 
BRANCH  35  36
ATOM     36  C   UNL A   1      43.237  24.743  27.755  1.00  0.00     0.031 A 
ATOM     37  C   UNL A   1      44.653  25.174  28.013  1.00  0.00     0.074 A 
ATOM     38  C   UNL A   1      42.223  25.605  27.971  1.00  0.00     0.049 A 
ATOM     39  N   UNL A   1      45.094  26.317  28.473  1.00  0.00    -0.248 NA
ATOM     40  C   UNL A   1      45.709  24.189  27.735  1.00  0.00     0.031 C 
ATOM     41  C   UNL A   1      40.803  25.301  27.782  1.00  0.00     0.029 A 
ATOM     42  N   UNL A   1      42.228  26.907  28.407  1.00  0.00    -0.354 N 
ATOM     43  C   UNL A   1      46.475  26.189  28.545  1.00  0.00     0.074 A 
ATOM     44  C   UNL A   1      46.795  24.841  28.124  1.00  0.00     0.031 C 
ATOM     45  C   UNL A   1      40.078  26.391  28.078  1.00  0.00     0.029 A 
ATOM     46  C   UNL A   1      40.972  27.453  28.528  1.00  0.00     0.049 A 
ATOM     47  H   UNL A   1      43.053  27.403  28.615  1.00  0.00     0.167 HD
ATOM     48  C   UNL A   1      47.391  27.117  28.909  1.00  0.00     0.037 A 
ATOM     49  C   UNL A   1      40.578  28.665  28.967  1.00  0.00     0.037 A 
ATOM     50  C   UNL A   1      47.070  28.462  29.311  1.00  0.00     0.049 A 
ATOM     51  C   UNL A   1      41.612  29.661  29.410  1.00  0.00     0.074 A 
ATOM     52  C   UNL A   1      47.938  29.486  29.650  1.00  0.00     0.029 A 
ATOM     53  N   UNL A   1      45.785  28.970  29.432  1.00  0.00    -0.354 N 
ATOM     54  N   UNL A   1      42.917  29.541  29.429  1.00  0.00    -0.248 NA
ATOM     55  C   UNL A   1      41.124  30.960  29.897  1.00  0.00     0.031 C 
ATOM     56  C   UNL A   1      47.179  30.596  30.030  1.00  0.00     0.029 A 
ATOM     57  C   UNL A   1      45.838  30.283  29.870  1.00  0.00     0.049 A 
ATOM     58  H   UNL A   1      44.959  28.471  29.236  1.00  0.00     0.167 HD
ATOM     59  C   UNL A   1      43.406  30.751  29.903  1.00  0.00     0.074 A 
ATOM     60  C   UNL A   1      42.258  31.598  30.153  1.00  0.00     0.031 C 
ATOM     61  C   UNL A   1      44.692  31.123  30.109  1.00  0.00     0.037 A 
BRANCH  48  62
ATOM     62  C   UNL A   1      48.839  26.724  28.887  1.00  0.00     0.057 A 
ATOM     63  C   UNL A   1      49.459  26.203  30.031  1.00  0.00     0.134 A 
ATOM     64  C   UNL A   1      49.644  26.945  27.761  1.00  0.00     0.134 A 
ATOM     65  F   UNL A   1      48.748  25.977  31.147  1.00  0.00    -0.206 F 
ATOM     66  C   UNL A   1      50.827  25.932  30.062  1.00  0.00     0.040 A 
ATOM     67  C   UNL A   1      51.009  26.652  27.772  1.00  0.00     0.040 A 
ATOM     68  F   UNL A   1      49.113  27.434  26.631  1.00  0.00    -0.206 F 
ATOM     69  C   UNL A   1      51.607  26.154  28.928  1.00  0.00     0.006 A 
ENDBRANCH  48  62
BRANCH  49  70
ATOM     70  C   UNL A   1      39.132  29.002  28.990  1.00  0.00     0.057 A 
ATOM     71  C   UNL A   1      38.358  28.835  30.145  1.00  0.00     0.134 A 
ATOM     72  C   UNL A   1      38.485  29.471  27.842  1.00  0.00     0.134 A 
ATOM     73  F   UNL A   1      38.917  28.383  31.276  1.00  0.00    -0.206 F 
ATOM     74  C   UNL A   1      36.988  29.099  30.151  1.00  0.00     0.040 A 
ATOM     75  C   UNL A   1      37.120  29.765  27.840  1.00  0.00     0.040 A 
ATOM     76  F   UNL A   1      39.176  29.670  26.710  1.00  0.00    -0.206 F 
ATOM     77  C   UNL A   1      36.365  29.570  28.996  1.00  0.00     0.006 A 
ENDBRANCH  49  70
BRANCH  61  78
ATOM     78  C   UNL A   1      44.950  32.514  30.609  1.00  0.00     0.057 A 
ATOM     79  C   UNL A   1      44.982  32.781  31.985  1.00  0.00     0.134 A 
ATOM     80  C   UNL A   1      45.060  33.603  29.736  1.00  0.00     0.134 A 
ATOM     81  F   UNL A   1      44.872  31.784  32.876  1.00  0.00    -0.206 F 
ATOM     82  C   UNL A   1      45.089  34.084  32.473  1.00  0.00     0.040 A 
ATOM     83  C   UNL A   1      45.193  34.908  30.213  1.00  0.00     0.040 A 
ATOM     84  F   UNL A   1      45.046  33.413  28.408  1.00  0.00    -0.206 F 
ATOM     85  C   UNL A   1      45.194  35.152  31.585  1.00  0.00     0.006 A 
ENDBRANCH  61  78
ENDBRANCH  35  36
ENDBRANCH  27  30
ENDBRANCH  25  26
ENDBRANCH  24  25
ENDBRANCH   1  24
TORSDOF 14
ENDMDL
