MODEL 1
REMARK VINA RESULT:     -10.2      0.000      0.000
REMARK SMILES CCN1C(=O)/C(=C/c2ccccc2O[C@H](C)C(=O)NCCCNC(=O)c2ccc(-c3c4nc(c(-c5c(F)cccc5F)c5ccc([nH]5)c(-c5c(F)cccc5F)c5nc(c(-c6c(F)cccc6F)c6ccc3[nH]6)C=C5)C=C4)cc2)S/C1=[NH+]\c1ccc(C)cc1O
REMARK SMILES IDX 17 1 18 2 19 3 15 5 16 6 14 7 13 8 8 9 9 10 10 11 12 12
REMARK SMILES IDX 11 13 7 14 3 15 4 16 81 17 5 18 6 19 80 20 82 21 2 23 1 24
REMARK SMILES IDX 83 25 84 26 89 27 85 28 88 29 86 30 87 31 90 32 20 34 21 35
REMARK SMILES IDX 22 36 23 37 24 38 25 40 26 41 27 42 79 43 28 44 78 45 29 46
REMARK SMILES IDX 30 47 31 48 72 49 32 50 77 51 71 52 73 53 33 54 76 55 70 56
REMARK SMILES IDX 69 57 34 59 60 60 43 61 59 62 44 63 47 64 58 65 74 66 45 67
REMARK SMILES IDX 46 68 57 70 75 71 48 72 35 73 36 74 41 75 37 76 38 77 40 78
REMARK SMILES IDX 42 79 39 80 61 81 62 82 67 83 63 84 64 85 66 86 68 87 65 88
REMARK SMILES IDX 49 89 50 90 55 91 51 92 52 93 54 94 56 95 53 96
REMARK H PARENT 19 4 82 22 90 33 23 39 73 58 47 69
REMARK Flexibility Score: inf
ROOT
ATOM      1  C   UNL A   1      44.821  22.309  24.079  1.00  0.00     0.260 C 
ATOM      2  O   UNL A   1      44.182  22.953  23.240  1.00  0.00    -0.271 OA
ATOM      3  N   UNL A   1      44.352  21.067  24.390  1.00  0.00    -0.353 N 
ATOM      4  H   UNL A   1      43.512  20.817  23.940  1.00  0.00     0.163 HD
ENDROOT
BRANCH   1   5
ATOM      5  C   UNL A   1      46.037  22.935  24.795  1.00  0.00     0.258 C 
ATOM      6  C   UNL A   1      47.145  23.186  23.787  1.00  0.00     0.064 C 
BRANCH   5   7
ATOM      7  O   UNL A   1      45.662  23.910  25.752  1.00  0.00    -0.480 OA
BRANCH   7   8
ATOM      8  C   UNL A   1      45.469  25.251  25.653  1.00  0.00     0.127 A 
ATOM      9  C   UNL A   1      46.569  26.033  26.076  1.00  0.00     0.018 A 
ATOM     10  C   UNL A   1      46.455  27.431  26.146  1.00  0.00     0.012 A 
ATOM     11  C   UNL A   1      45.266  28.060  25.790  1.00  0.00     0.001 A 
ATOM     12  C   UNL A   1      44.289  25.901  25.297  1.00  0.00     0.047 A 
ATOM     13  C   UNL A   1      44.188  27.296  25.364  1.00  0.00     0.004 A 
BRANCH   9  14
ATOM     14  C   UNL A   1      47.846  25.448  26.530  1.00  0.00     0.036 C 
ATOM     15  N   UNL A   1      51.386  25.490  25.822  1.00  0.00    -0.186 N 
ATOM     16  C   UNL A   1      50.288  25.049  26.533  1.00  0.00     0.348 C 
ATOM     17  C   UNL A   1      51.132  26.406  24.831  1.00  0.00     0.324 C 
ATOM     18  O   UNL A   1      50.308  24.367  27.553  1.00  0.00    -0.240 OA
ATOM     19  C   UNL A   1      49.041  25.603  25.943  1.00  0.00     0.110 C 
ATOM     20  S   UNL A   1      49.417  26.511  24.539  1.00  0.00     0.007 SA
ATOM     21  N   UNL A   1      52.059  27.119  24.280  1.00  0.00    -0.231 N 
ATOM     22  H   UNL A   1      52.995  26.981  24.551  1.00  0.00     0.313 HD
BRANCH  15  23
ATOM     23  C   UNL A   1      52.735  25.129  26.245  1.00  0.00     0.244 C 
ATOM     24  C   UNL A   1      53.420  24.164  25.284  1.00  0.00     0.055 C 
ENDBRANCH  15  23
BRANCH  21  25
ATOM     25  C   UNL A   1      51.764  28.091  23.300  1.00  0.00     0.167 A 
ATOM     26  C   UNL A   1      51.191  27.676  22.095  1.00  0.00     0.056 A 
ATOM     27  C   UNL A   1      52.110  29.447  23.430  1.00  0.00     0.162 A 
ATOM     28  C   UNL A   1      50.943  28.595  21.065  1.00  0.00     0.008 A 
ATOM     29  C   UNL A   1      51.841  30.372  22.424  1.00  0.00     0.054 A 
ATOM     30  C   UNL A   1      51.258  29.950  21.226  1.00  0.00    -0.047 A 
ATOM     31  C   UNL A   1      51.025  30.921  20.106  1.00  0.00     0.044 C 
BRANCH  27  32
ATOM     32  O   UNL A   1      52.746  29.925  24.546  1.00  0.00    -0.504 OA
ATOM     33  H   UNL A   1      53.341  29.376  25.018  1.00  0.00     0.293 HD
ENDBRANCH  27  32
ENDBRANCH  21  25
ENDBRANCH   9  14
ENDBRANCH   7   8
ENDBRANCH   5   7
ENDBRANCH   1   5
BRANCH   3  34
ATOM     34  C   UNL A   1      44.892  20.057  25.277  1.00  0.00     0.118 C 
BRANCH  34  35
ATOM     35  C   UNL A   1      44.118  18.752  25.223  1.00  0.00     0.042 C 
BRANCH  35  36
ATOM     36  C   UNL A   1      43.113  18.617  26.357  1.00  0.00     0.118 C 
BRANCH  36  37
ATOM     37  N   UNL A   1      41.748  18.896  25.920  1.00  0.00    -0.352 N 
ATOM     38  C   UNL A   1      40.931  19.968  26.179  1.00  0.00     0.251 C 
ATOM     39  H   UNL A   1      41.350  18.204  25.346  1.00  0.00     0.163 HD
ATOM     40  O   UNL A   1      39.735  19.907  25.907  1.00  0.00    -0.269 OA
BRANCH  38  41
ATOM     41  C   UNL A   1      41.481  21.185  26.805  1.00  0.00     0.039 A 
ATOM     42  C   UNL A   1      41.778  22.289  26.001  1.00  0.00     0.014 A 
ATOM     43  C   UNL A   1      41.702  21.240  28.183  1.00  0.00     0.014 A 
ATOM     44  C   UNL A   1      42.201  23.480  26.592  1.00  0.00     0.010 A 
ATOM     45  C   UNL A   1      42.036  22.450  28.779  1.00  0.00     0.010 A 
ATOM     46  C   UNL A   1      42.277  23.585  27.990  1.00  0.00    -0.014 A 
BRANCH  46  47
ATOM     47  C   UNL A   1      42.553  24.879  28.656  1.00  0.00     0.031 A 
ATOM     48  C   UNL A   1      41.480  25.924  28.758  1.00  0.00     0.074 A 
ATOM     49  C   UNL A   1      43.807  25.153  29.066  1.00  0.00     0.049 A 
ATOM     50  N   UNL A   1      41.565  27.157  29.188  1.00  0.00    -0.248 NA
ATOM     51  C   UNL A   1      40.140  25.542  28.284  1.00  0.00     0.031 C 
ATOM     52  C   UNL A   1      44.946  24.239  28.967  1.00  0.00     0.029 A 
ATOM     53  N   UNL A   1      44.341  26.290  29.619  1.00  0.00    -0.354 N 
ATOM     54  C   UNL A   1      40.300  27.703  29.019  1.00  0.00     0.074 A 
ATOM     55  C   UNL A   1      39.478  26.683  28.404  1.00  0.00     0.031 C 
ATOM     56  C   UNL A   1      46.042  24.846  29.447  1.00  0.00     0.029 A 
ATOM     57  C   UNL A   1      45.694  26.208  29.839  1.00  0.00     0.049 A 
ATOM     58  H   UNL A   1      43.805  27.086  29.838  1.00  0.00     0.167 HD
ATOM     59  C   UNL A   1      39.864  28.939  29.358  1.00  0.00     0.037 A 
ATOM     60  C   UNL A   1      46.568  27.135  30.277  1.00  0.00     0.037 A 
ATOM     61  C   UNL A   1      40.688  29.940  29.983  1.00  0.00     0.049 A 
ATOM     62  C   UNL A   1      46.066  28.506  30.629  1.00  0.00     0.074 A 
ATOM     63  C   UNL A   1      40.319  31.189  30.453  1.00  0.00     0.029 A 
ATOM     64  N   UNL A   1      42.052  29.817  30.205  1.00  0.00    -0.354 N 
ATOM     65  N   UNL A   1      44.845  28.980  30.557  1.00  0.00    -0.248 NA
ATOM     66  C   UNL A   1      47.059  29.471  31.119  1.00  0.00     0.031 C 
ATOM     67  C   UNL A   1      41.471  31.846  30.896  1.00  0.00     0.029 A 
ATOM     68  C   UNL A   1      42.550  30.987  30.757  1.00  0.00     0.049 A 
ATOM     69  H   UNL A   1      42.587  29.017  30.000  1.00  0.00     0.167 HD
ATOM     70  C   UNL A   1      44.920  30.294  30.998  1.00  0.00     0.074 A 
ATOM     71  C   UNL A   1      46.302  30.535  31.359  1.00  0.00     0.031 C 
ATOM     72  C   UNL A   1      43.932  31.218  31.093  1.00  0.00     0.037 A 
BRANCH  59  73
ATOM     73  C   UNL A   1      38.436  29.281  29.042  1.00  0.00     0.057 A 
ATOM     74  C   UNL A   1      37.432  29.271  30.019  1.00  0.00     0.134 A 
ATOM     75  C   UNL A   1      38.064  29.645  27.741  1.00  0.00     0.134 A 
ATOM     76  F   UNL A   1      37.716  28.922  31.284  1.00  0.00    -0.206 F 
ATOM     77  C   UNL A   1      36.105  29.575  29.708  1.00  0.00     0.040 A 
ATOM     78  C   UNL A   1      36.747  29.983  27.424  1.00  0.00     0.040 A 
ATOM     79  F   UNL A   1      38.975  29.684  26.757  1.00  0.00    -0.206 F 
ATOM     80  C   UNL A   1      35.761  29.938  28.407  1.00  0.00     0.006 A 
ENDBRANCH  59  73
BRANCH  60  81
ATOM     81  C   UNL A   1      48.007  26.789  30.390  1.00  0.00     0.057 A 
ATOM     82  C   UNL A   1      48.945  27.283  29.477  1.00  0.00     0.134 A 
ATOM     83  C   UNL A   1      48.482  25.982  31.432  1.00  0.00     0.134 A 
ATOM     84  F   UNL A   1      48.549  28.046  28.449  1.00  0.00    -0.206 F 
ATOM     85  C   UNL A   1      50.303  26.982  29.592  1.00  0.00     0.040 A 
ATOM     86  C   UNL A   1      49.840  25.695  31.574  1.00  0.00     0.040 A 
ATOM     87  F   UNL A   1      47.635  25.486  32.346  1.00  0.00    -0.206 F 
ATOM     88  C   UNL A   1      50.754  26.192  30.648  1.00  0.00     0.006 A 
ENDBRANCH  60  81
BRANCH  72  89
ATOM     89  C   UNL A   1      44.311  32.581  31.599  1.00  0.00     0.057 A 
ATOM     90  C   UNL A   1      44.723  33.598  30.730  1.00  0.00     0.134 A 
ATOM     91  C   UNL A   1      44.203  32.895  32.960  1.00  0.00     0.134 A 
ATOM     92  F   UNL A   1      44.861  33.357  29.418  1.00  0.00    -0.206 F 
ATOM     93  C   UNL A   1      45.028  34.878  31.198  1.00  0.00     0.040 A 
ATOM     94  C   UNL A   1      44.477  34.178  33.436  1.00  0.00     0.040 A 
ATOM     95  F   UNL A   1      43.807  31.968  33.845  1.00  0.00    -0.206 F 
ATOM     96  C   UNL A   1      44.895  35.172  32.554  1.00  0.00     0.006 A 
ENDBRANCH  72  89
ENDBRANCH  46  47
ENDBRANCH  38  41
ENDBRANCH  36  37
ENDBRANCH  35  36
ENDBRANCH  34  35
ENDBRANCH   3  34
TORSDOF 16
ENDMDL
MODEL 2
REMARK VINA RESULT:     -10.0      0.557      5.935
REMARK SMILES CCN1C(=O)/C(=C/c2ccccc2O[C@H](C)C(=O)NCCCNC(=O)c2ccc(-c3c4nc(c(-c5c(F)cccc5F)c5ccc([nH]5)c(-c5c(F)cccc5F)c5nc(c(-c6c(F)cccc6F)c6ccc3[nH]6)C=C5)C=C4)cc2)S/C1=[NH+]\c1ccc(C)cc1O
REMARK SMILES IDX 17 1 18 2 19 3 15 5 16 6 14 7 13 8 8 9 9 10 10 11 12 12
REMARK SMILES IDX 11 13 7 14 3 15 4 16 81 17 5 18 6 19 80 20 82 21 2 23 1 24
REMARK SMILES IDX 83 25 84 26 89 27 85 28 88 29 86 30 87 31 90 32 20 34 21 35
REMARK SMILES IDX 22 36 23 37 24 38 25 40 26 41 27 42 79 43 28 44 78 45 29 46
REMARK SMILES IDX 30 47 31 48 72 49 32 50 77 51 71 52 73 53 33 54 76 55 70 56
REMARK SMILES IDX 69 57 34 59 60 60 43 61 59 62 44 63 47 64 58 65 74 66 45 67
REMARK SMILES IDX 46 68 57 70 75 71 48 72 35 73 36 74 41 75 37 76 38 77 40 78
REMARK SMILES IDX 42 79 39 80 61 81 62 82 67 83 63 84 64 85 66 86 68 87 65 88
REMARK SMILES IDX 49 89 50 90 55 91 51 92 52 93 54 94 56 95 53 96
REMARK H PARENT 19 4 82 22 90 33 23 39 73 58 47 69
REMARK Flexibility Score: inf
ROOT
ATOM      1  C   UNL A   1      44.890  22.282  23.975  1.00  0.00     0.260 C 
ATOM      2  O   UNL A   1      44.297  22.888  23.075  1.00  0.00    -0.271 OA
ATOM      3  N   UNL A   1      44.402  21.056  24.317  1.00  0.00    -0.353 N 
ATOM      4  H   UNL A   1      43.587  20.786  23.836  1.00  0.00     0.163 HD
ENDROOT
BRANCH   1   5
ATOM      5  C   UNL A   1      46.069  22.939  24.723  1.00  0.00     0.258 C 
ATOM      6  C   UNL A   1      47.172  23.276  23.736  1.00  0.00     0.064 C 
BRANCH   5   7
ATOM      7  O   UNL A   1      45.640  23.862  25.710  1.00  0.00    -0.480 OA
BRANCH   7   8
ATOM      8  C   UNL A   1      45.409  25.200  25.660  1.00  0.00     0.127 A 
ATOM      9  C   UNL A   1      46.460  25.995  26.173  1.00  0.00     0.018 A 
ATOM     10  C   UNL A   1      46.296  27.384  26.299  1.00  0.00     0.012 A 
ATOM     11  C   UNL A   1      45.108  27.993  25.909  1.00  0.00     0.001 A 
ATOM     12  C   UNL A   1      44.227  25.830  25.271  1.00  0.00     0.047 A 
ATOM     13  C   UNL A   1      44.078  27.216  25.395  1.00  0.00     0.004 A 
BRANCH   9  14
ATOM     14  C   UNL A   1      47.731  25.429  26.667  1.00  0.00     0.036 C 
ATOM     15  N   UNL A   1      51.283  25.469  26.025  1.00  0.00    -0.186 N 
ATOM     16  C   UNL A   1      50.174  25.042  26.728  1.00  0.00     0.348 C 
ATOM     17  C   UNL A   1      51.044  26.356  25.005  1.00  0.00     0.324 C 
ATOM     18  O   UNL A   1      50.177  24.388  27.766  1.00  0.00    -0.240 OA
ATOM     19  C   UNL A   1      48.936  25.573  26.099  1.00  0.00     0.110 C 
ATOM     20  S   UNL A   1      49.334  26.445  24.678  1.00  0.00     0.007 SA
ATOM     21  N   UNL A   1      51.978  27.059  24.452  1.00  0.00    -0.231 N 
ATOM     22  H   UNL A   1      52.909  26.933  24.745  1.00  0.00     0.313 HD
BRANCH  15  23
ATOM     23  C   UNL A   1      52.625  25.126  26.483  1.00  0.00     0.244 C 
ATOM     24  C   UNL A   1      53.147  26.074  27.557  1.00  0.00     0.055 C 
ENDBRANCH  15  23
BRANCH  21  25
ATOM     25  C   UNL A   1      51.698  28.002  23.440  1.00  0.00     0.167 A 
ATOM     26  C   UNL A   1      51.107  27.558  22.255  1.00  0.00     0.056 A 
ATOM     27  C   UNL A   1      52.073  29.354  23.521  1.00  0.00     0.162 A 
ATOM     28  C   UNL A   1      50.872  28.445  21.194  1.00  0.00     0.008 A 
ATOM     29  C   UNL A   1      51.817  30.249  22.485  1.00  0.00     0.054 A 
ATOM     30  C   UNL A   1      51.217  29.798  21.306  1.00  0.00    -0.047 A 
ATOM     31  C   UNL A   1      50.997  30.734  20.154  1.00  0.00     0.044 C 
BRANCH  27  32
ATOM     32  O   UNL A   1      52.727  29.856  24.615  1.00  0.00    -0.504 OA
ATOM     33  H   UNL A   1      52.831  30.782  24.716  1.00  0.00     0.293 HD
ENDBRANCH  27  32
ENDBRANCH  21  25
ENDBRANCH   9  14
ENDBRANCH   7   8
ENDBRANCH   5   7
ENDBRANCH   1   5
BRANCH   3  34
ATOM     34  C   UNL A   1      44.893  20.087  25.275  1.00  0.00     0.118 C 
BRANCH  34  35
ATOM     35  C   UNL A   1      44.148  18.765  25.210  1.00  0.00     0.042 C 
BRANCH  35  36
ATOM     36  C   UNL A   1      43.198  18.567  26.381  1.00  0.00     0.118 C 
BRANCH  36  37
ATOM     37  N   UNL A   1      41.803  18.766  25.999  1.00  0.00    -0.352 N 
ATOM     38  C   UNL A   1      40.953  19.816  26.244  1.00  0.00     0.251 C 
ATOM     39  H   UNL A   1      41.408  18.029  25.481  1.00  0.00     0.163 HD
ATOM     40  O   UNL A   1      39.750  19.691  26.034  1.00  0.00    -0.269 OA
BRANCH  38  41
ATOM     41  C   UNL A   1      41.478  21.086  26.780  1.00  0.00     0.039 A 
ATOM     42  C   UNL A   1      41.815  22.111  25.891  1.00  0.00     0.014 A 
ATOM     43  C   UNL A   1      41.636  21.268  28.155  1.00  0.00     0.014 A 
ATOM     44  C   UNL A   1      42.215  23.352  26.389  1.00  0.00     0.010 A 
ATOM     45  C   UNL A   1      41.948  22.528  28.651  1.00  0.00     0.010 A 
ATOM     46  C   UNL A   1      42.228  23.585  27.773  1.00  0.00    -0.014 A 
BRANCH  46  47
ATOM     47  C   UNL A   1      42.478  24.936  28.329  1.00  0.00     0.031 A 
ATOM     48  C   UNL A   1      43.792  25.256  28.979  1.00  0.00     0.074 A 
ATOM     49  C   UNL A   1      41.474  25.834  28.349  1.00  0.00     0.049 A 
ATOM     50  N   UNL A   1      44.150  26.333  29.631  1.00  0.00    -0.248 NA
ATOM     51  C   UNL A   1      44.832  24.218  28.915  1.00  0.00     0.031 C 
ATOM     52  C   UNL A   1      40.134  25.615  27.800  1.00  0.00     0.029 A 
ATOM     53  N   UNL A   1      41.414  27.098  28.878  1.00  0.00    -0.354 N 
ATOM     54  C   UNL A   1      45.445  26.095  30.071  1.00  0.00     0.074 A 
ATOM     55  C   UNL A   1      45.792  24.753  29.652  1.00  0.00     0.031 C 
ATOM     56  C   UNL A   1      39.387  26.709  28.014  1.00  0.00     0.029 A 
ATOM     57  C   UNL A   1      40.176  27.683  28.760  1.00  0.00     0.049 A 
ATOM     58  H   UNL A   1      42.183  27.545  29.299  1.00  0.00     0.167 HD
ATOM     59  C   UNL A   1      46.271  26.925  30.752  1.00  0.00     0.037 A 
ATOM     60  C   UNL A   1      39.714  28.858  29.228  1.00  0.00     0.037 A 
ATOM     61  C   UNL A   1      45.917  28.262  31.150  1.00  0.00     0.049 A 
ATOM     62  C   UNL A   1      40.641  29.755  29.998  1.00  0.00     0.074 A 
ATOM     63  C   UNL A   1      46.713  29.217  31.759  1.00  0.00     0.029 A 
ATOM     64  N   UNL A   1      44.659  28.826  31.001  1.00  0.00    -0.354 N 
ATOM     65  N   UNL A   1      41.897  29.559  30.322  1.00  0.00    -0.248 NA
ATOM     66  C   UNL A   1      40.091  31.033  30.469  1.00  0.00     0.031 C 
ATOM     67  C   UNL A   1      45.918  30.333  32.038  1.00  0.00     0.029 A 
ATOM     68  C   UNL A   1      44.641  30.097  31.553  1.00  0.00     0.049 A 
ATOM     69  H   UNL A   1      43.892  28.388  30.567  1.00  0.00     0.167 HD
ATOM     70  C   UNL A   1      42.289  30.688  31.028  1.00  0.00     0.074 A 
ATOM     71  C   UNL A   1      41.145  31.576  31.063  1.00  0.00     0.031 C 
ATOM     72  C   UNL A   1      43.488  30.962  31.597  1.00  0.00     0.037 A 
BRANCH  59  73
ATOM     73  C   UNL A   1      47.628  26.400  31.122  1.00  0.00     0.057 A 
ATOM     74  C   UNL A   1      48.754  26.603  30.314  1.00  0.00     0.134 A 
ATOM     75  C   UNL A   1      47.815  25.698  32.321  1.00  0.00     0.134 A 
ATOM     76  F   UNL A   1      48.645  27.258  29.147  1.00  0.00    -0.206 F 
ATOM     77  C   UNL A   1      50.006  26.095  30.663  1.00  0.00     0.040 A 
ATOM     78  C   UNL A   1      49.069  25.214  32.697  1.00  0.00     0.040 A 
ATOM     79  F   UNL A   1      46.783  25.475  33.149  1.00  0.00    -0.206 F 
ATOM     80  C   UNL A   1      50.168  25.403  31.862  1.00  0.00     0.006 A 
ENDBRANCH  59  73
BRANCH  60  81
ATOM     81  C   UNL A   1      38.299  29.237  28.988  1.00  0.00     0.057 A 
ATOM     82  C   UNL A   1      37.345  29.164  30.009  1.00  0.00     0.134 A 
ATOM     83  C   UNL A   1      37.875  29.712  27.740  1.00  0.00     0.134 A 
ATOM     84  F   UNL A   1      37.688  28.701  31.219  1.00  0.00    -0.206 F 
ATOM     85  C   UNL A   1      36.019  29.542  29.797  1.00  0.00     0.040 A 
ATOM     86  C   UNL A   1      36.558  30.119  27.521  1.00  0.00     0.040 A 
ATOM     87  F   UNL A   1      38.743  29.817  26.723  1.00  0.00    -0.206 F 
ATOM     88  C   UNL A   1      35.625  30.029  28.551  1.00  0.00     0.006 A 
ENDBRANCH  60  81
BRANCH  72  89
ATOM     89  C   UNL A   1      43.626  32.274  32.317  1.00  0.00     0.057 A 
ATOM     90  C   UNL A   1      43.995  33.444  31.643  1.00  0.00     0.134 A 
ATOM     91  C   UNL A   1      43.328  32.378  33.681  1.00  0.00     0.134 A 
ATOM     92  F   UNL A   1      44.307  33.410  30.339  1.00  0.00    -0.206 F 
ATOM     93  C   UNL A   1      44.075  34.672  32.305  1.00  0.00     0.040 A 
ATOM     94  C   UNL A   1      43.377  33.603  34.347  1.00  0.00     0.040 A 
ATOM     95  F   UNL A   1      42.962  31.295  34.384  1.00  0.00    -0.206 F 
ATOM     96  C   UNL A   1      43.756  34.754  33.659  1.00  0.00     0.006 A 
ENDBRANCH  72  89
ENDBRANCH  46  47
ENDBRANCH  38  41
ENDBRANCH  36  37
ENDBRANCH  35  36
ENDBRANCH  34  35
ENDBRANCH   3  34
TORSDOF 16
ENDMDL
MODEL 3
REMARK VINA RESULT:     -10.0      5.800     12.042
REMARK SMILES CCN1C(=O)/C(=C/c2ccccc2O[C@H](C)C(=O)NCCCNC(=O)c2ccc(-c3c4nc(c(-c5c(F)cccc5F)c5ccc([nH]5)c(-c5c(F)cccc5F)c5nc(c(-c6c(F)cccc6F)c6ccc3[nH]6)C=C5)C=C4)cc2)S/C1=[NH+]\c1ccc(C)cc1O
REMARK SMILES IDX 17 1 18 2 19 3 15 5 16 6 14 7 13 8 8 9 9 10 10 11 12 12
REMARK SMILES IDX 11 13 7 14 3 15 4 16 81 17 5 18 6 19 80 20 82 21 2 23 1 24
REMARK SMILES IDX 83 25 84 26 89 27 85 28 88 29 86 30 87 31 90 32 20 34 21 35
REMARK SMILES IDX 22 36 23 37 24 38 25 40 26 41 27 42 79 43 28 44 78 45 29 46
REMARK SMILES IDX 30 47 31 48 72 49 32 50 77 51 71 52 73 53 33 54 76 55 70 56
REMARK SMILES IDX 69 57 34 59 60 60 43 61 59 62 44 63 47 64 58 65 74 66 45 67
REMARK SMILES IDX 46 68 57 70 75 71 48 72 35 73 36 74 41 75 37 76 38 77 40 78
REMARK SMILES IDX 42 79 39 80 61 81 62 82 67 83 63 84 64 85 66 86 68 87 65 88
REMARK SMILES IDX 49 89 50 90 55 91 51 92 52 93 54 94 56 95 53 96
REMARK H PARENT 19 4 82 22 90 33 23 39 73 58 47 69
REMARK Flexibility Score: inf
ROOT
ATOM      1  C   UNL A   1      30.158  25.223  26.458  1.00  0.00     0.260 C 
ATOM      2  O   UNL A   1      29.033  24.982  26.907  1.00  0.00    -0.271 OA
ATOM      3  N   UNL A   1      30.654  26.474  26.679  1.00  0.00    -0.353 N 
ATOM      4  H   UNL A   1      30.039  27.087  27.143  1.00  0.00     0.163 HD
ENDROOT
BRANCH   1   5
ATOM      5  C   UNL A   1      30.913  24.174  25.615  1.00  0.00     0.258 C 
ATOM      6  C   UNL A   1      30.967  22.859  26.372  1.00  0.00     0.064 C 
BRANCH   5   7
ATOM      7  O   UNL A   1      30.571  24.233  24.241  1.00  0.00    -0.480 OA
BRANCH   7   8
ATOM      8  C   UNL A   1      31.230  24.732  23.163  1.00  0.00     0.127 A 
ATOM      9  C   UNL A   1      31.962  23.771  22.427  1.00  0.00     0.018 A 
ATOM     10  C   UNL A   1      32.790  24.176  21.368  1.00  0.00     0.012 A 
ATOM     11  C   UNL A   1      32.890  25.519  21.023  1.00  0.00     0.001 A 
ATOM     12  C   UNL A   1      31.341  26.074  22.799  1.00  0.00     0.047 A 
ATOM     13  C   UNL A   1      32.164  26.465  21.737  1.00  0.00     0.004 A 
BRANCH   9  14
ATOM     14  C   UNL A   1      31.965  22.333  22.761  1.00  0.00     0.036 C 
ATOM     15  N   UNL A   1      33.971  19.812  24.390  1.00  0.00    -0.186 N 
ATOM     16  C   UNL A   1      32.848  20.220  23.699  1.00  0.00     0.348 C 
ATOM     17  C   UNL A   1      34.890  20.792  24.677  1.00  0.00     0.324 C 
ATOM     18  O   UNL A   1      31.840  19.553  23.488  1.00  0.00    -0.240 OA
ATOM     19  C   UNL A   1      32.977  21.650  23.313  1.00  0.00     0.110 C 
ATOM     20  S   UNL A   1      34.515  22.243  23.786  1.00  0.00     0.007 SA
ATOM     21  N   UNL A   1      35.833  20.637  25.548  1.00  0.00    -0.231 N 
ATOM     22  H   UNL A   1      35.926  19.770  26.004  1.00  0.00     0.313 HD
BRANCH  15  23
ATOM     23  C   UNL A   1      34.056  18.460  24.929  1.00  0.00     0.244 C 
ATOM     24  C   UNL A   1      34.493  17.433  23.891  1.00  0.00     0.055 C 
ENDBRANCH  15  23
BRANCH  21  25
ATOM     25  C   UNL A   1      36.733  21.678  25.861  1.00  0.00     0.167 A 
ATOM     26  C   UNL A   1      36.218  22.939  26.171  1.00  0.00     0.056 A 
ATOM     27  C   UNL A   1      38.129  21.541  25.779  1.00  0.00     0.162 A 
ATOM     28  C   UNL A   1      37.073  24.021  26.422  1.00  0.00     0.008 A 
ATOM     29  C   UNL A   1      38.987  22.602  26.056  1.00  0.00     0.054 A 
ATOM     30  C   UNL A   1      38.463  23.858  26.375  1.00  0.00    -0.047 A 
ATOM     31  C   UNL A   1      39.373  25.029  26.607  1.00  0.00     0.044 C 
BRANCH  27  32
ATOM     32  O   UNL A   1      38.717  20.360  25.406  1.00  0.00    -0.504 OA
ATOM     33  H   UNL A   1      39.208  20.312  24.610  1.00  0.00     0.293 HD
ENDBRANCH  27  32
ENDBRANCH  21  25
ENDBRANCH   9  14
ENDBRANCH   7   8
ENDBRANCH   5   7
ENDBRANCH   1   5
BRANCH   3  34
ATOM     34  C   UNL A   1      31.940  27.046  26.337  1.00  0.00     0.118 C 
BRANCH  34  35
ATOM     35  C   UNL A   1      31.829  28.454  25.780  1.00  0.00     0.042 C 
BRANCH  35  36
ATOM     36  C   UNL A   1      33.057  29.302  26.076  1.00  0.00     0.118 C 
BRANCH  36  37
ATOM     37  N   UNL A   1      32.708  30.676  26.424  1.00  0.00    -0.352 N 
ATOM     38  C   UNL A   1      33.330  31.569  27.261  1.00  0.00     0.251 C 
ATOM     39  H   UNL A   1      31.895  31.018  25.988  1.00  0.00     0.163 HD
ATOM     40  O   UNL A   1      32.751  32.598  27.597  1.00  0.00    -0.269 OA
BRANCH  38  41
ATOM     41  C   UNL A   1      34.683  31.284  27.775  1.00  0.00     0.039 A 
ATOM     42  C   UNL A   1      35.622  32.318  27.826  1.00  0.00     0.014 A 
ATOM     43  C   UNL A   1      35.025  30.002  28.209  1.00  0.00     0.014 A 
ATOM     44  C   UNL A   1      36.871  32.088  28.406  1.00  0.00     0.010 A 
ATOM     45  C   UNL A   1      36.232  29.796  28.865  1.00  0.00     0.010 A 
ATOM     46  C   UNL A   1      37.162  30.841  28.980  1.00  0.00    -0.014 A 
BRANCH  46  47
ATOM     47  C   UNL A   1      38.405  30.615  29.754  1.00  0.00     0.031 A 
ATOM     48  C   UNL A   1      39.502  29.759  29.193  1.00  0.00     0.074 A 
ATOM     49  C   UNL A   1      38.491  31.090  31.012  1.00  0.00     0.049 A 
ATOM     50  N   UNL A   1      40.603  29.344  29.768  1.00  0.00    -0.248 NA
ATOM     51  C   UNL A   1      39.325  29.279  27.814  1.00  0.00     0.031 C 
ATOM     52  C   UNL A   1      37.464  31.887  31.686  1.00  0.00     0.029 A 
ATOM     53  N   UNL A   1      39.475  30.947  31.958  1.00  0.00    -0.354 N 
ATOM     54  C   UNL A   1      41.238  28.541  28.831  1.00  0.00     0.074 A 
ATOM     55  C   UNL A   1      40.378  28.488  27.667  1.00  0.00     0.031 C 
ATOM     56  C   UNL A   1      37.872  32.167  32.933  1.00  0.00     0.029 A 
ATOM     57  C   UNL A   1      39.163  31.528  33.164  1.00  0.00     0.049 A 
ATOM     58  H   UNL A   1      40.322  30.476  31.789  1.00  0.00     0.167 HD
ATOM     59  C   UNL A   1      42.435  27.915  28.929  1.00  0.00     0.037 A 
ATOM     60  C   UNL A   1      39.825  31.520  34.336  1.00  0.00     0.037 A 
ATOM     61  C   UNL A   1      43.287  27.987  30.087  1.00  0.00     0.049 A 
ATOM     62  C   UNL A   1      41.142  30.803  34.429  1.00  0.00     0.074 A 
ATOM     63  C   UNL A   1      44.560  27.469  30.252  1.00  0.00     0.029 A 
ATOM     64  N   UNL A   1      42.945  28.597  31.285  1.00  0.00    -0.354 N 
ATOM     65  N   UNL A   1      41.780  30.128  33.504  1.00  0.00    -0.248 NA
ATOM     66  C   UNL A   1      41.830  30.843  35.727  1.00  0.00     0.031 C 
ATOM     67  C   UNL A   1      44.960  27.706  31.571  1.00  0.00     0.029 A 
ATOM     68  C   UNL A   1      43.961  28.423  32.212  1.00  0.00     0.049 A 
ATOM     69  H   UNL A   1      42.105  29.081  31.452  1.00  0.00     0.167 HD
ATOM     70  C   UNL A   1      42.945  29.669  34.101  1.00  0.00     0.074 A 
ATOM     71  C   UNL A   1      42.938  30.163  35.463  1.00  0.00     0.031 C 
ATOM     72  C   UNL A   1      43.930  28.905  33.570  1.00  0.00     0.037 A 
BRANCH  59  73
ATOM     73  C   UNL A   1      42.881  27.084  27.761  1.00  0.00     0.057 A 
ATOM     74  C   UNL A   1      43.542  27.640  26.658  1.00  0.00     0.134 A 
ATOM     75  C   UNL A   1      42.662  25.700  27.748  1.00  0.00     0.134 A 
ATOM     76  F   UNL A   1      43.776  28.961  26.599  1.00  0.00    -0.206 F 
ATOM     77  C   UNL A   1      43.937  26.858  25.571  1.00  0.00     0.040 A 
ATOM     78  C   UNL A   1      43.080  24.903  26.682  1.00  0.00     0.040 A 
ATOM     79  F   UNL A   1      42.042  25.099  28.775  1.00  0.00    -0.206 F 
ATOM     80  C   UNL A   1      43.711  25.483  25.584  1.00  0.00     0.006 A 
ENDBRANCH  59  73
BRANCH  60  81
ATOM     81  C   UNL A   1      39.236  32.206  35.514  1.00  0.00     0.057 A 
ATOM     82  C   UNL A   1      39.461  33.567  35.748  1.00  0.00     0.134 A 
ATOM     83  C   UNL A   1      38.408  31.523  36.415  1.00  0.00     0.134 A 
ATOM     84  F   UNL A   1      40.257  34.269  34.931  1.00  0.00    -0.206 F 
ATOM     85  C   UNL A   1      38.890  34.223  36.840  1.00  0.00     0.040 A 
ATOM     86  C   UNL A   1      37.810  32.173  37.495  1.00  0.00     0.040 A 
ATOM     87  F   UNL A   1      38.145  30.219  36.240  1.00  0.00    -0.206 F 
ATOM     88  C   UNL A   1      38.055  33.526  37.712  1.00  0.00     0.006 A 
ENDBRANCH  60  81
BRANCH  72  89
ATOM     89  C   UNL A   1      45.083  28.546  34.465  1.00  0.00     0.057 A 
ATOM     90  C   UNL A   1      45.098  27.354  35.198  1.00  0.00     0.134 A 
ATOM     91  C   UNL A   1      46.211  29.372  34.547  1.00  0.00     0.134 A 
ATOM     92  F   UNL A   1      44.042  26.527  35.175  1.00  0.00    -0.206 F 
ATOM     93  C   UNL A   1      46.191  27.000  35.992  1.00  0.00     0.040 A 
ATOM     94  C   UNL A   1      47.321  29.016  35.314  1.00  0.00     0.040 A 
ATOM     95  F   UNL A   1      46.263  30.525  33.864  1.00  0.00    -0.206 F 
ATOM     96  C   UNL A   1      47.311  27.829  36.043  1.00  0.00     0.006 A 
ENDBRANCH  72  89
ENDBRANCH  46  47
ENDBRANCH  38  41
ENDBRANCH  36  37
ENDBRANCH  35  36
ENDBRANCH  34  35
ENDBRANCH   3  34
TORSDOF 16
ENDMDL
