MODEL 1
REMARK VINA RESULT:     -11.2      0.000      0.000
REMARK SMILES C[C@@H]1CN(S(=O)(=O)[C@@H](C)C(=O)NCCCNC(=O)c2ccc(-c3c4nc(c(-c5c(F)cccc5F)c5ccc([nH]5)c(-c5c(F)cccc5F)c5nc(c(-c6c(F)cccc6F)c6ccc3[nH]6)C=C5)C=C4)cc2)CC[C@@H]1[NH3+]
REMARK SMILES IDX 13 1 12 2 10 3 11 4 8 6 9 7 5 8 6 9 7 10 4 11 1 12 2 13 3 14
REMARK SMILES IDX 75 15 74 16 73 17 76 18 14 22 15 23 16 24 17 25 18 27 19 28
REMARK SMILES IDX 20 29 72 30 21 31 71 32 22 33 23 34 24 35 65 36 25 37 70 38
REMARK SMILES IDX 64 39 66 40 26 41 69 42 63 43 62 44 27 46 53 47 36 48 52 49
REMARK SMILES IDX 37 50 40 51 51 52 67 53 38 54 39 55 50 57 68 58 41 59 28 60
REMARK SMILES IDX 29 61 34 62 30 63 31 64 33 65 35 66 32 67 54 68 55 69 60 70
REMARK SMILES IDX 56 71 57 72 59 73 61 74 58 75 42 76 43 77 48 78 44 79 45 80
REMARK SMILES IDX 47 81 49 82 46 83
REMARK H PARENT 12 5 76 19 76 20 76 21 16 26 66 45 40 56
REMARK Flexibility Score: inf
ROOT
ATOM      1  C   UNL A   1      31.683  29.082  25.351  1.00  0.00     0.117 C 
ENDROOT
BRANCH   1   2
ATOM      2  N   UNL A   1      31.087  28.515  24.141  1.00  0.00    -0.355 N 
ATOM      3  C   UNL A   1      31.551  27.936  23.001  1.00  0.00     0.239 C 
ATOM      4  O   UNL A   1      30.700  27.850  22.105  1.00  0.00    -0.274 OA
ATOM      5  H   UNL A   1      30.104  28.566  24.155  1.00  0.00     0.163 HD
BRANCH   3   6
ATOM      6  C   UNL A   1      32.917  27.318  22.797  1.00  0.00     0.210 C 
ATOM      7  C   UNL A   1      34.023  28.141  22.171  1.00  0.00     0.037 C 
BRANCH   6   8
ATOM      8  S   UNL A   1      32.892  25.597  22.276  1.00  0.00     0.225 S 
ATOM      9  O   UNL A   1      33.324  25.465  20.895  1.00  0.00    -0.211 OA
ATOM     10  O   UNL A   1      31.615  25.057  22.681  1.00  0.00    -0.211 OA
BRANCH   8  11
ATOM     11  N   UNL A   1      34.078  24.781  23.227  1.00  0.00    -0.200 NA
ATOM     12  C   UNL A   1      36.490  22.980  23.147  1.00  0.00     0.015 C 
ATOM     13  C   UNL A   1      35.156  22.638  23.838  1.00  0.00     0.059 C 
ATOM     14  C   UNL A   1      33.951  23.306  23.169  1.00  0.00     0.111 C 
ATOM     15  C   UNL A   1      35.119  23.018  25.325  1.00  0.00     0.186 C 
ATOM     16  C   UNL A   1      35.152  24.541  25.492  1.00  0.00     0.082 C 
ATOM     17  C   UNL A   1      34.059  25.231  24.666  1.00  0.00     0.108 C 
BRANCH  15  18
ATOM     18  N   UNL A   1      36.191  22.363  26.077  1.00  0.00    -0.355 N 
ATOM     19  H   UNL A   1      37.067  22.863  25.924  1.00  0.00     0.344 HD
ATOM     20  H   UNL A   1      36.289  21.398  25.759  1.00  0.00     0.344 HD
ATOM     21  H   UNL A   1      35.963  22.371  27.071  1.00  0.00     0.344 HD
ENDBRANCH  15  18
ENDBRANCH   8  11
ENDBRANCH   6   8
ENDBRANCH   3   6
ENDBRANCH   1   2
BRANCH   1  22
ATOM     22  C   UNL A   1      32.096  27.942  26.308  1.00  0.00     0.042 C 
BRANCH  22  23
ATOM     23  C   UNL A   1      33.259  28.235  27.247  1.00  0.00     0.118 C 
BRANCH  23  24
ATOM     24  N   UNL A   1      33.397  29.651  27.527  1.00  0.00    -0.352 N 
ATOM     25  C   UNL A   1      34.382  30.472  28.016  1.00  0.00     0.251 C 
ATOM     26  H   UNL A   1      32.577  30.151  27.310  1.00  0.00     0.163 HD
ATOM     27  O   UNL A   1      34.050  31.657  28.126  1.00  0.00    -0.269 OA
BRANCH  25  28
ATOM     28  C   UNL A   1      35.780  30.094  28.427  1.00  0.00     0.039 A 
ATOM     29  C   UNL A   1      36.766  30.223  27.425  1.00  0.00     0.014 A 
ATOM     30  C   UNL A   1      36.202  29.599  29.661  1.00  0.00     0.014 A 
ATOM     31  C   UNL A   1      38.103  29.843  27.628  1.00  0.00     0.010 A 
ATOM     32  C   UNL A   1      37.558  29.239  29.878  1.00  0.00     0.010 A 
ATOM     33  C   UNL A   1      38.523  29.338  28.862  1.00  0.00    -0.014 A 
BRANCH  33  34
ATOM     34  C   UNL A   1      39.942  28.901  29.064  1.00  0.00     0.031 A 
ATOM     35  C   UNL A   1      40.958  29.826  29.696  1.00  0.00     0.074 A 
ATOM     36  C   UNL A   1      40.349  27.666  28.699  1.00  0.00     0.049 A 
ATOM     37  N   UNL A   1      42.237  29.630  29.913  1.00  0.00    -0.248 NA
ATOM     38  C   UNL A   1      40.472  31.139  30.141  1.00  0.00     0.031 C 
ATOM     39  C   UNL A   1      39.498  26.637  28.106  1.00  0.00     0.029 A 
ATOM     40  N   UNL A   1      41.587  27.068  28.767  1.00  0.00    -0.354 N 
ATOM     41  C   UNL A   1      42.711  30.796  30.503  1.00  0.00     0.074 A 
ATOM     42  C   UNL A   1      41.587  31.705  30.586  1.00  0.00     0.031 C 
ATOM     43  C   UNL A   1      40.237  25.547  27.845  1.00  0.00     0.029 A 
ATOM     44  C   UNL A   1      41.620  25.797  28.241  1.00  0.00     0.049 A 
ATOM     45  H   UNL A   1      42.377  27.509  29.157  1.00  0.00     0.167 HD
ATOM     46  C   UNL A   1      43.959  31.083  30.951  1.00  0.00     0.037 A 
ATOM     47  C   UNL A   1      42.639  24.929  28.082  1.00  0.00     0.037 A 
ATOM     48  C   UNL A   1      45.082  30.181  30.921  1.00  0.00     0.049 A 
ATOM     49  C   UNL A   1      44.023  25.289  28.551  1.00  0.00     0.074 A 
ATOM     50  C   UNL A   1      46.360  30.382  31.422  1.00  0.00     0.029 A 
ATOM     51  N   UNL A   1      45.071  28.913  30.367  1.00  0.00    -0.354 N 
ATOM     52  N   UNL A   1      44.436  26.378  29.149  1.00  0.00    -0.248 NA
ATOM     53  C   UNL A   1      45.083  24.292  28.327  1.00  0.00     0.031 C 
ATOM     54  C   UNL A   1      47.132  29.252  31.133  1.00  0.00     0.029 A 
ATOM     55  C   UNL A   1      46.324  28.332  30.488  1.00  0.00     0.049 A 
ATOM     56  H   UNL A   1      44.288  28.487  29.947  1.00  0.00     0.167 HD
ATOM     57  C   UNL A   1      45.788  26.181  29.404  1.00  0.00     0.074 A 
ATOM     58  C   UNL A   1      46.128  24.869  28.901  1.00  0.00     0.031 C 
ATOM     59  C   UNL A   1      46.665  27.020  30.007  1.00  0.00     0.037 A 
BRANCH  46  60
ATOM     60  C   UNL A   1      44.197  32.450  31.524  1.00  0.00     0.057 A 
ATOM     61  C   UNL A   1      44.083  32.705  32.895  1.00  0.00     0.134 A 
ATOM     62  C   UNL A   1      44.629  33.499  30.702  1.00  0.00     0.134 A 
ATOM     63  F   UNL A   1      43.670  31.742  33.732  1.00  0.00    -0.206 F 
ATOM     64  C   UNL A   1      44.379  33.960  33.430  1.00  0.00     0.040 A 
ATOM     65  C   UNL A   1      44.948  34.753  31.228  1.00  0.00     0.040 A 
ATOM     66  F   UNL A   1      44.771  33.316  29.381  1.00  0.00    -0.206 F 
ATOM     67  C   UNL A   1      44.821  34.985  32.595  1.00  0.00     0.006 A 
ENDBRANCH  46  60
BRANCH  47  68
ATOM     68  C   UNL A   1      42.403  23.609  27.444  1.00  0.00     0.057 A 
ATOM     69  C   UNL A   1      42.136  22.469  28.213  1.00  0.00     0.134 A 
ATOM     70  C   UNL A   1      42.488  23.448  26.057  1.00  0.00     0.134 A 
ATOM     71  F   UNL A   1      42.074  22.558  29.550  1.00  0.00    -0.206 F 
ATOM     72  C   UNL A   1      41.983  21.212  27.627  1.00  0.00     0.040 A 
ATOM     73  C   UNL A   1      42.313  22.201  25.455  1.00  0.00     0.040 A 
ATOM     74  F   UNL A   1      42.749  24.500  25.268  1.00  0.00    -0.206 F 
ATOM     75  C   UNL A   1      42.068  21.077  26.243  1.00  0.00     0.006 A 
ENDBRANCH  47  68
BRANCH  59  76
ATOM     76  C   UNL A   1      48.070  26.532  30.201  1.00  0.00     0.057 A 
ATOM     77  C   UNL A   1      48.462  25.843  31.355  1.00  0.00     0.134 A 
ATOM     78  C   UNL A   1      49.038  26.727  29.207  1.00  0.00     0.134 A 
ATOM     79  F   UNL A   1      47.588  25.635  32.352  1.00  0.00    -0.206 F 
ATOM     80  C   UNL A   1      49.769  25.381  31.523  1.00  0.00     0.040 A 
ATOM     81  C   UNL A   1      50.343  26.251  29.352  1.00  0.00     0.040 A 
ATOM     82  F   UNL A   1      48.729  27.374  28.073  1.00  0.00    -0.206 F 
ATOM     83  C   UNL A   1      50.712  25.580  30.516  1.00  0.00     0.006 A 
ENDBRANCH  59  76
ENDBRANCH  33  34
ENDBRANCH  25  28
ENDBRANCH  23  24
ENDBRANCH  22  23
ENDBRANCH   1  22
TORSDOF 13
ENDMDL
MODEL 2
REMARK VINA RESULT:     -11.2      0.470      1.614
REMARK SMILES C[C@@H]1CN(S(=O)(=O)[C@@H](C)C(=O)NCCCNC(=O)c2ccc(-c3c4nc(c(-c5c(F)cccc5F)c5ccc([nH]5)c(-c5c(F)cccc5F)c5nc(c(-c6c(F)cccc6F)c6ccc3[nH]6)C=C5)C=C4)cc2)CC[C@@H]1[NH3+]
REMARK SMILES IDX 13 1 12 2 10 3 11 4 8 6 9 7 5 8 6 9 7 10 4 11 1 12 2 13 3 14
REMARK SMILES IDX 75 15 74 16 73 17 76 18 14 22 15 23 16 24 17 25 18 27 19 28
REMARK SMILES IDX 20 29 72 30 21 31 71 32 22 33 23 34 24 35 65 36 25 37 70 38
REMARK SMILES IDX 64 39 66 40 26 41 69 42 63 43 62 44 27 46 53 47 36 48 52 49
REMARK SMILES IDX 37 50 40 51 51 52 67 53 38 54 39 55 50 57 68 58 41 59 28 60
REMARK SMILES IDX 29 61 34 62 30 63 31 64 33 65 35 66 32 67 54 68 55 69 60 70
REMARK SMILES IDX 56 71 57 72 59 73 61 74 58 75 42 76 43 77 48 78 44 79 45 80
REMARK SMILES IDX 47 81 49 82 46 83
REMARK H PARENT 12 5 76 19 76 20 76 21 16 26 66 45 40 56
REMARK Flexibility Score: inf
ROOT
ATOM      1  C   UNL A   1      31.357  26.843  26.115  1.00  0.00     0.117 C 
ENDROOT
BRANCH   1   2
ATOM      2  N   UNL A   1      31.063  27.660  24.938  1.00  0.00    -0.355 N 
ATOM      3  C   UNL A   1      31.753  28.084  23.845  1.00  0.00     0.239 C 
ATOM      4  O   UNL A   1      31.191  28.999  23.226  1.00  0.00    -0.274 OA
ATOM      5  H   UNL A   1      30.134  27.984  24.936  1.00  0.00     0.163 HD
BRANCH   3   6
ATOM      6  C   UNL A   1      33.024  27.477  23.291  1.00  0.00     0.210 C 
ATOM      7  C   UNL A   1      34.025  28.362  22.580  1.00  0.00     0.037 C 
BRANCH   6   8
ATOM      8  S   UNL A   1      32.819  25.852  22.551  1.00  0.00     0.225 S 
ATOM      9  O   UNL A   1      33.624  25.722  21.348  1.00  0.00    -0.211 OA
ATOM     10  O   UNL A   1      31.398  25.596  22.491  1.00  0.00    -0.211 OA
BRANCH   8  11
ATOM     11  N   UNL A   1      33.460  24.715  23.679  1.00  0.00    -0.200 NA
ATOM     12  C   UNL A   1      33.424  23.800  26.548  1.00  0.00     0.015 C 
ATOM     13  C   UNL A   1      34.665  24.335  25.809  1.00  0.00     0.059 C 
ATOM     14  C   UNL A   1      34.316  25.346  24.712  1.00  0.00     0.111 C 
ATOM     15  C   UNL A   1      35.514  23.234  25.157  1.00  0.00     0.186 C 
ATOM     16  C   UNL A   1      34.748  22.575  24.004  1.00  0.00     0.082 C 
ATOM     17  C   UNL A   1      34.228  23.611  22.998  1.00  0.00     0.108 C 
BRANCH  15  18
ATOM     18  N   UNL A   1      35.970  22.250  26.140  1.00  0.00    -0.355 N 
ATOM     19  H   UNL A   1      36.132  21.356  25.676  1.00  0.00     0.344 HD
ATOM     20  H   UNL A   1      35.258  22.136  26.862  1.00  0.00     0.344 HD
ATOM     21  H   UNL A   1      36.838  22.573  26.567  1.00  0.00     0.344 HD
ENDBRANCH  15  18
ENDBRANCH   8  11
ENDBRANCH   6   8
ENDBRANCH   3   6
ENDBRANCH   1   2
BRANCH   1  22
ATOM     22  C   UNL A   1      31.815  27.752  27.277  1.00  0.00     0.042 C 
BRANCH  22  23
ATOM     23  C   UNL A   1      33.264  28.218  27.241  1.00  0.00     0.118 C 
BRANCH  23  24
ATOM     24  N   UNL A   1      33.392  29.634  27.528  1.00  0.00    -0.352 N 
ATOM     25  C   UNL A   1      34.373  30.458  28.020  1.00  0.00     0.251 C 
ATOM     26  H   UNL A   1      32.569  30.129  27.314  1.00  0.00     0.163 HD
ATOM     27  O   UNL A   1      34.034  31.641  28.135  1.00  0.00    -0.269 OA
BRANCH  25  28
ATOM     28  C   UNL A   1      35.774  30.088  28.427  1.00  0.00     0.039 A 
ATOM     29  C   UNL A   1      36.747  30.165  27.407  1.00  0.00     0.014 A 
ATOM     30  C   UNL A   1      36.210  29.645  29.677  1.00  0.00     0.014 A 
ATOM     31  C   UNL A   1      38.083  29.783  27.608  1.00  0.00     0.010 A 
ATOM     32  C   UNL A   1      37.566  29.284  29.890  1.00  0.00     0.010 A 
ATOM     33  C   UNL A   1      38.517  29.330  28.856  1.00  0.00    -0.014 A 
BRANCH  33  34
ATOM     34  C   UNL A   1      39.936  28.891  29.058  1.00  0.00     0.031 A 
ATOM     35  C   UNL A   1      40.951  29.811  29.698  1.00  0.00     0.074 A 
ATOM     36  C   UNL A   1      40.342  27.658  28.686  1.00  0.00     0.049 A 
ATOM     37  N   UNL A   1      42.230  29.613  29.915  1.00  0.00    -0.248 NA
ATOM     38  C   UNL A   1      40.465  31.122  30.151  1.00  0.00     0.031 C 
ATOM     39  C   UNL A   1      39.492  26.634  28.084  1.00  0.00     0.029 A 
ATOM     40  N   UNL A   1      41.580  27.059  28.751  1.00  0.00    -0.354 N 
ATOM     41  C   UNL A   1      42.704  30.775  30.513  1.00  0.00     0.074 A 
ATOM     42  C   UNL A   1      41.580  31.684  30.601  1.00  0.00     0.031 C 
ATOM     43  C   UNL A   1      40.231  25.545  27.817  1.00  0.00     0.029 A 
ATOM     44  C   UNL A   1      41.613  25.792  28.217  1.00  0.00     0.049 A 
ATOM     45  H   UNL A   1      42.369  27.497  29.145  1.00  0.00     0.167 HD
ATOM     46  C   UNL A   1      43.950  31.059  30.965  1.00  0.00     0.037 A 
ATOM     47  C   UNL A   1      42.632  24.924  28.054  1.00  0.00     0.037 A 
ATOM     48  C   UNL A   1      45.073  30.156  30.932  1.00  0.00     0.049 A 
ATOM     49  C   UNL A   1      44.016  25.280  28.526  1.00  0.00     0.074 A 
ATOM     50  C   UNL A   1      46.351  30.353  31.435  1.00  0.00     0.029 A 
ATOM     51  N   UNL A   1      45.062  28.891  30.368  1.00  0.00    -0.354 N 
ATOM     52  N   UNL A   1      44.429  26.365  29.133  1.00  0.00    -0.248 NA
ATOM     53  C   UNL A   1      45.076  24.284  28.297  1.00  0.00     0.031 C 
ATOM     54  C   UNL A   1      47.123  29.225  31.140  1.00  0.00     0.029 A 
ATOM     55  C   UNL A   1      46.315  28.309  30.488  1.00  0.00     0.049 A 
ATOM     56  H   UNL A   1      44.280  28.469  29.945  1.00  0.00     0.167 HD
ATOM     57  C   UNL A   1      45.780  26.166  29.389  1.00  0.00     0.074 A 
ATOM     58  C   UNL A   1      46.120  24.857  28.878  1.00  0.00     0.031 C 
ATOM     59  C   UNL A   1      46.657  27.000  29.998  1.00  0.00     0.037 A 
BRANCH  46  60
ATOM     60  C   UNL A   1      44.188  32.421  31.548  1.00  0.00     0.057 A 
ATOM     61  C   UNL A   1      44.555  33.511  30.751  1.00  0.00     0.134 A 
ATOM     62  C   UNL A   1      43.962  32.660  32.910  1.00  0.00     0.134 A 
ATOM     63  F   UNL A   1      44.790  33.345  29.441  1.00  0.00    -0.206 F 
ATOM     64  C   UNL A   1      44.701  34.791  31.289  1.00  0.00     0.040 A 
ATOM     65  C   UNL A   1      44.085  33.940  33.456  1.00  0.00     0.040 A 
ATOM     66  F   UNL A   1      43.596  31.660  33.726  1.00  0.00    -0.206 F 
ATOM     67  C   UNL A   1      44.457  35.008  32.644  1.00  0.00     0.006 A 
ENDBRANCH  46  60
BRANCH  47  68
ATOM     68  C   UNL A   1      42.396  23.609  27.406  1.00  0.00     0.057 A 
ATOM     69  C   UNL A   1      42.095  22.471  28.166  1.00  0.00     0.134 A 
ATOM     70  C   UNL A   1      42.515  23.449  26.022  1.00  0.00     0.134 A 
ATOM     71  F   UNL A   1      42.000  22.558  29.501  1.00  0.00    -0.206 F 
ATOM     72  C   UNL A   1      41.942  21.217  27.572  1.00  0.00     0.040 A 
ATOM     73  C   UNL A   1      42.340  22.206  25.412  1.00  0.00     0.040 A 
ATOM     74  F   UNL A   1      42.810  24.500  25.242  1.00  0.00    -0.206 F 
ATOM     75  C   UNL A   1      42.061  21.083  26.191  1.00  0.00     0.006 A 
ENDBRANCH  47  68
BRANCH  59  76
ATOM     76  C   UNL A   1      48.061  26.510  30.191  1.00  0.00     0.057 A 
ATOM     77  C   UNL A   1      49.062  26.738  29.239  1.00  0.00     0.134 A 
ATOM     78  C   UNL A   1      48.425  25.829  31.360  1.00  0.00     0.134 A 
ATOM     79  F   UNL A   1      48.777  27.372  28.091  1.00  0.00    -0.206 F 
ATOM     80  C   UNL A   1      50.371  26.289  29.432  1.00  0.00     0.040 A 
ATOM     81  C   UNL A   1      49.735  25.394  31.575  1.00  0.00     0.040 A 
ATOM     82  F   UNL A   1      47.517  25.582  32.316  1.00  0.00    -0.206 F 
ATOM     83  C   UNL A   1      50.711  25.620  30.607  1.00  0.00     0.006 A 
ENDBRANCH  59  76
ENDBRANCH  33  34
ENDBRANCH  25  28
ENDBRANCH  23  24
ENDBRANCH  22  23
ENDBRANCH   1  22
TORSDOF 13
ENDMDL
MODEL 3
REMARK VINA RESULT:     -10.9      1.282      2.153
REMARK SMILES C[C@@H]1CN(S(=O)(=O)[C@@H](C)C(=O)NCCCNC(=O)c2ccc(-c3c4nc(c(-c5c(F)cccc5F)c5ccc([nH]5)c(-c5c(F)cccc5F)c5nc(c(-c6c(F)cccc6F)c6ccc3[nH]6)C=C5)C=C4)cc2)CC[C@@H]1[NH3+]
REMARK SMILES IDX 13 1 12 2 10 3 11 4 8 6 9 7 5 8 6 9 7 10 4 11 1 12 2 13 3 14
REMARK SMILES IDX 75 15 74 16 73 17 76 18 14 22 15 23 16 24 17 25 18 27 19 28
REMARK SMILES IDX 20 29 72 30 21 31 71 32 22 33 23 34 24 35 65 36 25 37 70 38
REMARK SMILES IDX 64 39 66 40 26 41 69 42 63 43 62 44 27 46 53 47 36 48 52 49
REMARK SMILES IDX 37 50 40 51 51 52 67 53 38 54 39 55 50 57 68 58 41 59 28 60
REMARK SMILES IDX 29 61 34 62 30 63 31 64 33 65 35 66 32 67 54 68 55 69 60 70
REMARK SMILES IDX 56 71 57 72 59 73 61 74 58 75 42 76 43 77 48 78 44 79 45 80
REMARK SMILES IDX 47 81 49 82 46 83
REMARK H PARENT 12 5 76 19 76 20 76 21 16 26 66 45 40 56
REMARK Flexibility Score: inf
ROOT
ATOM      1  C   UNL A   1      32.268  28.095  24.101  1.00  0.00     0.117 C 
ENDROOT
BRANCH   1   2
ATOM      2  N   UNL A   1      32.765  27.354  22.941  1.00  0.00    -0.355 N 
ATOM      3  C   UNL A   1      33.461  26.203  22.741  1.00  0.00     0.239 C 
ATOM      4  O   UNL A   1      33.913  26.088  21.593  1.00  0.00    -0.274 OA
ATOM      5  H   UNL A   1      32.539  27.801  22.094  1.00  0.00     0.163 HD
BRANCH   3   6
ATOM      6  C   UNL A   1      33.615  25.063  23.724  1.00  0.00     0.210 C 
ATOM      7  C   UNL A   1      34.388  25.282  25.007  1.00  0.00     0.037 C 
BRANCH   6   8
ATOM      8  S   UNL A   1      33.879  23.452  22.970  1.00  0.00     0.225 S 
ATOM      9  O   UNL A   1      35.281  23.256  22.638  1.00  0.00    -0.211 OA
ATOM     10  O   UNL A   1      32.874  23.301  21.943  1.00  0.00    -0.211 OA
BRANCH   8  11
ATOM     11  N   UNL A   1      33.505  22.278  24.178  1.00  0.00    -0.200 NA
ATOM     12  C   UNL A   1      33.863  21.516  27.069  1.00  0.00     0.015 C 
ATOM     13  C   UNL A   1      34.345  20.678  25.870  1.00  0.00     0.059 C 
ATOM     14  C   UNL A   1      34.697  21.533  24.649  1.00  0.00     0.111 C 
ATOM     15  C   UNL A   1      33.329  19.623  25.409  1.00  0.00     0.186 C 
ATOM     16  C   UNL A   1      32.087  20.297  24.813  1.00  0.00     0.082 C 
ATOM     17  C   UNL A   1      32.453  21.302  23.714  1.00  0.00     0.108 C 
BRANCH  15  18
ATOM     18  N   UNL A   1      32.983  18.698  26.488  1.00  0.00    -0.355 N 
ATOM     19  H   UNL A   1      32.638  17.824  26.089  1.00  0.00     0.344 HD
ATOM     20  H   UNL A   1      32.258  19.114  27.074  1.00  0.00     0.344 HD
ATOM     21  H   UNL A   1      33.810  18.510  27.054  1.00  0.00     0.344 HD
ENDBRANCH  15  18
ENDBRANCH   8  11
ENDBRANCH   6   8
ENDBRANCH   3   6
ENDBRANCH   1   2
BRANCH   1  22
ATOM     22  C   UNL A   1      33.387  29.003  24.656  1.00  0.00     0.042 C 
BRANCH  22  23
ATOM     23  C   UNL A   1      33.853  28.712  26.076  1.00  0.00     0.118 C 
BRANCH  23  24
ATOM     24  N   UNL A   1      33.746  29.874  26.938  1.00  0.00    -0.352 N 
ATOM     25  C   UNL A   1      34.540  30.487  27.874  1.00  0.00     0.251 C 
ATOM     26  H   UNL A   1      32.888  30.341  26.821  1.00  0.00     0.163 HD
ATOM     27  O   UNL A   1      34.025  31.472  28.413  1.00  0.00    -0.269 OA
BRANCH  25  28
ATOM     28  C   UNL A   1      35.928  30.097  28.308  1.00  0.00     0.039 A 
ATOM     29  C   UNL A   1      36.936  30.243  27.331  1.00  0.00     0.014 A 
ATOM     30  C   UNL A   1      36.321  29.575  29.541  1.00  0.00     0.014 A 
ATOM     31  C   UNL A   1      38.267  29.855  27.556  1.00  0.00     0.010 A 
ATOM     32  C   UNL A   1      37.671  29.207  29.780  1.00  0.00     0.010 A 
ATOM     33  C   UNL A   1      38.658  29.324  28.787  1.00  0.00    -0.014 A 
BRANCH  33  34
ATOM     34  C   UNL A   1      40.072  28.878  29.012  1.00  0.00     0.031 A 
ATOM     35  C   UNL A   1      41.085  29.799  29.654  1.00  0.00     0.074 A 
ATOM     36  C   UNL A   1      40.475  27.639  28.658  1.00  0.00     0.049 A 
ATOM     37  N   UNL A   1      42.359  29.596  29.890  1.00  0.00    -0.248 NA
ATOM     38  C   UNL A   1      40.601  31.118  30.086  1.00  0.00     0.031 C 
ATOM     39  C   UNL A   1      39.627  26.613  28.057  1.00  0.00     0.029 A 
ATOM     40  N   UNL A   1      41.709  27.033  28.746  1.00  0.00    -0.354 N 
ATOM     41  C   UNL A   1      42.833  30.762  30.481  1.00  0.00     0.074 A 
ATOM     42  C   UNL A   1      41.713  31.678  30.545  1.00  0.00     0.031 C 
ATOM     43  C   UNL A   1      40.362  25.517  27.812  1.00  0.00     0.029 A 
ATOM     44  C   UNL A   1      41.741  25.760  28.226  1.00  0.00     0.049 A 
ATOM     45  H   UNL A   1      42.496  27.471  29.145  1.00  0.00     0.167 HD
ATOM     46  C   UNL A   1      44.076  31.043  30.945  1.00  0.00     0.037 A 
ATOM     47  C   UNL A   1      42.756  24.884  28.086  1.00  0.00     0.037 A 
ATOM     48  C   UNL A   1      45.193  30.133  30.936  1.00  0.00     0.049 A 
ATOM     49  C   UNL A   1      44.136  25.237  28.572  1.00  0.00     0.074 A 
ATOM     50  C   UNL A   1      46.465  30.328  31.454  1.00  0.00     0.029 A 
ATOM     51  N   UNL A   1      45.181  28.862  30.387  1.00  0.00    -0.354 N 
ATOM     52  N   UNL A   1      44.548  26.327  29.172  1.00  0.00    -0.248 NA
ATOM     53  C   UNL A   1      45.192  24.232  28.368  1.00  0.00     0.031 C 
ATOM     54  C   UNL A   1      47.234  29.192  31.181  1.00  0.00     0.029 A 
ATOM     55  C   UNL A   1      46.429  28.274  30.529  1.00  0.00     0.049 A 
ATOM     56  H   UNL A   1      44.402  28.440  29.958  1.00  0.00     0.167 HD
ATOM     57  C   UNL A   1      45.894  26.122  29.447  1.00  0.00     0.074 A 
ATOM     58  C   UNL A   1      46.233  24.805  28.955  1.00  0.00     0.031 C 
ATOM     59  C   UNL A   1      46.769  26.958  30.058  1.00  0.00     0.037 A 
BRANCH  46  60
ATOM     60  C   UNL A   1      44.314  32.410  31.516  1.00  0.00     0.057 A 
ATOM     61  C   UNL A   1      44.166  32.676  32.882  1.00  0.00     0.134 A 
ATOM     62  C   UNL A   1      44.783  33.449  30.700  1.00  0.00     0.134 A 
ATOM     63  F   UNL A   1      43.718  31.725  33.713  1.00  0.00    -0.206 F 
ATOM     64  C   UNL A   1      44.462  33.932  33.416  1.00  0.00     0.040 A 
ATOM     65  C   UNL A   1      45.102  34.702  31.225  1.00  0.00     0.040 A 
ATOM     66  F   UNL A   1      44.959  33.254  29.384  1.00  0.00    -0.206 F 
ATOM     67  C   UNL A   1      44.940  34.946  32.587  1.00  0.00     0.006 A 
ENDBRANCH  46  60
BRANCH  47  68
ATOM     68  C   UNL A   1      42.520  23.563  27.451  1.00  0.00     0.057 A 
ATOM     69  C   UNL A   1      42.598  23.403  26.061  1.00  0.00     0.134 A 
ATOM     70  C   UNL A   1      42.164  22.445  28.212  1.00  0.00     0.134 A 
ATOM     71  F   UNL A   1      42.905  24.448  25.279  1.00  0.00    -0.206 F 
ATOM     72  C   UNL A   1      42.308  22.182  25.450  1.00  0.00     0.040 A 
ATOM     73  C   UNL A   1      41.895  21.211  27.616  1.00  0.00     0.040 A 
ATOM     74  F   UNL A   1      42.065  22.537  29.546  1.00  0.00    -0.206 F 
ATOM     75  C   UNL A   1      41.959  21.081  26.229  1.00  0.00     0.006 A 
ENDBRANCH  47  68
BRANCH  59  76
ATOM     76  C   UNL A   1      48.167  26.462  30.274  1.00  0.00     0.057 A 
ATOM     77  C   UNL A   1      49.168  26.622  29.308  1.00  0.00     0.134 A 
ATOM     78  C   UNL A   1      48.527  25.843  31.478  1.00  0.00     0.134 A 
ATOM     79  F   UNL A   1      48.887  27.194  28.127  1.00  0.00    -0.206 F 
ATOM     80  C   UNL A   1      50.471  26.169  29.522  1.00  0.00     0.040 A 
ATOM     81  C   UNL A   1      49.832  25.404  31.714  1.00  0.00     0.040 A 
ATOM     82  F   UNL A   1      47.620  25.662  32.450  1.00  0.00    -0.206 F 
ATOM     83  C   UNL A   1      50.807  25.562  30.732  1.00  0.00     0.006 A 
ENDBRANCH  59  76
ENDBRANCH  33  34
ENDBRANCH  25  28
ENDBRANCH  23  24
ENDBRANCH  22  23
ENDBRANCH   1  22
TORSDOF 13
ENDMDL
