MODEL 1
REMARK VINA RESULT:     -12.4      0.000      0.000
REMARK SMILES O=C(NCCCNC(=O)c1cccn2c(=O)c3ccc(Cl)cc3nc12)c1ccc(-c2c3nc(c(-c4c(F)cccc4F)c4ccc([nH]4)c(-c4c(F)cccc4F)c4nc(c(-c5c(F)cccc5F)c5ccc2[nH]5)C=C4)C=C3)cc1
REMARK SMILES IDX 4 1 3 2 1 3 2 4 26 6 27 7 79 8 28 9 78 10 29 11 30 12 31 13
REMARK SMILES IDX 72 14 32 15 77 16 71 17 73 18 33 19 76 20 70 21 69 22 34 24
REMARK SMILES IDX 60 25 43 26 59 27 44 28 47 29 58 30 74 31 45 32 46 33 57 35
REMARK SMILES IDX 75 36 48 37 35 38 36 39 41 40 37 41 38 42 40 43 42 44 39 45
REMARK SMILES IDX 61 46 62 47 67 48 63 49 64 50 66 51 68 52 65 53 49 54 50 55
REMARK SMILES IDX 55 56 51 57 52 58 54 59 56 60 53 61 5 62 6 63 7 64 8 65 9 67
REMARK SMILES IDX 10 68 11 69 25 70 12 71 14 72 24 73 13 74 15 75 23 76 16 77
REMARK SMILES IDX 17 78 22 79 18 80 20 81 19 82 21 83
REMARK H PARENT 3 5 73 23 47 34 7 66
REMARK Flexibility Score: inf
ROOT
ATOM      1  C   UNL A   1      37.773  23.874  26.183  1.00  0.00     0.118 C 
ENDROOT
BRANCH   1   2
ATOM      2  N   UNL A   1      39.214  23.728  26.050  1.00  0.00    -0.352 N 
ATOM      3  O   UNL A   1      41.391  24.232  26.104  1.00  0.00    -0.269 OA
ATOM      4  C   UNL A   1      40.259  24.479  26.522  1.00  0.00     0.251 C 
ATOM      5  H   UNL A   1      39.490  22.944  25.523  1.00  0.00     0.163 HD
BRANCH   4   6
ATOM      6  C   UNL A   1      40.074  25.568  27.510  1.00  0.00     0.039 A 
ATOM      7  C   UNL A   1      40.796  26.755  27.328  1.00  0.00     0.014 A 
ATOM      8  C   UNL A   1      39.296  25.414  28.659  1.00  0.00     0.014 A 
ATOM      9  C   UNL A   1      40.727  27.776  28.281  1.00  0.00     0.010 A 
ATOM     10  C   UNL A   1      39.148  26.470  29.558  1.00  0.00     0.010 A 
ATOM     11  C   UNL A   1      39.897  27.645  29.403  1.00  0.00    -0.014 A 
BRANCH  11  12
ATOM     12  C   UNL A   1      39.893  28.671  30.479  1.00  0.00     0.031 A 
ATOM     13  C   UNL A   1      38.911  29.815  30.417  1.00  0.00     0.074 A 
ATOM     14  C   UNL A   1      40.766  28.593  31.500  1.00  0.00     0.049 A 
ATOM     15  N   UNL A   1      38.774  30.836  31.224  1.00  0.00    -0.248 NA
ATOM     16  C   UNL A   1      37.982  29.826  29.275  1.00  0.00     0.031 C 
ATOM     17  C   UNL A   1      41.792  27.561  31.665  1.00  0.00     0.029 A 
ATOM     18  N   UNL A   1      40.925  29.399  32.599  1.00  0.00    -0.354 N 
ATOM     19  C   UNL A   1      37.758  31.613  30.680  1.00  0.00     0.074 A 
ATOM     20  C   UNL A   1      37.362  30.984  29.439  1.00  0.00     0.031 C 
ATOM     21  C   UNL A   1      42.456  27.783  32.812  1.00  0.00     0.029 A 
ATOM     22  C   UNL A   1      41.918  28.981  33.450  1.00  0.00     0.049 A 
ATOM     23  H   UNL A   1      40.379  30.202  32.761  1.00  0.00     0.167 HD
ATOM     24  C   UNL A   1      37.177  32.731  31.179  1.00  0.00     0.037 A 
ATOM     25  C   UNL A   1      42.339  29.503  34.617  1.00  0.00     0.037 A 
ATOM     26  C   UNL A   1      37.539  33.343  32.428  1.00  0.00     0.049 A 
ATOM     27  C   UNL A   1      41.662  30.729  35.165  1.00  0.00     0.074 A 
ATOM     28  C   UNL A   1      37.003  34.468  33.031  1.00  0.00     0.029 A 
ATOM     29  N   UNL A   1      38.525  32.866  33.277  1.00  0.00    -0.354 N 
ATOM     30  N   UNL A   1      40.685  31.436  34.650  1.00  0.00    -0.248 NA
ATOM     31  C   UNL A   1      42.138  31.219  36.465  1.00  0.00     0.031 C 
ATOM     32  C   UNL A   1      37.676  34.679  34.241  1.00  0.00     0.029 A 
ATOM     33  C   UNL A   1      38.609  33.668  34.402  1.00  0.00     0.049 A 
ATOM     34  H   UNL A   1      39.084  32.073  33.107  1.00  0.00     0.167 HD
ATOM     35  C   UNL A   1      40.416  32.439  35.572  1.00  0.00     0.074 A 
ATOM     36  C   UNL A   1      41.318  32.235  36.688  1.00  0.00     0.031 C 
ATOM     37  C   UNL A   1      39.509  33.443  35.503  1.00  0.00     0.037 A 
BRANCH  24  38
ATOM     38  C   UNL A   1      36.072  33.341  30.367  1.00  0.00     0.057 A 
ATOM     39  C   UNL A   1      34.737  33.239  30.774  1.00  0.00     0.134 A 
ATOM     40  C   UNL A   1      36.336  34.044  29.184  1.00  0.00     0.134 A 
ATOM     41  F   UNL A   1      34.413  32.577  31.895  1.00  0.00    -0.206 F 
ATOM     42  C   UNL A   1      33.704  33.823  30.037  1.00  0.00     0.040 A 
ATOM     43  C   UNL A   1      35.315  34.656  28.454  1.00  0.00     0.040 A 
ATOM     44  F   UNL A   1      37.597  34.196  28.751  1.00  0.00    -0.206 F 
ATOM     45  C   UNL A   1      33.994  34.542  28.878  1.00  0.00     0.006 A 
ENDBRANCH  24  38
BRANCH  25  46
ATOM     46  C   UNL A   1      43.436  28.852  35.375  1.00  0.00     0.057 A 
ATOM     47  C   UNL A   1      43.176  27.870  36.337  1.00  0.00     0.134 A 
ATOM     48  C   UNL A   1      44.775  29.174  35.125  1.00  0.00     0.134 A 
ATOM     49  F   UNL A   1      41.913  27.522  36.626  1.00  0.00    -0.206 F 
ATOM     50  C   UNL A   1      44.209  27.229  37.022  1.00  0.00     0.040 A 
ATOM     51  C   UNL A   1      45.818  28.525  35.786  1.00  0.00     0.040 A 
ATOM     52  F   UNL A   1      45.085  30.093  34.198  1.00  0.00    -0.206 F 
ATOM     53  C   UNL A   1      45.536  27.550  36.740  1.00  0.00     0.006 A 
ENDBRANCH  25  46
BRANCH  37  54
ATOM     54  C   UNL A   1      39.432  34.368  36.681  1.00  0.00     0.057 A 
ATOM     55  C   UNL A   1      40.116  35.590  36.673  1.00  0.00     0.134 A 
ATOM     56  C   UNL A   1      38.682  34.050  37.820  1.00  0.00     0.134 A 
ATOM     57  F   UNL A   1      40.856  35.950  35.615  1.00  0.00    -0.206 F 
ATOM     58  C   UNL A   1      40.049  36.467  37.756  1.00  0.00     0.040 A 
ATOM     59  C   UNL A   1      38.589  34.929  38.899  1.00  0.00     0.040 A 
ATOM     60  F   UNL A   1      37.993  32.901  37.881  1.00  0.00    -0.206 F 
ATOM     61  C   UNL A   1      39.277  36.141  38.870  1.00  0.00     0.006 A 
ENDBRANCH  37  54
ENDBRANCH  11  12
ENDBRANCH   4   6
ENDBRANCH   1   2
BRANCH   1  62
ATOM     62  C   UNL A   1      37.020  23.517  24.907  1.00  0.00     0.042 C 
BRANCH  62  63
ATOM     63  C   UNL A   1      35.543  23.882  24.918  1.00  0.00     0.118 C 
BRANCH  63  64
ATOM     64  N   UNL A   1      34.838  23.355  26.077  1.00  0.00    -0.352 N 
ATOM     65  C   UNL A   1      33.517  23.408  26.426  1.00  0.00     0.255 C 
ATOM     66  H   UNL A   1      35.410  22.879  26.722  1.00  0.00     0.163 HD
ATOM     67  O   UNL A   1      33.170  22.918  27.498  1.00  0.00    -0.269 OA
BRANCH  65  68
ATOM     68  C   UNL A   1      32.531  24.010  25.495  1.00  0.00     0.083 A 
ATOM     69  C   UNL A   1      31.700  23.189  24.830  1.00  0.00     0.019 A 
ATOM     70  C   UNL A   1      32.310  25.495  25.412  1.00  0.00     0.153 A 
ATOM     71  C   UNL A   1      30.711  23.703  23.927  1.00  0.00     0.019 A 
ATOM     72  N   UNL A   1      31.296  25.930  24.548  1.00  0.00    -0.267 N 
ATOM     73  N   UNL A   1      33.039  26.310  26.112  1.00  0.00    -0.229 NA
ATOM     74  C   UNL A   1      30.542  25.023  23.813  1.00  0.00     0.096 A 
ATOM     75  C   UNL A   1      31.016  27.291  24.395  1.00  0.00     0.265 A 
ATOM     76  C   UNL A   1      32.758  27.679  26.076  1.00  0.00     0.080 A 
ATOM     77  O   UNL A   1      30.186  27.753  23.611  1.00  0.00    -0.268 OA
ATOM     78  C   UNL A   1      31.774  28.217  25.251  1.00  0.00     0.066 A 
ATOM     79  C   UNL A   1      33.467  28.535  26.924  1.00  0.00     0.049 A 
ATOM     80  C   UNL A   1      31.493  29.589  25.255  1.00  0.00     0.017 A 
ATOM     81  C   UNL A   1      33.187  29.902  26.939  1.00  0.00     0.043 A 
ATOM     82  C   UNL A   1      32.202  30.434  26.106  1.00  0.00     0.021 A 
ATOM     83  Cl  UNL A   1      34.054  30.943  28.001  1.00  0.00    -0.084 Cl
ENDBRANCH  65  68
ENDBRANCH  63  64
ENDBRANCH  62  63
ENDBRANCH   1  62
TORSDOF 10
ENDMDL
MODEL 2
REMARK VINA RESULT:     -12.4      1.316      2.311
REMARK SMILES O=C(NCCCNC(=O)c1cccn2c(=O)c3ccc(Cl)cc3nc12)c1ccc(-c2c3nc(c(-c4c(F)cccc4F)c4ccc([nH]4)c(-c4c(F)cccc4F)c4nc(c(-c5c(F)cccc5F)c5ccc2[nH]5)C=C4)C=C3)cc1
REMARK SMILES IDX 4 1 3 2 1 3 2 4 26 6 27 7 79 8 28 9 78 10 29 11 30 12 31 13
REMARK SMILES IDX 72 14 32 15 77 16 71 17 73 18 33 19 76 20 70 21 69 22 34 24
REMARK SMILES IDX 60 25 43 26 59 27 44 28 47 29 58 30 74 31 45 32 46 33 57 35
REMARK SMILES IDX 75 36 48 37 35 38 36 39 41 40 37 41 38 42 40 43 42 44 39 45
REMARK SMILES IDX 61 46 62 47 67 48 63 49 64 50 66 51 68 52 65 53 49 54 50 55
REMARK SMILES IDX 55 56 51 57 52 58 54 59 56 60 53 61 5 62 6 63 7 64 8 65 9 67
REMARK SMILES IDX 10 68 11 69 25 70 12 71 14 72 24 73 13 74 15 75 23 76 16 77
REMARK SMILES IDX 17 78 22 79 18 80 20 81 19 82 21 83
REMARK H PARENT 3 5 73 23 47 34 7 66
REMARK Flexibility Score: inf
ROOT
ATOM      1  C   UNL A   1      40.018  23.125  26.973  1.00  0.00     0.118 C 
ENDROOT
BRANCH   1   2
ATOM      2  N   UNL A   1      40.900  23.839  26.062  1.00  0.00    -0.352 N 
ATOM      3  O   UNL A   1      41.898  25.533  25.001  1.00  0.00    -0.269 OA
ATOM      4  C   UNL A   1      41.279  25.154  25.995  1.00  0.00     0.251 C 
ATOM      5  H   UNL A   1      41.298  23.271  25.363  1.00  0.00     0.163 HD
BRANCH   4   6
ATOM      6  C   UNL A   1      40.971  26.127  27.070  1.00  0.00     0.039 A 
ATOM      7  C   UNL A   1      41.601  27.377  27.032  1.00  0.00     0.014 A 
ATOM      8  C   UNL A   1      40.166  25.804  28.165  1.00  0.00     0.014 A 
ATOM      9  C   UNL A   1      41.416  28.294  28.071  1.00  0.00     0.010 A 
ATOM     10  C   UNL A   1      39.900  26.755  29.150  1.00  0.00     0.010 A 
ATOM     11  C   UNL A   1      40.557  27.993  29.138  1.00  0.00    -0.014 A 
BRANCH  11  12
ATOM     12  C   UNL A   1      40.431  28.907  30.303  1.00  0.00     0.031 A 
ATOM     13  C   UNL A   1      39.370  29.980  30.299  1.00  0.00     0.074 A 
ATOM     14  C   UNL A   1      41.264  28.793  31.354  1.00  0.00     0.049 A 
ATOM     15  N   UNL A   1      39.123  30.907  31.190  1.00  0.00    -0.248 NA
ATOM     16  C   UNL A   1      38.492  30.035  29.119  1.00  0.00     0.031 C 
ATOM     17  C   UNL A   1      42.357  27.826  31.472  1.00  0.00     0.029 A 
ATOM     18  N   UNL A   1      41.316  29.500  32.529  1.00  0.00    -0.354 N 
ATOM     19  C   UNL A   1      38.075  31.659  30.671  1.00  0.00     0.074 A 
ATOM     20  C   UNL A   1      37.781  31.126  29.359  1.00  0.00     0.031 C 
ATOM     21  C   UNL A   1      42.954  27.983  32.666  1.00  0.00     0.029 A 
ATOM     22  C   UNL A   1      42.301  29.073  33.385  1.00  0.00     0.049 A 
ATOM     23  H   UNL A   1      40.705  30.243  32.738  1.00  0.00     0.167 HD
ATOM     24  C   UNL A   1      37.392  32.680  31.242  1.00  0.00     0.037 A 
ATOM     25  C   UNL A   1      42.632  29.509  34.615  1.00  0.00     0.037 A 
ATOM     26  C   UNL A   1      37.655  33.193  32.559  1.00  0.00     0.049 A 
ATOM     27  C   UNL A   1      41.842  30.626  35.241  1.00  0.00     0.074 A 
ATOM     28  C   UNL A   1      37.011  34.215  33.237  1.00  0.00     0.029 A 
ATOM     29  N   UNL A   1      38.637  32.707  33.408  1.00  0.00    -0.354 N 
ATOM     30  N   UNL A   1      40.838  31.308  34.747  1.00  0.00    -0.248 NA
ATOM     31  C   UNL A   1      42.226  31.021  36.603  1.00  0.00     0.031 C 
ATOM     32  C   UNL A   1      37.614  34.355  34.493  1.00  0.00     0.029 A 
ATOM     33  C   UNL A   1      38.613  33.402  34.605  1.00  0.00     0.049 A 
ATOM     34  H   UNL A   1      39.260  31.976  33.192  1.00  0.00     0.167 HD
ATOM     35  C   UNL A   1      40.456  32.196  35.743  1.00  0.00     0.074 A 
ATOM     36  C   UNL A   1      41.323  31.950  36.878  1.00  0.00     0.031 C 
ATOM     37  C   UNL A   1      39.480  33.136  35.723  1.00  0.00     0.037 A 
BRANCH  24  38
ATOM     38  C   UNL A   1      36.280  33.286  30.438  1.00  0.00     0.057 A 
ATOM     39  C   UNL A   1      36.547  34.202  29.414  1.00  0.00     0.134 A 
ATOM     40  C   UNL A   1      34.939  32.950  30.672  1.00  0.00     0.134 A 
ATOM     41  F   UNL A   1      37.807  34.570  29.139  1.00  0.00    -0.206 F 
ATOM     42  C   UNL A   1      35.521  34.755  28.644  1.00  0.00     0.040 A 
ATOM     43  C   UNL A   1      33.907  33.474  29.892  1.00  0.00     0.040 A 
ATOM     44  F   UNL A   1      34.619  32.062  31.625  1.00  0.00    -0.206 F 
ATOM     45  C   UNL A   1      34.196  34.383  28.876  1.00  0.00     0.006 A 
ENDBRANCH  24  38
BRANCH  25  46
ATOM     46  C   UNL A   1      43.742  28.867  35.362  1.00  0.00     0.057 A 
ATOM     47  C   UNL A   1      45.066  29.294  35.213  1.00  0.00     0.134 A 
ATOM     48  C   UNL A   1      43.495  27.832  36.271  1.00  0.00     0.134 A 
ATOM     49  F   UNL A   1      45.367  30.278  34.353  1.00  0.00    -0.206 F 
ATOM     50  C   UNL A   1      46.105  28.717  35.944  1.00  0.00     0.040 A 
ATOM     51  C   UNL A   1      44.520  27.260  37.025  1.00  0.00     0.040 A 
ATOM     52  F   UNL A   1      42.242  27.395  36.470  1.00  0.00    -0.206 F 
ATOM     53  C   UNL A   1      45.831  27.702  36.861  1.00  0.00     0.006 A 
ENDBRANCH  25  46
BRANCH  37  54
ATOM     54  C   UNL A   1      39.284  33.936  36.977  1.00  0.00     0.057 A 
ATOM     55  C   UNL A   1      39.827  35.221  37.094  1.00  0.00     0.134 A 
ATOM     56  C   UNL A   1      38.560  33.434  38.065  1.00  0.00     0.134 A 
ATOM     57  F   UNL A   1      40.535  35.756  36.089  1.00  0.00    -0.206 F 
ATOM     58  C   UNL A   1      39.647  35.984  38.248  1.00  0.00     0.040 A 
ATOM     59  C   UNL A   1      38.355  34.196  39.216  1.00  0.00     0.040 A 
ATOM     60  F   UNL A   1      38.003  32.215  38.008  1.00  0.00    -0.206 F 
ATOM     61  C   UNL A   1      38.903  35.474  39.311  1.00  0.00     0.006 A 
ENDBRANCH  37  54
ENDBRANCH  11  12
ENDBRANCH   4   6
ENDBRANCH   1   2
BRANCH   1  62
ATOM     62  C   UNL A   1      38.799  22.533  26.277  1.00  0.00     0.042 C 
BRANCH  62  63
ATOM     63  C   UNL A   1      37.761  23.556  25.838  1.00  0.00     0.118 C 
BRANCH  63  64
ATOM     64  N   UNL A   1      37.411  23.439  24.430  1.00  0.00    -0.352 N 
ATOM     65  C   UNL A   1      36.268  22.999  23.823  1.00  0.00     0.255 C 
ATOM     66  H   UNL A   1      38.118  23.725  23.809  1.00  0.00     0.163 HD
ATOM     67  O   UNL A   1      36.234  22.954  22.595  1.00  0.00    -0.269 OA
BRANCH  65  68
ATOM     68  C   UNL A   1      35.089  22.632  24.644  1.00  0.00     0.083 A 
ATOM     69  C   UNL A   1      34.973  21.358  25.057  1.00  0.00     0.019 A 
ATOM     70  C   UNL A   1      34.130  23.662  25.176  1.00  0.00     0.153 A 
ATOM     71  C   UNL A   1      33.867  20.937  25.868  1.00  0.00     0.019 A 
ATOM     72  N   UNL A   1      33.101  23.191  26.003  1.00  0.00    -0.267 N 
ATOM     73  N   UNL A   1      34.270  24.914  24.867  1.00  0.00    -0.229 NA
ATOM     74  C   UNL A   1      32.985  21.839  26.305  1.00  0.00     0.096 A 
ATOM     75  C   UNL A   1      32.155  24.067  26.543  1.00  0.00     0.265 A 
ATOM     76  C   UNL A   1      33.414  25.859  25.440  1.00  0.00     0.080 A 
ATOM     77  O   UNL A   1      31.187  23.723  27.224  1.00  0.00    -0.268 OA
ATOM     78  C   UNL A   1      32.357  25.499  26.272  1.00  0.00     0.066 A 
ATOM     79  C   UNL A   1      33.646  27.216  25.197  1.00  0.00     0.049 A 
ATOM     80  C   UNL A   1      31.531  26.467  26.856  1.00  0.00     0.017 A 
ATOM     81  C   UNL A   1      32.832  28.186  25.782  1.00  0.00     0.043 A 
ATOM     82  C   UNL A   1      31.773  27.817  26.611  1.00  0.00     0.021 A 
ATOM     83  Cl  UNL A   1      33.141  29.853  25.490  1.00  0.00    -0.084 Cl
ENDBRANCH  65  68
ENDBRANCH  63  64
ENDBRANCH  62  63
ENDBRANCH   1  62
TORSDOF 10
ENDMDL
MODEL 3
REMARK VINA RESULT:     -12.4      5.616     10.234
REMARK SMILES O=C(NCCCNC(=O)c1cccn2c(=O)c3ccc(Cl)cc3nc12)c1ccc(-c2c3nc(c(-c4c(F)cccc4F)c4ccc([nH]4)c(-c4c(F)cccc4F)c4nc(c(-c5c(F)cccc5F)c5ccc2[nH]5)C=C4)C=C3)cc1
REMARK SMILES IDX 4 1 3 2 1 3 2 4 26 6 27 7 79 8 28 9 78 10 29 11 30 12 31 13
REMARK SMILES IDX 72 14 32 15 77 16 71 17 73 18 33 19 76 20 70 21 69 22 34 24
REMARK SMILES IDX 60 25 43 26 59 27 44 28 47 29 58 30 74 31 45 32 46 33 57 35
REMARK SMILES IDX 75 36 48 37 35 38 36 39 41 40 37 41 38 42 40 43 42 44 39 45
REMARK SMILES IDX 61 46 62 47 67 48 63 49 64 50 66 51 68 52 65 53 49 54 50 55
REMARK SMILES IDX 55 56 51 57 52 58 54 59 56 60 53 61 5 62 6 63 7 64 8 65 9 67
REMARK SMILES IDX 10 68 11 69 25 70 12 71 14 72 24 73 13 74 15 75 23 76 16 77
REMARK SMILES IDX 17 78 22 79 18 80 20 81 19 82 21 83
REMARK H PARENT 3 5 73 23 47 34 7 66
REMARK Flexibility Score: inf
ROOT
ATOM      1  C   UNL A   1      35.473  31.366  28.058  1.00  0.00     0.118 C 
ENDROOT
BRANCH   1   2
ATOM      2  N   UNL A   1      35.430  31.160  29.498  1.00  0.00    -0.352 N 
ATOM      3  O   UNL A   1      35.873  30.297  31.511  1.00  0.00    -0.269 OA
ATOM      4  C   UNL A   1      36.246  30.462  30.349  1.00  0.00     0.251 C 
ATOM      5  H   UNL A   1      34.674  31.607  29.943  1.00  0.00     0.163 HD
BRANCH   4   6
ATOM      6  C   UNL A   1      37.550  29.902  29.922  1.00  0.00     0.039 A 
ATOM      7  C   UNL A   1      38.395  29.369  30.903  1.00  0.00     0.014 A 
ATOM      8  C   UNL A   1      38.005  29.984  28.604  1.00  0.00     0.014 A 
ATOM      9  C   UNL A   1      39.673  28.913  30.564  1.00  0.00     0.010 A 
ATOM     10  C   UNL A   1      39.238  29.438  28.248  1.00  0.00     0.010 A 
ATOM     11  C   UNL A   1      40.104  28.939  29.230  1.00  0.00    -0.014 A 
BRANCH  11  12
ATOM     12  C   UNL A   1      41.495  28.561  28.866  1.00  0.00     0.031 A 
ATOM     13  C   UNL A   1      41.793  27.151  28.420  1.00  0.00     0.074 A 
ATOM     14  C   UNL A   1      42.490  29.463  28.943  1.00  0.00     0.049 A 
ATOM     15  N   UNL A   1      42.940  26.605  28.105  1.00  0.00    -0.248 NA
ATOM     16  C   UNL A   1      40.651  26.224  28.351  1.00  0.00     0.031 C 
ATOM     17  C   UNL A   1      42.348  30.849  29.393  1.00  0.00     0.029 A 
ATOM     18  N   UNL A   1      43.823  29.346  28.639  1.00  0.00    -0.354 N 
ATOM     19  C   UNL A   1      42.658  25.274  27.817  1.00  0.00     0.074 A 
ATOM     20  C   UNL A   1      41.247  25.078  28.062  1.00  0.00     0.031 C 
ATOM     21  C   UNL A   1      43.542  31.462  29.310  1.00  0.00     0.029 A 
ATOM     22  C   UNL A   1      44.534  30.507  28.823  1.00  0.00     0.049 A 
ATOM     23  H   UNL A   1      44.231  28.510  28.320  1.00  0.00     0.167 HD
ATOM     24  C   UNL A   1      43.487  24.306  27.355  1.00  0.00     0.037 A 
ATOM     25  C   UNL A   1      45.837  30.770  28.613  1.00  0.00     0.037 A 
ATOM     26  C   UNL A   1      44.883  24.501  27.076  1.00  0.00     0.049 A 
ATOM     27  C   UNL A   1      46.732  29.688  28.075  1.00  0.00     0.074 A 
ATOM     28  C   UNL A   1      45.807  23.590  26.592  1.00  0.00     0.029 A 
ATOM     29  N   UNL A   1      45.555  25.702  27.240  1.00  0.00    -0.354 N 
ATOM     30  N   UNL A   1      46.443  28.442  27.784  1.00  0.00    -0.248 NA
ATOM     31  C   UNL A   1      48.133  30.055  27.825  1.00  0.00     0.031 C 
ATOM     32  C   UNL A   1      47.042  24.239  26.476  1.00  0.00     0.029 A 
ATOM     33  C   UNL A   1      46.879  25.560  26.861  1.00  0.00     0.049 A 
ATOM     34  H   UNL A   1      45.151  26.535  27.577  1.00  0.00     0.167 HD
ATOM     35  C   UNL A   1      47.618  27.885  27.295  1.00  0.00     0.074 A 
ATOM     36  C   UNL A   1      48.617  28.935  27.310  1.00  0.00     0.031 C 
ATOM     37  C   UNL A   1      47.854  26.618  26.876  1.00  0.00     0.037 A 
BRANCH  24  38
ATOM     38  C   UNL A   1      42.881  22.956  27.110  1.00  0.00     0.057 A 
ATOM     39  C   UNL A   1      42.592  22.091  28.172  1.00  0.00     0.134 A 
ATOM     40  C   UNL A   1      42.571  22.516  25.815  1.00  0.00     0.134 A 
ATOM     41  F   UNL A   1      42.866  22.447  29.436  1.00  0.00    -0.206 F 
ATOM     42  C   UNL A   1      42.008  20.841  27.956  1.00  0.00     0.040 A 
ATOM     43  C   UNL A   1      41.962  21.281  25.589  1.00  0.00     0.040 A 
ATOM     44  F   UNL A   1      42.805  23.306  24.757  1.00  0.00    -0.206 F 
ATOM     45  C   UNL A   1      41.682  20.437  26.661  1.00  0.00     0.006 A 
ENDBRANCH  24  38
BRANCH  25  46
ATOM     46  C   UNL A   1      46.377  32.128  28.873  1.00  0.00     0.057 A 
ATOM     47  C   UNL A   1      46.373  33.117  27.883  1.00  0.00     0.134 A 
ATOM     48  C   UNL A   1      46.876  32.475  30.133  1.00  0.00     0.134 A 
ATOM     49  F   UNL A   1      45.912  32.844  26.654  1.00  0.00    -0.206 F 
ATOM     50  C   UNL A   1      46.843  34.405  28.139  1.00  0.00     0.040 A 
ATOM     51  C   UNL A   1      47.330  33.766  30.409  1.00  0.00     0.040 A 
ATOM     52  F   UNL A   1      46.885  31.574  31.127  1.00  0.00    -0.206 F 
ATOM     53  C   UNL A   1      47.316  34.735  29.409  1.00  0.00     0.006 A 
ENDBRANCH  25  46
BRANCH  37  54
ATOM     54  C   UNL A   1      49.234  26.318  26.372  1.00  0.00     0.057 A 
ATOM     55  C   UNL A   1      49.603  26.655  25.064  1.00  0.00     0.134 A 
ATOM     56  C   UNL A   1      50.194  25.697  27.180  1.00  0.00     0.134 A 
ATOM     57  F   UNL A   1      48.727  27.246  24.239  1.00  0.00    -0.206 F 
ATOM     58  C   UNL A   1      50.886  26.392  24.581  1.00  0.00     0.040 A 
ATOM     59  C   UNL A   1      51.486  25.451  26.715  1.00  0.00     0.040 A 
ATOM     60  F   UNL A   1      49.905  25.365  28.447  1.00  0.00    -0.206 F 
ATOM     61  C   UNL A   1      51.834  25.796  25.410  1.00  0.00     0.006 A 
ENDBRANCH  37  54
ENDBRANCH  11  12
ENDBRANCH   4   6
ENDBRANCH   1   2
BRANCH   1  62
ATOM     62  C   UNL A   1      34.326  30.680  27.327  1.00  0.00     0.042 C 
BRANCH  62  63
ATOM     63  C   UNL A   1      34.356  29.160  27.381  1.00  0.00     0.118 C 
BRANCH  63  64
ATOM     64  N   UNL A   1      33.102  28.584  27.844  1.00  0.00    -0.352 N 
ATOM     65  C   UNL A   1      32.037  28.079  27.152  1.00  0.00     0.255 C 
ATOM     66  H   UNL A   1      33.004  28.553  28.822  1.00  0.00     0.163 HD
ATOM     67  O   UNL A   1      31.058  27.686  27.782  1.00  0.00    -0.269 OA
BRANCH  65  68
ATOM     68  C   UNL A   1      32.098  27.976  25.673  1.00  0.00     0.083 A 
ATOM     69  C   UNL A   1      31.668  29.020  24.944  1.00  0.00     0.019 A 
ATOM     70  C   UNL A   1      32.785  26.833  24.978  1.00  0.00     0.153 A 
ATOM     71  C   UNL A   1      31.714  28.995  23.510  1.00  0.00     0.019 A 
ATOM     72  N   UNL A   1      32.839  26.893  23.578  1.00  0.00    -0.267 N 
ATOM     73  N   UNL A   1      33.290  25.853  25.662  1.00  0.00    -0.229 NA
ATOM     74  C   UNL A   1      32.280  27.960  22.885  1.00  0.00     0.096 A 
ATOM     75  C   UNL A   1      33.450  25.878  22.838  1.00  0.00     0.265 A 
ATOM     76  C   UNL A   1      33.993  24.845  24.995  1.00  0.00     0.080 A 
ATOM     77  O   UNL A   1      33.482  25.827  21.607  1.00  0.00    -0.268 OA
ATOM     78  C   UNL A   1      34.105  24.808  23.608  1.00  0.00     0.066 A 
ATOM     79  C   UNL A   1      34.637  23.859  25.749  1.00  0.00     0.049 A 
ATOM     80  C   UNL A   1      34.839  23.803  22.965  1.00  0.00     0.017 A 
ATOM     81  C   UNL A   1      35.376  22.860  25.116  1.00  0.00     0.043 A 
ATOM     82  C   UNL A   1      35.480  22.826  23.725  1.00  0.00     0.021 A 
ATOM     83  Cl  UNL A   1      36.179  21.662  26.056  1.00  0.00    -0.084 Cl
ENDBRANCH  65  68
ENDBRANCH  63  64
ENDBRANCH  62  63
ENDBRANCH   1  62
TORSDOF 10
ENDMDL
