MODEL 1
REMARK VINA RESULT:     -13.1      0.000      0.000
REMARK SMILES O=C(CCC(=O)N1N=C(c2ccc(F)cc2)C[C@@H]1c1ccc2nccnc2c1)NCCCNC(=O)c1ccc(-c2c3nc(c(-c4c(F)cccc4F)c4ccc([nH]4)c(-c4c(F)cccc4F)c4nc(c(-c5c(F)cccc5F)c5ccc2[nH]5)C=C4)C=C3)cc1
REMARK SMILES IDX 30 1 29 2 1 3 2 4 3 6 4 7 5 8 6 9 7 10 8 11 18 12 9 13 17 14
REMARK SMILES IDX 19 15 20 16 28 17 21 18 27 19 22 20 26 21 23 22 25 23 24 24
REMARK SMILES IDX 10 25 11 26 16 27 12 28 15 29 13 30 14 31 31 32 32 33 33 34
REMARK SMILES IDX 34 35 35 37 36 38 37 39 89 40 38 41 88 42 39 43 40 44 41 45
REMARK SMILES IDX 82 46 42 47 87 48 81 49 83 50 43 51 86 52 80 53 79 54 44 56
REMARK SMILES IDX 70 57 53 58 69 59 54 60 57 61 68 62 84 63 55 64 56 65 67 67
REMARK SMILES IDX 85 68 58 69 45 70 46 71 51 72 47 73 48 74 50 75 52 76 49 77
REMARK SMILES IDX 71 78 72 79 77 80 73 81 74 82 76 83 78 84 75 85 59 86 60 87
REMARK SMILES IDX 65 88 61 89 62 90 64 91 66 92 63 93
REMARK H PARENT 29 5 33 36 83 55 57 66
REMARK Flexibility Score: inf
ROOT
ATOM      1  C   UNL A   1      34.251  32.835  29.124  1.00  0.00     0.117 C 
ENDROOT
BRANCH   1   2
ATOM      2  N   UNL A   1      34.003  31.583  28.378  1.00  0.00    -0.356 N 
ATOM      3  O   UNL A   1      36.201  31.260  27.759  1.00  0.00    -0.275 OA
ATOM      4  C   UNL A   1      35.060  30.818  27.842  1.00  0.00     0.220 C 
ATOM      5  H   UNL A   1      33.077  31.275  28.252  1.00  0.00     0.163 HD
BRANCH   4   6
ATOM      6  C   UNL A   1      34.745  29.319  27.523  1.00  0.00     0.110 C 
BRANCH   6   7
ATOM      7  C   UNL A   1      33.299  29.081  26.962  1.00  0.00     0.112 C 
BRANCH   7   8
ATOM      8  C   UNL A   1      32.516  27.715  26.828  1.00  0.00     0.243 C 
ATOM      9  O   UNL A   1      31.604  27.478  27.627  1.00  0.00    -0.273 OA
BRANCH   8  10
ATOM     10  N   UNL A   1      32.717  26.913  25.707  1.00  0.00    -0.225 N 
ATOM     11  N   UNL A   1      34.003  26.322  25.495  1.00  0.00    -0.174 NA
ATOM     12  C   UNL A   1      31.689  26.074  25.167  1.00  0.00     0.147 C 
ATOM     13  C   UNL A   1      33.773  25.077  25.170  1.00  0.00     0.071 C 
ATOM     14  C   UNL A   1      32.341  24.713  25.336  1.00  0.00     0.091 C 
BRANCH  12  15
ATOM     15  C   UNL A   1      30.703  26.695  24.159  1.00  0.00    -0.021 A 
ATOM     16  C   UNL A   1      29.335  26.448  24.331  1.00  0.00     0.008 A 
ATOM     17  C   UNL A   1      30.990  27.774  23.307  1.00  0.00     0.036 A 
ATOM     18  C   UNL A   1      28.312  27.198  23.759  1.00  0.00     0.031 A 
ATOM     19  C   UNL A   1      29.977  28.571  22.716  1.00  0.00     0.089 A 
ATOM     20  C   UNL A   1      28.613  28.271  22.971  1.00  0.00     0.089 A 
ATOM     21  N   UNL A   1      30.270  29.649  21.959  1.00  0.00    -0.253 NA
ATOM     22  N   UNL A   1      27.584  29.005  22.514  1.00  0.00    -0.253 NA
ATOM     23  C   UNL A   1      29.226  30.390  21.502  1.00  0.00     0.132 A 
ATOM     24  C   UNL A   1      27.911  30.079  21.777  1.00  0.00     0.132 A 
ENDBRANCH  12  15
BRANCH  13  25
ATOM     25  C   UNL A   1      34.734  23.969  24.910  1.00  0.00    -0.002 A 
ATOM     26  C   UNL A   1      35.342  23.292  25.983  1.00  0.00     0.013 A 
ATOM     27  C   UNL A   1      35.180  23.701  23.618  1.00  0.00     0.013 A 
ATOM     28  C   UNL A   1      36.341  22.336  25.783  1.00  0.00     0.040 A 
ATOM     29  C   UNL A   1      36.206  22.761  23.414  1.00  0.00     0.040 A 
ATOM     30  C   UNL A   1      36.768  22.081  24.494  1.00  0.00     0.123 A 
ATOM     31  F   UNL A   1      37.745  21.189  24.290  1.00  0.00    -0.207 F 
ENDBRANCH  13  25
ENDBRANCH   8  10
ENDBRANCH   7   8
ENDBRANCH   6   7
ENDBRANCH   4   6
ENDBRANCH   1   2
BRANCH   1  32
ATOM     32  C   UNL A   1      33.565  34.232  28.807  1.00  0.00     0.042 C 
BRANCH  32  33
ATOM     33  C   UNL A   1      33.752  35.709  29.339  1.00  0.00     0.118 C 
BRANCH  33  34
ATOM     34  N   UNL A   1      32.910  36.237  30.401  1.00  0.00    -0.352 N 
ATOM     35  C   UNL A   1      32.754  35.899  31.725  1.00  0.00     0.251 C 
ATOM     36  H   UNL A   1      32.338  36.986  30.116  1.00  0.00     0.163 HD
ATOM     37  O   UNL A   1      31.942  36.452  32.440  1.00  0.00    -0.269 OA
BRANCH  35  38
ATOM     38  C   UNL A   1      33.753  35.054  32.339  1.00  0.00     0.039 A 
ATOM     39  C   UNL A   1      33.425  33.805  32.857  1.00  0.00     0.014 A 
ATOM     40  C   UNL A   1      35.024  35.618  32.448  1.00  0.00     0.014 A 
ATOM     41  C   UNL A   1      34.442  33.047  33.416  1.00  0.00     0.010 A 
ATOM     42  C   UNL A   1      36.036  34.854  32.978  1.00  0.00     0.010 A 
ATOM     43  C   UNL A   1      35.750  33.558  33.435  1.00  0.00    -0.014 A 
BRANCH  43  44
ATOM     44  C   UNL A   1      36.896  32.739  33.842  1.00  0.00     0.031 A 
ATOM     45  C   UNL A   1      37.619  33.075  35.103  1.00  0.00     0.074 A 
ATOM     46  C   UNL A   1      37.357  31.841  32.956  1.00  0.00     0.049 A 
ATOM     47  N   UNL A   1      38.778  32.648  35.518  1.00  0.00    -0.248 NA
ATOM     48  C   UNL A   1      36.970  34.052  35.994  1.00  0.00     0.031 C 
ATOM     49  C   UNL A   1      36.718  31.514  31.677  1.00  0.00     0.029 A 
ATOM     50  N   UNL A   1      38.487  31.074  32.971  1.00  0.00    -0.354 N 
ATOM     51  C   UNL A   1      39.010  33.314  36.712  1.00  0.00     0.074 A 
ATOM     52  C   UNL A   1      37.890  34.201  36.938  1.00  0.00     0.031 C 
ATOM     53  C   UNL A   1      37.469  30.611  31.029  1.00  0.00     0.029 A 
ATOM     54  C   UNL A   1      38.658  30.335  31.826  1.00  0.00     0.049 A 
ATOM     55  H   UNL A   1      39.117  31.053  33.727  1.00  0.00     0.167 HD
ATOM     56  C   UNL A   1      40.067  33.176  37.542  1.00  0.00     0.037 A 
ATOM     57  C   UNL A   1      39.679  29.541  31.461  1.00  0.00     0.037 A 
ATOM     58  C   UNL A   1      41.158  32.275  37.283  1.00  0.00     0.049 A 
ATOM     59  C   UNL A   1      40.837  29.402  32.404  1.00  0.00     0.074 A 
ATOM     60  C   UNL A   1      42.260  32.005  38.070  1.00  0.00     0.029 A 
ATOM     61  N   UNL A   1      41.275  31.495  36.138  1.00  0.00    -0.354 N 
ATOM     62  N   UNL A   1      41.030  29.995  33.559  1.00  0.00    -0.248 NA
ATOM     63  C   UNL A   1      41.915  28.492  32.003  1.00  0.00     0.031 C 
ATOM     64  C   UNL A   1      43.062  31.085  37.388  1.00  0.00     0.029 A 
ATOM     65  C   UNL A   1      42.438  30.751  36.193  1.00  0.00     0.049 A 
ATOM     66  H   UNL A   1      40.626  31.475  35.398  1.00  0.00     0.167 HD
ATOM     67  C   UNL A   1      42.240  29.516  34.035  1.00  0.00     0.074 A 
ATOM     68  C   UNL A   1      42.733  28.577  33.044  1.00  0.00     0.031 C 
ATOM     69  C   UNL A   1      42.887  29.822  35.186  1.00  0.00     0.037 A 
BRANCH  56  70
ATOM     70  C   UNL A   1      40.088  34.002  38.793  1.00  0.00     0.057 A 
ATOM     71  C   UNL A   1      39.429  33.570  39.950  1.00  0.00     0.134 A 
ATOM     72  C   UNL A   1      40.726  35.247  38.839  1.00  0.00     0.134 A 
ATOM     73  F   UNL A   1      38.798  32.386  39.974  1.00  0.00    -0.206 F 
ATOM     74  C   UNL A   1      39.397  34.351  41.107  1.00  0.00     0.040 A 
ATOM     75  C   UNL A   1      40.723  36.028  39.997  1.00  0.00     0.040 A 
ATOM     76  F   UNL A   1      41.389  35.713  37.769  1.00  0.00    -0.206 F 
ATOM     77  C   UNL A   1      40.049  35.583  41.133  1.00  0.00     0.006 A 
ENDBRANCH  56  70
BRANCH  57  78
ATOM     78  C   UNL A   1      39.609  28.807  30.177  1.00  0.00     0.057 A 
ATOM     79  C   UNL A   1      39.092  27.508  30.093  1.00  0.00     0.134 A 
ATOM     80  C   UNL A   1      40.136  29.369  29.009  1.00  0.00     0.134 A 
ATOM     81  F   UNL A   1      38.595  26.905  31.183  1.00  0.00    -0.206 F 
ATOM     82  C   UNL A   1      39.115  26.789  28.896  1.00  0.00     0.040 A 
ATOM     83  C   UNL A   1      40.147  28.668  27.802  1.00  0.00     0.040 A 
ATOM     84  F   UNL A   1      40.643  30.610  29.028  1.00  0.00    -0.206 F 
ATOM     85  C   UNL A   1      39.643  27.371  27.746  1.00  0.00     0.006 A 
ENDBRANCH  57  78
BRANCH  69  86
ATOM     86  C   UNL A   1      44.184  29.123  35.447  1.00  0.00     0.057 A 
ATOM     87  C   UNL A   1      45.386  29.661  34.975  1.00  0.00     0.134 A 
ATOM     88  C   UNL A   1      44.224  27.871  36.069  1.00  0.00     0.134 A 
ATOM     89  F   UNL A   1      45.405  30.854  34.362  1.00  0.00    -0.206 F 
ATOM     90  C   UNL A   1      46.588  28.963  35.090  1.00  0.00     0.040 A 
ATOM     91  C   UNL A   1      45.423  27.172  36.210  1.00  0.00     0.040 A 
ATOM     92  F   UNL A   1      43.103  27.313  36.550  1.00  0.00    -0.206 F 
ATOM     93  C   UNL A   1      46.607  27.713  35.708  1.00  0.00     0.006 A 
ENDBRANCH  69  86
ENDBRANCH  43  44
ENDBRANCH  35  38
ENDBRANCH  33  34
ENDBRANCH  32  33
ENDBRANCH   1  32
TORSDOF 15
ENDMDL
MODEL 2
REMARK VINA RESULT:     -12.9      2.437      6.616
REMARK SMILES O=C(CCC(=O)N1N=C(c2ccc(F)cc2)C[C@@H]1c1ccc2nccnc2c1)NCCCNC(=O)c1ccc(-c2c3nc(c(-c4c(F)cccc4F)c4ccc([nH]4)c(-c4c(F)cccc4F)c4nc(c(-c5c(F)cccc5F)c5ccc2[nH]5)C=C4)C=C3)cc1
REMARK SMILES IDX 30 1 29 2 1 3 2 4 3 6 4 7 5 8 6 9 7 10 8 11 18 12 9 13 17 14
REMARK SMILES IDX 19 15 20 16 28 17 21 18 27 19 22 20 26 21 23 22 25 23 24 24
REMARK SMILES IDX 10 25 11 26 16 27 12 28 15 29 13 30 14 31 31 32 32 33 33 34
REMARK SMILES IDX 34 35 35 37 36 38 37 39 89 40 38 41 88 42 39 43 40 44 41 45
REMARK SMILES IDX 82 46 42 47 87 48 81 49 83 50 43 51 86 52 80 53 79 54 44 56
REMARK SMILES IDX 70 57 53 58 69 59 54 60 57 61 68 62 84 63 55 64 56 65 67 67
REMARK SMILES IDX 85 68 58 69 45 70 46 71 51 72 47 73 48 74 50 75 52 76 49 77
REMARK SMILES IDX 71 78 72 79 77 80 73 81 74 82 76 83 78 84 75 85 59 86 60 87
REMARK SMILES IDX 65 88 61 89 62 90 64 91 66 92 63 93
REMARK H PARENT 29 5 33 36 83 55 57 66
REMARK Flexibility Score: inf
ROOT
ATOM      1  C   UNL A   1      31.692  30.089  25.494  1.00  0.00     0.117 C 
ENDROOT
BRANCH   1   2
ATOM      2  N   UNL A   1      31.937  28.675  25.849  1.00  0.00    -0.356 N 
ATOM      3  O   UNL A   1      33.844  28.457  24.570  1.00  0.00    -0.275 OA
ATOM      4  C   UNL A   1      33.101  27.997  25.432  1.00  0.00     0.220 C 
ATOM      5  H   UNL A   1      31.270  28.194  26.391  1.00  0.00     0.163 HD
BRANCH   4   6
ATOM      6  C   UNL A   1      33.492  26.717  26.242  1.00  0.00     0.110 C 
BRANCH   6   7
ATOM      7  C   UNL A   1      34.489  25.769  25.486  1.00  0.00     0.112 C 
BRANCH   7   8
ATOM      8  C   UNL A   1      34.623  24.199  25.605  1.00  0.00     0.243 C 
ATOM      9  O   UNL A   1      35.344  23.736  26.495  1.00  0.00    -0.273 OA
BRANCH   8  10
ATOM     10  N   UNL A   1      33.780  23.377  24.861  1.00  0.00    -0.225 N 
ATOM     11  N   UNL A   1      34.307  22.178  24.285  1.00  0.00    -0.174 NA
ATOM     12  C   UNL A   1      32.394  23.208  25.178  1.00  0.00     0.147 C 
ATOM     13  C   UNL A   1      33.429  21.244  24.541  1.00  0.00     0.071 C 
ATOM     14  C   UNL A   1      32.366  21.718  25.467  1.00  0.00     0.091 C 
BRANCH  12  15
ATOM     15  C   UNL A   1      31.392  24.229  24.605  1.00  0.00    -0.021 A 
ATOM     16  C   UNL A   1      30.377  24.705  25.445  1.00  0.00     0.008 A 
ATOM     17  C   UNL A   1      31.598  25.006  23.454  1.00  0.00     0.036 A 
ATOM     18  C   UNL A   1      29.634  25.860  25.221  1.00  0.00     0.031 A 
ATOM     19  C   UNL A   1      30.872  26.198  23.196  1.00  0.00     0.089 A 
ATOM     20  C   UNL A   1      29.883  26.627  24.119  1.00  0.00     0.089 A 
ATOM     21  N   UNL A   1      31.134  26.972  22.124  1.00  0.00    -0.253 NA
ATOM     22  N   UNL A   1      29.191  27.773  24.000  1.00  0.00    -0.253 NA
ATOM     23  C   UNL A   1      30.434  28.132  22.009  1.00  0.00     0.132 A 
ATOM     24  C   UNL A   1      29.487  28.528  22.929  1.00  0.00     0.132 A 
ENDBRANCH  12  15
BRANCH  13  25
ATOM     25  C   UNL A   1      33.480  19.784  24.250  1.00  0.00    -0.002 A 
ATOM     26  C   UNL A   1      34.581  19.015  24.671  1.00  0.00     0.013 A 
ATOM     27  C   UNL A   1      32.538  19.191  23.413  1.00  0.00     0.013 A 
ATOM     28  C   UNL A   1      34.727  17.675  24.309  1.00  0.00     0.040 A 
ATOM     29  C   UNL A   1      32.697  17.850  23.023  1.00  0.00     0.040 A 
ATOM     30  C   UNL A   1      33.781  17.103  23.481  1.00  0.00     0.123 A 
ATOM     31  F   UNL A   1      33.925  15.827  23.103  1.00  0.00    -0.207 F 
ENDBRANCH  13  25
ENDBRANCH   8  10
ENDBRANCH   7   8
ENDBRANCH   6   7
ENDBRANCH   4   6
ENDBRANCH   1   2
BRANCH   1  32
ATOM     32  C   UNL A   1      31.676  31.296  26.526  1.00  0.00     0.042 C 
BRANCH  32  33
ATOM     33  C   UNL A   1      32.788  32.150  27.257  1.00  0.00     0.118 C 
BRANCH  33  34
ATOM     34  N   UNL A   1      32.575  33.556  27.562  1.00  0.00    -0.352 N 
ATOM     35  C   UNL A   1      33.105  34.397  28.512  1.00  0.00     0.251 C 
ATOM     36  H   UNL A   1      31.922  33.994  26.969  1.00  0.00     0.163 HD
ATOM     37  O   UNL A   1      32.745  35.552  28.625  1.00  0.00    -0.269 OA
BRANCH  35  38
ATOM     38  C   UNL A   1      34.294  33.972  29.217  1.00  0.00     0.039 A 
ATOM     39  C   UNL A   1      34.213  33.227  30.389  1.00  0.00     0.014 A 
ATOM     40  C   UNL A   1      35.497  34.435  28.686  1.00  0.00     0.014 A 
ATOM     41  C   UNL A   1      35.398  32.844  30.998  1.00  0.00     0.010 A 
ATOM     42  C   UNL A   1      36.671  34.031  29.276  1.00  0.00     0.010 A 
ATOM     43  C   UNL A   1      36.621  33.212  30.414  1.00  0.00    -0.014 A 
BRANCH  43  44
ATOM     44  C   UNL A   1      37.901  32.689  30.903  1.00  0.00     0.031 A 
ATOM     45  C   UNL A   1      38.490  31.484  30.250  1.00  0.00     0.074 A 
ATOM     46  C   UNL A   1      38.384  33.208  32.043  1.00  0.00     0.049 A 
ATOM     47  N   UNL A   1      39.465  30.725  30.665  1.00  0.00    -0.248 NA
ATOM     48  C   UNL A   1      37.876  31.054  28.983  1.00  0.00     0.031 C 
ATOM     49  C   UNL A   1      37.810  34.354  32.757  1.00  0.00     0.029 A 
ATOM     50  N   UNL A   1      39.433  32.819  32.825  1.00  0.00    -0.354 N 
ATOM     51  C   UNL A   1      39.573  29.715  29.721  1.00  0.00     0.074 A 
ATOM     52  C   UNL A   1      38.542  29.936  28.731  1.00  0.00     0.031 C 
ATOM     53  C   UNL A   1      38.517  34.574  33.875  1.00  0.00     0.029 A 
ATOM     54  C   UNL A   1      39.559  33.559  33.975  1.00  0.00     0.049 A 
ATOM     55  H   UNL A   1      40.040  32.080  32.589  1.00  0.00     0.167 HD
ATOM     56  C   UNL A   1      40.469  28.703  29.694  1.00  0.00     0.037 A 
ATOM     57  C   UNL A   1      40.413  33.411  35.002  1.00  0.00     0.037 A 
ATOM     58  C   UNL A   1      41.484  28.526  30.697  1.00  0.00     0.049 A 
ATOM     59  C   UNL A   1      41.401  32.284  34.943  1.00  0.00     0.074 A 
ATOM     60  C   UNL A   1      42.483  27.574  30.754  1.00  0.00     0.029 A 
ATOM     61  N   UNL A   1      41.622  29.328  31.824  1.00  0.00    -0.354 N 
ATOM     62  N   UNL A   1      41.534  31.359  34.021  1.00  0.00    -0.248 NA
ATOM     63  C   UNL A   1      42.352  32.175  36.053  1.00  0.00     0.031 C 
ATOM     64  C   UNL A   1      43.208  27.779  31.932  1.00  0.00     0.029 A 
ATOM     65  C   UNL A   1      42.684  28.885  32.589  1.00  0.00     0.049 A 
ATOM     66  H   UNL A   1      41.049  30.097  32.044  1.00  0.00     0.167 HD
ATOM     67  C   UNL A   1      42.597  30.569  34.428  1.00  0.00     0.074 A 
ATOM     68  C   UNL A   1      43.077  31.129  35.678  1.00  0.00     0.031 C 
ATOM     69  C   UNL A   1      43.131  29.479  33.825  1.00  0.00     0.037 A 
BRANCH  56  70
ATOM     70  C   UNL A   1      40.396  27.735  28.553  1.00  0.00     0.057 A 
ATOM     71  C   UNL A   1      39.671  26.542  28.667  1.00  0.00     0.134 A 
ATOM     72  C   UNL A   1      41.079  27.963  27.352  1.00  0.00     0.134 A 
ATOM     73  F   UNL A   1      38.992  26.262  29.790  1.00  0.00    -0.206 F 
ATOM     74  C   UNL A   1      39.634  25.608  27.631  1.00  0.00     0.040 A 
ATOM     75  C   UNL A   1      41.030  27.048  26.298  1.00  0.00     0.040 A 
ATOM     76  F   UNL A   1      41.780  29.093  27.171  1.00  0.00    -0.206 F 
ATOM     77  C   UNL A   1      40.314  25.861  26.441  1.00  0.00     0.006 A 
ENDBRANCH  56  70
BRANCH  57  78
ATOM     78  C   UNL A   1      40.378  34.377  36.124  1.00  0.00     0.057 A 
ATOM     79  C   UNL A   1      39.554  34.187  37.240  1.00  0.00     0.134 A 
ATOM     80  C   UNL A   1      41.119  35.562  36.064  1.00  0.00     0.134 A 
ATOM     81  F   UNL A   1      38.800  33.082  37.346  1.00  0.00    -0.206 F 
ATOM     82  C   UNL A   1      39.458  35.147  38.250  1.00  0.00     0.040 A 
ATOM     83  C   UNL A   1      41.047  36.521  37.074  1.00  0.00     0.040 A 
ATOM     84  F   UNL A   1      41.926  35.799  35.020  1.00  0.00    -0.206 F 
ATOM     85  C   UNL A   1      40.208  36.318  38.168  1.00  0.00     0.006 A 
ENDBRANCH  57  78
BRANCH  69  86
ATOM     86  C   UNL A   1      44.304  28.833  34.494  1.00  0.00     0.057 A 
ATOM     87  C   UNL A   1      45.608  29.222  34.168  1.00  0.00     0.134 A 
ATOM     88  C   UNL A   1      44.140  27.758  35.374  1.00  0.00     0.134 A 
ATOM     89  F   UNL A   1      45.825  30.240  33.322  1.00  0.00    -0.206 F 
ATOM     90  C   UNL A   1      46.715  28.545  34.679  1.00  0.00     0.040 A 
ATOM     91  C   UNL A   1      45.240  27.087  35.908  1.00  0.00     0.040 A 
ATOM     92  F   UNL A   1      42.912  27.350  35.729  1.00  0.00    -0.206 F 
ATOM     93  C   UNL A   1      46.531  27.473  35.550  1.00  0.00     0.006 A 
ENDBRANCH  69  86
ENDBRANCH  43  44
ENDBRANCH  35  38
ENDBRANCH  33  34
ENDBRANCH  32  33
ENDBRANCH   1  32
TORSDOF 15
ENDMDL
MODEL 3
REMARK VINA RESULT:     -12.6      3.826      9.502
REMARK SMILES O=C(CCC(=O)N1N=C(c2ccc(F)cc2)C[C@@H]1c1ccc2nccnc2c1)NCCCNC(=O)c1ccc(-c2c3nc(c(-c4c(F)cccc4F)c4ccc([nH]4)c(-c4c(F)cccc4F)c4nc(c(-c5c(F)cccc5F)c5ccc2[nH]5)C=C4)C=C3)cc1
REMARK SMILES IDX 30 1 29 2 1 3 2 4 3 6 4 7 5 8 6 9 7 10 8 11 18 12 9 13 17 14
REMARK SMILES IDX 19 15 20 16 28 17 21 18 27 19 22 20 26 21 23 22 25 23 24 24
REMARK SMILES IDX 10 25 11 26 16 27 12 28 15 29 13 30 14 31 31 32 32 33 33 34
REMARK SMILES IDX 34 35 35 37 36 38 37 39 89 40 38 41 88 42 39 43 40 44 41 45
REMARK SMILES IDX 82 46 42 47 87 48 81 49 83 50 43 51 86 52 80 53 79 54 44 56
REMARK SMILES IDX 70 57 53 58 69 59 54 60 57 61 68 62 84 63 55 64 56 65 67 67
REMARK SMILES IDX 85 68 58 69 45 70 46 71 51 72 47 73 48 74 50 75 52 76 49 77
REMARK SMILES IDX 71 78 72 79 77 80 73 81 74 82 76 83 78 84 75 85 59 86 60 87
REMARK SMILES IDX 65 88 61 89 62 90 64 91 66 92 63 93
REMARK H PARENT 29 5 33 36 83 55 57 66
REMARK Flexibility Score: inf
ROOT
ATOM      1  C   UNL A   1      41.952  21.035  26.521  1.00  0.00     0.117 C 
ENDROOT
BRANCH   1   2
ATOM      2  N   UNL A   1      40.543  20.827  26.126  1.00  0.00    -0.356 N 
ATOM      3  O   UNL A   1      39.780  22.832  26.972  1.00  0.00    -0.275 OA
ATOM      4  C   UNL A   1      39.570  21.834  26.289  1.00  0.00     0.220 C 
ATOM      5  H   UNL A   1      40.277  19.961  25.739  1.00  0.00     0.163 HD
BRANCH   4   6
ATOM      6  C   UNL A   1      38.277  21.705  25.418  1.00  0.00     0.110 C 
BRANCH   6   7
ATOM      7  C   UNL A   1      37.525  23.064  25.195  1.00  0.00     0.112 C 
BRANCH   7   8
ATOM      8  C   UNL A   1      36.398  23.394  24.137  1.00  0.00     0.243 C 
ATOM      9  O   UNL A   1      36.594  23.093  22.955  1.00  0.00    -0.273 OA
BRANCH   8  10
ATOM     10  N   UNL A   1      35.144  23.813  24.575  1.00  0.00    -0.225 N 
ATOM     11  N   UNL A   1      35.047  24.988  25.385  1.00  0.00    -0.174 NA
ATOM     12  C   UNL A   1      33.960  23.655  23.784  1.00  0.00     0.147 C 
ATOM     13  C   UNL A   1      34.054  25.681  24.890  1.00  0.00     0.071 C 
ATOM     14  C   UNL A   1      33.562  25.109  23.609  1.00  0.00     0.091 C 
BRANCH  12  15
ATOM     15  C   UNL A   1      33.201  22.318  23.878  1.00  0.00    -0.021 A 
ATOM     16  C   UNL A   1      32.560  21.837  22.729  1.00  0.00     0.008 A 
ATOM     17  C   UNL A   1      33.384  21.352  24.881  1.00  0.00     0.036 A 
ATOM     18  C   UNL A   1      32.153  20.520  22.536  1.00  0.00     0.031 A 
ATOM     19  C   UNL A   1      32.997  19.997  24.718  1.00  0.00     0.089 A 
ATOM     20  C   UNL A   1      32.383  19.587  23.505  1.00  0.00     0.089 A 
ATOM     21  N   UNL A   1      33.247  19.067  25.662  1.00  0.00    -0.253 NA
ATOM     22  N   UNL A   1      32.042  18.317  23.228  1.00  0.00    -0.253 NA
ATOM     23  C   UNL A   1      32.903  17.784  25.376  1.00  0.00     0.132 A 
ATOM     24  C   UNL A   1      32.319  17.414  24.183  1.00  0.00     0.132 A 
ENDBRANCH  12  15
BRANCH  13  25
ATOM     25  C   UNL A   1      33.545  27.026  25.279  1.00  0.00    -0.002 A 
ATOM     26  C   UNL A   1      32.791  27.185  26.456  1.00  0.00     0.013 A 
ATOM     27  C   UNL A   1      33.652  28.107  24.407  1.00  0.00     0.013 A 
ATOM     28  C   UNL A   1      32.191  28.401  26.790  1.00  0.00     0.040 A 
ATOM     29  C   UNL A   1      33.024  29.324  24.726  1.00  0.00     0.040 A 
ATOM     30  C   UNL A   1      32.310  29.463  25.915  1.00  0.00     0.123 A 
ATOM     31  F   UNL A   1      31.715  30.625  26.209  1.00  0.00    -0.207 F 
ENDBRANCH  13  25
ENDBRANCH   8  10
ENDBRANCH   7   8
ENDBRANCH   6   7
ENDBRANCH   4   6
ENDBRANCH   1   2
BRANCH   1  32
ATOM     32  C   UNL A   1      43.006  21.900  25.706  1.00  0.00     0.042 C 
BRANCH  32  33
ATOM     33  C   UNL A   1      42.967  23.300  24.972  1.00  0.00     0.118 C 
BRANCH  33  34
ATOM     34  N   UNL A   1      44.159  24.125  24.862  1.00  0.00    -0.352 N 
ATOM     35  C   UNL A   1      44.495  25.356  25.375  1.00  0.00     0.251 C 
ATOM     36  H   UNL A   1      44.869  23.721  24.311  1.00  0.00     0.163 HD
ATOM     37  O   UNL A   1      45.551  25.897  25.114  1.00  0.00    -0.269 OA
BRANCH  35  38
ATOM     38  C   UNL A   1      43.688  25.894  26.448  1.00  0.00     0.039 A 
ATOM     39  C   UNL A   1      42.717  25.123  27.079  1.00  0.00     0.014 A 
ATOM     40  C   UNL A   1      43.898  27.243  26.730  1.00  0.00     0.014 A 
ATOM     41  C   UNL A   1      41.995  25.706  28.108  1.00  0.00     0.010 A 
ATOM     42  C   UNL A   1      43.201  27.810  27.769  1.00  0.00     0.010 A 
ATOM     43  C   UNL A   1      42.271  27.034  28.477  1.00  0.00    -0.014 A 
BRANCH  43  44
ATOM     44  C   UNL A   1      41.676  27.646  29.669  1.00  0.00     0.031 A 
ATOM     45  C   UNL A   1      40.481  28.525  29.516  1.00  0.00     0.074 A 
ATOM     46  C   UNL A   1      42.358  27.538  30.821  1.00  0.00     0.049 A 
ATOM     47  N   UNL A   1      39.953  29.344  30.381  1.00  0.00    -0.248 NA
ATOM     48  C   UNL A   1      39.816  28.510  28.202  1.00  0.00     0.031 C 
ATOM     49  C   UNL A   1      43.570  26.735  31.012  1.00  0.00     0.029 A 
ATOM     50  N   UNL A   1      42.158  28.136  32.033  1.00  0.00    -0.354 N 
ATOM     51  C   UNL A   1      38.903  29.957  29.715  1.00  0.00     0.074 A 
ATOM     52  C   UNL A   1      38.889  29.445  28.363  1.00  0.00     0.031 C 
ATOM     53  C   UNL A   1      44.007  26.892  32.270  1.00  0.00     0.029 A 
ATOM     54  C   UNL A   1      43.133  27.838  32.953  1.00  0.00     0.049 A 
ATOM     55  H   UNL A   1      41.392  28.722  32.228  1.00  0.00     0.167 HD
ATOM     56  C   UNL A   1      38.028  30.861  30.209  1.00  0.00     0.037 A 
ATOM     57  C   UNL A   1      43.305  28.302  34.202  1.00  0.00     0.037 A 
ATOM     58  C   UNL A   1      38.074  31.339  31.565  1.00  0.00     0.049 A 
ATOM     59  C   UNL A   1      42.317  29.300  34.728  1.00  0.00     0.074 A 
ATOM     60  C   UNL A   1      37.214  32.213  32.202  1.00  0.00     0.029 A 
ATOM     61  N   UNL A   1      39.042  30.975  32.493  1.00  0.00    -0.354 N 
ATOM     62  N   UNL A   1      41.292  29.841  34.111  1.00  0.00    -0.248 NA
ATOM     63  C   UNL A   1      42.500  29.753  36.110  1.00  0.00     0.031 C 
ATOM     64  C   UNL A   1      37.679  32.403  33.506  1.00  0.00     0.029 A 
ATOM     65  C   UNL A   1      38.808  31.616  33.695  1.00  0.00     0.049 A 
ATOM     66  H   UNL A   1      39.785  30.352  32.320  1.00  0.00     0.167 HD
ATOM     67  C   UNL A   1      40.693  30.682  35.035  1.00  0.00     0.074 A 
ATOM     68  C   UNL A   1      41.468  30.575  36.257  1.00  0.00     0.031 C 
ATOM     69  C   UNL A   1      39.602  31.473  34.889  1.00  0.00     0.037 A 
BRANCH  56  70
ATOM     70  C   UNL A   1      36.960  31.375  29.292  1.00  0.00     0.057 A 
ATOM     71  C   UNL A   1      37.014  32.677  28.783  1.00  0.00     0.134 A 
ATOM     72  C   UNL A   1      35.852  30.590  28.945  1.00  0.00     0.134 A 
ATOM     73  F   UNL A   1      38.048  33.481  29.075  1.00  0.00    -0.206 F 
ATOM     74  C   UNL A   1      36.001  33.186  27.968  1.00  0.00     0.040 A 
ATOM     75  C   UNL A   1      34.844  31.078  28.111  1.00  0.00     0.040 A 
ATOM     76  F   UNL A   1      35.747  29.328  29.387  1.00  0.00    -0.206 F 
ATOM     77  C   UNL A   1      34.913  32.383  27.628  1.00  0.00     0.006 A 
ENDBRANCH  56  70
BRANCH  57  78
ATOM     78  C   UNL A   1      44.426  27.789  35.023  1.00  0.00     0.057 A 
ATOM     79  C   UNL A   1      44.303  26.635  35.808  1.00  0.00     0.134 A 
ATOM     80  C   UNL A   1      45.631  28.495  35.099  1.00  0.00     0.134 A 
ATOM     81  F   UNL A   1      43.163  25.927  35.797  1.00  0.00    -0.206 F 
ATOM     82  C   UNL A   1      45.333  26.210  36.649  1.00  0.00     0.040 A 
ATOM     83  C   UNL A   1      46.676  28.071  35.922  1.00  0.00     0.040 A 
ATOM     84  F   UNL A   1      45.808  29.606  34.370  1.00  0.00    -0.206 F 
ATOM     85  C   UNL A   1      46.524  26.929  36.707  1.00  0.00     0.006 A 
ENDBRANCH  57  78
BRANCH  69  86
ATOM     86  C   UNL A   1      39.169  32.266  36.082  1.00  0.00     0.057 A 
ATOM     87  C   UNL A   1      38.232  31.743  36.980  1.00  0.00     0.134 A 
ATOM     88  C   UNL A   1      39.599  33.584  36.276  1.00  0.00     0.134 A 
ATOM     89  F   UNL A   1      37.778  30.489  36.836  1.00  0.00    -0.206 F 
ATOM     90  C   UNL A   1      37.716  32.513  38.020  1.00  0.00     0.040 A 
ATOM     91  C   UNL A   1      39.107  34.358  37.327  1.00  0.00     0.040 A 
ATOM     92  F   UNL A   1      40.505  34.133  35.452  1.00  0.00    -0.206 F 
ATOM     93  C   UNL A   1      38.153  33.826  38.194  1.00  0.00     0.006 A 
ENDBRANCH  69  86
ENDBRANCH  43  44
ENDBRANCH  35  38
ENDBRANCH  33  34
ENDBRANCH  32  33
ENDBRANCH   1  32
TORSDOF 15
ENDMDL
