MODEL 1
REMARK VINA RESULT:     -11.7      0.000      0.000
REMARK SMILES Nc1nonc1C(=O)N1[C@@H]2CC[C@H]1C[C@H](CC(=O)NCCCNC(=O)c1ccc(-c3c4nc(c(-c5c(F)cccc5F)c5ccc([nH]5)c(-c5c(F)cccc5F)c5nc(c(-c6c(F)cccc6F)c6ccc3[nH]6)C=C5)C=C4)cc1)C2
REMARK SMILES IDX 20 1 19 2 17 3 18 4 16 6 15 7 9 8 10 9 13 10 11 11 80 12
REMARK SMILES IDX 12 13 14 14 7 15 8 16 6 17 2 18 3 19 4 20 5 21 1 22 21 25
REMARK SMILES IDX 22 26 23 27 24 28 25 30 26 31 27 32 79 33 28 34 78 35 29 36
REMARK SMILES IDX 30 37 31 38 72 39 32 40 77 41 71 42 73 43 33 44 76 45 70 46
REMARK SMILES IDX 69 47 34 49 60 50 43 51 59 52 44 53 47 54 58 55 74 56 45 57
REMARK SMILES IDX 46 58 57 60 75 61 48 62 35 63 36 64 41 65 37 66 38 67 40 68
REMARK SMILES IDX 42 69 39 70 61 71 62 72 67 73 63 74 64 75 66 76 68 77 65 78
REMARK SMILES IDX 49 79 50 80 55 81 51 82 52 83 54 84 56 85 53 86
REMARK H PARENT 19 5 1 23 1 24 23 29 73 48 47 59
REMARK Flexibility Score: inf
ROOT
ATOM      1  C   UNL A   1      31.691  30.608  26.788  1.00  0.00     0.117 C 
ENDROOT
BRANCH   1   2
ATOM      2  N   UNL A   1      33.108  30.268  26.784  1.00  0.00    -0.356 N 
ATOM      3  C   UNL A   1      33.752  29.065  26.805  1.00  0.00     0.220 C 
ATOM      4  O   UNL A   1      34.983  29.070  26.852  1.00  0.00    -0.275 OA
ATOM      5  H   UNL A   1      33.709  31.047  26.763  1.00  0.00     0.163 HD
BRANCH   3   6
ATOM      6  C   UNL A   1      32.984  27.758  26.788  1.00  0.00     0.103 C 
BRANCH   6   7
ATOM      7  C   UNL A   1      32.584  27.298  25.369  1.00  0.00     0.002 C 
ATOM      8  N   UNL A   1      30.992  28.614  23.359  1.00  0.00    -0.331 N 
ATOM      9  C   UNL A   1      32.376  28.318  23.009  1.00  0.00     0.086 C 
ATOM     10  C   UNL A   1      30.473  27.350  23.848  1.00  0.00     0.086 C 
ATOM     11  C   UNL A   1      32.309  26.931  22.344  1.00  0.00     0.027 C 
ATOM     12  C   UNL A   1      33.172  28.280  24.321  1.00  0.00     0.029 C 
ATOM     13  C   UNL A   1      31.010  26.310  22.868  1.00  0.00     0.027 C 
ATOM     14  C   UNL A   1      31.051  27.155  25.253  1.00  0.00     0.029 C 
BRANCH   8  15
ATOM     15  C   UNL A   1      30.240  29.366  22.457  1.00  0.00     0.280 C 
ATOM     16  O   UNL A   1      30.678  29.652  21.343  1.00  0.00    -0.267 OA
BRANCH  15  17
ATOM     17  C   UNL A   1      28.942  29.822  22.950  1.00  0.00     0.216 A 
ATOM     18  C   UNL A   1      28.543  31.043  23.557  1.00  0.00     0.201 A 
ATOM     19  N   UNL A   1      27.241  31.004  23.823  1.00  0.00    -0.032 NA
ATOM     20  O   UNL A   1      26.821  29.748  23.415  1.00  0.00    -0.242 OA
ATOM     21  N   UNL A   1      27.871  29.015  22.888  1.00  0.00    -0.042 NA
BRANCH  18  22
ATOM     22  N   UNL A   1      29.317  32.093  23.880  1.00  0.00    -0.379 N 
ATOM     23  H   UNL A   1      30.113  32.303  23.340  1.00  0.00     0.158 HD
ATOM     24  H   UNL A   1      29.088  32.653  24.657  1.00  0.00     0.158 HD
ENDBRANCH  18  22
ENDBRANCH  15  17
ENDBRANCH   8  15
ENDBRANCH   6   7
ENDBRANCH   3   6
ENDBRANCH   1   2
BRANCH   1  25
ATOM     25  C   UNL A   1      31.458  32.118  26.888  1.00  0.00     0.042 C 
BRANCH  25  26
ATOM     26  C   UNL A   1      32.730  32.948  27.004  1.00  0.00     0.118 C 
BRANCH  26  27
ATOM     27  N   UNL A   1      32.516  34.155  27.780  1.00  0.00    -0.352 N 
ATOM     28  C   UNL A   1      33.172  34.638  28.886  1.00  0.00     0.251 C 
ATOM     29  H   UNL A   1      31.777  34.722  27.460  1.00  0.00     0.163 HD
ATOM     30  O   UNL A   1      32.660  35.570  29.503  1.00  0.00    -0.269 OA
BRANCH  28  31
ATOM     31  C   UNL A   1      34.465  34.075  29.362  1.00  0.00     0.039 A 
ATOM     32  C   UNL A   1      35.628  34.412  28.656  1.00  0.00     0.014 A 
ATOM     33  C   UNL A   1      34.553  33.150  30.405  1.00  0.00     0.014 A 
ATOM     34  C   UNL A   1      36.859  33.840  28.999  1.00  0.00     0.010 A 
ATOM     35  C   UNL A   1      35.794  32.636  30.797  1.00  0.00     0.010 A 
ATOM     36  C   UNL A   1      36.956  32.950  30.078  1.00  0.00    -0.014 A 
BRANCH  36  37
ATOM     37  C   UNL A   1      38.248  32.290  30.409  1.00  0.00     0.031 A 
ATOM     38  C   UNL A   1      39.182  32.912  31.416  1.00  0.00     0.074 A 
ATOM     39  C   UNL A   1      38.603  31.142  29.800  1.00  0.00     0.049 A 
ATOM     40  N   UNL A   1      40.355  32.495  31.826  1.00  0.00    -0.248 NA
ATOM     41  C   UNL A   1      38.752  34.180  32.026  1.00  0.00     0.031 C 
ATOM     42  C   UNL A   1      37.823  30.451  28.773  1.00  0.00     0.029 A 
ATOM     43  N   UNL A   1      39.715  30.354  29.962  1.00  0.00    -0.354 N 
ATOM     44  C   UNL A   1      40.813  33.462  32.712  1.00  0.00     0.074 A 
ATOM     45  C   UNL A   1      39.807  34.502  32.760  1.00  0.00     0.031 C 
ATOM     46  C   UNL A   1      38.468  29.326  28.417  1.00  0.00     0.029 A 
ATOM     47  C   UNL A   1      39.710  29.226  29.178  1.00  0.00     0.049 A 
ATOM     48  H   UNL A   1      40.449  30.576  30.581  1.00  0.00     0.167 HD
ATOM     49  C   UNL A   1      41.956  33.479  33.439  1.00  0.00     0.037 A 
ATOM     50  C   UNL A   1      40.599  28.218  29.092  1.00  0.00     0.037 A 
ATOM     51  C   UNL A   1      42.936  32.427  33.449  1.00  0.00     0.049 A 
ATOM     52  C   UNL A   1      41.821  28.220  29.965  1.00  0.00     0.074 A 
ATOM     53  C   UNL A   1      44.097  32.334  34.197  1.00  0.00     0.029 A 
ATOM     54  N   UNL A   1      42.860  31.275  32.683  1.00  0.00    -0.354 N 
ATOM     55  N   UNL A   1      42.214  29.119  30.832  1.00  0.00    -0.248 NA
ATOM     56  C   UNL A   1      42.714  27.056  29.857  1.00  0.00     0.031 C 
ATOM     57  C   UNL A   1      44.729  31.127  33.876  1.00  0.00     0.029 A 
ATOM     58  C   UNL A   1      43.952  30.463  32.943  1.00  0.00     0.049 A 
ATOM     59  H   UNL A   1      42.138  31.065  32.048  1.00  0.00     0.167 HD
ATOM     60  C   UNL A   1      43.384  28.622  31.389  1.00  0.00     0.074 A 
ATOM     61  C   UNL A   1      43.635  27.338  30.769  1.00  0.00     0.031 C 
ATOM     62  C   UNL A   1      44.179  29.181  32.333  1.00  0.00     0.037 A 
BRANCH  49  63
ATOM     63  C   UNL A   1      42.202  34.680  34.300  1.00  0.00     0.057 A 
ATOM     64  C   UNL A   1      41.860  34.694  35.658  1.00  0.00     0.134 A 
ATOM     65  C   UNL A   1      42.810  35.825  33.772  1.00  0.00     0.134 A 
ATOM     66  F   UNL A   1      41.262  33.632  36.218  1.00  0.00    -0.206 F 
ATOM     67  C   UNL A   1      42.095  35.813  36.457  1.00  0.00     0.040 A 
ATOM     68  C   UNL A   1      43.068  36.944  34.565  1.00  0.00     0.040 A 
ATOM     69  F   UNL A   1      43.165  35.874  32.480  1.00  0.00    -0.206 F 
ATOM     70  C   UNL A   1      42.705  36.942  35.911  1.00  0.00     0.006 A 
ENDBRANCH  49  63
BRANCH  50  71
ATOM     71  C   UNL A   1      40.334  27.083  28.176  1.00  0.00     0.057 A 
ATOM     72  C   UNL A   1      40.882  27.060  26.888  1.00  0.00     0.134 A 
ATOM     73  C   UNL A   1      39.532  26.005  28.563  1.00  0.00     0.134 A 
ATOM     74  F   UNL A   1      41.642  28.078  26.461  1.00  0.00    -0.206 F 
ATOM     75  C   UNL A   1      40.632  26.005  26.010  1.00  0.00     0.040 A 
ATOM     76  C   UNL A   1      39.287  24.936  27.699  1.00  0.00     0.040 A 
ATOM     77  F   UNL A   1      38.984  25.973  29.786  1.00  0.00    -0.206 F 
ATOM     78  C   UNL A   1      39.836  24.937  26.418  1.00  0.00     0.006 A 
ENDBRANCH  50  71
BRANCH  62  79
ATOM     79  C   UNL A   1      45.374  28.395  32.775  1.00  0.00     0.057 A 
ATOM     80  C   UNL A   1      46.619  28.539  32.153  1.00  0.00     0.134 A 
ATOM     81  C   UNL A   1      45.284  27.510  33.857  1.00  0.00     0.134 A 
ATOM     82  F   UNL A   1      46.764  29.363  31.105  1.00  0.00    -0.206 F 
ATOM     83  C   UNL A   1      47.734  27.817  32.582  1.00  0.00     0.040 A 
ATOM     84  C   UNL A   1      46.394  26.794  34.303  1.00  0.00     0.040 A 
ATOM     85  F   UNL A   1      44.118  27.333  34.496  1.00  0.00    -0.206 F 
ATOM     86  C   UNL A   1      47.623  26.944  33.664  1.00  0.00     0.006 A 
ENDBRANCH  62  79
ENDBRANCH  36  37
ENDBRANCH  28  31
ENDBRANCH  26  27
ENDBRANCH  25  26
ENDBRANCH   1  25
TORSDOF 14
ENDMDL
MODEL 2
REMARK VINA RESULT:     -11.7      1.432      2.110
REMARK SMILES Nc1nonc1C(=O)N1[C@@H]2CC[C@H]1C[C@H](CC(=O)NCCCNC(=O)c1ccc(-c3c4nc(c(-c5c(F)cccc5F)c5ccc([nH]5)c(-c5c(F)cccc5F)c5nc(c(-c6c(F)cccc6F)c6ccc3[nH]6)C=C5)C=C4)cc1)C2
REMARK SMILES IDX 20 1 19 2 17 3 18 4 16 6 15 7 9 8 10 9 13 10 11 11 80 12
REMARK SMILES IDX 12 13 14 14 7 15 8 16 6 17 2 18 3 19 4 20 5 21 1 22 21 25
REMARK SMILES IDX 22 26 23 27 24 28 25 30 26 31 27 32 79 33 28 34 78 35 29 36
REMARK SMILES IDX 30 37 31 38 72 39 32 40 77 41 71 42 73 43 33 44 76 45 70 46
REMARK SMILES IDX 69 47 34 49 60 50 43 51 59 52 44 53 47 54 58 55 74 56 45 57
REMARK SMILES IDX 46 58 57 60 75 61 48 62 35 63 36 64 41 65 37 66 38 67 40 68
REMARK SMILES IDX 42 69 39 70 61 71 62 72 67 73 63 74 64 75 66 76 68 77 65 78
REMARK SMILES IDX 49 79 50 80 55 81 51 82 52 83 54 84 56 85 53 86
REMARK H PARENT 19 5 1 23 1 24 23 29 73 48 47 59
REMARK Flexibility Score: inf
ROOT
ATOM      1  C   UNL A   1      31.694  30.685  26.778  1.00  0.00     0.117 C 
ENDROOT
BRANCH   1   2
ATOM      2  N   UNL A   1      33.105  30.323  26.805  1.00  0.00    -0.356 N 
ATOM      3  C   UNL A   1      33.730  29.112  26.862  1.00  0.00     0.220 C 
ATOM      4  O   UNL A   1      34.960  29.100  26.930  1.00  0.00    -0.275 OA
ATOM      5  H   UNL A   1      33.719  31.093  26.779  1.00  0.00     0.163 HD
BRANCH   3   6
ATOM      6  C   UNL A   1      32.942  27.817  26.858  1.00  0.00     0.103 C 
BRANCH   6   7
ATOM      7  C   UNL A   1      32.557  27.336  25.441  1.00  0.00     0.002 C 
ATOM      8  N   UNL A   1      30.979  28.618  23.399  1.00  0.00    -0.331 N 
ATOM      9  C   UNL A   1      32.367  28.323  23.066  1.00  0.00     0.086 C 
ATOM     10  C   UNL A   1      30.460  27.360  23.901  1.00  0.00     0.086 C 
ATOM     11  C   UNL A   1      32.311  26.927  22.420  1.00  0.00     0.027 C 
ATOM     12  C   UNL A   1      33.152  28.306  24.386  1.00  0.00     0.029 C 
ATOM     13  C   UNL A   1      31.010  26.308  22.940  1.00  0.00     0.027 C 
ATOM     14  C   UNL A   1      31.026  27.186  25.314  1.00  0.00     0.029 C 
BRANCH   8  15
ATOM     15  C   UNL A   1      30.233  29.356  22.481  1.00  0.00     0.280 C 
ATOM     16  O   UNL A   1      30.663  29.593  21.352  1.00  0.00    -0.267 OA
BRANCH  15  17
ATOM     17  C   UNL A   1      28.951  29.857  22.973  1.00  0.00     0.216 A 
ATOM     18  C   UNL A   1      28.590  31.102  23.553  1.00  0.00     0.201 A 
ATOM     19  N   UNL A   1      27.289  31.104  23.830  1.00  0.00    -0.032 NA
ATOM     20  O   UNL A   1      26.832  29.851  23.455  1.00  0.00    -0.242 OA
ATOM     21  N   UNL A   1      27.859  29.078  22.937  1.00  0.00    -0.042 NA
BRANCH  18  22
ATOM     22  N   UNL A   1      29.393  32.138  23.846  1.00  0.00    -0.379 N 
ATOM     23  H   UNL A   1      30.324  31.977  24.123  1.00  0.00     0.158 HD
ATOM     24  H   UNL A   1      29.052  33.060  23.783  1.00  0.00     0.158 HD
ENDBRANCH  18  22
ENDBRANCH  15  17
ENDBRANCH   8  15
ENDBRANCH   6   7
ENDBRANCH   3   6
ENDBRANCH   1   2
BRANCH   1  25
ATOM     25  C   UNL A   1      31.481  32.198  26.875  1.00  0.00     0.042 C 
BRANCH  25  26
ATOM     26  C   UNL A   1      32.766  33.017  26.906  1.00  0.00     0.118 C 
BRANCH  26  27
ATOM     27  N   UNL A   1      32.581  34.282  27.591  1.00  0.00    -0.352 N 
ATOM     28  C   UNL A   1      33.147  34.768  28.745  1.00  0.00     0.251 C 
ATOM     29  H   UNL A   1      31.943  34.893  27.157  1.00  0.00     0.163 HD
ATOM     30  O   UNL A   1      32.660  35.777  29.250  1.00  0.00    -0.269 OA
BRANCH  28  31
ATOM     31  C   UNL A   1      34.315  34.119  29.402  1.00  0.00     0.039 A 
ATOM     32  C   UNL A   1      35.596  34.442  28.932  1.00  0.00     0.014 A 
ATOM     33  C   UNL A   1      34.184  33.131  30.381  1.00  0.00     0.014 A 
ATOM     34  C   UNL A   1      36.725  33.795  29.447  1.00  0.00     0.010 A 
ATOM     35  C   UNL A   1      35.317  32.538  30.949  1.00  0.00     0.010 A 
ATOM     36  C   UNL A   1      36.598  32.839  30.465  1.00  0.00    -0.014 A 
BRANCH  36  37
ATOM     37  C   UNL A   1      37.787  32.102  30.972  1.00  0.00     0.031 A 
ATOM     38  C   UNL A   1      38.336  32.400  32.345  1.00  0.00     0.074 A 
ATOM     39  C   UNL A   1      38.394  31.176  30.205  1.00  0.00     0.049 A 
ATOM     40  N   UNL A   1      39.370  31.874  32.956  1.00  0.00    -0.248 NA
ATOM     41  C   UNL A   1      37.649  33.442  33.124  1.00  0.00     0.031 C 
ATOM     42  C   UNL A   1      38.002  30.816  28.842  1.00  0.00     0.029 A 
ATOM     43  N   UNL A   1      39.470  30.366  30.468  1.00  0.00    -0.354 N 
ATOM     44  C   UNL A   1      39.473  32.541  34.170  1.00  0.00     0.074 A 
ATOM     45  C   UNL A   1      38.418  33.531  34.199  1.00  0.00     0.031 C 
ATOM     46  C   UNL A   1      38.810  29.837  28.399  1.00  0.00     0.029 A 
ATOM     47  C   UNL A   1      39.782  29.512  29.439  1.00  0.00     0.049 A 
ATOM     48  H   UNL A   1      39.973  30.394  31.315  1.00  0.00     0.167 HD
ATOM     49  C   UNL A   1      40.351  32.339  35.181  1.00  0.00     0.037 A 
ATOM     50  C   UNL A   1      40.735  28.565  29.348  1.00  0.00     0.037 A 
ATOM     51  C   UNL A   1      41.367  31.321  35.193  1.00  0.00     0.049 A 
ATOM     52  C   UNL A   1      41.648  28.306  30.512  1.00  0.00     0.074 A 
ATOM     53  C   UNL A   1      42.265  31.007  36.199  1.00  0.00     0.029 A 
ATOM     54  N   UNL A   1      41.609  30.439  34.152  1.00  0.00    -0.354 N 
ATOM     55  N   UNL A   1      41.700  28.913  31.671  1.00  0.00    -0.248 NA
ATOM     56  C   UNL A   1      42.624  27.216  30.360  1.00  0.00     0.031 C 
ATOM     57  C   UNL A   1      43.058  29.940  35.761  1.00  0.00     0.029 A 
ATOM     58  C   UNL A   1      42.639  29.579  34.491  1.00  0.00     0.049 A 
ATOM     59  H   UNL A   1      41.120  30.427  33.297  1.00  0.00     0.167 HD
ATOM     60  C   UNL A   1      42.694  28.268  32.393  1.00  0.00     0.074 A 
ATOM     61  C   UNL A   1      43.215  27.216  31.546  1.00  0.00     0.031 C 
ATOM     62  C   UNL A   1      43.134  28.526  33.648  1.00  0.00     0.037 A 
BRANCH  49  63
ATOM     63  C   UNL A   1      40.242  33.239  36.374  1.00  0.00     0.057 A 
ATOM     64  C   UNL A   1      41.039  34.382  36.508  1.00  0.00     0.134 A 
ATOM     65  C   UNL A   1      39.313  32.973  37.387  1.00  0.00     0.134 A 
ATOM     66  F   UNL A   1      41.958  34.682  35.577  1.00  0.00    -0.206 F 
ATOM     67  C   UNL A   1      40.932  35.220  37.618  1.00  0.00     0.040 A 
ATOM     68  C   UNL A   1      39.182  33.814  38.493  1.00  0.00     0.040 A 
ATOM     69  F   UNL A   1      38.518  31.896  37.316  1.00  0.00    -0.206 F 
ATOM     70  C   UNL A   1      39.996  34.939  38.613  1.00  0.00     0.006 A 
ENDBRANCH  49  63
BRANCH  50  71
ATOM     71  C   UNL A   1      40.838  27.745  28.118  1.00  0.00     0.057 A 
ATOM     72  C   UNL A   1      40.174  26.517  28.018  1.00  0.00     0.134 A 
ATOM     73  C   UNL A   1      41.599  28.165  27.022  1.00  0.00     0.134 A 
ATOM     74  F   UNL A   1      39.447  26.058  29.047  1.00  0.00    -0.206 F 
ATOM     75  C   UNL A   1      40.272  25.728  26.872  1.00  0.00     0.040 A 
ATOM     76  C   UNL A   1      41.693  27.392  25.864  1.00  0.00     0.040 A 
ATOM     77  F   UNL A   1      42.254  29.334  27.061  1.00  0.00    -0.206 F 
ATOM     78  C   UNL A   1      41.029  26.168  25.789  1.00  0.00     0.006 A 
ENDBRANCH  50  71
BRANCH  62  79
ATOM     79  C   UNL A   1      44.208  27.636  34.192  1.00  0.00     0.057 A 
ATOM     80  C   UNL A   1      45.564  27.966  34.079  1.00  0.00     0.134 A 
ATOM     81  C   UNL A   1      43.880  26.454  34.868  1.00  0.00     0.134 A 
ATOM     82  F   UNL A   1      45.940  29.080  33.433  1.00  0.00    -0.206 F 
ATOM     83  C   UNL A   1      46.559  27.142  34.605  1.00  0.00     0.040 A 
ATOM     84  C   UNL A   1      44.866  25.630  35.410  1.00  0.00     0.040 A 
ATOM     85  F   UNL A   1      42.598  26.086  35.012  1.00  0.00    -0.206 F 
ATOM     86  C   UNL A   1      46.210  25.971  35.277  1.00  0.00     0.006 A 
ENDBRANCH  62  79
ENDBRANCH  36  37
ENDBRANCH  28  31
ENDBRANCH  26  27
ENDBRANCH  25  26
ENDBRANCH   1  25
TORSDOF 14
ENDMDL
MODEL 3
REMARK VINA RESULT:     -11.7      5.260      9.678
REMARK SMILES Nc1nonc1C(=O)N1[C@@H]2CC[C@H]1C[C@H](CC(=O)NCCCNC(=O)c1ccc(-c3c4nc(c(-c5c(F)cccc5F)c5ccc([nH]5)c(-c5c(F)cccc5F)c5nc(c(-c6c(F)cccc6F)c6ccc3[nH]6)C=C5)C=C4)cc1)C2
REMARK SMILES IDX 20 1 19 2 17 3 18 4 16 6 15 7 9 8 10 9 13 10 11 11 80 12
REMARK SMILES IDX 12 13 14 14 7 15 8 16 6 17 2 18 3 19 4 20 5 21 1 22 21 25
REMARK SMILES IDX 22 26 23 27 24 28 25 30 26 31 27 32 79 33 28 34 78 35 29 36
REMARK SMILES IDX 30 37 31 38 72 39 32 40 77 41 71 42 73 43 33 44 76 45 70 46
REMARK SMILES IDX 69 47 34 49 60 50 43 51 59 52 44 53 47 54 58 55 74 56 45 57
REMARK SMILES IDX 46 58 57 60 75 61 48 62 35 63 36 64 41 65 37 66 38 67 40 68
REMARK SMILES IDX 42 69 39 70 61 71 62 72 67 73 63 74 64 75 66 76 68 77 65 78
REMARK SMILES IDX 49 79 50 80 55 81 51 82 52 83 54 84 56 85 53 86
REMARK H PARENT 19 5 1 23 1 24 23 29 73 48 47 59
REMARK Flexibility Score: inf
ROOT
ATOM      1  C   UNL A   1      37.250  20.739  24.817  1.00  0.00     0.117 C 
ENDROOT
BRANCH   1   2
ATOM      2  N   UNL A   1      37.487  21.862  25.715  1.00  0.00    -0.356 N 
ATOM      3  C   UNL A   1      37.088  23.165  25.663  1.00  0.00     0.220 C 
ATOM      4  O   UNL A   1      37.486  23.927  26.546  1.00  0.00    -0.275 OA
ATOM      5  H   UNL A   1      38.036  21.640  26.501  1.00  0.00     0.163 HD
BRANCH   3   6
ATOM      6  C   UNL A   1      36.194  23.673  24.549  1.00  0.00     0.103 C 
BRANCH   6   7
ATOM      7  C   UNL A   1      34.705  23.309  24.740  1.00  0.00     0.002 C 
ATOM      8  N   UNL A   1      33.437  20.741  25.057  1.00  0.00    -0.331 N 
ATOM      9  C   UNL A   1      33.295  21.683  26.160  1.00  0.00     0.086 C 
ATOM     10  C   UNL A   1      33.037  21.503  23.888  1.00  0.00     0.086 C 
ATOM     11  C   UNL A   1      31.991  22.437  25.848  1.00  0.00     0.027 C 
ATOM     12  C   UNL A   1      34.515  22.615  26.115  1.00  0.00     0.029 C 
ATOM     13  C   UNL A   1      31.796  22.270  24.337  1.00  0.00     0.027 C 
ATOM     14  C   UNL A   1      34.199  22.447  23.564  1.00  0.00     0.029 C 
BRANCH   8  15
ATOM     15  C   UNL A   1      32.948  19.448  25.238  1.00  0.00     0.280 C 
ATOM     16  O   UNL A   1      32.376  19.122  26.279  1.00  0.00    -0.267 OA
BRANCH  15  17
ATOM     17  C   UNL A   1      33.209  18.519  24.142  1.00  0.00     0.216 A 
ATOM     18  C   UNL A   1      34.247  17.570  23.941  1.00  0.00     0.201 A 
ATOM     19  N   UNL A   1      34.055  16.935  22.788  1.00  0.00    -0.032 NA
ATOM     20  O   UNL A   1      32.914  17.503  22.243  1.00  0.00    -0.242 OA
ATOM     21  N   UNL A   1      32.399  18.487  23.071  1.00  0.00    -0.042 NA
BRANCH  18  22
ATOM     22  N   UNL A   1      35.310  17.334  24.729  1.00  0.00    -0.379 N 
ATOM     23  H   UNL A   1      35.459  16.433  25.097  1.00  0.00     0.158 HD
ATOM     24  H   UNL A   1      35.940  18.061  24.938  1.00  0.00     0.158 HD
ENDBRANCH  18  22
ENDBRANCH  15  17
ENDBRANCH   8  15
ENDBRANCH   6   7
ENDBRANCH   3   6
ENDBRANCH   1   2
BRANCH   1  25
ATOM     25  C   UNL A   1      38.296  19.635  24.980  1.00  0.00     0.042 C 
BRANCH  25  26
ATOM     26  C   UNL A   1      39.297  19.872  26.105  1.00  0.00     0.118 C 
BRANCH  26  27
ATOM     27  N   UNL A   1      40.540  19.160  25.879  1.00  0.00    -0.352 N 
ATOM     28  C   UNL A   1      41.842  19.598  25.899  1.00  0.00     0.251 C 
ATOM     29  H   UNL A   1      40.432  18.202  25.676  1.00  0.00     0.163 HD
ATOM     30  O   UNL A   1      42.712  18.854  25.451  1.00  0.00    -0.269 OA
BRANCH  28  31
ATOM     31  C   UNL A   1      42.231  20.931  26.434  1.00  0.00     0.039 A 
ATOM     32  C   UNL A   1      42.180  21.122  27.822  1.00  0.00     0.014 A 
ATOM     33  C   UNL A   1      42.537  22.020  25.614  1.00  0.00     0.014 A 
ATOM     34  C   UNL A   1      42.446  22.380  28.377  1.00  0.00     0.010 A 
ATOM     35  C   UNL A   1      42.876  23.258  26.171  1.00  0.00     0.010 A 
ATOM     36  C   UNL A   1      42.802  23.460  27.557  1.00  0.00    -0.014 A 
BRANCH  36  37
ATOM     37  C   UNL A   1      43.023  24.814  28.133  1.00  0.00     0.031 A 
ATOM     38  C   UNL A   1      44.413  25.260  28.512  1.00  0.00     0.074 A 
ATOM     39  C   UNL A   1      41.984  25.647  28.337  1.00  0.00     0.049 A 
ATOM     40  N   UNL A   1      44.804  26.395  29.039  1.00  0.00    -0.248 NA
ATOM     41  C   UNL A   1      45.503  24.296  28.293  1.00  0.00     0.031 C 
ATOM     42  C   UNL A   1      40.581  25.335  28.061  1.00  0.00     0.029 A 
ATOM     43  N   UNL A   1      41.951  26.930  28.823  1.00  0.00    -0.354 N 
ATOM     44  C   UNL A   1      46.173  26.267  29.241  1.00  0.00     0.074 A 
ATOM     45  C   UNL A   1      46.541  24.936  28.810  1.00  0.00     0.031 C 
ATOM     46  C   UNL A   1      39.829  26.409  28.357  1.00  0.00     0.029 A 
ATOM     47  C   UNL A   1      40.692  27.476  28.854  1.00  0.00     0.049 A 
ATOM     48  H   UNL A   1      42.756  27.415  29.122  1.00  0.00     0.167 HD
ATOM     49  C   UNL A   1      47.051  27.179  29.723  1.00  0.00     0.037 A 
ATOM     50  C   UNL A   1      40.280  28.702  29.229  1.00  0.00     0.037 A 
ATOM     51  C   UNL A   1      46.711  28.525  30.099  1.00  0.00     0.049 A 
ATOM     52  C   UNL A   1      41.282  29.722  29.686  1.00  0.00     0.074 A 
ATOM     53  C   UNL A   1      47.547  29.535  30.545  1.00  0.00     0.029 A 
ATOM     54  N   UNL A   1      45.432  29.053  30.059  1.00  0.00    -0.354 N 
ATOM     55  N   UNL A   1      42.579  29.600  29.825  1.00  0.00    -0.248 NA
ATOM     56  C   UNL A   1      40.764  31.057  30.022  1.00  0.00     0.031 C 
ATOM     57  C   UNL A   1      46.769  30.673  30.783  1.00  0.00     0.029 A 
ATOM     58  C   UNL A   1      45.454  30.376  30.468  1.00  0.00     0.049 A 
ATOM     59  H   UNL A   1      44.626  28.561  29.781  1.00  0.00     0.167 HD
ATOM     60  C   UNL A   1      43.034  30.844  30.241  1.00  0.00     0.074 A 
ATOM     61  C   UNL A   1      41.878  31.710  30.325  1.00  0.00     0.031 C 
ATOM     62  C   UNL A   1      44.300  31.231  30.528  1.00  0.00     0.037 A 
BRANCH  49  63
ATOM     63  C   UNL A   1      48.480  26.748  29.859  1.00  0.00     0.057 A 
ATOM     64  C   UNL A   1      48.941  26.085  31.003  1.00  0.00     0.134 A 
ATOM     65  C   UNL A   1      49.397  26.977  28.827  1.00  0.00     0.134 A 
ATOM     66  F   UNL A   1      48.113  25.850  32.032  1.00  0.00    -0.206 F 
ATOM     67  C   UNL A   1      50.271  25.682  31.125  1.00  0.00     0.040 A 
ATOM     68  C   UNL A   1      50.726  26.561  28.928  1.00  0.00     0.040 A 
ATOM     69  F   UNL A   1      49.017  27.604  27.704  1.00  0.00    -0.206 F 
ATOM     70  C   UNL A   1      51.167  25.916  30.082  1.00  0.00     0.006 A 
ENDBRANCH  49  63
BRANCH  50  71
ATOM     71  C   UNL A   1      38.843  29.054  29.132  1.00  0.00     0.057 A 
ATOM     72  C   UNL A   1      38.289  29.472  27.917  1.00  0.00     0.134 A 
ATOM     73  C   UNL A   1      37.998  28.985  30.244  1.00  0.00     0.134 A 
ATOM     74  F   UNL A   1      39.060  29.575  26.824  1.00  0.00    -0.206 F 
ATOM     75  C   UNL A   1      36.942  29.819  27.812  1.00  0.00     0.040 A 
ATOM     76  C   UNL A   1      36.646  29.314  30.150  1.00  0.00     0.040 A 
ATOM     77  F   UNL A   1      38.475  28.588  31.433  1.00  0.00    -0.206 F 
ATOM     78  C   UNL A   1      36.115  29.736  28.931  1.00  0.00     0.006 A 
ENDBRANCH  50  71
BRANCH  62  79
ATOM     79  C   UNL A   1      44.505  32.660  30.925  1.00  0.00     0.057 A 
ATOM     80  C   UNL A   1      44.469  33.063  32.265  1.00  0.00     0.134 A 
ATOM     81  C   UNL A   1      44.776  33.636  29.959  1.00  0.00     0.134 A 
ATOM     82  F   UNL A   1      44.203  32.174  33.234  1.00  0.00    -0.206 F 
ATOM     83  C   UNL A   1      44.679  34.393  32.630  1.00  0.00     0.040 A 
ATOM     84  C   UNL A   1      45.001  34.966  30.313  1.00  0.00     0.040 A 
ATOM     85  F   UNL A   1      44.827  33.311  28.658  1.00  0.00    -0.206 F 
ATOM     86  C   UNL A   1      44.951  35.349  31.651  1.00  0.00     0.006 A 
ENDBRANCH  62  79
ENDBRANCH  36  37
ENDBRANCH  28  31
ENDBRANCH  26  27
ENDBRANCH  25  26
ENDBRANCH   1  25
TORSDOF 14
ENDMDL
