MODEL 1
REMARK VINA RESULT:     -12.0      0.000      0.000
REMARK SMILES Cn1ccc(S(=O)(=O)N2CCO[C@H](CC(=O)NCCCNC(=O)c3ccc(-c4c5nc(c(-c6c(F)cccc6F)c6ccc([nH]6)c(-c6c(F)cccc6F)c6nc(c(-c7c(F)cccc7F)c7ccc4[nH]7)C=C6)C=C5)cc3)C2)c1
REMARK SMILES IDX 18 1 17 2 15 3 16 4 14 6 13 7 9 8 10 9 78 10 11 11 12 12
REMARK SMILES IDX 6 13 7 14 8 15 5 16 1 17 2 18 3 19 79 20 4 21 19 22 20 23
REMARK SMILES IDX 21 24 22 25 23 27 24 28 25 29 77 30 26 31 76 32 27 33 28 34
REMARK SMILES IDX 29 35 70 36 30 37 75 38 69 39 71 40 31 41 74 42 68 43 67 44
REMARK SMILES IDX 32 46 58 47 41 48 57 49 42 50 45 51 56 52 72 53 43 54 44 55
REMARK SMILES IDX 55 57 73 58 46 59 33 60 34 61 39 62 35 63 36 64 38 65 40 66
REMARK SMILES IDX 37 67 59 68 60 69 65 70 61 71 62 72 64 73 66 74 63 75 47 76
REMARK SMILES IDX 48 77 53 78 49 79 50 80 52 81 54 82 51 83
REMARK H PARENT 17 5 21 26 71 45 45 56
REMARK Flexibility Score: inf
ROOT
ATOM      1  C   UNL A   1      31.556  30.796  26.006  1.00  0.00     0.117 C 
ENDROOT
BRANCH   1   2
ATOM      2  N   UNL A   1      32.753  30.200  26.570  1.00  0.00    -0.356 N 
ATOM      3  C   UNL A   1      32.938  28.958  27.093  1.00  0.00     0.222 C 
ATOM      4  O   UNL A   1      34.021  28.690  27.612  1.00  0.00    -0.275 OA
ATOM      5  H   UNL A   1      33.548  30.780  26.577  1.00  0.00     0.163 HD
BRANCH   3   6
ATOM      6  C   UNL A   1      31.816  27.955  27.053  1.00  0.00     0.133 C 
BRANCH   6   7
ATOM      7  C   UNL A   1      32.302  26.632  26.453  1.00  0.00     0.142 C 
ATOM      8  N   UNL A   1      31.339  26.931  24.239  1.00  0.00    -0.193 NA
ATOM      9  C   UNL A   1      30.425  25.793  24.433  1.00  0.00     0.131 C 
ATOM     10  C   UNL A   1      32.618  26.762  24.946  1.00  0.00     0.135 C 
ATOM     11  C   UNL A   1      30.142  25.683  25.936  1.00  0.00     0.177 C 
ATOM     12  O   UNL A   1      31.352  25.565  26.708  1.00  0.00    -0.375 OA
BRANCH   8  13
ATOM     13  S   UNL A   1      31.221  27.875  22.870  1.00  0.00     0.244 S 
ATOM     14  O   UNL A   1      31.066  27.010  21.722  1.00  0.00    -0.207 OA
ATOM     15  O   UNL A   1      32.198  28.938  22.927  1.00  0.00    -0.207 OA
BRANCH  13  16
ATOM     16  C   UNL A   1      29.704  28.703  23.002  1.00  0.00     0.100 A 
ATOM     17  C   UNL A   1      27.587  31.610  23.418  1.00  0.00     0.149 C 
ATOM     18  N   UNL A   1      28.184  30.307  23.233  1.00  0.00    -0.356 N 
ATOM     19  C   UNL A   1      27.503  29.118  23.197  1.00  0.00     0.086 A 
ATOM     20  C   UNL A   1      29.523  30.071  23.091  1.00  0.00     0.106 A 
ATOM     21  C   UNL A   1      28.424  28.100  23.051  1.00  0.00     0.041 A 
ENDBRANCH  13  16
ENDBRANCH   8  13
ENDBRANCH   6   7
ENDBRANCH   3   6
ENDBRANCH   1   2
BRANCH   1  22
ATOM     22  C   UNL A   1      31.323  32.214  26.516  1.00  0.00     0.042 C 
BRANCH  22  23
ATOM     23  C   UNL A   1      32.503  32.809  27.280  1.00  0.00     0.118 C 
BRANCH  23  24
ATOM     24  N   UNL A   1      32.309  34.214  27.613  1.00  0.00    -0.352 N 
ATOM     25  C   UNL A   1      32.957  35.006  28.528  1.00  0.00     0.251 C 
ATOM     26  H   UNL A   1      31.601  34.667  27.102  1.00  0.00     0.163 HD
ATOM     27  O   UNL A   1      32.523  36.127  28.775  1.00  0.00    -0.269 OA
BRANCH  25  28
ATOM     28  C   UNL A   1      34.157  34.511  29.238  1.00  0.00     0.039 A 
ATOM     29  C   UNL A   1      34.001  33.975  30.519  1.00  0.00     0.014 A 
ATOM     30  C   UNL A   1      35.429  34.592  28.664  1.00  0.00     0.014 A 
ATOM     31  C   UNL A   1      35.106  33.446  31.191  1.00  0.00     0.010 A 
ATOM     32  C   UNL A   1      36.518  34.009  29.308  1.00  0.00     0.010 A 
ATOM     33  C   UNL A   1      36.366  33.421  30.572  1.00  0.00    -0.014 A 
BRANCH  33  34
ATOM     34  C   UNL A   1      37.523  32.749  31.213  1.00  0.00     0.031 A 
ATOM     35  C   UNL A   1      38.195  31.581  30.547  1.00  0.00     0.074 A 
ATOM     36  C   UNL A   1      37.921  33.145  32.438  1.00  0.00     0.049 A 
ATOM     37  N   UNL A   1      39.154  30.813  30.999  1.00  0.00    -0.248 NA
ATOM     38  C   UNL A   1      37.710  31.215  29.207  1.00  0.00     0.031 C 
ATOM     39  C   UNL A   1      37.323  34.237  33.211  1.00  0.00     0.029 A 
ATOM     40  N   UNL A   1      38.911  32.662  33.257  1.00  0.00    -0.354 N 
ATOM     41  C   UNL A   1      39.377  29.865  30.009  1.00  0.00     0.074 A 
ATOM     42  C   UNL A   1      38.431  30.133  28.947  1.00  0.00     0.031 C 
ATOM     43  C   UNL A   1      37.965  34.346  34.385  1.00  0.00     0.029 A 
ATOM     44  C   UNL A   1      38.991  33.312  34.465  1.00  0.00     0.049 A 
ATOM     45  H   UNL A   1      39.507  31.920  33.003  1.00  0.00     0.167 HD
ATOM     46  C   UNL A   1      40.298  28.873  29.983  1.00  0.00     0.037 A 
ATOM     47  C   UNL A   1      39.792  33.092  35.524  1.00  0.00     0.037 A 
ATOM     48  C   UNL A   1      41.259  28.624  31.025  1.00  0.00     0.049 A 
ATOM     49  C   UNL A   1      40.802  31.981  35.468  1.00  0.00     0.074 A 
ATOM     50  C   UNL A   1      42.279  27.687  31.052  1.00  0.00     0.029 A 
ATOM     51  N   UNL A   1      41.319  29.315  32.225  1.00  0.00    -0.354 N 
ATOM     52  N   UNL A   1      41.043  31.133  34.499  1.00  0.00    -0.248 NA
ATOM     53  C   UNL A   1      41.650  31.798  36.655  1.00  0.00     0.031 C 
ATOM     54  C   UNL A   1      42.934  27.789  32.284  1.00  0.00     0.029 A 
ATOM     55  C   UNL A   1      42.345  28.811  33.009  1.00  0.00     0.049 A 
ATOM     56  H   UNL A   1      40.723  30.054  32.482  1.00  0.00     0.167 HD
ATOM     57  C   UNL A   1      42.080  30.328  34.950  1.00  0.00     0.074 A 
ATOM     58  C   UNL A   1      42.434  30.798  36.272  1.00  0.00     0.031 C 
ATOM     59  C   UNL A   1      42.684  29.289  34.323  1.00  0.00     0.037 A 
BRANCH  46  60
ATOM     60  C   UNL A   1      40.318  27.977  28.781  1.00  0.00     0.057 A 
ATOM     61  C   UNL A   1      41.058  28.299  27.637  1.00  0.00     0.134 A 
ATOM     62  C   UNL A   1      39.634  26.755  28.788  1.00  0.00     0.134 A 
ATOM     63  F   UNL A   1      41.728  29.460  27.564  1.00  0.00    -0.206 F 
ATOM     64  C   UNL A   1      41.107  27.443  26.536  1.00  0.00     0.040 A 
ATOM     65  C   UNL A   1      39.691  25.881  27.701  1.00  0.00     0.040 A 
ATOM     66  F   UNL A   1      38.909  26.386  29.856  1.00  0.00    -0.206 F 
ATOM     67  C   UNL A   1      40.427  26.227  26.569  1.00  0.00     0.006 A 
ENDBRANCH  46  60
BRANCH  47  68
ATOM     68  C   UNL A   1      39.676  33.944  36.732  1.00  0.00     0.057 A 
ATOM     69  C   UNL A   1      38.865  33.563  37.807  1.00  0.00     0.134 A 
ATOM     70  C   UNL A   1      40.362  35.160  36.838  1.00  0.00     0.134 A 
ATOM     71  F   UNL A   1      38.169  32.418  37.753  1.00  0.00    -0.206 F 
ATOM     72  C   UNL A   1      38.724  34.370  38.936  1.00  0.00     0.040 A 
ATOM     73  C   UNL A   1      40.247  35.966  37.971  1.00  0.00     0.040 A 
ATOM     74  F   UNL A   1      41.160  35.576  35.844  1.00  0.00    -0.206 F 
ATOM     75  C   UNL A   1      39.420  35.574  39.022  1.00  0.00     0.006 A 
ENDBRANCH  47  68
BRANCH  59  76
ATOM     76  C   UNL A   1      43.799  28.608  35.055  1.00  0.00     0.057 A 
ATOM     77  C   UNL A   1      45.125  29.043  34.940  1.00  0.00     0.134 A 
ATOM     78  C   UNL A   1      43.541  27.525  35.905  1.00  0.00     0.134 A 
ATOM     79  F   UNL A   1      45.439  30.065  34.130  1.00  0.00    -0.206 F 
ATOM     80  C   UNL A   1      46.160  28.412  35.633  1.00  0.00     0.040 A 
ATOM     81  C   UNL A   1      44.564  26.900  36.619  1.00  0.00     0.040 A 
ATOM     82  F   UNL A   1      42.291  27.065  36.061  1.00  0.00    -0.206 F 
ATOM     83  C   UNL A   1      45.879  27.341  36.480  1.00  0.00     0.006 A 
ENDBRANCH  59  76
ENDBRANCH  33  34
ENDBRANCH  25  28
ENDBRANCH  23  24
ENDBRANCH  22  23
ENDBRANCH   1  22
TORSDOF 13
ENDMDL
MODEL 2
REMARK VINA RESULT:     -11.9      0.575      6.244
REMARK SMILES Cn1ccc(S(=O)(=O)N2CCO[C@H](CC(=O)NCCCNC(=O)c3ccc(-c4c5nc(c(-c6c(F)cccc6F)c6ccc([nH]6)c(-c6c(F)cccc6F)c6nc(c(-c7c(F)cccc7F)c7ccc4[nH]7)C=C6)C=C5)cc3)C2)c1
REMARK SMILES IDX 18 1 17 2 15 3 16 4 14 6 13 7 9 8 10 9 78 10 11 11 12 12
REMARK SMILES IDX 6 13 7 14 8 15 5 16 1 17 2 18 3 19 79 20 4 21 19 22 20 23
REMARK SMILES IDX 21 24 22 25 23 27 24 28 25 29 77 30 26 31 76 32 27 33 28 34
REMARK SMILES IDX 29 35 70 36 30 37 75 38 69 39 71 40 31 41 74 42 68 43 67 44
REMARK SMILES IDX 32 46 58 47 41 48 57 49 42 50 45 51 56 52 72 53 43 54 44 55
REMARK SMILES IDX 55 57 73 58 46 59 33 60 34 61 39 62 35 63 36 64 38 65 40 66
REMARK SMILES IDX 37 67 59 68 60 69 65 70 61 71 62 72 64 73 66 74 63 75 47 76
REMARK SMILES IDX 48 77 53 78 49 79 50 80 52 81 54 82 51 83
REMARK H PARENT 17 5 21 26 71 45 45 56
REMARK Flexibility Score: inf
ROOT
ATOM      1  C   UNL A   1      31.494  30.787  26.007  1.00  0.00     0.117 C 
ENDROOT
BRANCH   1   2
ATOM      2  N   UNL A   1      32.671  30.146  26.565  1.00  0.00    -0.356 N 
ATOM      3  C   UNL A   1      32.819  28.889  27.064  1.00  0.00     0.222 C 
ATOM      4  O   UNL A   1      33.891  28.581  27.582  1.00  0.00    -0.275 OA
ATOM      5  H   UNL A   1      33.482  30.703  26.588  1.00  0.00     0.163 HD
BRANCH   3   6
ATOM      6  C   UNL A   1      31.669  27.919  26.997  1.00  0.00     0.133 C 
BRANCH   6   7
ATOM      7  C   UNL A   1      32.130  26.583  26.403  1.00  0.00     0.142 C 
ATOM      8  N   UNL A   1      31.229  26.919  24.169  1.00  0.00    -0.193 NA
ATOM      9  C   UNL A   1      30.277  25.808  24.336  1.00  0.00     0.131 C 
ATOM     10  C   UNL A   1      32.485  26.709  24.904  1.00  0.00     0.135 C 
ATOM     11  C   UNL A   1      29.955  25.702  25.832  1.00  0.00     0.177 C 
ATOM     12  O   UNL A   1      31.143  25.545  26.631  1.00  0.00    -0.375 OA
BRANCH   8  13
ATOM     13  S   UNL A   1      31.172  27.871  22.801  1.00  0.00     0.244 S 
ATOM     14  O   UNL A   1      31.011  27.015  21.647  1.00  0.00    -0.207 OA
ATOM     15  O   UNL A   1      32.183  28.899  22.882  1.00  0.00    -0.207 OA
BRANCH  13  16
ATOM     16  C   UNL A   1      29.682  28.750  22.905  1.00  0.00     0.100 A 
ATOM     17  C   UNL A   1      27.655  31.741  23.134  1.00  0.00     0.149 C 
ATOM     18  N   UNL A   1      28.212  30.410  23.043  1.00  0.00    -0.356 N 
ATOM     19  C   UNL A   1      27.499  29.243  23.126  1.00  0.00     0.086 A 
ATOM     20  C   UNL A   1      29.540  30.125  22.884  1.00  0.00     0.106 A 
ATOM     21  C   UNL A   1      28.389  28.190  23.040  1.00  0.00     0.041 A 
ENDBRANCH  13  16
ENDBRANCH   8  13
ENDBRANCH   6   7
ENDBRANCH   3   6
ENDBRANCH   1   2
BRANCH   1  22
ATOM     22  C   UNL A   1      31.330  32.220  26.501  1.00  0.00     0.042 C 
BRANCH  22  23
ATOM     23  C   UNL A   1      32.565  32.793  27.192  1.00  0.00     0.118 C 
BRANCH  23  24
ATOM     24  N   UNL A   1      32.380  34.171  27.626  1.00  0.00    -0.352 N 
ATOM     25  C   UNL A   1      33.023  34.886  28.605  1.00  0.00     0.251 C 
ATOM     26  H   UNL A   1      31.683  34.668  27.141  1.00  0.00     0.163 HD
ATOM     27  O   UNL A   1      32.597  35.990  28.929  1.00  0.00    -0.269 OA
BRANCH  25  28
ATOM     28  C   UNL A   1      34.208  34.326  29.292  1.00  0.00     0.039 A 
ATOM     29  C   UNL A   1      34.023  33.653  30.503  1.00  0.00     0.014 A 
ATOM     30  C   UNL A   1      35.495  34.479  28.767  1.00  0.00     0.014 A 
ATOM     31  C   UNL A   1      35.115  33.064  31.145  1.00  0.00     0.010 A 
ATOM     32  C   UNL A   1      36.573  33.839  29.375  1.00  0.00     0.010 A 
ATOM     33  C   UNL A   1      36.392  33.116  30.563  1.00  0.00    -0.014 A 
BRANCH  33  34
ATOM     34  C   UNL A   1      37.538  32.388  31.161  1.00  0.00     0.031 A 
ATOM     35  C   UNL A   1      38.187  32.885  32.422  1.00  0.00     0.074 A 
ATOM     36  C   UNL A   1      38.044  31.316  30.520  1.00  0.00     0.049 A 
ATOM     37  N   UNL A   1      39.252  32.434  33.034  1.00  0.00    -0.248 NA
ATOM     38  C   UNL A   1      37.570  34.054  33.067  1.00  0.00     0.031 C 
ATOM     39  C   UNL A   1      37.533  30.759  29.266  1.00  0.00     0.029 A 
ATOM     40  N   UNL A   1      39.115  30.514  30.828  1.00  0.00    -0.354 N 
ATOM     41  C   UNL A   1      39.444  33.272  34.125  1.00  0.00     0.074 A 
ATOM     42  C   UNL A   1      38.405  34.278  34.073  1.00  0.00     0.031 C 
ATOM     43  C   UNL A   1      38.283  29.702  28.917  1.00  0.00     0.029 A 
ATOM     44  C   UNL A   1      39.348  29.528  29.899  1.00  0.00     0.049 A 
ATOM     45  H   UNL A   1      39.664  30.633  31.637  1.00  0.00     0.167 HD
ATOM     46  C   UNL A   1      40.391  33.198  35.090  1.00  0.00     0.037 A 
ATOM     47  C   UNL A   1      40.318  28.597  29.838  1.00  0.00     0.037 A 
ATOM     48  C   UNL A   1      41.407  32.180  35.160  1.00  0.00     0.049 A 
ATOM     49  C   UNL A   1      41.358  28.541  30.921  1.00  0.00     0.074 A 
ATOM     50  C   UNL A   1      42.363  31.983  36.142  1.00  0.00     0.029 A 
ATOM     51  N   UNL A   1      41.599  31.190  34.210  1.00  0.00    -0.354 N 
ATOM     52  N   UNL A   1      41.488  29.302  31.980  1.00  0.00    -0.248 NA
ATOM     53  C   UNL A   1      42.386  27.497  30.798  1.00  0.00     0.031 C 
ATOM     54  C   UNL A   1      43.157  30.893  35.768  1.00  0.00     0.029 A 
ATOM     55  C   UNL A   1      42.673  30.392  34.571  1.00  0.00     0.049 A 
ATOM     56  H   UNL A   1      41.055  31.072  33.399  1.00  0.00     0.167 HD
ATOM     57  C   UNL A   1      42.599  28.819  32.658  1.00  0.00     0.074 A 
ATOM     58  C   UNL A   1      43.097  27.690  31.901  1.00  0.00     0.031 C 
ATOM     59  C   UNL A   1      43.157  29.273  33.806  1.00  0.00     0.037 A 
BRANCH  46  60
ATOM     60  C   UNL A   1      40.373  34.247  36.161  1.00  0.00     0.057 A 
ATOM     61  C   UNL A   1      41.053  35.461  36.012  1.00  0.00     0.134 A 
ATOM     62  C   UNL A   1      39.623  34.064  37.330  1.00  0.00     0.134 A 
ATOM     63  F   UNL A   1      41.798  35.694  34.920  1.00  0.00    -0.206 F 
ATOM     64  C   UNL A   1      41.000  36.452  36.994  1.00  0.00     0.040 A 
ATOM     65  C   UNL A   1      39.546  35.054  38.310  1.00  0.00     0.040 A 
ATOM     66  F   UNL A   1      38.944  32.923  37.531  1.00  0.00    -0.206 F 
ATOM     67  C   UNL A   1      40.239  36.252  38.144  1.00  0.00     0.006 A 
ENDBRANCH  46  60
BRANCH  47  68
ATOM     68  C   UNL A   1      40.354  27.635  28.710  1.00  0.00     0.057 A 
ATOM     69  C   UNL A   1      41.098  27.905  27.556  1.00  0.00     0.134 A 
ATOM     70  C   UNL A   1      39.640  26.432  28.752  1.00  0.00     0.134 A 
ATOM     71  F   UNL A   1      41.786  29.052  27.451  1.00  0.00    -0.206 F 
ATOM     72  C   UNL A   1      41.116  27.023  26.476  1.00  0.00     0.040 A 
ATOM     73  C   UNL A   1      39.666  25.530  27.688  1.00  0.00     0.040 A 
ATOM     74  F   UNL A   1      38.913  26.113  29.833  1.00  0.00    -0.206 F 
ATOM     75  C   UNL A   1      40.401  25.829  26.542  1.00  0.00     0.006 A 
ENDBRANCH  47  68
BRANCH  59  76
ATOM     76  C   UNL A   1      44.356  28.535  34.319  1.00  0.00     0.057 A 
ATOM     77  C   UNL A   1      45.657  28.930  33.986  1.00  0.00     0.134 A 
ATOM     78  C   UNL A   1      44.208  27.439  35.177  1.00  0.00     0.134 A 
ATOM     79  F   UNL A   1      45.864  29.963  33.156  1.00  0.00    -0.206 F 
ATOM     80  C   UNL A   1      46.772  28.247  34.475  1.00  0.00     0.040 A 
ATOM     81  C   UNL A   1      45.315  26.761  35.689  1.00  0.00     0.040 A 
ATOM     82  F   UNL A   1      42.987  27.015  35.537  1.00  0.00    -0.206 F 
ATOM     83  C   UNL A   1      46.602  27.162  35.335  1.00  0.00     0.006 A 
ENDBRANCH  59  76
ENDBRANCH  33  34
ENDBRANCH  25  28
ENDBRANCH  23  24
ENDBRANCH  22  23
ENDBRANCH   1  22
TORSDOF 13
ENDMDL
MODEL 3
REMARK VINA RESULT:     -11.9      6.212     11.116
REMARK SMILES Cn1ccc(S(=O)(=O)N2CCO[C@H](CC(=O)NCCCNC(=O)c3ccc(-c4c5nc(c(-c6c(F)cccc6F)c6ccc([nH]6)c(-c6c(F)cccc6F)c6nc(c(-c7c(F)cccc7F)c7ccc4[nH]7)C=C6)C=C5)cc3)C2)c1
REMARK SMILES IDX 18 1 17 2 15 3 16 4 14 6 13 7 9 8 10 9 78 10 11 11 12 12
REMARK SMILES IDX 6 13 7 14 8 15 5 16 1 17 2 18 3 19 79 20 4 21 19 22 20 23
REMARK SMILES IDX 21 24 22 25 23 27 24 28 25 29 77 30 26 31 76 32 27 33 28 34
REMARK SMILES IDX 29 35 70 36 30 37 75 38 69 39 71 40 31 41 74 42 68 43 67 44
REMARK SMILES IDX 32 46 58 47 41 48 57 49 42 50 45 51 56 52 72 53 43 54 44 55
REMARK SMILES IDX 55 57 73 58 46 59 33 60 34 61 39 62 35 63 36 64 38 65 40 66
REMARK SMILES IDX 37 67 59 68 60 69 65 70 61 71 62 72 64 73 66 74 63 75 47 76
REMARK SMILES IDX 48 77 53 78 49 79 50 80 52 81 54 82 51 83
REMARK H PARENT 17 5 21 26 71 45 45 56
REMARK Flexibility Score: inf
ROOT
ATOM      1  C   UNL A   1      36.690  20.539  25.168  1.00  0.00     0.117 C 
ENDROOT
BRANCH   1   2
ATOM      2  N   UNL A   1      37.013  21.859  25.678  1.00  0.00    -0.356 N 
ATOM      3  C   UNL A   1      36.797  23.080  25.119  1.00  0.00     0.222 C 
ATOM      4  O   UNL A   1      37.244  24.077  25.685  1.00  0.00    -0.275 OA
ATOM      5  H   UNL A   1      37.455  21.873  26.557  1.00  0.00     0.163 HD
BRANCH   3   6
ATOM      6  C   UNL A   1      36.046  23.185  23.818  1.00  0.00     0.133 C 
BRANCH   6   7
ATOM      7  C   UNL A   1      34.885  24.176  23.948  1.00  0.00     0.142 C 
ATOM      8  N   UNL A   1      33.143  22.543  24.409  1.00  0.00    -0.193 NA
ATOM      9  C   UNL A   1      32.453  22.855  23.145  1.00  0.00     0.131 C 
ATOM     10  C   UNL A   1      33.837  23.706  24.981  1.00  0.00     0.135 C 
ATOM     11  C   UNL A   1      33.517  23.329  22.147  1.00  0.00     0.177 C 
ATOM     12  O   UNL A   1      34.280  24.439  22.656  1.00  0.00    -0.375 OA
BRANCH   8  13
ATOM     13  S   UNL A   1      32.601  21.294  25.371  1.00  0.00     0.244 S 
ATOM     14  O   UNL A   1      31.179  21.453  25.580  1.00  0.00    -0.207 OA
ATOM     15  O   UNL A   1      33.535  21.073  26.451  1.00  0.00    -0.207 OA
BRANCH  13  16
ATOM     16  C   UNL A   1      32.745  19.862  24.404  1.00  0.00     0.100 A 
ATOM     17  C   UNL A   1      34.026  16.576  23.592  1.00  0.00     0.149 C 
ATOM     18  N   UNL A   1      33.364  17.857  23.675  1.00  0.00    -0.356 N 
ATOM     19  C   UNL A   1      32.556  18.398  22.709  1.00  0.00     0.086 A 
ATOM     20  C   UNL A   1      33.467  18.728  24.724  1.00  0.00     0.106 A 
ATOM     21  C   UNL A   1      32.152  19.648  23.136  1.00  0.00     0.041 A 
ENDBRANCH  13  16
ENDBRANCH   8  13
ENDBRANCH   6   7
ENDBRANCH   3   6
ENDBRANCH   1   2
BRANCH   1  22
ATOM     22  C   UNL A   1      37.935  19.688  24.943  1.00  0.00     0.042 C 
BRANCH  22  23
ATOM     23  C   UNL A   1      39.153  20.129  25.751  1.00  0.00     0.118 C 
BRANCH  23  24
ATOM     24  N   UNL A   1      40.172  19.093  25.844  1.00  0.00    -0.352 N 
ATOM     25  C   UNL A   1      41.525  19.196  26.054  1.00  0.00     0.251 C 
ATOM     26  H   UNL A   1      39.839  18.172  25.740  1.00  0.00     0.163 HD
ATOM     27  O   UNL A   1      42.236  18.204  25.928  1.00  0.00    -0.269 OA
BRANCH  25  28
ATOM     28  C   UNL A   1      42.136  20.497  26.404  1.00  0.00     0.039 A 
ATOM     29  C   UNL A   1      42.643  21.295  25.375  1.00  0.00     0.014 A 
ATOM     30  C   UNL A   1      42.233  20.924  27.731  1.00  0.00     0.014 A 
ATOM     31  C   UNL A   1      43.173  22.554  25.668  1.00  0.00     0.010 A 
ATOM     32  C   UNL A   1      42.705  22.203  28.016  1.00  0.00     0.010 A 
ATOM     33  C   UNL A   1      43.169  23.035  26.987  1.00  0.00    -0.014 A 
BRANCH  33  34
ATOM     34  C   UNL A   1      43.607  24.418  27.301  1.00  0.00     0.031 A 
ATOM     35  C   UNL A   1      42.617  25.444  27.775  1.00  0.00     0.074 A 
ATOM     36  C   UNL A   1      44.890  24.769  27.084  1.00  0.00     0.049 A 
ATOM     37  N   UNL A   1      42.798  26.720  28.006  1.00  0.00    -0.248 NA
ATOM     38  C   UNL A   1      41.238  24.981  27.998  1.00  0.00     0.031 C 
ATOM     39  C   UNL A   1      45.939  23.878  26.584  1.00  0.00     0.029 A 
ATOM     40  N   UNL A   1      45.525  25.976  27.239  1.00  0.00    -0.354 N 
ATOM     41  C   UNL A   1      41.558  27.215  28.385  1.00  0.00     0.074 A 
ATOM     42  C   UNL A   1      40.624  26.111  28.320  1.00  0.00     0.031 C 
ATOM     43  C   UNL A   1      47.087  24.565  26.484  1.00  0.00     0.029 A 
ATOM     44  C   UNL A   1      46.849  25.950  26.875  1.00  0.00     0.049 A 
ATOM     45  H   UNL A   1      45.075  26.783  27.580  1.00  0.00     0.167 HD
ATOM     46  C   UNL A   1      41.231  28.473  28.767  1.00  0.00     0.037 A 
ATOM     47  C   UNL A   1      47.766  26.935  26.846  1.00  0.00     0.037 A 
ATOM     48  C   UNL A   1      42.165  29.565  28.860  1.00  0.00     0.049 A 
ATOM     49  C   UNL A   1      47.375  28.322  27.271  1.00  0.00     0.074 A 
ATOM     50  C   UNL A   1      41.939  30.856  29.309  1.00  0.00     0.029 A 
ATOM     51  N   UNL A   1      43.500  29.495  28.499  1.00  0.00    -0.354 N 
ATOM     52  N   UNL A   1      46.212  28.760  27.687  1.00  0.00    -0.248 NA
ATOM     53  C   UNL A   1      48.425  29.350  27.223  1.00  0.00     0.031 C 
ATOM     54  C   UNL A   1      43.132  31.577  29.185  1.00  0.00     0.029 A 
ATOM     55  C   UNL A   1      44.107  30.726  28.693  1.00  0.00     0.049 A 
ATOM     56  H   UNL A   1      43.952  28.691  28.155  1.00  0.00     0.167 HD
ATOM     57  C   UNL A   1      46.394  30.108  27.965  1.00  0.00     0.074 A 
ATOM     58  C   UNL A   1      47.781  30.413  27.688  1.00  0.00     0.031 C 
ATOM     59  C   UNL A   1      45.489  31.013  28.411  1.00  0.00     0.037 A 
BRANCH  46  60
ATOM     60  C   UNL A   1      39.799  28.741  29.121  1.00  0.00     0.057 A 
ATOM     61  C   UNL A   1      39.332  28.614  30.435  1.00  0.00     0.134 A 
ATOM     62  C   UNL A   1      38.892  29.182  28.150  1.00  0.00     0.134 A 
ATOM     63  F   UNL A   1      40.149  28.186  31.410  1.00  0.00    -0.206 F 
ATOM     64  C   UNL A   1      38.007  28.903  30.768  1.00  0.00     0.040 A 
ATOM     65  C   UNL A   1      37.571  29.493  28.474  1.00  0.00     0.040 A 
ATOM     66  F   UNL A   1      39.280  29.328  26.873  1.00  0.00    -0.206 F 
ATOM     67  C   UNL A   1      37.125  29.351  29.787  1.00  0.00     0.006 A 
ENDBRANCH  46  60
BRANCH  47  68
ATOM     68  C   UNL A   1      49.151  26.647  26.399  1.00  0.00     0.057 A 
ATOM     69  C   UNL A   1      49.542  26.875  25.075  1.00  0.00     0.134 A 
ATOM     70  C   UNL A   1      50.111  26.131  27.278  1.00  0.00     0.134 A 
ATOM     71  F   UNL A   1      48.660  27.350  24.184  1.00  0.00    -0.206 F 
ATOM     72  C   UNL A   1      50.833  26.580  24.635  1.00  0.00     0.040 A 
ATOM     73  C   UNL A   1      51.411  25.852  26.857  1.00  0.00     0.040 A 
ATOM     74  F   UNL A   1      49.798  25.898  28.561  1.00  0.00    -0.206 F 
ATOM     75  C   UNL A   1      51.773  26.071  25.529  1.00  0.00     0.006 A 
ENDBRANCH  47  68
BRANCH  59  76
ATOM     76  C   UNL A   1      45.979  32.410  28.641  1.00  0.00     0.057 A 
ATOM     77  C   UNL A   1      45.910  33.386  27.639  1.00  0.00     0.134 A 
ATOM     78  C   UNL A   1      46.497  32.790  29.884  1.00  0.00     0.134 A 
ATOM     79  F   UNL A   1      45.438  33.079  26.421  1.00  0.00    -0.206 F 
ATOM     80  C   UNL A   1      46.357  34.690  27.861  1.00  0.00     0.040 A 
ATOM     81  C   UNL A   1      46.928  34.095  30.126  1.00  0.00     0.040 A 
ATOM     82  F   UNL A   1      46.585  31.902  30.886  1.00  0.00    -0.206 F 
ATOM     83  C   UNL A   1      46.863  35.048  29.111  1.00  0.00     0.006 A 
ENDBRANCH  59  76
ENDBRANCH  33  34
ENDBRANCH  25  28
ENDBRANCH  23  24
ENDBRANCH  22  23
ENDBRANCH   1  22
TORSDOF 13
ENDMDL
