MODEL 1
REMARK VINA RESULT:     -10.8      0.000      0.000
REMARK SMILES C=CC[N@@H+](CC(=O)NCCCNC(=O)c1ccc(-c2c3nc(c(-c4c(F)cccc4F)c4ccc([nH]4)c(-c4c(F)cccc4F)c4nc(c(-c5c(F)cccc5F)c5ccc2[nH]5)C=C4)C=C3)cc1)Cc1ccc(C(F)(F)F)cc1
REMARK SMILES IDX 9 1 8 2 6 3 7 4 5 6 4 7 3 9 2 10 1 11 69 12 70 13 71 14
REMARK SMILES IDX 79 15 72 16 78 17 73 18 74 19 75 20 76 21 77 22 10 23 11 24
REMARK SMILES IDX 12 25 13 26 14 28 15 29 16 30 68 31 17 32 67 33 18 34 19 35
REMARK SMILES IDX 20 36 61 37 21 38 66 39 60 40 62 41 22 42 65 43 59 44 58 45
REMARK SMILES IDX 23 47 49 48 32 49 48 50 33 51 36 52 47 53 63 54 34 55 35 56
REMARK SMILES IDX 46 58 64 59 37 60 24 61 25 62 30 63 26 64 27 65 29 66 31 67
REMARK SMILES IDX 28 68 50 69 51 70 56 71 52 72 53 73 55 74 57 75 54 76 38 77
REMARK SMILES IDX 39 78 44 79 40 80 41 81 43 82 45 83 42 84
REMARK H PARENT 8 5 4 8 12 27 62 46 36 57
REMARK Flexibility Score: inf
ROOT
ATOM      1  C   UNL A   1      31.542  27.507  25.804  1.00  0.00     0.118 C 
ENDROOT
BRANCH   1   2
ATOM      2  N   UNL A   1      31.122  26.324  26.532  1.00  0.00    -0.351 N 
ATOM      3  C   UNL A   1      31.372  24.999  26.328  1.00  0.00     0.275 C 
ATOM      4  O   UNL A   1      31.148  24.251  27.289  1.00  0.00    -0.269 OA
ATOM      5  H   UNL A   1      30.554  26.511  27.313  1.00  0.00     0.163 HD
BRANCH   3   6
ATOM      6  C   UNL A   1      31.981  24.430  25.041  1.00  0.00     0.364 C 
BRANCH   6   7
ATOM      7  N   UNL A   1      33.157  23.539  25.156  1.00  0.00    -0.320 N 
ATOM      8  H   UNL A   1      32.829  22.770  25.740  1.00  0.00     0.349 HD
BRANCH   7   9
ATOM      9  C   UNL A   1      34.229  24.093  25.955  1.00  0.00     0.291 C 
BRANCH   9  10
ATOM     10  C   UNL A   1      35.557  24.271  25.284  1.00  0.00     0.025 C 
ATOM     11  C   UNL A   1      36.677  23.669  25.711  1.00  0.00     0.010 C 
ENDBRANCH   9  10
ENDBRANCH   7   9
BRANCH   7  12
ATOM     12  C   UNL A   1      33.500  22.715  23.993  1.00  0.00     0.299 C 
BRANCH  12  13
ATOM     13  C   UNL A   1      33.573  21.214  24.183  1.00  0.00     0.006 A 
ATOM     14  C   UNL A   1      32.477  20.412  23.835  1.00  0.00     0.010 A 
ATOM     15  C   UNL A   1      34.714  20.589  24.698  1.00  0.00     0.010 A 
ATOM     16  C   UNL A   1      32.562  19.020  23.878  1.00  0.00     0.013 A 
ATOM     17  C   UNL A   1      34.797  19.194  24.762  1.00  0.00     0.013 A 
ATOM     18  C   UNL A   1      33.734  18.394  24.320  1.00  0.00     0.056 A 
BRANCH  18  19
ATOM     19  C   UNL A   1      33.854  16.894  24.256  1.00  0.00     0.416 C 
ATOM     20  F   UNL A   1      34.343  16.444  23.068  1.00  0.00    -0.166 F 
ATOM     21  F   UNL A   1      34.693  16.410  25.216  1.00  0.00    -0.166 F 
ATOM     22  F   UNL A   1      32.670  16.246  24.446  1.00  0.00    -0.166 F 
ENDBRANCH  18  19
ENDBRANCH  12  13
ENDBRANCH   7  12
ENDBRANCH   6   7
ENDBRANCH   3   6
ENDBRANCH   1   2
BRANCH   1  23
ATOM     23  C   UNL A   1      33.024  27.841  25.997  1.00  0.00     0.042 C 
BRANCH  23  24
ATOM     24  C   UNL A   1      33.428  28.214  27.416  1.00  0.00     0.118 C 
BRANCH  24  25
ATOM     25  N   UNL A   1      33.442  29.648  27.635  1.00  0.00    -0.352 N 
ATOM     26  C   UNL A   1      34.422  30.492  28.096  1.00  0.00     0.251 C 
ATOM     27  H   UNL A   1      32.594  30.098  27.412  1.00  0.00     0.163 HD
ATOM     28  O   UNL A   1      34.109  31.647  28.379  1.00  0.00    -0.269 OA
BRANCH  26  29
ATOM     29  C   UNL A   1      35.832  30.061  28.290  1.00  0.00     0.039 A 
ATOM     30  C   UNL A   1      36.216  29.619  29.563  1.00  0.00     0.014 A 
ATOM     31  C   UNL A   1      36.806  30.171  27.296  1.00  0.00     0.014 A 
ATOM     32  C   UNL A   1      37.542  29.252  29.822  1.00  0.00     0.010 A 
ATOM     33  C   UNL A   1      38.110  29.721  27.526  1.00  0.00     0.010 A 
ATOM     34  C   UNL A   1      38.501  29.274  28.796  1.00  0.00    -0.014 A 
BRANCH  34  35
ATOM     35  C   UNL A   1      39.912  28.871  29.051  1.00  0.00     0.031 A 
ATOM     36  C   UNL A   1      40.867  29.819  29.732  1.00  0.00     0.074 A 
ATOM     37  C   UNL A   1      40.356  27.669  28.634  1.00  0.00     0.049 A 
ATOM     38  N   UNL A   1      42.144  29.671  29.983  1.00  0.00    -0.248 NA
ATOM     39  C   UNL A   1      40.321  31.115  30.165  1.00  0.00     0.031 C 
ATOM     40  C   UNL A   1      39.555  26.668  27.929  1.00  0.00     0.029 A 
ATOM     41  N   UNL A   1      41.597  27.087  28.737  1.00  0.00    -0.354 N 
ATOM     42  C   UNL A   1      42.556  30.857  30.580  1.00  0.00     0.074 A 
ATOM     43  C   UNL A   1      41.405  31.733  30.611  1.00  0.00     0.031 C 
ATOM     44  C   UNL A   1      40.315  25.588  27.684  1.00  0.00     0.029 A 
ATOM     45  C   UNL A   1      41.666  25.833  28.181  1.00  0.00     0.049 A 
ATOM     46  H   UNL A   1      42.364  27.527  29.169  1.00  0.00     0.167 HD
ATOM     47  C   UNL A   1      43.773  31.182  31.079  1.00  0.00     0.037 A 
ATOM     48  C   UNL A   1      42.701  24.976  28.075  1.00  0.00     0.037 A 
ATOM     49  C   UNL A   1      44.911  30.301  31.088  1.00  0.00     0.049 A 
ATOM     50  C   UNL A   1      44.039  25.356  28.643  1.00  0.00     0.074 A 
ATOM     51  C   UNL A   1      46.166  30.519  31.631  1.00  0.00     0.029 A 
ATOM     52  N   UNL A   1      44.932  29.033  30.531  1.00  0.00    -0.354 N 
ATOM     53  N   UNL A   1      44.394  26.459  29.256  1.00  0.00    -0.248 NA
ATOM     54  C   UNL A   1      45.122  24.370  28.510  1.00  0.00     0.031 C 
ATOM     55  C   UNL A   1      46.958  29.397  31.369  1.00  0.00     0.029 A 
ATOM     56  C   UNL A   1      46.183  28.463  30.700  1.00  0.00     0.049 A 
ATOM     57  H   UNL A   1      44.171  28.601  30.081  1.00  0.00     0.167 HD
ATOM     58  C   UNL A   1      45.728  26.289  29.603  1.00  0.00     0.074 A 
ATOM     59  C   UNL A   1      46.117  24.972  29.145  1.00  0.00     0.031 C 
ATOM     60  C   UNL A   1      46.557  27.149  30.245  1.00  0.00     0.037 A 
BRANCH  47  61
ATOM     61  C   UNL A   1      43.936  32.556  31.666  1.00  0.00     0.057 A 
ATOM     62  C   UNL A   1      44.343  33.647  30.888  1.00  0.00     0.134 A 
ATOM     63  C   UNL A   1      43.648  32.796  33.015  1.00  0.00     0.134 A 
ATOM     64  F   UNL A   1      44.643  33.483  29.591  1.00  0.00    -0.206 F 
ATOM     65  C   UNL A   1      44.483  34.923  31.436  1.00  0.00     0.040 A 
ATOM     66  C   UNL A   1      43.759  34.073  33.569  1.00  0.00     0.040 A 
ATOM     67  F   UNL A   1      43.245  31.798  33.815  1.00  0.00    -0.206 F 
ATOM     68  C   UNL A   1      44.185  35.140  32.780  1.00  0.00     0.006 A 
ENDBRANCH  47  61
BRANCH  48  69
ATOM     69  C   UNL A   1      42.507  23.658  27.421  1.00  0.00     0.057 A 
ATOM     70  C   UNL A   1      42.684  23.504  26.040  1.00  0.00     0.134 A 
ATOM     71  C   UNL A   1      42.134  22.525  28.153  1.00  0.00     0.134 A 
ATOM     72  F   UNL A   1      43.021  24.558  25.282  1.00  0.00    -0.206 F 
ATOM     73  C   UNL A   1      42.483  22.276  25.409  1.00  0.00     0.040 A 
ATOM     74  C   UNL A   1      41.952  21.284  27.539  1.00  0.00     0.040 A 
ATOM     75  F   UNL A   1      41.956  22.605  29.480  1.00  0.00    -0.206 F 
ATOM     76  C   UNL A   1      42.121  21.160  26.161  1.00  0.00     0.006 A 
ENDBRANCH  48  69
BRANCH  60  77
ATOM     77  C   UNL A   1      47.956  26.681  30.517  1.00  0.00     0.057 A 
ATOM     78  C   UNL A   1      49.007  26.943  29.629  1.00  0.00     0.134 A 
ATOM     79  C   UNL A   1      48.261  25.997  31.699  1.00  0.00     0.134 A 
ATOM     80  F   UNL A   1      48.777  27.583  28.473  1.00  0.00    -0.206 F 
ATOM     81  C   UNL A   1      50.309  26.521  29.899  1.00  0.00     0.040 A 
ATOM     82  C   UNL A   1      49.564  25.590  31.991  1.00  0.00     0.040 A 
ATOM     83  F   UNL A   1      47.301  25.722  32.595  1.00  0.00    -0.206 F 
ATOM     84  C   UNL A   1      50.592  25.848  31.087  1.00  0.00     0.006 A 
ENDBRANCH  60  77
ENDBRANCH  34  35
ENDBRANCH  26  29
ENDBRANCH  24  25
ENDBRANCH  23  24
ENDBRANCH   1  23
TORSDOF 16
ENDMDL
MODEL 2
REMARK VINA RESULT:     -10.7      4.278      7.955
REMARK SMILES C=CC[N@@H+](CC(=O)NCCCNC(=O)c1ccc(-c2c3nc(c(-c4c(F)cccc4F)c4ccc([nH]4)c(-c4c(F)cccc4F)c4nc(c(-c5c(F)cccc5F)c5ccc2[nH]5)C=C4)C=C3)cc1)Cc1ccc(C(F)(F)F)cc1
REMARK SMILES IDX 9 1 8 2 6 3 7 4 5 6 4 7 3 9 2 10 1 11 69 12 70 13 71 14
REMARK SMILES IDX 79 15 72 16 78 17 73 18 74 19 75 20 76 21 77 22 10 23 11 24
REMARK SMILES IDX 12 25 13 26 14 28 15 29 16 30 68 31 17 32 67 33 18 34 19 35
REMARK SMILES IDX 20 36 61 37 21 38 66 39 60 40 62 41 22 42 65 43 59 44 58 45
REMARK SMILES IDX 23 47 49 48 32 49 48 50 33 51 36 52 47 53 63 54 34 55 35 56
REMARK SMILES IDX 46 58 64 59 37 60 24 61 25 62 30 63 26 64 27 65 29 66 31 67
REMARK SMILES IDX 28 68 50 69 51 70 56 71 52 72 53 73 55 74 57 75 54 76 38 77
REMARK SMILES IDX 39 78 44 79 40 80 41 81 43 82 45 83 42 84
REMARK H PARENT 8 5 4 8 12 27 62 46 36 57
REMARK Flexibility Score: inf
ROOT
ATOM      1  C   UNL A   1      34.447  34.647  30.365  1.00  0.00     0.118 C 
ENDROOT
BRANCH   1   2
ATOM      2  N   UNL A   1      33.904  34.132  31.609  1.00  0.00    -0.351 N 
ATOM      3  C   UNL A   1      34.389  33.223  32.501  1.00  0.00     0.275 C 
ATOM      4  O   UNL A   1      33.858  33.224  33.620  1.00  0.00    -0.269 OA
ATOM      5  H   UNL A   1      33.027  34.507  31.851  1.00  0.00     0.163 HD
BRANCH   3   6
ATOM      6  C   UNL A   1      35.579  32.298  32.221  1.00  0.00     0.364 C 
BRANCH   6   7
ATOM      7  N   UNL A   1      36.892  32.648  32.804  1.00  0.00    -0.320 N 
ATOM      8  H   UNL A   1      37.567  32.200  32.184  1.00  0.00     0.349 HD
BRANCH   7   9
ATOM      9  C   UNL A   1      37.159  31.995  34.068  1.00  0.00     0.291 C 
BRANCH   9  10
ATOM     10  C   UNL A   1      38.399  31.159  34.155  1.00  0.00     0.025 C 
ATOM     11  C   UNL A   1      38.814  30.362  33.159  1.00  0.00     0.010 C 
ENDBRANCH   9  10
ENDBRANCH   7   9
BRANCH   7  12
ATOM     12  C   UNL A   1      37.382  34.015  32.603  1.00  0.00     0.299 C 
BRANCH  12  13
ATOM     13  C   UNL A   1      38.541  34.221  31.650  1.00  0.00     0.006 A 
ATOM     14  C   UNL A   1      38.304  34.315  30.271  1.00  0.00     0.010 A 
ATOM     15  C   UNL A   1      39.861  34.327  32.103  1.00  0.00     0.010 A 
ATOM     16  C   UNL A   1      39.333  34.632  29.384  1.00  0.00     0.013 A 
ATOM     17  C   UNL A   1      40.900  34.626  31.215  1.00  0.00     0.013 A 
ATOM     18  C   UNL A   1      40.640  34.814  29.851  1.00  0.00     0.056 A 
BRANCH  18  19
ATOM     19  C   UNL A   1      41.720  35.267  28.902  1.00  0.00     0.416 C 
ATOM     20  F   UNL A   1      41.233  35.818  27.757  1.00  0.00    -0.166 F 
ATOM     21  F   UNL A   1      42.526  36.214  29.463  1.00  0.00    -0.166 F 
ATOM     22  F   UNL A   1      42.555  34.263  28.512  1.00  0.00    -0.166 F 
ENDBRANCH  18  19
ENDBRANCH  12  13
ENDBRANCH   7  12
ENDBRANCH   6   7
ENDBRANCH   3   6
ENDBRANCH   1   2
BRANCH   1  23
ATOM     23  C   UNL A   1      33.999  33.851  29.135  1.00  0.00     0.042 C 
BRANCH  23  24
ATOM     24  C   UNL A   1      34.930  32.724  28.715  1.00  0.00     0.118 C 
BRANCH  24  25
ATOM     25  N   UNL A   1      34.216  31.503  28.388  1.00  0.00    -0.352 N 
ATOM     26  C   UNL A   1      34.660  30.237  28.093  1.00  0.00     0.251 C 
ATOM     27  H   UNL A   1      33.236  31.600  28.374  1.00  0.00     0.163 HD
ATOM     28  O   UNL A   1      33.849  29.424  27.653  1.00  0.00    -0.269 OA
BRANCH  26  29
ATOM     29  C   UNL A   1      36.078  29.820  28.261  1.00  0.00     0.039 A 
ATOM     30  C   UNL A   1      36.472  29.314  29.507  1.00  0.00     0.014 A 
ATOM     31  C   UNL A   1      37.048  30.004  27.274  1.00  0.00     0.014 A 
ATOM     32  C   UNL A   1      37.805  28.957  29.743  1.00  0.00     0.010 A 
ATOM     33  C   UNL A   1      38.360  29.564  27.476  1.00  0.00     0.010 A 
ATOM     34  C   UNL A   1      38.761  29.054  28.720  1.00  0.00    -0.014 A 
BRANCH  34  35
ATOM     35  C   UNL A   1      40.179  28.662  28.949  1.00  0.00     0.031 A 
ATOM     36  C   UNL A   1      41.143  29.624  29.599  1.00  0.00     0.074 A 
ATOM     37  C   UNL A   1      40.623  27.457  28.539  1.00  0.00     0.049 A 
ATOM     38  N   UNL A   1      42.426  29.486  29.825  1.00  0.00    -0.248 NA
ATOM     39  C   UNL A   1      40.598  30.922  30.026  1.00  0.00     0.031 C 
ATOM     40  C   UNL A   1      39.813  26.443  27.863  1.00  0.00     0.029 A 
ATOM     41  N   UNL A   1      41.868  26.884  28.623  1.00  0.00    -0.354 N 
ATOM     42  C   UNL A   1      42.843  30.682  30.398  1.00  0.00     0.074 A 
ATOM     43  C   UNL A   1      41.687  31.552  30.441  1.00  0.00     0.031 C 
ATOM     44  C   UNL A   1      40.574  25.365  27.616  1.00  0.00     0.029 A 
ATOM     45  C   UNL A   1      41.934  25.623  28.081  1.00  0.00     0.049 A 
ATOM     46  H   UNL A   1      42.642  27.334  29.034  1.00  0.00     0.167 HD
ATOM     47  C   UNL A   1      44.068  31.021  30.867  1.00  0.00     0.037 A 
ATOM     48  C   UNL A   1      42.971  24.771  27.965  1.00  0.00     0.037 A 
ATOM     49  C   UNL A   1      45.212  30.147  30.864  1.00  0.00     0.049 A 
ATOM     50  C   UNL A   1      44.318  25.166  28.500  1.00  0.00     0.074 A 
ATOM     51  C   UNL A   1      46.476  30.379  31.377  1.00  0.00     0.029 A 
ATOM     52  N   UNL A   1      45.228  28.872  30.322  1.00  0.00    -0.354 N 
ATOM     53  N   UNL A   1      44.679  26.279  29.091  1.00  0.00    -0.248 NA
ATOM     54  C   UNL A   1      45.404  24.184  28.356  1.00  0.00     0.031 C 
ATOM     55  C   UNL A   1      47.270  29.258  31.112  1.00  0.00     0.029 A 
ATOM     56  C   UNL A   1      46.486  28.312  30.471  1.00  0.00     0.049 A 
ATOM     57  H   UNL A   1      44.461  28.429  29.894  1.00  0.00     0.167 HD
ATOM     58  C   UNL A   1      46.021  26.121  29.412  1.00  0.00     0.074 A 
ATOM     59  C   UNL A   1      46.409  24.801  28.962  1.00  0.00     0.031 C 
ATOM     60  C   UNL A   1      46.858  26.993  30.025  1.00  0.00     0.037 A 
BRANCH  47  61
ATOM     61  C   UNL A   1      44.235  32.403  31.433  1.00  0.00     0.057 A 
ATOM     62  C   UNL A   1      44.737  33.460  30.663  1.00  0.00     0.134 A 
ATOM     63  C   UNL A   1      43.856  32.687  32.750  1.00  0.00     0.134 A 
ATOM     64  F   UNL A   1      45.128  33.253  29.396  1.00  0.00    -0.206 F 
ATOM     65  C   UNL A   1      44.881  34.744  31.191  1.00  0.00     0.040 A 
ATOM     66  C   UNL A   1      43.970  33.973  33.282  1.00  0.00     0.040 A 
ATOM     67  F   UNL A   1      43.359  31.723  33.540  1.00  0.00    -0.206 F 
ATOM     68  C   UNL A   1      44.491  35.005  32.503  1.00  0.00     0.006 A 
ENDBRANCH  47  61
BRANCH  48  69
ATOM     69  C   UNL A   1      42.771  23.444  27.331  1.00  0.00     0.057 A 
ATOM     70  C   UNL A   1      42.988  23.258  25.960  1.00  0.00     0.134 A 
ATOM     71  C   UNL A   1      42.354  22.333  28.074  1.00  0.00     0.134 A 
ATOM     72  F   UNL A   1      43.368  24.289  25.192  1.00  0.00    -0.206 F 
ATOM     73  C   UNL A   1      42.782  22.021  25.348  1.00  0.00     0.040 A 
ATOM     74  C   UNL A   1      42.167  21.084  27.480  1.00  0.00     0.040 A 
ATOM     75  F   UNL A   1      42.137  22.445  29.393  1.00  0.00    -0.206 F 
ATOM     76  C   UNL A   1      42.375  20.928  26.111  1.00  0.00     0.006 A 
ENDBRANCH  48  69
BRANCH  60  77
ATOM     77  C   UNL A   1      48.265  26.537  30.274  1.00  0.00     0.057 A 
ATOM     78  C   UNL A   1      48.623  25.849  31.441  1.00  0.00     0.134 A 
ATOM     79  C   UNL A   1      49.264  26.754  29.318  1.00  0.00     0.134 A 
ATOM     80  F   UNL A   1      47.715  25.621  32.401  1.00  0.00    -0.206 F 
ATOM     81  C   UNL A   1      49.931  25.411  31.655  1.00  0.00     0.040 A 
ATOM     82  C   UNL A   1      50.570  26.300  29.511  1.00  0.00     0.040 A 
ATOM     83  F   UNL A   1      48.986  27.400  28.175  1.00  0.00    -0.206 F 
ATOM     84  C   UNL A   1      50.907  25.631  30.685  1.00  0.00     0.006 A 
ENDBRANCH  60  77
ENDBRANCH  34  35
ENDBRANCH  26  29
ENDBRANCH  24  25
ENDBRANCH  23  24
ENDBRANCH   1  23
TORSDOF 16
ENDMDL
MODEL 3
REMARK VINA RESULT:     -10.6      1.564      1.977
REMARK SMILES C=CC[N@@H+](CC(=O)NCCCNC(=O)c1ccc(-c2c3nc(c(-c4c(F)cccc4F)c4ccc([nH]4)c(-c4c(F)cccc4F)c4nc(c(-c5c(F)cccc5F)c5ccc2[nH]5)C=C4)C=C3)cc1)Cc1ccc(C(F)(F)F)cc1
REMARK SMILES IDX 9 1 8 2 6 3 7 4 5 6 4 7 3 9 2 10 1 11 69 12 70 13 71 14
REMARK SMILES IDX 79 15 72 16 78 17 73 18 74 19 75 20 76 21 77 22 10 23 11 24
REMARK SMILES IDX 12 25 13 26 14 28 15 29 16 30 68 31 17 32 67 33 18 34 19 35
REMARK SMILES IDX 20 36 61 37 21 38 66 39 60 40 62 41 22 42 65 43 59 44 58 45
REMARK SMILES IDX 23 47 49 48 32 49 48 50 33 51 36 52 47 53 63 54 34 55 35 56
REMARK SMILES IDX 46 58 64 59 37 60 24 61 25 62 30 63 26 64 27 65 29 66 31 67
REMARK SMILES IDX 28 68 50 69 51 70 56 71 52 72 53 73 55 74 57 75 54 76 38 77
REMARK SMILES IDX 39 78 44 79 40 80 41 81 43 82 45 83 42 84
REMARK H PARENT 8 5 4 8 12 27 62 46 36 57
REMARK Flexibility Score: inf
ROOT
ATOM      1  C   UNL A   1      32.244  26.545  25.486  1.00  0.00     0.118 C 
ENDROOT
BRANCH   1   2
ATOM      2  N   UNL A   1      31.533  25.413  26.049  1.00  0.00    -0.351 N 
ATOM      3  C   UNL A   1      31.977  24.263  26.633  1.00  0.00     0.275 C 
ATOM      4  O   UNL A   1      31.142  23.637  27.300  1.00  0.00    -0.269 OA
ATOM      5  H   UNL A   1      30.553  25.487  26.000  1.00  0.00     0.163 HD
BRANCH   3   6
ATOM      6  C   UNL A   1      33.431  23.780  26.577  1.00  0.00     0.364 C 
BRANCH   6   7
ATOM      7  N   UNL A   1      33.936  23.221  25.304  1.00  0.00    -0.320 N 
ATOM      8  H   UNL A   1      34.554  22.463  25.594  1.00  0.00     0.349 HD
BRANCH   7   9
ATOM      9  C   UNL A   1      34.843  24.104  24.602  1.00  0.00     0.291 C 
BRANCH   9  10
ATOM     10  C   UNL A   1      36.265  23.651  24.464  1.00  0.00     0.025 C 
ATOM     11  C   UNL A   1      36.697  22.902  23.439  1.00  0.00     0.010 C 
ENDBRANCH   9  10
ENDBRANCH   7   9
BRANCH   7  12
ATOM     12  C   UNL A   1      33.022  22.385  24.520  1.00  0.00     0.299 C 
BRANCH  12  13
ATOM     13  C   UNL A   1      33.283  20.893  24.481  1.00  0.00     0.006 A 
ATOM     14  C   UNL A   1      32.278  20.019  24.045  1.00  0.00     0.010 A 
ATOM     15  C   UNL A   1      34.513  20.348  24.865  1.00  0.00     0.010 A 
ATOM     16  C   UNL A   1      32.531  18.657  23.876  1.00  0.00     0.013 A 
ATOM     17  C   UNL A   1      34.766  18.980  24.717  1.00  0.00     0.013 A 
ATOM     18  C   UNL A   1      33.788  18.126  24.188  1.00  0.00     0.056 A 
BRANCH  18  19
ATOM     19  C   UNL A   1      34.085  16.678  23.895  1.00  0.00     0.416 C 
ATOM     20  F   UNL A   1      35.106  16.176  24.642  1.00  0.00    -0.166 F 
ATOM     21  F   UNL A   1      33.008  15.879  24.145  1.00  0.00    -0.166 F 
ATOM     22  F   UNL A   1      34.418  16.445  22.595  1.00  0.00    -0.166 F 
ENDBRANCH  18  19
ENDBRANCH  12  13
ENDBRANCH   7  12
ENDBRANCH   6   7
ENDBRANCH   3   6
ENDBRANCH   1   2
BRANCH   1  23
ATOM     23  C   UNL A   1      32.130  27.814  26.337  1.00  0.00     0.042 C 
BRANCH  23  24
ATOM     24  C   UNL A   1      33.438  28.327  26.918  1.00  0.00     0.118 C 
BRANCH  24  25
ATOM     25  N   UNL A   1      33.453  29.770  27.074  1.00  0.00    -0.352 N 
ATOM     26  C   UNL A   1      34.320  30.609  27.730  1.00  0.00     0.251 C 
ATOM     27  H   UNL A   1      32.705  30.231  26.629  1.00  0.00     0.163 HD
ATOM     28  O   UNL A   1      33.991  31.785  27.878  1.00  0.00    -0.269 OA
BRANCH  26  29
ATOM     29  C   UNL A   1      35.621  30.150  28.286  1.00  0.00     0.039 A 
ATOM     30  C   UNL A   1      36.743  30.182  27.447  1.00  0.00     0.014 A 
ATOM     31  C   UNL A   1      35.751  29.599  29.562  1.00  0.00     0.014 A 
ATOM     32  C   UNL A   1      37.983  29.711  27.896  1.00  0.00     0.010 A 
ATOM     33  C   UNL A   1      37.006  29.212  30.044  1.00  0.00     0.010 A 
ATOM     34  C   UNL A   1      38.134  29.244  29.211  1.00  0.00    -0.014 A 
BRANCH  34  35
ATOM     35  C   UNL A   1      39.450  28.756  29.710  1.00  0.00     0.031 A 
ATOM     36  C   UNL A   1      40.134  29.445  30.865  1.00  0.00     0.074 A 
ATOM     37  C   UNL A   1      40.059  27.718  29.103  1.00  0.00     0.049 A 
ATOM     38  N   UNL A   1      41.306  29.203  31.397  1.00  0.00    -0.248 NA
ATOM     39  C   UNL A   1      39.418  30.569  31.486  1.00  0.00     0.031 C 
ATOM     40  C   UNL A   1      39.533  26.982  27.952  1.00  0.00     0.029 A 
ATOM     41  N   UNL A   1      41.261  27.106  29.365  1.00  0.00    -0.354 N 
ATOM     42  C   UNL A   1      41.476  30.155  32.396  1.00  0.00     0.074 A 
ATOM     43  C   UNL A   1      40.307  31.008  32.364  1.00  0.00     0.031 C 
ATOM     44  C   UNL A   1      40.393  26.006  27.623  1.00  0.00     0.029 A 
ATOM     45  C   UNL A   1      41.549  26.067  28.514  1.00  0.00     0.049 A 
ATOM     46  H   UNL A   1      41.860  27.385  30.095  1.00  0.00     0.167 HD
ATOM     47  C   UNL A   1      42.497  30.296  33.275  1.00  0.00     0.037 A 
ATOM     48  C   UNL A   1      42.624  25.257  28.450  1.00  0.00     0.037 A 
ATOM     49  C   UNL A   1      43.642  29.427  33.338  1.00  0.00     0.049 A 
ATOM     50  C   UNL A   1      43.740  25.427  29.441  1.00  0.00     0.074 A 
ATOM     51  C   UNL A   1      44.695  29.452  34.238  1.00  0.00     0.029 A 
ATOM     52  N   UNL A   1      43.884  28.376  32.469  1.00  0.00    -0.354 N 
ATOM     53  N   UNL A   1      43.855  26.296  30.416  1.00  0.00    -0.248 NA
ATOM     54  C   UNL A   1      44.876  24.500  29.328  1.00  0.00     0.031 C 
ATOM     55  C   UNL A   1      45.593  28.438  33.889  1.00  0.00     0.029 A 
ATOM     56  C   UNL A   1      45.079  27.756  32.798  1.00  0.00     0.049 A 
ATOM     57  H   UNL A   1      43.296  28.109  31.726  1.00  0.00     0.167 HD
ATOM     58  C   UNL A   1      45.058  26.005  31.045  1.00  0.00     0.074 A 
ATOM     59  C   UNL A   1      45.632  24.871  30.352  1.00  0.00     0.031 C 
ATOM     60  C   UNL A   1      45.636  26.623  32.104  1.00  0.00     0.037 A 
BRANCH  47  61
ATOM     61  C   UNL A   1      42.418  31.436  34.251  1.00  0.00     0.057 A 
ATOM     62  C   UNL A   1      42.970  32.691  33.966  1.00  0.00     0.134 A 
ATOM     63  C   UNL A   1      41.751  31.286  35.473  1.00  0.00     0.134 A 
ATOM     64  F   UNL A   1      43.630  32.898  32.817  1.00  0.00    -0.206 F 
ATOM     65  C   UNL A   1      42.885  33.749  34.873  1.00  0.00     0.040 A 
ATOM     66  C   UNL A   1      41.636  32.344  36.377  1.00  0.00     0.040 A 
ATOM     67  F   UNL A   1      41.191  30.113  35.805  1.00  0.00    -0.206 F 
ATOM     68  C   UNL A   1      42.211  33.578  36.080  1.00  0.00     0.006 A 
ENDBRANCH  47  61
BRANCH  48  69
ATOM     69  C   UNL A   1      42.687  24.191  27.419  1.00  0.00     0.057 A 
ATOM     70  C   UNL A   1      43.180  24.456  26.136  1.00  0.00     0.134 A 
ATOM     71  C   UNL A   1      42.253  22.887  27.687  1.00  0.00     0.134 A 
ATOM     72  F   UNL A   1      43.592  25.691  25.813  1.00  0.00    -0.206 F 
ATOM     73  C   UNL A   1      43.225  23.469  25.150  1.00  0.00     0.040 A 
ATOM     74  C   UNL A   1      42.314  21.883  26.718  1.00  0.00     0.040 A 
ATOM     75  F   UNL A   1      41.777  22.568  28.899  1.00  0.00    -0.206 F 
ATOM     76  C   UNL A   1      42.795  22.176  25.443  1.00  0.00     0.006 A 
ENDBRANCH  48  69
BRANCH  60  77
ATOM     77  C   UNL A   1      46.939  26.068  32.597  1.00  0.00     0.057 A 
ATOM     78  C   UNL A   1      48.169  26.515  32.096  1.00  0.00     0.134 A 
ATOM     79  C   UNL A   1      46.965  25.105  33.613  1.00  0.00     0.134 A 
ATOM     80  F   UNL A   1      48.212  27.426  31.112  1.00  0.00    -0.206 F 
ATOM     81  C   UNL A   1      49.377  26.006  32.574  1.00  0.00     0.040 A 
ATOM     82  C   UNL A   1      48.168  24.607  34.116  1.00  0.00     0.040 A 
ATOM     83  F   UNL A   1      45.823  24.642  34.142  1.00  0.00    -0.206 F 
ATOM     84  C   UNL A   1      49.379  25.054  33.592  1.00  0.00     0.006 A 
ENDBRANCH  60  77
ENDBRANCH  34  35
ENDBRANCH  26  29
ENDBRANCH  24  25
ENDBRANCH  23  24
ENDBRANCH   1  23
TORSDOF 16
ENDMDL
