MODEL 1
REMARK VINA RESULT:     -11.5      0.000      0.000
REMARK SMILES C[C@@H]1CCN(c2cncc(C(=O)NCCCNC(=O)c3ccc(-c4c5nc(c(-c6c(F)cccc6F)c6ccc([nH]6)c(-c6c(F)cccc6F)c6nc(c(-c7c(F)cccc7F)c7ccc4[nH]7)C=C6)C=C5)cc3)n2)[C@H](C)C1
REMARK SMILES IDX 15 1 14 2 13 3 11 4 12 5 10 7 6 8 7 9 74 10 8 11 9 12 5 13
REMARK SMILES IDX 1 14 2 15 3 16 77 17 4 18 75 19 76 20 16 21 17 22 18 23
REMARK SMILES IDX 19 25 20 26 21 27 73 28 22 29 72 30 23 31 24 32 25 33 66 34
REMARK SMILES IDX 26 35 71 36 65 37 67 38 27 39 70 40 64 41 63 42 28 44 54 45
REMARK SMILES IDX 37 46 53 47 38 48 41 49 52 50 68 51 39 52 40 53 51 55 69 56
REMARK SMILES IDX 42 57 29 58 30 59 35 60 31 61 32 62 34 63 36 64 33 65 55 66
REMARK SMILES IDX 56 67 61 68 57 69 58 70 60 71 62 72 59 73 43 74 44 75 49 76
REMARK SMILES IDX 45 77 46 78 48 79 50 80 47 81
REMARK H PARENT 13 6 17 24 67 43 41 54
REMARK Flexibility Score: inf
ROOT
ATOM      1  C   UNL A   1      35.225  33.272  27.917  1.00  0.00     0.042 C 
ENDROOT
BRANCH   1   2
ATOM      2  C   UNL A   1      35.256  34.733  28.353  1.00  0.00     0.118 C 
BRANCH   2   3
ATOM      3  N   UNL A   1      33.938  35.340  28.297  1.00  0.00    -0.351 N 
ATOM      4  C   UNL A   1      33.167  35.912  29.284  1.00  0.00     0.271 C 
ATOM      5  O   UNL A   1      32.072  36.367  28.949  1.00  0.00    -0.267 OA
ATOM      6  H   UNL A   1      33.527  35.344  27.402  1.00  0.00     0.163 HD
BRANCH   4   7
ATOM      7  C   UNL A   1      33.590  36.000  30.713  1.00  0.00     0.148 A 
ATOM      8  C   UNL A   1      34.686  35.138  32.561  1.00  0.00     0.148 A 
ATOM      9  C   UNL A   1      34.229  36.246  33.286  1.00  0.00     0.157 A 
ATOM     10  N   UNL A   1      34.366  35.025  31.254  1.00  0.00    -0.222 NA
ATOM     11  N   UNL A   1      33.467  37.241  32.767  1.00  0.00    -0.258 NA
ATOM     12  C   UNL A   1      33.157  37.088  31.459  1.00  0.00     0.145 A 
BRANCH   8  13
ATOM     13  N   UNL A   1      35.482  34.170  33.134  1.00  0.00    -0.353 N 
ATOM     14  C   UNL A   1      37.793  31.656  34.763  1.00  0.00     0.008 C 
ATOM     15  C   UNL A   1      37.901  33.106  34.294  1.00  0.00    -0.011 C 
ATOM     16  C   UNL A   1      36.960  34.041  35.068  1.00  0.00     0.025 C 
ATOM     17  C   UNL A   1      37.713  33.261  32.774  1.00  0.00     0.028 C 
ATOM     18  C   UNL A   1      35.517  33.986  34.577  1.00  0.00     0.118 C 
ATOM     19  C   UNL A   1      36.252  33.266  32.281  1.00  0.00     0.081 C 
ATOM     20  C   UNL A   1      35.633  31.872  32.214  1.00  0.00     0.031 C 
ENDBRANCH   8  13
ENDBRANCH   4   7
ENDBRANCH   2   3
ENDBRANCH   1   2
BRANCH   1  21
ATOM     21  C   UNL A   1      34.500  32.373  28.915  1.00  0.00     0.118 C 
BRANCH  21  22
ATOM     22  N   UNL A   1      33.950  31.177  28.282  1.00  0.00    -0.352 N 
ATOM     23  C   UNL A   1      34.574  30.035  27.848  1.00  0.00     0.251 C 
ATOM     24  H   UNL A   1      32.974  31.192  28.146  1.00  0.00     0.163 HD
ATOM     25  O   UNL A   1      33.975  29.237  27.137  1.00  0.00    -0.269 OA
BRANCH  23  26
ATOM     26  C   UNL A   1      35.975  29.774  28.232  1.00  0.00     0.039 A 
ATOM     27  C   UNL A   1      36.256  29.321  29.524  1.00  0.00     0.014 A 
ATOM     28  C   UNL A   1      37.008  29.986  27.318  1.00  0.00     0.014 A 
ATOM     29  C   UNL A   1      37.570  29.005  29.874  1.00  0.00     0.010 A 
ATOM     30  C   UNL A   1      38.302  29.598  27.641  1.00  0.00     0.010 A 
ATOM     31  C   UNL A   1      38.595  29.102  28.921  1.00  0.00    -0.014 A 
BRANCH  31  32
ATOM     32  C   UNL A   1      39.992  28.699  29.223  1.00  0.00     0.031 A 
ATOM     33  C   UNL A   1      40.931  29.693  29.847  1.00  0.00     0.074 A 
ATOM     34  C   UNL A   1      40.438  27.487  28.843  1.00  0.00     0.049 A 
ATOM     35  N   UNL A   1      42.225  29.611  30.023  1.00  0.00    -0.248 NA
ATOM     36  C   UNL A   1      40.340  30.961  30.304  1.00  0.00     0.031 C 
ATOM     37  C   UNL A   1      39.630  26.447  28.201  1.00  0.00     0.029 A 
ATOM     38  N   UNL A   1      41.693  26.934  28.914  1.00  0.00    -0.354 N 
ATOM     39  C   UNL A   1      42.602  30.819  30.596  1.00  0.00     0.074 A 
ATOM     40  C   UNL A   1      41.413  31.638  30.685  1.00  0.00     0.031 C 
ATOM     41  C   UNL A   1      40.409  25.386  27.937  1.00  0.00     0.029 A 
ATOM     42  C   UNL A   1      41.778  25.687  28.343  1.00  0.00     0.049 A 
ATOM     43  H   UNL A   1      42.458  27.388  29.335  1.00  0.00     0.167 HD
ATOM     44  C   UNL A   1      43.826  31.201  31.031  1.00  0.00     0.037 A 
ATOM     45  C   UNL A   1      42.845  24.891  28.141  1.00  0.00     0.037 A 
ATOM     46  C   UNL A   1      45.002  30.377  30.952  1.00  0.00     0.049 A 
ATOM     47  C   UNL A   1      44.202  25.354  28.599  1.00  0.00     0.074 A 
ATOM     48  C   UNL A   1      46.284  30.661  31.390  1.00  0.00     0.029 A 
ATOM     49  N   UNL A   1      45.039  29.106  30.398  1.00  0.00    -0.354 N 
ATOM     50  N   UNL A   1      44.539  26.480  29.180  1.00  0.00    -0.248 NA
ATOM     51  C   UNL A   1      45.328  24.435  28.378  1.00  0.00     0.031 C 
ATOM     52  C   UNL A   1      47.106  29.579  31.062  1.00  0.00     0.029 A 
ATOM     53  C   UNL A   1      46.325  28.599  30.470  1.00  0.00     0.049 A 
ATOM     54  H   UNL A   1      44.266  28.635  30.011  1.00  0.00     0.167 HD
ATOM     55  C   UNL A   1      45.903  26.390  29.425  1.00  0.00     0.074 A 
ATOM     56  C   UNL A   1      46.331  25.096  28.937  1.00  0.00     0.031 C 
ATOM     57  C   UNL A   1      46.727  27.297  30.004  1.00  0.00     0.037 A 
BRANCH  44  58
ATOM     58  C   UNL A   1      43.949  32.567  31.641  1.00  0.00     0.057 A 
ATOM     59  C   UNL A   1      44.236  33.697  30.864  1.00  0.00     0.134 A 
ATOM     60  C   UNL A   1      43.743  32.763  33.013  1.00  0.00     0.134 A 
ATOM     61  F   UNL A   1      44.455  33.578  29.546  1.00  0.00    -0.206 F 
ATOM     62  C   UNL A   1      44.340  34.968  31.431  1.00  0.00     0.040 A 
ATOM     63  C   UNL A   1      43.815  34.034  33.587  1.00  0.00     0.040 A 
ATOM     64  F   UNL A   1      43.460  31.727  33.815  1.00  0.00    -0.206 F 
ATOM     65  C   UNL A   1      44.121  35.140  32.797  1.00  0.00     0.006 A 
ENDBRANCH  44  58
BRANCH  45  66
ATOM     66  C   UNL A   1      42.681  23.576  27.466  1.00  0.00     0.057 A 
ATOM     67  C   UNL A   1      42.383  22.420  28.196  1.00  0.00     0.134 A 
ATOM     68  C   UNL A   1      42.845  23.439  26.083  1.00  0.00     0.134 A 
ATOM     69  F   UNL A   1      42.230  22.482  29.527  1.00  0.00    -0.206 F 
ATOM     70  C   UNL A   1      42.283  21.171  27.580  1.00  0.00     0.040 A 
ATOM     71  C   UNL A   1      42.719  22.203  25.450  1.00  0.00     0.040 A 
ATOM     72  F   UNL A   1      43.123  24.509  25.323  1.00  0.00    -0.206 F 
ATOM     73  C   UNL A   1      42.449  21.060  26.201  1.00  0.00     0.006 A 
ENDBRANCH  45  66
BRANCH  57  74
ATOM     74  C   UNL A   1      48.163  26.905  30.200  1.00  0.00     0.057 A 
ATOM     75  C   UNL A   1      48.584  26.155  31.304  1.00  0.00     0.134 A 
ATOM     76  C   UNL A   1      49.121  27.224  29.228  1.00  0.00     0.134 A 
ATOM     77  F   UNL A   1      47.719  25.828  32.276  1.00  0.00    -0.206 F 
ATOM     78  C   UNL A   1      49.913  25.748  31.442  1.00  0.00     0.040 A 
ATOM     79  C   UNL A   1      50.444  26.799  29.341  1.00  0.00     0.040 A 
ATOM     80  F   UNL A   1      48.779  27.932  28.142  1.00  0.00    -0.206 F 
ATOM     81  C   UNL A   1      50.844  26.061  30.454  1.00  0.00     0.006 A 
ENDBRANCH  57  74
ENDBRANCH  31  32
ENDBRANCH  23  26
ENDBRANCH  21  22
ENDBRANCH   1  21
TORSDOF 11
ENDMDL
MODEL 2
REMARK VINA RESULT:     -11.5      4.226      9.370
REMARK SMILES C[C@@H]1CCN(c2cncc(C(=O)NCCCNC(=O)c3ccc(-c4c5nc(c(-c6c(F)cccc6F)c6ccc([nH]6)c(-c6c(F)cccc6F)c6nc(c(-c7c(F)cccc7F)c7ccc4[nH]7)C=C6)C=C5)cc3)n2)[C@H](C)C1
REMARK SMILES IDX 15 1 14 2 13 3 11 4 12 5 10 7 6 8 7 9 74 10 8 11 9 12 5 13
REMARK SMILES IDX 1 14 2 15 3 16 77 17 4 18 75 19 76 20 16 21 17 22 18 23
REMARK SMILES IDX 19 25 20 26 21 27 73 28 22 29 72 30 23 31 24 32 25 33 66 34
REMARK SMILES IDX 26 35 71 36 65 37 67 38 27 39 70 40 64 41 63 42 28 44 54 45
REMARK SMILES IDX 37 46 53 47 38 48 41 49 52 50 68 51 39 52 40 53 51 55 69 56
REMARK SMILES IDX 42 57 29 58 30 59 35 60 31 61 32 62 34 63 36 64 33 65 55 66
REMARK SMILES IDX 56 67 61 68 57 69 58 70 60 71 62 72 59 73 43 74 44 75 49 76
REMARK SMILES IDX 45 77 46 78 48 79 50 80 47 81
REMARK H PARENT 13 6 17 24 67 43 41 54
REMARK Flexibility Score: inf
ROOT
ATOM      1  C   UNL A   1      36.861  20.408  24.941  1.00  0.00     0.042 C 
ENDROOT
BRANCH   1   2
ATOM      2  C   UNL A   1      35.884  21.549  24.679  1.00  0.00     0.118 C 
BRANCH   2   3
ATOM      3  N   UNL A   1      34.504  21.119  24.814  1.00  0.00    -0.351 N 
ATOM      4  C   UNL A   1      33.329  21.734  24.445  1.00  0.00     0.271 C 
ATOM      5  O   UNL A   1      32.280  21.128  24.675  1.00  0.00    -0.267 OA
ATOM      6  H   UNL A   1      34.389  20.239  25.240  1.00  0.00     0.163 HD
BRANCH   4   7
ATOM      7  C   UNL A   1      33.269  23.078  23.796  1.00  0.00     0.148 A 
ATOM      8  C   UNL A   1      32.919  25.364  23.894  1.00  0.00     0.148 A 
ATOM      9  C   UNL A   1      33.137  25.406  22.511  1.00  0.00     0.157 A 
ATOM     10  N   UNL A   1      32.998  24.181  24.541  1.00  0.00    -0.222 NA
ATOM     11  N   UNL A   1      33.426  24.323  21.747  1.00  0.00    -0.258 NA
ATOM     12  C   UNL A   1      33.485  23.155  22.427  1.00  0.00     0.145 A 
BRANCH   8  13
ATOM     13  N   UNL A   1      32.658  26.502  24.626  1.00  0.00    -0.353 N 
ATOM     14  C   UNL A   1      32.032  29.545  26.786  1.00  0.00     0.008 C 
ATOM     15  C   UNL A   1      32.423  28.087  27.026  1.00  0.00    -0.011 C 
ATOM     16  C   UNL A   1      33.782  27.737  26.401  1.00  0.00     0.025 C 
ATOM     17  C   UNL A   1      31.334  27.093  26.583  1.00  0.00     0.028 C 
ATOM     18  C   UNL A   1      33.706  27.473  24.900  1.00  0.00     0.118 C 
ATOM     19  C   UNL A   1      31.293  26.778  25.074  1.00  0.00     0.081 C 
ATOM     20  C   UNL A   1      30.627  27.875  24.247  1.00  0.00     0.031 C 
ENDBRANCH   8  13
ENDBRANCH   4   7
ENDBRANCH   2   3
ENDBRANCH   1   2
BRANCH   1  21
ATOM     21  C   UNL A   1      38.238  20.900  25.384  1.00  0.00     0.118 C 
BRANCH  21  22
ATOM     22  N   UNL A   1      39.199  19.807  25.512  1.00  0.00    -0.352 N 
ATOM     23  C   UNL A   1      40.514  19.823  25.905  1.00  0.00     0.251 C 
ATOM     24  H   UNL A   1      38.846  18.917  25.281  1.00  0.00     0.163 HD
ATOM     25  O   UNL A   1      41.219  18.837  25.733  1.00  0.00    -0.269 OA
BRANCH  23  26
ATOM     26  C   UNL A   1      41.078  21.035  26.528  1.00  0.00     0.039 A 
ATOM     27  C   UNL A   1      41.682  22.002  25.719  1.00  0.00     0.014 A 
ATOM     28  C   UNL A   1      41.019  21.210  27.912  1.00  0.00     0.014 A 
ATOM     29  C   UNL A   1      42.156  23.183  26.292  1.00  0.00     0.010 A 
ATOM     30  C   UNL A   1      41.419  22.417  28.470  1.00  0.00     0.010 A 
ATOM     31  C   UNL A   1      41.990  23.416  27.666  1.00  0.00    -0.014 A 
BRANCH  31  32
ATOM     32  C   UNL A   1      42.403  24.691  28.305  1.00  0.00     0.031 A 
ATOM     33  C   UNL A   1      41.396  25.791  28.483  1.00  0.00     0.074 A 
ATOM     34  C   UNL A   1      43.696  24.893  28.624  1.00  0.00     0.049 A 
ATOM     35  N   UNL A   1      41.584  27.034  28.844  1.00  0.00    -0.248 NA
ATOM     36  C   UNL A   1      39.994  25.456  28.185  1.00  0.00     0.031 C 
ATOM     37  C   UNL A   1      44.773  23.912  28.470  1.00  0.00     0.029 A 
ATOM     38  N   UNL A   1      44.330  26.006  29.118  1.00  0.00    -0.354 N 
ATOM     39  C   UNL A   1      40.330  27.631  28.801  1.00  0.00     0.074 A 
ATOM     40  C   UNL A   1      39.399  26.631  28.325  1.00  0.00     0.031 C 
ATOM     41  C   UNL A   1      45.931  24.466  28.859  1.00  0.00     0.029 A 
ATOM     42  C   UNL A   1      45.691  25.853  29.242  1.00  0.00     0.049 A 
ATOM     43  H   UNL A   1      43.856  26.833  29.361  1.00  0.00     0.167 HD
ATOM     44  C   UNL A   1      39.982  28.892  29.151  1.00  0.00     0.037 A 
ATOM     45  C   UNL A   1      46.639  26.742  29.594  1.00  0.00     0.037 A 
ATOM     46  C   UNL A   1      40.911  29.877  29.636  1.00  0.00     0.049 A 
ATOM     47  C   UNL A   1      46.233  28.149  29.941  1.00  0.00     0.074 A 
ATOM     48  C   UNL A   1      40.654  31.175  30.043  1.00  0.00     0.029 A 
ATOM     49  N   UNL A   1      42.275  29.673  29.780  1.00  0.00    -0.354 N 
ATOM     50  N   UNL A   1      45.038  28.689  29.939  1.00  0.00    -0.248 NA
ATOM     51  C   UNL A   1      47.305  29.071  30.344  1.00  0.00     0.031 C 
ATOM     52  C   UNL A   1      41.870  31.770  30.393  1.00  0.00     0.029 A 
ATOM     53  C   UNL A   1      42.875  30.826  30.257  1.00  0.00     0.049 A 
ATOM     54  H   UNL A   1      42.746  28.833  29.574  1.00  0.00     0.167 HD
ATOM     55  C   UNL A   1      45.210  29.997  30.373  1.00  0.00     0.074 A 
ATOM     56  C   UNL A   1      46.623  30.169  30.637  1.00  0.00     0.031 C 
ATOM     57  C   UNL A   1      44.281  30.969  30.540  1.00  0.00     0.037 A 
BRANCH  44  58
ATOM     58  C   UNL A   1      38.535  29.270  29.029  1.00  0.00     0.057 A 
ATOM     59  C   UNL A   1      37.675  29.255  30.136  1.00  0.00     0.134 A 
ATOM     60  C   UNL A   1      38.002  29.690  27.804  1.00  0.00     0.134 A 
ATOM     61  F   UNL A   1      38.118  28.853  31.336  1.00  0.00    -0.206 F 
ATOM     62  C   UNL A   1      36.331  29.617  30.023  1.00  0.00     0.040 A 
ATOM     63  C   UNL A   1      36.667  30.082  27.685  1.00  0.00     0.040 A 
ATOM     64  F   UNL A   1      38.770  29.734  26.705  1.00  0.00    -0.206 F 
ATOM     65  C   UNL A   1      35.827  30.040  28.795  1.00  0.00     0.006 A 
ENDBRANCH  44  58
BRANCH  45  66
ATOM     66  C   UNL A   1      48.069  26.336  29.629  1.00  0.00     0.057 A 
ATOM     67  C   UNL A   1      48.884  26.460  28.497  1.00  0.00     0.134 A 
ATOM     68  C   UNL A   1      48.648  25.793  30.782  1.00  0.00     0.134 A 
ATOM     69  F   UNL A   1      48.385  26.958  27.357  1.00  0.00    -0.206 F 
ATOM     70  C   UNL A   1      50.212  26.030  28.502  1.00  0.00     0.040 A 
ATOM     71  C   UNL A   1      49.982  25.387  30.809  1.00  0.00     0.040 A 
ATOM     72  F   UNL A   1      47.925  25.655  31.903  1.00  0.00    -0.206 F 
ATOM     73  C   UNL A   1      50.766  25.494  29.663  1.00  0.00     0.006 A 
ENDBRANCH  45  66
BRANCH  57  74
ATOM     74  C   UNL A   1      44.744  32.288  31.087  1.00  0.00     0.057 A 
ATOM     75  C   UNL A   1      45.101  33.354  30.254  1.00  0.00     0.134 A 
ATOM     76  C   UNL A   1      44.763  32.510  32.471  1.00  0.00     0.134 A 
ATOM     77  F   UNL A   1      45.116  33.202  28.922  1.00  0.00    -0.206 F 
ATOM     78  C   UNL A   1      45.474  34.594  30.779  1.00  0.00     0.040 A 
ATOM     79  C   UNL A   1      45.106  33.752  33.006  1.00  0.00     0.040 A 
ATOM     80  F   UNL A   1      44.424  31.532  33.323  1.00  0.00    -0.206 F 
ATOM     81  C   UNL A   1      45.466  34.798  32.157  1.00  0.00     0.006 A 
ENDBRANCH  57  74
ENDBRANCH  31  32
ENDBRANCH  23  26
ENDBRANCH  21  22
ENDBRANCH   1  21
TORSDOF 11
ENDMDL
MODEL 3
REMARK VINA RESULT:     -11.5      3.216      6.459
REMARK SMILES C[C@@H]1CCN(c2cncc(C(=O)NCCCNC(=O)c3ccc(-c4c5nc(c(-c6c(F)cccc6F)c6ccc([nH]6)c(-c6c(F)cccc6F)c6nc(c(-c7c(F)cccc7F)c7ccc4[nH]7)C=C6)C=C5)cc3)n2)[C@H](C)C1
REMARK SMILES IDX 15 1 14 2 13 3 11 4 12 5 10 7 6 8 7 9 74 10 8 11 9 12 5 13
REMARK SMILES IDX 1 14 2 15 3 16 77 17 4 18 75 19 76 20 16 21 17 22 18 23
REMARK SMILES IDX 19 25 20 26 21 27 73 28 22 29 72 30 23 31 24 32 25 33 66 34
REMARK SMILES IDX 26 35 71 36 65 37 67 38 27 39 70 40 64 41 63 42 28 44 54 45
REMARK SMILES IDX 37 46 53 47 38 48 41 49 52 50 68 51 39 52 40 53 51 55 69 56
REMARK SMILES IDX 42 57 29 58 30 59 35 60 31 61 32 62 34 63 36 64 33 65 55 66
REMARK SMILES IDX 56 67 61 68 57 69 58 70 60 71 62 72 59 73 43 74 44 75 49 76
REMARK SMILES IDX 45 77 46 78 48 79 50 80 47 81
REMARK H PARENT 13 6 17 24 67 43 41 54
REMARK Flexibility Score: inf
ROOT
ATOM      1  C   UNL A   1      33.169  28.583  25.815  1.00  0.00     0.042 C 
ENDROOT
BRANCH   1   2
ATOM      2  C   UNL A   1      31.649  28.464  25.834  1.00  0.00     0.118 C 
BRANCH   2   3
ATOM      3  N   UNL A   1      31.142  27.831  24.630  1.00  0.00    -0.351 N 
ATOM      4  C   UNL A   1      31.050  26.502  24.281  1.00  0.00     0.271 C 
ATOM      5  O   UNL A   1      30.561  26.243  23.179  1.00  0.00    -0.267 OA
ATOM      6  H   UNL A   1      30.808  28.457  23.948  1.00  0.00     0.163 HD
BRANCH   4   7
ATOM      7  C   UNL A   1      31.511  25.385  25.158  1.00  0.00     0.148 A 
ATOM      8  C   UNL A   1      33.060  23.764  25.732  1.00  0.00     0.148 A 
ATOM      9  C   UNL A   1      32.192  23.369  26.757  1.00  0.00     0.157 A 
ATOM     10  N   UNL A   1      32.713  24.794  24.931  1.00  0.00    -0.222 NA
ATOM     11  N   UNL A   1      30.995  23.952  27.016  1.00  0.00    -0.258 NA
ATOM     12  C   UNL A   1      30.675  24.971  26.186  1.00  0.00     0.145 A 
BRANCH   8  13
ATOM     13  N   UNL A   1      34.280  23.153  25.533  1.00  0.00    -0.353 N 
ATOM     14  C   UNL A   1      37.703  21.652  24.944  1.00  0.00     0.008 C 
ATOM     15  C   UNL A   1      36.998  22.960  24.584  1.00  0.00    -0.011 C 
ATOM     16  C   UNL A   1      36.617  23.778  25.827  1.00  0.00     0.025 C 
ATOM     17  C   UNL A   1      35.784  22.753  23.660  1.00  0.00     0.028 C 
ATOM     18  C   UNL A   1      35.349  23.280  26.512  1.00  0.00     0.118 C 
ATOM     19  C   UNL A   1      34.484  22.307  24.359  1.00  0.00     0.081 C 
ATOM     20  C   UNL A   1      34.468  20.821  24.711  1.00  0.00     0.031 C 
ENDBRANCH   8  13
ENDBRANCH   4   7
ENDBRANCH   2   3
ENDBRANCH   1   2
BRANCH   1  21
ATOM     21  C   UNL A   1      33.769  28.701  27.215  1.00  0.00     0.118 C 
BRANCH  21  22
ATOM     22  N   UNL A   1      33.796  30.082  27.689  1.00  0.00    -0.352 N 
ATOM     23  C   UNL A   1      34.756  30.759  28.398  1.00  0.00     0.251 C 
ATOM     24  H   UNL A   1      32.998  30.613  27.462  1.00  0.00     0.163 HD
ATOM     25  O   UNL A   1      34.500  31.847  28.898  1.00  0.00    -0.269 OA
BRANCH  23  26
ATOM     26  C   UNL A   1      36.098  30.168  28.564  1.00  0.00     0.039 A 
ATOM     27  C   UNL A   1      37.000  30.210  27.498  1.00  0.00     0.014 A 
ATOM     28  C   UNL A   1      36.458  29.564  29.770  1.00  0.00     0.014 A 
ATOM     29  C   UNL A   1      38.294  29.715  27.669  1.00  0.00     0.010 A 
ATOM     30  C   UNL A   1      37.768  29.144  29.964  1.00  0.00     0.010 A 
ATOM     31  C   UNL A   1      38.699  29.218  28.917  1.00  0.00    -0.014 A 
BRANCH  31  32
ATOM     32  C   UNL A   1      40.088  28.758  29.169  1.00  0.00     0.031 A 
ATOM     33  C   UNL A   1      41.097  29.719  29.729  1.00  0.00     0.074 A 
ATOM     34  C   UNL A   1      40.462  27.518  28.799  1.00  0.00     0.049 A 
ATOM     35  N   UNL A   1      42.392  29.582  29.852  1.00  0.00    -0.248 NA
ATOM     36  C   UNL A   1      40.584  31.023  30.181  1.00  0.00     0.031 C 
ATOM     37  C   UNL A   1      39.581  26.503  28.217  1.00  0.00     0.029 A 
ATOM     38  N   UNL A   1      41.692  26.909  28.831  1.00  0.00    -0.354 N 
ATOM     39  C   UNL A   1      42.848  30.783  30.380  1.00  0.00     0.074 A 
ATOM     40  C   UNL A   1      41.702  31.658  30.500  1.00  0.00     0.031 C 
ATOM     41  C   UNL A   1      40.298  25.401  27.945  1.00  0.00     0.029 A 
ATOM     42  C   UNL A   1      41.696  25.647  28.286  1.00  0.00     0.049 A 
ATOM     43  H   UNL A   1      42.494  27.336  29.207  1.00  0.00     0.167 HD
ATOM     44  C   UNL A   1      44.106  31.118  30.754  1.00  0.00     0.037 A 
ATOM     45  C   UNL A   1      42.716  24.799  28.058  1.00  0.00     0.037 A 
ATOM     46  C   UNL A   1      45.239  30.239  30.644  1.00  0.00     0.049 A 
ATOM     47  C   UNL A   1      44.111  25.208  28.446  1.00  0.00     0.074 A 
ATOM     48  C   UNL A   1      46.550  30.473  31.021  1.00  0.00     0.029 A 
ATOM     49  N   UNL A   1      45.194  28.956  30.119  1.00  0.00    -0.354 N 
ATOM     50  N   UNL A   1      44.523  26.330  28.986  1.00  0.00    -0.248 NA
ATOM     51  C   UNL A   1      45.183  24.234  28.200  1.00  0.00     0.031 C 
ATOM     52  C   UNL A   1      47.307  29.347  30.683  1.00  0.00     0.029 A 
ATOM     53  C   UNL A   1      46.458  28.392  30.149  1.00  0.00     0.049 A 
ATOM     54  H   UNL A   1      44.384  28.513  29.776  1.00  0.00     0.167 HD
ATOM     55  C   UNL A   1      45.891  26.182  29.175  1.00  0.00     0.074 A 
ATOM     56  C   UNL A   1      46.239  24.859  28.700  1.00  0.00     0.031 C 
ATOM     57  C   UNL A   1      46.780  27.062  29.697  1.00  0.00     0.037 A 
BRANCH  44  58
ATOM     58  C   UNL A   1      44.317  32.490  31.325  1.00  0.00     0.057 A 
ATOM     59  C   UNL A   1      44.238  32.733  32.704  1.00  0.00     0.134 A 
ATOM     60  C   UNL A   1      44.637  33.572  30.497  1.00  0.00     0.134 A 
ATOM     61  F   UNL A   1      43.925  31.743  33.552  1.00  0.00    -0.206 F 
ATOM     62  C   UNL A   1      44.445  34.008  33.234  1.00  0.00     0.040 A 
ATOM     63  C   UNL A   1      44.875  34.845  31.018  1.00  0.00     0.040 A 
ATOM     64  F   UNL A   1      44.734  33.410  29.169  1.00  0.00    -0.206 F 
ATOM     65  C   UNL A   1      44.773  35.067  32.390  1.00  0.00     0.006 A 
ENDBRANCH  44  58
BRANCH  45  66
ATOM     66  C   UNL A   1      42.464  23.479  27.422  1.00  0.00     0.057 A 
ATOM     67  C   UNL A   1      42.154  22.351  28.191  1.00  0.00     0.134 A 
ATOM     68  C   UNL A   1      42.553  23.306  26.035  1.00  0.00     0.134 A 
ATOM     69  F   UNL A   1      42.071  22.448  29.526  1.00  0.00    -0.206 F 
ATOM     70  C   UNL A   1      41.972  21.096  27.609  1.00  0.00     0.040 A 
ATOM     71  C   UNL A   1      42.343  22.063  25.437  1.00  0.00     0.040 A 
ATOM     72  F   UNL A   1      42.837  24.348  25.239  1.00  0.00    -0.206 F 
ATOM     73  C   UNL A   1      42.063  20.950  26.226  1.00  0.00     0.006 A 
ENDBRANCH  45  66
BRANCH  57  74
ATOM     74  C   UNL A   1      48.204  26.609  29.842  1.00  0.00     0.057 A 
ATOM     75  C   UNL A   1      49.182  26.917  28.890  1.00  0.00     0.134 A 
ATOM     76  C   UNL A   1      48.610  25.915  30.990  1.00  0.00     0.134 A 
ATOM     77  F   UNL A   1      48.855  27.567  27.763  1.00  0.00    -0.206 F 
ATOM     78  C   UNL A   1      50.515  26.539  29.068  1.00  0.00     0.040 A 
ATOM     79  C   UNL A   1      49.943  25.557  31.192  1.00  0.00     0.040 A 
ATOM     80  F   UNL A   1      47.723  25.598  31.944  1.00  0.00    -0.206 F 
ATOM     81  C   UNL A   1      50.899  25.867  30.226  1.00  0.00     0.006 A 
ENDBRANCH  57  74
ENDBRANCH  31  32
ENDBRANCH  23  26
ENDBRANCH  21  22
ENDBRANCH   1  21
TORSDOF 11
ENDMDL
