MODEL 1
REMARK VINA RESULT:     -11.7      0.000      0.000
REMARK SMILES CCC(CC)NC(=O)N[C@@H]1C=C[C@@H](C(=O)NCCCNC(=O)c2ccc(-c3c4nc(c(-c5c(F)cccc5F)c5ccc([nH]5)c(-c5c(F)cccc5F)c5nc(c(-c6c(F)cccc6F)c6ccc3[nH]6)C=C5)C=C4)cc2)C1
REMARK SMILES IDX 17 1 16 2 14 3 15 4 13 6 10 7 11 8 77 9 12 10 9 11 6 12 7 13
REMARK SMILES IDX 8 15 3 17 2 18 1 19 4 20 5 21 18 22 19 23 20 24 21 25 22 27
REMARK SMILES IDX 23 28 24 29 76 30 25 31 75 32 26 33 27 34 28 35 69 36 29 37
REMARK SMILES IDX 74 38 68 39 70 40 30 41 73 42 67 43 66 44 31 46 57 47 40 48
REMARK SMILES IDX 56 49 41 50 44 51 55 52 71 53 42 54 43 55 54 57 72 58 45 59
REMARK SMILES IDX 32 60 33 61 38 62 34 63 35 64 37 65 39 66 36 67 58 68 59 69
REMARK SMILES IDX 64 70 60 71 61 72 63 73 65 74 62 75 46 76 47 77 52 78 48 79
REMARK SMILES IDX 49 80 51 81 53 82 50 83
REMARK H PARENT 16 5 6 14 9 16 20 26 70 45 44 56
REMARK Flexibility Score: inf
ROOT
ATOM      1  C   UNL A   1      31.891  30.503  26.666  1.00  0.00     0.117 C 
ENDROOT
BRANCH   1   2
ATOM      2  N   UNL A   1      31.797  29.922  25.337  1.00  0.00    -0.356 N 
ATOM      3  C   UNL A   1      31.471  28.673  24.906  1.00  0.00     0.227 C 
ATOM      4  O   UNL A   1      31.506  28.479  23.687  1.00  0.00    -0.274 OA
ATOM      5  H   UNL A   1      32.009  30.552  24.611  1.00  0.00     0.163 HD
BRANCH   3   6
ATOM      6  C   UNL A   1      30.997  27.564  25.847  1.00  0.00     0.103 C 
ATOM      7  C   UNL A   1      30.933  25.090  25.567  1.00  0.00     0.107 C 
ATOM      8  C   UNL A   1      32.165  25.594  26.230  1.00  0.00    -0.006 C 
ATOM      9  C   UNL A   1      30.192  26.411  25.222  1.00  0.00     0.047 C 
ATOM     10  C   UNL A   1      32.196  26.909  26.431  1.00  0.00    -0.016 C 
BRANCH   7  11
ATOM     11  N   UNL A   1      30.194  24.259  26.494  1.00  0.00    -0.332 N 
ATOM     12  N   UNL A   1      31.103  22.058  26.465  1.00  0.00    -0.335 N 
ATOM     13  C   UNL A   1      30.195  22.967  26.838  1.00  0.00     0.315 C 
ATOM     14  H   UNL A   1      30.849  21.147  26.735  1.00  0.00     0.165 HD
ATOM     15  O   UNL A   1      29.278  22.579  27.567  1.00  0.00    -0.249 OA
ATOM     16  H   UNL A   1      29.523  24.774  27.000  1.00  0.00     0.165 HD
BRANCH  12  17
ATOM     17  C   UNL A   1      32.380  22.087  25.753  1.00  0.00     0.083 C 
BRANCH  17  18
ATOM     18  C   UNL A   1      33.494  21.484  26.639  1.00  0.00     0.021 C 
ATOM     19  C   UNL A   1      34.049  22.484  27.651  1.00  0.00     0.006 C 
ENDBRANCH  17  18
BRANCH  17  20
ATOM     20  C   UNL A   1      32.253  21.381  24.386  1.00  0.00     0.021 C 
ATOM     21  C   UNL A   1      31.994  22.300  23.198  1.00  0.00     0.006 C 
ENDBRANCH  17  20
ENDBRANCH  12  17
ENDBRANCH   7  11
ENDBRANCH   3   6
ENDBRANCH   1   2
BRANCH   1  22
ATOM     22  C   UNL A   1      31.722  32.014  26.625  1.00  0.00     0.042 C 
BRANCH  22  23
ATOM     23  C   UNL A   1      32.823  32.753  27.369  1.00  0.00     0.118 C 
BRANCH  23  24
ATOM     24  N   UNL A   1      32.473  34.139  27.652  1.00  0.00    -0.352 N 
ATOM     25  C   UNL A   1      32.995  35.003  28.588  1.00  0.00     0.251 C 
ATOM     26  H   UNL A   1      31.755  34.513  27.092  1.00  0.00     0.163 HD
ATOM     27  O   UNL A   1      32.456  36.076  28.802  1.00  0.00    -0.269 OA
BRANCH  25  28
ATOM     28  C   UNL A   1      34.196  34.606  29.357  1.00  0.00     0.039 A 
ATOM     29  C   UNL A   1      34.035  34.109  30.653  1.00  0.00     0.014 A 
ATOM     30  C   UNL A   1      35.470  34.698  28.792  1.00  0.00     0.014 A 
ATOM     31  C   UNL A   1      35.143  33.617  31.345  1.00  0.00     0.010 A 
ATOM     32  C   UNL A   1      36.556  34.127  29.446  1.00  0.00     0.010 A 
ATOM     33  C   UNL A   1      36.402  33.574  30.726  1.00  0.00    -0.014 A 
BRANCH  33  34
ATOM     34  C   UNL A   1      37.572  32.939  31.381  1.00  0.00     0.031 A 
ATOM     35  C   UNL A   1      38.215  31.729  30.764  1.00  0.00     0.074 A 
ATOM     36  C   UNL A   1      37.994  33.393  32.578  1.00  0.00     0.049 A 
ATOM     37  N   UNL A   1      39.156  30.956  31.243  1.00  0.00    -0.248 NA
ATOM     38  C   UNL A   1      37.712  31.314  29.444  1.00  0.00     0.031 C 
ATOM     39  C   UNL A   1      37.426  34.533  33.300  1.00  0.00     0.029 A 
ATOM     40  N   UNL A   1      38.986  32.936  33.409  1.00  0.00    -0.354 N 
ATOM     41  C   UNL A   1      39.343  29.958  30.297  1.00  0.00     0.074 A 
ATOM     42  C   UNL A   1      38.386  30.192  29.239  1.00  0.00     0.031 C 
ATOM     43  C   UNL A   1      38.087  34.696  34.457  1.00  0.00     0.029 A 
ATOM     44  C   UNL A   1      39.092  33.645  34.582  1.00  0.00     0.049 A 
ATOM     45  H   UNL A   1      39.567  32.174  33.186  1.00  0.00     0.167 HD
ATOM     46  C   UNL A   1      40.247  28.950  30.300  1.00  0.00     0.037 A 
ATOM     47  C   UNL A   1      39.893  33.456  35.647  1.00  0.00     0.037 A 
ATOM     48  C   UNL A   1      41.214  28.736  31.343  1.00  0.00     0.049 A 
ATOM     49  C   UNL A   1      40.867  32.312  35.639  1.00  0.00     0.074 A 
ATOM     50  C   UNL A   1      42.219  27.786  31.405  1.00  0.00     0.029 A 
ATOM     51  N   UNL A   1      41.294  29.480  32.511  1.00  0.00    -0.354 N 
ATOM     52  N   UNL A   1      41.082  31.416  34.706  1.00  0.00    -0.248 NA
ATOM     53  C   UNL A   1      41.708  32.147  36.834  1.00  0.00     0.031 C 
ATOM     54  C   UNL A   1      42.875  27.925  32.631  1.00  0.00     0.029 A 
ATOM     55  C   UNL A   1      42.311  28.990  33.314  1.00  0.00     0.049 A 
ATOM     56  H   UNL A   1      40.714  30.244  32.735  1.00  0.00     0.167 HD
ATOM     57  C   UNL A   1      42.093  30.597  35.190  1.00  0.00     0.074 A 
ATOM     58  C   UNL A   1      42.461  31.110  36.493  1.00  0.00     0.031 C 
ATOM     59  C   UNL A   1      42.666  29.515  34.607  1.00  0.00     0.037 A 
BRANCH  46  60
ATOM     60  C   UNL A   1      40.231  28.001  29.138  1.00  0.00     0.057 A 
ATOM     61  C   UNL A   1      40.985  28.237  27.981  1.00  0.00     0.134 A 
ATOM     62  C   UNL A   1      39.483  26.818  29.191  1.00  0.00     0.134 A 
ATOM     63  F   UNL A   1      41.715  29.357  27.863  1.00  0.00    -0.206 F 
ATOM     64  C   UNL A   1      40.977  27.345  26.908  1.00  0.00     0.040 A 
ATOM     65  C   UNL A   1      39.488  25.905  28.135  1.00  0.00     0.040 A 
ATOM     66  F   UNL A   1      38.743  26.527  30.270  1.00  0.00    -0.206 F 
ATOM     67  C   UNL A   1      40.232  26.170  26.988  1.00  0.00     0.006 A 
ENDBRANCH  46  60
BRANCH  47  68
ATOM     68  C   UNL A   1      39.812  34.373  36.811  1.00  0.00     0.057 A 
ATOM     69  C   UNL A   1      40.476  35.605  36.807  1.00  0.00     0.134 A 
ATOM     70  C   UNL A   1      39.075  34.043  37.955  1.00  0.00     0.134 A 
ATOM     71  F   UNL A   1      41.213  35.969  35.747  1.00  0.00    -0.206 F 
ATOM     72  C   UNL A   1      40.427  36.467  37.903  1.00  0.00     0.040 A 
ATOM     73  C   UNL A   1      38.996  34.907  39.050  1.00  0.00     0.040 A 
ATOM     74  F   UNL A   1      38.409  32.881  38.020  1.00  0.00    -0.206 F 
ATOM     75  C   UNL A   1      39.680  36.121  39.028  1.00  0.00     0.006 A 
ENDBRANCH  47  68
BRANCH  59  76
ATOM     76  C   UNL A   1      43.762  28.825  35.362  1.00  0.00     0.057 A 
ATOM     77  C   UNL A   1      45.106  29.187  35.205  1.00  0.00     0.134 A 
ATOM     78  C   UNL A   1      43.464  27.830  36.303  1.00  0.00     0.134 A 
ATOM     79  F   UNL A   1      45.457  30.123  34.310  1.00  0.00    -0.206 F 
ATOM     80  C   UNL A   1      46.116  28.573  35.947  1.00  0.00     0.040 A 
ATOM     81  C   UNL A   1      44.463  27.228  37.068  1.00  0.00     0.040 A 
ATOM     82  F   UNL A   1      42.196  27.444  36.507  1.00  0.00    -0.206 F 
ATOM     83  C   UNL A   1      45.795  27.598  36.888  1.00  0.00     0.006 A 
ENDBRANCH  59  76
ENDBRANCH  33  34
ENDBRANCH  25  28
ENDBRANCH  23  24
ENDBRANCH  22  23
ENDBRANCH   1  22
TORSDOF 14
ENDMDL
MODEL 2
REMARK VINA RESULT:     -11.7      0.125      1.337
REMARK SMILES CCC(CC)NC(=O)N[C@@H]1C=C[C@@H](C(=O)NCCCNC(=O)c2ccc(-c3c4nc(c(-c5c(F)cccc5F)c5ccc([nH]5)c(-c5c(F)cccc5F)c5nc(c(-c6c(F)cccc6F)c6ccc3[nH]6)C=C5)C=C4)cc2)C1
REMARK SMILES IDX 17 1 16 2 14 3 15 4 13 6 10 7 11 8 77 9 12 10 9 11 6 12 7 13
REMARK SMILES IDX 8 15 3 17 2 18 1 19 4 20 5 21 18 22 19 23 20 24 21 25 22 27
REMARK SMILES IDX 23 28 24 29 76 30 25 31 75 32 26 33 27 34 28 35 69 36 29 37
REMARK SMILES IDX 74 38 68 39 70 40 30 41 73 42 67 43 66 44 31 46 57 47 40 48
REMARK SMILES IDX 56 49 41 50 44 51 55 52 71 53 42 54 43 55 54 57 72 58 45 59
REMARK SMILES IDX 32 60 33 61 38 62 34 63 35 64 37 65 39 66 36 67 58 68 59 69
REMARK SMILES IDX 64 70 60 71 61 72 63 73 65 74 62 75 46 76 47 77 52 78 48 79
REMARK SMILES IDX 49 80 51 81 53 82 50 83
REMARK H PARENT 16 5 6 14 9 16 20 26 70 45 44 56
REMARK Flexibility Score: inf
ROOT
ATOM      1  C   UNL A   1      31.888  30.477  26.659  1.00  0.00     0.117 C 
ENDROOT
BRANCH   1   2
ATOM      2  N   UNL A   1      31.821  29.878  25.336  1.00  0.00    -0.356 N 
ATOM      3  C   UNL A   1      31.523  28.618  24.917  1.00  0.00     0.227 C 
ATOM      4  O   UNL A   1      31.577  28.409  23.701  1.00  0.00    -0.274 OA
ATOM      5  H   UNL A   1      32.031  30.503  24.604  1.00  0.00     0.163 HD
BRANCH   3   6
ATOM      6  C   UNL A   1      31.058  27.512  25.866  1.00  0.00     0.103 C 
ATOM      7  C   UNL A   1      30.919  25.043  25.566  1.00  0.00     0.107 C 
ATOM      8  C   UNL A   1      32.188  25.510  26.186  1.00  0.00    -0.006 C 
ATOM      9  C   UNL A   1      30.199  26.386  25.262  1.00  0.00     0.047 C 
ATOM     10  C   UNL A   1      32.261  26.821  26.397  1.00  0.00    -0.016 C 
BRANCH   7  11
ATOM     11  N   UNL A   1      30.195  24.223  26.515  1.00  0.00    -0.332 N 
ATOM     12  N   UNL A   1      31.018  21.991  26.403  1.00  0.00    -0.335 N 
ATOM     13  C   UNL A   1      30.164  22.925  26.836  1.00  0.00     0.315 C 
ATOM     14  H   UNL A   1      30.743  21.085  26.669  1.00  0.00     0.165 HD
ATOM     15  O   UNL A   1      29.269  22.557  27.602  1.00  0.00    -0.249 OA
ATOM     16  H   UNL A   1      29.569  24.752  27.061  1.00  0.00     0.165 HD
BRANCH  12  17
ATOM     17  C   UNL A   1      32.260  21.986  25.630  1.00  0.00     0.083 C 
BRANCH  17  18
ATOM     18  C   UNL A   1      33.437  21.530  26.521  1.00  0.00     0.021 C 
ATOM     19  C   UNL A   1      33.509  22.292  27.842  1.00  0.00     0.006 C 
ENDBRANCH  17  18
BRANCH  17  20
ATOM     20  C   UNL A   1      32.101  21.126  24.357  1.00  0.00     0.021 C 
ATOM     21  C   UNL A   1      32.459  21.823  23.049  1.00  0.00     0.006 C 
ENDBRANCH  17  20
ENDBRANCH  12  17
ENDBRANCH   7  11
ENDBRANCH   3   6
ENDBRANCH   1   2
BRANCH   1  22
ATOM     22  C   UNL A   1      31.748  31.990  26.591  1.00  0.00     0.042 C 
BRANCH  22  23
ATOM     23  C   UNL A   1      32.828  32.720  27.375  1.00  0.00     0.118 C 
BRANCH  23  24
ATOM     24  N   UNL A   1      32.480  34.108  27.646  1.00  0.00    -0.352 N 
ATOM     25  C   UNL A   1      33.004  34.980  28.574  1.00  0.00     0.251 C 
ATOM     26  H   UNL A   1      31.763  34.478  27.082  1.00  0.00     0.163 HD
ATOM     27  O   UNL A   1      32.466  36.055  28.779  1.00  0.00    -0.269 OA
BRANCH  25  28
ATOM     28  C   UNL A   1      34.204  34.588  29.347  1.00  0.00     0.039 A 
ATOM     29  C   UNL A   1      34.041  34.097  30.645  1.00  0.00     0.014 A 
ATOM     30  C   UNL A   1      35.479  34.678  28.783  1.00  0.00     0.014 A 
ATOM     31  C   UNL A   1      35.149  33.609  31.341  1.00  0.00     0.010 A 
ATOM     32  C   UNL A   1      36.564  34.112  29.441  1.00  0.00     0.010 A 
ATOM     33  C   UNL A   1      36.409  33.564  30.724  1.00  0.00    -0.014 A 
BRANCH  33  34
ATOM     34  C   UNL A   1      37.579  32.934  31.383  1.00  0.00     0.031 A 
ATOM     35  C   UNL A   1      38.229  31.726  30.769  1.00  0.00     0.074 A 
ATOM     36  C   UNL A   1      37.993  33.388  32.582  1.00  0.00     0.049 A 
ATOM     37  N   UNL A   1      39.171  30.958  31.252  1.00  0.00    -0.248 NA
ATOM     38  C   UNL A   1      37.734  31.311  29.446  1.00  0.00     0.031 C 
ATOM     39  C   UNL A   1      37.417  34.525  33.303  1.00  0.00     0.029 A 
ATOM     40  N   UNL A   1      38.983  32.935  33.418  1.00  0.00    -0.354 N 
ATOM     41  C   UNL A   1      39.367  29.961  30.306  1.00  0.00     0.074 A 
ATOM     42  C   UNL A   1      38.413  30.191  29.243  1.00  0.00     0.031 C 
ATOM     43  C   UNL A   1      38.072  34.690  34.463  1.00  0.00     0.029 A 
ATOM     44  C   UNL A   1      39.081  33.643  34.592  1.00  0.00     0.049 A 
ATOM     45  H   UNL A   1      39.568  32.175  33.197  1.00  0.00     0.167 HD
ATOM     46  C   UNL A   1      40.274  28.956  30.312  1.00  0.00     0.037 A 
ATOM     47  C   UNL A   1      39.879  33.457  35.660  1.00  0.00     0.037 A 
ATOM     48  C   UNL A   1      41.238  28.746  31.359  1.00  0.00     0.049 A 
ATOM     49  C   UNL A   1      40.857  32.317  35.656  1.00  0.00     0.074 A 
ATOM     50  C   UNL A   1      42.246  27.800  31.425  1.00  0.00     0.029 A 
ATOM     51  N   UNL A   1      41.310  29.489  32.528  1.00  0.00    -0.354 N 
ATOM     52  N   UNL A   1      41.080  31.423  34.723  1.00  0.00    -0.248 NA
ATOM     53  C   UNL A   1      41.694  32.154  36.855  1.00  0.00     0.031 C 
ATOM     54  C   UNL A   1      42.896  27.940  32.654  1.00  0.00     0.029 A 
ATOM     55  C   UNL A   1      42.325  29.003  33.335  1.00  0.00     0.049 A 
ATOM     56  H   UNL A   1      40.725  30.250  32.750  1.00  0.00     0.167 HD
ATOM     57  C   UNL A   1      42.092  30.608  35.211  1.00  0.00     0.074 A 
ATOM     58  C   UNL A   1      42.452  31.121  36.516  1.00  0.00     0.031 C 
ATOM     59  C   UNL A   1      42.672  29.529  34.630  1.00  0.00     0.037 A 
BRANCH  46  60
ATOM     60  C   UNL A   1      40.268  28.009  29.149  1.00  0.00     0.057 A 
ATOM     61  C   UNL A   1      39.486  26.846  29.147  1.00  0.00     0.134 A 
ATOM     62  C   UNL A   1      41.024  28.280  28.002  1.00  0.00     0.134 A 
ATOM     63  F   UNL A   1      38.748  26.522  30.219  1.00  0.00    -0.206 F 
ATOM     64  C   UNL A   1      39.475  25.975  28.057  1.00  0.00     0.040 A 
ATOM     65  C   UNL A   1      41.000  27.431  26.894  1.00  0.00     0.040 A 
ATOM     66  F   UNL A   1      41.791  29.379  27.934  1.00  0.00    -0.206 F 
ATOM     67  C   UNL A   1      40.228  26.271  26.923  1.00  0.00     0.006 A 
ENDBRANCH  46  60
BRANCH  47  68
ATOM     68  C   UNL A   1      39.788  34.373  36.825  1.00  0.00     0.057 A 
ATOM     69  C   UNL A   1      39.004  34.048  37.938  1.00  0.00     0.134 A 
ATOM     70  C   UNL A   1      40.475  35.593  36.855  1.00  0.00     0.134 A 
ATOM     71  F   UNL A   1      38.308  32.903  37.961  1.00  0.00    -0.206 F 
ATOM     72  C   UNL A   1      38.891  34.910  39.030  1.00  0.00     0.040 A 
ATOM     73  C   UNL A   1      40.392  36.454  37.951  1.00  0.00     0.040 A 
ATOM     74  F   UNL A   1      41.249  35.960  35.822  1.00  0.00    -0.206 F 
ATOM     75  C   UNL A   1      39.591  36.115  39.041  1.00  0.00     0.006 A 
ENDBRANCH  47  68
BRANCH  59  76
ATOM     76  C   UNL A   1      43.768  28.842  35.390  1.00  0.00     0.057 A 
ATOM     77  C   UNL A   1      45.112  29.197  35.224  1.00  0.00     0.134 A 
ATOM     78  C   UNL A   1      43.468  27.859  36.342  1.00  0.00     0.134 A 
ATOM     79  F   UNL A   1      45.465  30.122  34.318  1.00  0.00    -0.206 F 
ATOM     80  C   UNL A   1      46.122  28.588  35.970  1.00  0.00     0.040 A 
ATOM     81  C   UNL A   1      44.467  27.261  37.111  1.00  0.00     0.040 A 
ATOM     82  F   UNL A   1      42.200  27.480  36.554  1.00  0.00    -0.206 F 
ATOM     83  C   UNL A   1      45.800  27.623  36.923  1.00  0.00     0.006 A 
ENDBRANCH  59  76
ENDBRANCH  33  34
ENDBRANCH  25  28
ENDBRANCH  23  24
ENDBRANCH  22  23
ENDBRANCH   1  22
TORSDOF 14
ENDMDL
MODEL 3
REMARK VINA RESULT:     -11.5      6.033     10.835
REMARK SMILES CCC(CC)NC(=O)N[C@@H]1C=C[C@@H](C(=O)NCCCNC(=O)c2ccc(-c3c4nc(c(-c5c(F)cccc5F)c5ccc([nH]5)c(-c5c(F)cccc5F)c5nc(c(-c6c(F)cccc6F)c6ccc3[nH]6)C=C5)C=C4)cc2)C1
REMARK SMILES IDX 17 1 16 2 14 3 15 4 13 6 10 7 11 8 77 9 12 10 9 11 6 12 7 13
REMARK SMILES IDX 8 15 3 17 2 18 1 19 4 20 5 21 18 22 19 23 20 24 21 25 22 27
REMARK SMILES IDX 23 28 24 29 76 30 25 31 75 32 26 33 27 34 28 35 69 36 29 37
REMARK SMILES IDX 74 38 68 39 70 40 30 41 73 42 67 43 66 44 31 46 57 47 40 48
REMARK SMILES IDX 56 49 41 50 44 51 55 52 71 53 42 54 43 55 54 57 72 58 45 59
REMARK SMILES IDX 32 60 33 61 38 62 34 63 35 64 37 65 39 66 36 67 58 68 59 69
REMARK SMILES IDX 64 70 60 71 61 72 63 73 65 74 62 75 46 76 47 77 52 78 48 79
REMARK SMILES IDX 49 80 51 81 53 82 50 83
REMARK H PARENT 16 5 6 14 9 16 20 26 70 45 44 56
REMARK Flexibility Score: inf
ROOT
ATOM      1  C   UNL A   1      37.575  22.089  24.710  1.00  0.00     0.117 C 
ENDROOT
BRANCH   1   2
ATOM      2  N   UNL A   1      36.578  22.523  25.676  1.00  0.00    -0.356 N 
ATOM      3  C   UNL A   1      35.219  22.458  25.680  1.00  0.00     0.227 C 
ATOM      4  O   UNL A   1      34.641  22.947  26.656  1.00  0.00    -0.274 OA
ATOM      5  H   UNL A   1      36.960  22.944  26.481  1.00  0.00     0.163 HD
BRANCH   3   6
ATOM      6  C   UNL A   1      34.416  21.748  24.589  1.00  0.00     0.103 C 
ATOM      7  C   UNL A   1      32.758  19.893  24.716  1.00  0.00     0.107 C 
ATOM      8  C   UNL A   1      32.153  21.252  24.752  1.00  0.00    -0.006 C 
ATOM      9  C   UNL A   1      34.276  20.219  24.705  1.00  0.00     0.047 C 
ATOM     10  C   UNL A   1      33.020  22.255  24.637  1.00  0.00    -0.016 C 
BRANCH   7  11
ATOM     11  N   UNL A   1      32.323  19.205  23.518  1.00  0.00    -0.332 N 
ATOM     12  N   UNL A   1      33.160  16.976  23.551  1.00  0.00    -0.335 N 
ATOM     13  C   UNL A   1      32.537  18.006  22.968  1.00  0.00     0.315 C 
ATOM     14  H   UNL A   1      33.309  16.231  22.927  1.00  0.00     0.165 HD
ATOM     15  O   UNL A   1      32.119  17.833  21.819  1.00  0.00    -0.249 OA
ATOM     16  H   UNL A   1      31.718  19.759  22.972  1.00  0.00     0.165 HD
BRANCH  12  17
ATOM     17  C   UNL A   1      33.673  16.686  24.890  1.00  0.00     0.083 C 
BRANCH  17  18
ATOM     18  C   UNL A   1      32.565  16.048  25.757  1.00  0.00     0.021 C 
ATOM     19  C   UNL A   1      32.519  14.527  25.631  1.00  0.00     0.006 C 
ENDBRANCH  17  18
BRANCH  17  20
ATOM     20  C   UNL A   1      34.945  15.815  24.804  1.00  0.00     0.021 C 
ATOM     21  C   UNL A   1      36.072  16.210  25.751  1.00  0.00     0.006 C 
ENDBRANCH  17  20
ENDBRANCH  12  17
ENDBRANCH   7  11
ENDBRANCH   3   6
ENDBRANCH   1   2
BRANCH   1  22
ATOM     22  C   UNL A   1      38.036  20.668  24.989  1.00  0.00     0.042 C 
BRANCH  22  23
ATOM     23  C   UNL A   1      39.010  20.579  26.154  1.00  0.00     0.118 C 
BRANCH  23  24
ATOM     24  N   UNL A   1      39.929  19.456  26.030  1.00  0.00    -0.352 N 
ATOM     25  C   UNL A   1      41.306  19.442  26.047  1.00  0.00     0.251 C 
ATOM     26  H   UNL A   1      39.503  18.576  25.914  1.00  0.00     0.163 HD
ATOM     27  O   UNL A   1      41.913  18.428  25.750  1.00  0.00    -0.269 OA
BRANCH  25  28
ATOM     28  C   UNL A   1      42.043  20.678  26.396  1.00  0.00     0.039 A 
ATOM     29  C   UNL A   1      42.468  21.524  25.368  1.00  0.00     0.014 A 
ATOM     30  C   UNL A   1      42.289  21.012  27.730  1.00  0.00     0.014 A 
ATOM     31  C   UNL A   1      43.055  22.751  25.684  1.00  0.00     0.010 A 
ATOM     32  C   UNL A   1      42.791  22.269  28.043  1.00  0.00     0.010 A 
ATOM     33  C   UNL A   1      43.172  23.155  27.023  1.00  0.00    -0.014 A 
BRANCH  33  34
ATOM     34  C   UNL A   1      43.670  24.503  27.391  1.00  0.00     0.031 A 
ATOM     35  C   UNL A   1      42.700  25.584  27.778  1.00  0.00     0.074 A 
ATOM     36  C   UNL A   1      44.984  24.782  27.280  1.00  0.00     0.049 A 
ATOM     37  N   UNL A   1      42.922  26.853  28.004  1.00  0.00    -0.248 NA
ATOM     38  C   UNL A   1      41.287  25.189  27.900  1.00  0.00     0.031 C 
ATOM     39  C   UNL A   1      46.021  23.832  26.873  1.00  0.00     0.029 A 
ATOM     40  N   UNL A   1      45.670  25.953  27.481  1.00  0.00    -0.354 N 
ATOM     41  C   UNL A   1      41.680  27.411  28.275  1.00  0.00     0.074 A 
ATOM     42  C   UNL A   1      40.701  26.355  28.137  1.00  0.00     0.031 C 
ATOM     43  C   UNL A   1      47.211  24.452  26.868  1.00  0.00     0.029 A 
ATOM     44  C   UNL A   1      47.017  25.854  27.225  1.00  0.00     0.049 A 
ATOM     45  H   UNL A   1      45.239  26.786  27.781  1.00  0.00     0.167 HD
ATOM     46  C   UNL A   1      41.384  28.684  28.628  1.00  0.00     0.037 A 
ATOM     47  C   UNL A   1      47.982  26.791  27.253  1.00  0.00     0.037 A 
ATOM     48  C   UNL A   1      42.363  29.725  28.789  1.00  0.00     0.049 A 
ATOM     49  C   UNL A   1      47.624  28.204  27.619  1.00  0.00     0.074 A 
ATOM     50  C   UNL A   1      42.173  31.029  29.212  1.00  0.00     0.029 A 
ATOM     51  N   UNL A   1      43.718  29.583  28.527  1.00  0.00    -0.354 N 
ATOM     52  N   UNL A   1      46.455  28.703  27.941  1.00  0.00    -0.248 NA
ATOM     53  C   UNL A   1      48.717  29.188  27.620  1.00  0.00     0.031 C 
ATOM     54  C   UNL A   1      43.404  31.688  29.160  1.00  0.00     0.029 A 
ATOM     55  C   UNL A   1      44.370  30.784  28.750  1.00  0.00     0.049 A 
ATOM     56  H   UNL A   1      44.151  28.751  28.228  1.00  0.00     0.167 HD
ATOM     57  C   UNL A   1      46.674  30.048  28.203  1.00  0.00     0.074 A 
ATOM     58  C   UNL A   1      48.091  30.287  28.018  1.00  0.00     0.031 C 
ATOM     59  C   UNL A   1      45.782  31.003  28.564  1.00  0.00     0.037 A 
BRANCH  46  60
ATOM     60  C   UNL A   1      39.941  29.021  28.865  1.00  0.00     0.057 A 
ATOM     61  C   UNL A   1      39.394  29.063  30.154  1.00  0.00     0.134 A 
ATOM     62  C   UNL A   1      39.097  29.343  27.795  1.00  0.00     0.134 A 
ATOM     63  F   UNL A   1      40.146  28.753  31.221  1.00  0.00    -0.206 F 
ATOM     64  C   UNL A   1      38.055  29.389  30.370  1.00  0.00     0.040 A 
ATOM     65  C   UNL A   1      37.763  29.698  28.000  1.00  0.00     0.040 A 
ATOM     66  F   UNL A   1      39.557  29.329  26.535  1.00  0.00    -0.206 F 
ATOM     67  C   UNL A   1      37.237  29.715  29.290  1.00  0.00     0.006 A 
ENDBRANCH  46  60
BRANCH  47  68
ATOM     68  C   UNL A   1      49.384  26.426  26.927  1.00  0.00     0.057 A 
ATOM     69  C   UNL A   1      50.288  26.067  27.934  1.00  0.00     0.134 A 
ATOM     70  C   UNL A   1      49.856  26.429  25.609  1.00  0.00     0.134 A 
ATOM     71  F   UNL A   1      49.901  26.063  29.217  1.00  0.00    -0.206 F 
ATOM     72  C   UNL A   1      51.614  25.743  27.644  1.00  0.00     0.040 A 
ATOM     73  C   UNL A   1      51.173  26.083  25.302  1.00  0.00     0.040 A 
ATOM     74  F   UNL A   1      49.038  26.757  24.597  1.00  0.00    -0.206 F 
ATOM     75  C   UNL A   1      52.059  25.745  26.323  1.00  0.00     0.006 A 
ENDBRANCH  47  68
BRANCH  59  76
ATOM     76  C   UNL A   1      46.310  32.386  28.803  1.00  0.00     0.057 A 
ATOM     77  C   UNL A   1      46.342  33.348  27.786  1.00  0.00     0.134 A 
ATOM     78  C   UNL A   1      46.733  32.777  30.080  1.00  0.00     0.134 A 
ATOM     79  F   UNL A   1      45.962  33.030  26.538  1.00  0.00    -0.206 F 
ATOM     80  C   UNL A   1      46.790  34.647  28.027  1.00  0.00     0.040 A 
ATOM     81  C   UNL A   1      47.159  34.080  30.339  1.00  0.00     0.040 A 
ATOM     82  F   UNL A   1      46.720  31.906  31.099  1.00  0.00    -0.206 F 
ATOM     83  C   UNL A   1      47.191  35.019  29.309  1.00  0.00     0.006 A 
ENDBRANCH  59  76
ENDBRANCH  33  34
ENDBRANCH  25  28
ENDBRANCH  23  24
ENDBRANCH  22  23
ENDBRANCH   1  22
TORSDOF 14
ENDMDL
