MODEL 1
REMARK VINA RESULT:     -11.0      0.000      0.000
REMARK SMILES Cc1c(I)c(C(=O)NCCCNC(=O)c2ccc(-c3c4nc(c(-c5c(F)cccc5F)c5ccc([nH]5)c(-c5c(F)cccc5F)c5nc(c(-c6c(F)cccc6F)c6ccc3[nH]6)C=C5)C=C4)cc2)nn1C(F)F
REMARK SMILES IDX 10 1 9 2 8 3 6 4 7 5 5 7 1 8 2 9 3 10 70 11 4 12 69 13 71 14
REMARK SMILES IDX 72 15 73 16 11 17 12 18 13 19 14 21 15 22 16 23 68 24 17 25
REMARK SMILES IDX 67 26 18 27 19 28 20 29 61 30 21 31 66 32 60 33 62 34 22 35
REMARK SMILES IDX 65 36 59 37 58 38 23 40 49 41 32 42 48 43 33 44 36 45 47 46
REMARK SMILES IDX 63 47 34 48 35 49 46 51 64 52 37 53 24 54 25 55 30 56 26 57
REMARK SMILES IDX 27 58 29 59 31 60 28 61 50 62 51 63 56 64 52 65 53 66 55 67
REMARK SMILES IDX 57 68 54 69 38 70 39 71 44 72 40 73 41 74 43 75 45 76 42 77
REMARK H PARENT 8 6 12 20 62 39 36 50
REMARK Flexibility Score: inf
ROOT
ATOM      1  C   UNL A   1      37.587  31.799  31.786  1.00  0.00     0.042 C 
ENDROOT
BRANCH   1   2
ATOM      2  C   UNL A   1      37.203  33.109  32.483  1.00  0.00     0.118 C 
BRANCH   2   3
ATOM      3  N   UNL A   1      35.976  32.991  33.258  1.00  0.00    -0.351 N 
ATOM      4  C   UNL A   1      34.674  33.330  32.944  1.00  0.00     0.272 C 
ATOM      5  O   UNL A   1      33.821  33.051  33.787  1.00  0.00    -0.267 OA
ATOM      6  H   UNL A   1      36.093  32.603  34.156  1.00  0.00     0.163 HD
BRANCH   4   7
ATOM      7  C   UNL A   1      34.341  33.975  31.654  1.00  0.00     0.163 A 
ATOM      8  C   UNL A   1      33.223  36.566  29.215  1.00  0.00     0.068 C 
ATOM      9  C   UNL A   1      33.689  35.427  30.050  1.00  0.00     0.056 A 
ATOM     10  C   UNL A   1      33.937  35.317  31.406  1.00  0.00     0.067 A 
ATOM     11  N   UNL A   1      33.919  34.163  29.553  1.00  0.00    -0.207 N 
ATOM     12  I   UNL A   1      33.682  36.828  32.749  1.00  0.00    -0.040 I 
ATOM     13  N   UNL A   1      34.404  33.314  30.483  1.00  0.00    -0.161 NA
BRANCH  11  14
ATOM     14  C   UNL A   1      33.655  33.658  28.204  1.00  0.00     0.465 C 
ATOM     15  F   UNL A   1      32.386  33.935  27.801  1.00  0.00    -0.184 F 
ATOM     16  F   UNL A   1      34.494  34.223  27.292  1.00  0.00    -0.184 F 
ENDBRANCH  11  14
ENDBRANCH   4   7
ENDBRANCH   2   3
ENDBRANCH   1   2
BRANCH   1  17
ATOM     17  C   UNL A   1      37.429  31.893  30.274  1.00  0.00     0.118 C 
BRANCH  17  18
ATOM     18  N   UNL A   1      36.343  31.048  29.769  1.00  0.00    -0.352 N 
ATOM     19  C   UNL A   1      36.401  29.965  28.911  1.00  0.00     0.251 C 
ATOM     20  H   UNL A   1      35.442  31.286  30.087  1.00  0.00     0.163 HD
ATOM     21  O   UNL A   1      35.399  29.567  28.342  1.00  0.00    -0.269 OA
BRANCH  19  22
ATOM     22  C   UNL A   1      37.699  29.304  28.678  1.00  0.00     0.039 A 
ATOM     23  C   UNL A   1      38.444  29.586  27.531  1.00  0.00     0.014 A 
ATOM     24  C   UNL A   1      38.177  28.411  29.632  1.00  0.00     0.014 A 
ATOM     25  C   UNL A   1      39.718  29.037  27.402  1.00  0.00     0.010 A 
ATOM     26  C   UNL A   1      39.484  27.993  29.578  1.00  0.00     0.010 A 
ATOM     27  C   UNL A   1      40.247  28.265  28.449  1.00  0.00    -0.014 A 
BRANCH  27  28
ATOM     28  C   UNL A   1      41.652  27.862  28.431  1.00  0.00     0.031 A 
ATOM     29  C   UNL A   1      41.923  26.601  27.685  1.00  0.00     0.074 A 
ATOM     30  C   UNL A   1      42.664  28.660  28.838  1.00  0.00     0.049 A 
ATOM     31  N   UNL A   1      42.381  25.489  28.155  1.00  0.00    -0.248 NA
ATOM     32  C   UNL A   1      41.521  26.526  26.269  1.00  0.00     0.031 C 
ATOM     33  C   UNL A   1      42.594  30.052  29.296  1.00  0.00     0.029 A 
ATOM     34  N   UNL A   1      44.005  28.427  28.811  1.00  0.00    -0.354 N 
ATOM     35  C   UNL A   1      42.531  24.640  27.061  1.00  0.00     0.074 A 
ATOM     36  C   UNL A   1      41.822  25.260  25.972  1.00  0.00     0.031 C 
ATOM     37  C   UNL A   1      43.827  30.603  29.260  1.00  0.00     0.029 A 
ATOM     38  C   UNL A   1      44.791  29.566  28.940  1.00  0.00     0.049 A 
ATOM     39  H   UNL A   1      44.386  27.525  28.708  1.00  0.00     0.167 HD
ATOM     40  C   UNL A   1      43.448  23.632  27.078  1.00  0.00     0.037 A 
ATOM     41  C   UNL A   1      46.134  29.658  28.767  1.00  0.00     0.037 A 
ATOM     42  C   UNL A   1      43.854  23.322  28.428  1.00  0.00     0.049 A 
ATOM     43  C   UNL A   1      46.686  28.285  28.874  1.00  0.00     0.074 A 
ATOM     44  C   UNL A   1      43.185  22.980  29.588  1.00  0.00     0.029 A 
ATOM     45  N   UNL A   1      45.106  23.720  28.835  1.00  0.00    -0.354 N 
ATOM     46  N   UNL A   1      46.727  27.601  29.983  1.00  0.00    -0.248 NA
ATOM     47  C   UNL A   1      46.777  27.500  27.651  1.00  0.00     0.031 C 
ATOM     48  C   UNL A   1      43.866  23.686  30.625  1.00  0.00     0.029 A 
ATOM     49  C   UNL A   1      44.952  24.342  30.045  1.00  0.00     0.049 A 
ATOM     50  H   UNL A   1      45.951  23.583  28.348  1.00  0.00     0.167 HD
ATOM     51  C   UNL A   1      46.390  26.311  29.608  1.00  0.00     0.074 A 
ATOM     52  C   UNL A   1      46.528  26.288  28.153  1.00  0.00     0.031 C 
ATOM     53  C   UNL A   1      45.748  25.469  30.470  1.00  0.00     0.037 A 
BRANCH  40  54
ATOM     54  C   UNL A   1      44.272  23.219  25.878  1.00  0.00     0.057 A 
ATOM     55  C   UNL A   1      44.395  21.850  25.576  1.00  0.00     0.134 A 
ATOM     56  C   UNL A   1      45.189  24.059  25.214  1.00  0.00     0.134 A 
ATOM     57  F   UNL A   1      43.586  20.943  26.144  1.00  0.00    -0.206 F 
ATOM     58  C   UNL A   1      45.415  21.348  24.758  1.00  0.00     0.040 A 
ATOM     59  C   UNL A   1      46.178  23.573  24.354  1.00  0.00     0.040 A 
ATOM     60  F   UNL A   1      45.255  25.376  25.434  1.00  0.00    -0.206 F 
ATOM     61  C   UNL A   1      46.319  22.211  24.153  1.00  0.00     0.006 A 
ENDBRANCH  40  54
BRANCH  41  62
ATOM     62  C   UNL A   1      46.949  30.796  28.281  1.00  0.00     0.057 A 
ATOM     63  C   UNL A   1      46.736  31.345  27.007  1.00  0.00     0.134 A 
ATOM     64  C   UNL A   1      47.761  31.551  29.145  1.00  0.00     0.134 A 
ATOM     65  F   UNL A   1      45.950  30.721  26.119  1.00  0.00    -0.206 F 
ATOM     66  C   UNL A   1      47.268  32.586  26.628  1.00  0.00     0.040 A 
ATOM     67  C   UNL A   1      48.306  32.787  28.776  1.00  0.00     0.040 A 
ATOM     68  F   UNL A   1      47.981  31.162  30.409  1.00  0.00    -0.206 F 
ATOM     69  C   UNL A   1      48.045  33.317  27.520  1.00  0.00     0.006 A 
ENDBRANCH  41  62
BRANCH  53  70
ATOM     70  C   UNL A   1      45.642  25.864  31.916  1.00  0.00     0.057 A 
ATOM     71  C   UNL A   1      46.663  25.690  32.864  1.00  0.00     0.134 A 
ATOM     72  C   UNL A   1      44.520  26.593  32.327  1.00  0.00     0.134 A 
ATOM     73  F   UNL A   1      47.818  25.095  32.545  1.00  0.00    -0.206 F 
ATOM     74  C   UNL A   1      46.550  26.183  34.169  1.00  0.00     0.040 A 
ATOM     75  C   UNL A   1      44.411  27.121  33.615  1.00  0.00     0.040 A 
ATOM     76  F   UNL A   1      43.526  26.848  31.461  1.00  0.00    -0.206 F 
ATOM     77  C   UNL A   1      45.425  26.908  34.544  1.00  0.00     0.006 A 
ENDBRANCH  53  70
ENDBRANCH  27  28
ENDBRANCH  19  22
ENDBRANCH  17  18
ENDBRANCH   1  17
TORSDOF 11
ENDMDL
MODEL 2
REMARK VINA RESULT:     -10.8      4.637     11.742
REMARK SMILES Cc1c(I)c(C(=O)NCCCNC(=O)c2ccc(-c3c4nc(c(-c5c(F)cccc5F)c5ccc([nH]5)c(-c5c(F)cccc5F)c5nc(c(-c6c(F)cccc6F)c6ccc3[nH]6)C=C5)C=C4)cc2)nn1C(F)F
REMARK SMILES IDX 10 1 9 2 8 3 6 4 7 5 5 7 1 8 2 9 3 10 70 11 4 12 69 13 71 14
REMARK SMILES IDX 72 15 73 16 11 17 12 18 13 19 14 21 15 22 16 23 68 24 17 25
REMARK SMILES IDX 67 26 18 27 19 28 20 29 61 30 21 31 66 32 60 33 62 34 22 35
REMARK SMILES IDX 65 36 59 37 58 38 23 40 49 41 32 42 48 43 33 44 36 45 47 46
REMARK SMILES IDX 63 47 34 48 35 49 46 51 64 52 37 53 24 54 25 55 30 56 26 57
REMARK SMILES IDX 27 58 29 59 31 60 28 61 50 62 51 63 56 64 52 65 53 66 55 67
REMARK SMILES IDX 57 68 54 69 38 70 39 71 44 72 40 73 41 74 43 75 45 76 42 77
REMARK H PARENT 8 6 12 20 62 39 36 50
REMARK Flexibility Score: inf
ROOT
ATOM      1  C   UNL A   1      43.445  25.065  26.564  1.00  0.00     0.042 C 
ENDROOT
BRANCH   1   2
ATOM      2  C   UNL A   1      44.580  24.066  26.313  1.00  0.00     0.118 C 
BRANCH   2   3
ATOM      3  N   UNL A   1      44.654  23.644  24.921  1.00  0.00    -0.351 N 
ATOM      4  C   UNL A   1      44.198  22.495  24.302  1.00  0.00     0.272 C 
ATOM      5  O   UNL A   1      44.347  22.440  23.080  1.00  0.00    -0.267 OA
ATOM      6  H   UNL A   1      45.102  24.282  24.321  1.00  0.00     0.163 HD
BRANCH   4   7
ATOM      7  C   UNL A   1      43.551  21.412  25.077  1.00  0.00     0.163 A 
ATOM      8  C   UNL A   1      43.025  18.095  26.699  1.00  0.00     0.068 C 
ATOM      9  C   UNL A   1      43.076  19.460  26.110  1.00  0.00     0.056 A 
ATOM     10  C   UNL A   1      44.073  20.137  25.432  1.00  0.00     0.067 A 
ATOM     11  N   UNL A   1      42.005  20.328  26.107  1.00  0.00    -0.207 N 
ATOM     12  I   UNL A   1      45.904  19.355  25.000  1.00  0.00    -0.040 I 
ATOM     13  N   UNL A   1      42.309  21.533  25.581  1.00  0.00    -0.161 NA
BRANCH  11  14
ATOM     14  C   UNL A   1      40.631  20.073  26.544  1.00  0.00     0.465 C 
ATOM     15  F   UNL A   1      39.926  21.228  26.690  1.00  0.00    -0.184 F 
ATOM     16  F   UNL A   1      39.959  19.309  25.639  1.00  0.00    -0.184 F 
ENDBRANCH  11  14
ENDBRANCH   4   7
ENDBRANCH   2   3
ENDBRANCH   1   2
BRANCH   1  17
ATOM     17  C   UNL A   1      42.302  24.439  27.353  1.00  0.00     0.118 C 
BRANCH  17  18
ATOM     18  N   UNL A   1      41.086  24.282  26.549  1.00  0.00    -0.352 N 
ATOM     19  C   UNL A   1      39.845  24.869  26.712  1.00  0.00     0.251 C 
ATOM     20  H   UNL A   1      41.164  23.670  25.782  1.00  0.00     0.163 HD
ATOM     21  O   UNL A   1      38.860  24.406  26.162  1.00  0.00    -0.269 OA
BRANCH  19  22
ATOM     22  C   UNL A   1      39.722  26.058  27.576  1.00  0.00     0.039 A 
ATOM     23  C   UNL A   1      39.278  25.935  28.895  1.00  0.00     0.014 A 
ATOM     24  C   UNL A   1      40.078  27.300  27.062  1.00  0.00     0.014 A 
ATOM     25  C   UNL A   1      39.291  27.059  29.718  1.00  0.00     0.010 A 
ATOM     26  C   UNL A   1      40.233  28.370  27.909  1.00  0.00     0.010 A 
ATOM     27  C   UNL A   1      39.802  28.271  29.227  1.00  0.00    -0.014 A 
BRANCH  27  28
ATOM     28  C   UNL A   1      40.025  29.397  30.131  1.00  0.00     0.031 A 
ATOM     29  C   UNL A   1      38.799  30.182  30.452  1.00  0.00     0.074 A 
ATOM     30  C   UNL A   1      41.174  29.591  30.815  1.00  0.00     0.049 A 
ATOM     31  N   UNL A   1      38.558  31.419  30.169  1.00  0.00    -0.248 NA
ATOM     32  C   UNL A   1      37.654  29.476  31.052  1.00  0.00     0.031 C 
ATOM     33  C   UNL A   1      42.361  28.729  30.858  1.00  0.00     0.029 A 
ATOM     34  N   UNL A   1      41.478  30.556  31.726  1.00  0.00    -0.354 N 
ATOM     35  C   UNL A   1      37.322  31.711  30.741  1.00  0.00     0.074 A 
ATOM     36  C   UNL A   1      36.739  30.446  31.105  1.00  0.00     0.031 C 
ATOM     37  C   UNL A   1      43.129  29.070  31.916  1.00  0.00     0.029 A 
ATOM     38  C   UNL A   1      42.582  30.270  32.522  1.00  0.00     0.049 A 
ATOM     39  H   UNL A   1      40.959  31.388  31.814  1.00  0.00     0.167 HD
ATOM     40  C   UNL A   1      37.004  32.985  31.105  1.00  0.00     0.037 A 
ATOM     41  C   UNL A   1      42.998  30.952  33.619  1.00  0.00     0.037 A 
ATOM     42  C   UNL A   1      37.856  33.943  30.443  1.00  0.00     0.049 A 
ATOM     43  C   UNL A   1      42.375  32.298  33.562  1.00  0.00     0.074 A 
ATOM     44  C   UNL A   1      38.182  34.205  29.125  1.00  0.00     0.029 A 
ATOM     45  N   UNL A   1      38.831  34.565  31.188  1.00  0.00    -0.354 N 
ATOM     46  N   UNL A   1      42.694  33.212  32.690  1.00  0.00    -0.248 NA
ATOM     47  C   UNL A   1      41.074  32.462  34.194  1.00  0.00     0.031 C 
ATOM     48  C   UNL A   1      39.579  34.494  29.144  1.00  0.00     0.029 A 
ATOM     49  C   UNL A   1      39.996  34.473  30.475  1.00  0.00     0.049 A 
ATOM     50  H   UNL A   1      38.713  34.994  32.066  1.00  0.00     0.167 HD
ATOM     51  C   UNL A   1      41.486  33.786  32.331  1.00  0.00     0.074 A 
ATOM     52  C   UNL A   1      40.538  33.354  33.356  1.00  0.00     0.031 C 
ATOM     53  C   UNL A   1      41.295  34.310  31.085  1.00  0.00     0.037 A 
BRANCH  40  54
ATOM     54  C   UNL A   1      36.218  33.337  32.349  1.00  0.00     0.057 A 
ATOM     55  C   UNL A   1      35.212  34.319  32.264  1.00  0.00     0.134 A 
ATOM     56  C   UNL A   1      36.608  32.999  33.661  1.00  0.00     0.134 A 
ATOM     57  F   UNL A   1      34.754  34.735  31.073  1.00  0.00    -0.206 F 
ATOM     58  C   UNL A   1      34.712  34.983  33.390  1.00  0.00     0.040 A 
ATOM     59  C   UNL A   1      36.076  33.619  34.795  1.00  0.00     0.040 A 
ATOM     60  F   UNL A   1      37.594  32.134  33.923  1.00  0.00    -0.206 F 
ATOM     61  C   UNL A   1      35.152  34.641  34.662  1.00  0.00     0.006 A 
ENDBRANCH  40  54
BRANCH  41  62
ATOM     62  C   UNL A   1      43.695  30.460  34.830  1.00  0.00     0.057 A 
ATOM     63  C   UNL A   1      44.909  31.028  35.247  1.00  0.00     0.134 A 
ATOM     64  C   UNL A   1      43.062  29.619  35.761  1.00  0.00     0.134 A 
ATOM     65  F   UNL A   1      45.576  31.872  34.448  1.00  0.00    -0.206 F 
ATOM     66  C   UNL A   1      45.441  30.803  36.525  1.00  0.00     0.040 A 
ATOM     67  C   UNL A   1      43.587  29.377  37.036  1.00  0.00     0.040 A 
ATOM     68  F   UNL A   1      41.866  29.072  35.502  1.00  0.00    -0.206 F 
ATOM     69  C   UNL A   1      44.772  29.985  37.428  1.00  0.00     0.006 A 
ENDBRANCH  41  62
BRANCH  53  70
ATOM     70  C   UNL A   1      42.489  34.495  30.191  1.00  0.00     0.057 A 
ATOM     71  C   UNL A   1      43.329  35.619  30.210  1.00  0.00     0.134 A 
ATOM     72  C   UNL A   1      42.895  33.420  29.392  1.00  0.00     0.134 A 
ATOM     73  F   UNL A   1      43.086  36.659  31.016  1.00  0.00    -0.206 F 
ATOM     74  C   UNL A   1      44.493  35.683  29.435  1.00  0.00     0.040 A 
ATOM     75  C   UNL A   1      44.073  33.457  28.643  1.00  0.00     0.040 A 
ATOM     76  F   UNL A   1      42.172  32.288  29.364  1.00  0.00    -0.206 F 
ATOM     77  C   UNL A   1      44.872  34.596  28.656  1.00  0.00     0.006 A 
ENDBRANCH  53  70
ENDBRANCH  27  28
ENDBRANCH  19  22
ENDBRANCH  17  18
ENDBRANCH   1  17
TORSDOF 11
ENDMDL
MODEL 3
REMARK VINA RESULT:     -10.6      4.643      7.255
REMARK SMILES Cc1c(I)c(C(=O)NCCCNC(=O)c2ccc(-c3c4nc(c(-c5c(F)cccc5F)c5ccc([nH]5)c(-c5c(F)cccc5F)c5nc(c(-c6c(F)cccc6F)c6ccc3[nH]6)C=C5)C=C4)cc2)nn1C(F)F
REMARK SMILES IDX 10 1 9 2 8 3 6 4 7 5 5 7 1 8 2 9 3 10 70 11 4 12 69 13 71 14
REMARK SMILES IDX 72 15 73 16 11 17 12 18 13 19 14 21 15 22 16 23 68 24 17 25
REMARK SMILES IDX 67 26 18 27 19 28 20 29 61 30 21 31 66 32 60 33 62 34 22 35
REMARK SMILES IDX 65 36 59 37 58 38 23 40 49 41 32 42 48 43 33 44 36 45 47 46
REMARK SMILES IDX 63 47 34 48 35 49 46 51 64 52 37 53 24 54 25 55 30 56 26 57
REMARK SMILES IDX 27 58 29 59 31 60 28 61 50 62 51 63 56 64 52 65 53 66 55 67
REMARK SMILES IDX 57 68 54 69 38 70 39 71 44 72 40 73 41 74 43 75 45 76 42 77
REMARK H PARENT 8 6 12 20 62 39 36 50
REMARK Flexibility Score: inf
ROOT
ATOM      1  C   UNL A   1      31.397  31.873  26.530  1.00  0.00     0.042 C 
ENDROOT
BRANCH   1   2
ATOM      2  C   UNL A   1      31.732  30.535  25.861  1.00  0.00     0.118 C 
BRANCH   2   3
ATOM      3  N   UNL A   1      30.894  30.266  24.701  1.00  0.00    -0.351 N 
ATOM      4  C   UNL A   1      30.655  29.091  24.014  1.00  0.00     0.272 C 
ATOM      5  O   UNL A   1      29.834  29.154  23.097  1.00  0.00    -0.267 OA
ATOM      6  H   UNL A   1      30.416  31.051  24.348  1.00  0.00     0.163 HD
BRANCH   4   7
ATOM      7  C   UNL A   1      31.341  27.833  24.387  1.00  0.00     0.163 A 
ATOM      8  C   UNL A   1      33.886  25.107  24.428  1.00  0.00     0.068 C 
ATOM      9  C   UNL A   1      32.784  26.101  24.530  1.00  0.00     0.056 A 
ATOM     10  C   UNL A   1      32.599  27.339  23.943  1.00  0.00     0.067 A 
ATOM     11  N   UNL A   1      31.637  25.891  25.265  1.00  0.00    -0.207 N 
ATOM     12  I   UNL A   1      33.905  28.199  22.637  1.00  0.00    -0.040 I 
ATOM     13  N   UNL A   1      30.813  26.961  25.265  1.00  0.00    -0.161 NA
BRANCH  11  14
ATOM     14  C   UNL A   1      31.217  24.675  25.963  1.00  0.00     0.465 C 
ATOM     15  F   UNL A   1      31.932  24.474  27.102  1.00  0.00    -0.184 F 
ATOM     16  F   UNL A   1      29.905  24.740  26.324  1.00  0.00    -0.184 F 
ENDBRANCH  11  14
ENDBRANCH   4   7
ENDBRANCH   2   3
ENDBRANCH   1   2
BRANCH   1  17
ATOM     17  C   UNL A   1      32.608  32.475  27.232  1.00  0.00     0.118 C 
BRANCH  17  18
ATOM     18  N   UNL A   1      32.354  33.833  27.724  1.00  0.00    -0.352 N 
ATOM     19  C   UNL A   1      33.033  34.559  28.684  1.00  0.00     0.251 C 
ATOM     20  H   UNL A   1      31.590  34.294  27.309  1.00  0.00     0.163 HD
ATOM     21  O   UNL A   1      32.522  35.537  29.203  1.00  0.00    -0.269 OA
BRANCH  19  22
ATOM     22  C   UNL A   1      34.383  34.125  29.090  1.00  0.00     0.039 A 
ATOM     23  C   UNL A   1      34.568  33.363  30.246  1.00  0.00     0.014 A 
ATOM     24  C   UNL A   1      35.467  34.469  28.288  1.00  0.00     0.014 A 
ATOM     25  C   UNL A   1      35.838  32.869  30.533  1.00  0.00     0.010 A 
ATOM     26  C   UNL A   1      36.682  33.861  28.487  1.00  0.00     0.010 A 
ATOM     27  C   UNL A   1      36.888  33.094  29.628  1.00  0.00    -0.014 A 
BRANCH  27  28
ATOM     28  C   UNL A   1      38.167  32.408  29.797  1.00  0.00     0.031 A 
ATOM     29  C   UNL A   1      38.162  30.980  29.371  1.00  0.00     0.074 A 
ATOM     30  C   UNL A   1      39.325  33.044  30.084  1.00  0.00     0.049 A 
ATOM     31  N   UNL A   1      38.352  29.936  30.108  1.00  0.00    -0.248 NA
ATOM     32  C   UNL A   1      37.780  30.665  27.984  1.00  0.00     0.031 C 
ATOM     33  C   UNL A   1      39.560  34.486  30.215  1.00  0.00     0.029 A 
ATOM     34  N   UNL A   1      40.580  32.530  30.202  1.00  0.00    -0.354 N 
ATOM     35  C   UNL A   1      38.327  28.845  29.244  1.00  0.00     0.074 A 
ATOM     36  C   UNL A   1      37.794  29.330  27.998  1.00  0.00     0.031 C 
ATOM     37  C   UNL A   1      40.885  34.737  30.141  1.00  0.00     0.029 A 
ATOM     38  C   UNL A   1      41.599  33.473  30.128  1.00  0.00     0.049 A 
ATOM     39  H   UNL A   1      40.752  31.569  30.330  1.00  0.00     0.167 HD
ATOM     40  C   UNL A   1      38.995  27.696  29.548  1.00  0.00     0.037 A 
ATOM     41  C   UNL A   1      42.931  33.233  30.032  1.00  0.00     0.037 A 
ATOM     42  C   UNL A   1      39.297  27.629  30.958  1.00  0.00     0.049 A 
ATOM     43  C   UNL A   1      43.159  31.837  30.481  1.00  0.00     0.074 A 
ATOM     44  C   UNL A   1      38.548  27.718  32.116  1.00  0.00     0.029 A 
ATOM     45  N   UNL A   1      40.599  27.834  31.351  1.00  0.00    -0.354 N 
ATOM     46  N   UNL A   1      43.027  31.438  31.714  1.00  0.00    -0.248 NA
ATOM     47  C   UNL A   1      43.094  30.789  29.473  1.00  0.00     0.031 C 
ATOM     48  C   UNL A   1      39.351  28.483  33.014  1.00  0.00     0.029 A 
ATOM     49  C   UNL A   1      40.567  28.739  32.379  1.00  0.00     0.049 A 
ATOM     50  H   UNL A   1      41.401  27.411  30.967  1.00  0.00     0.167 HD
ATOM     51  C   UNL A   1      42.416  30.198  31.614  1.00  0.00     0.074 A 
ATOM     52  C   UNL A   1      42.571  29.808  30.214  1.00  0.00     0.031 C 
ATOM     53  C   UNL A   1      41.587  29.737  32.596  1.00  0.00     0.037 A 
BRANCH  40  54
ATOM     54  C   UNL A   1      39.727  26.849  28.531  1.00  0.00     0.057 A 
ATOM     55  C   UNL A   1      40.574  27.480  27.601  1.00  0.00     0.134 A 
ATOM     56  C   UNL A   1      39.398  25.512  28.223  1.00  0.00     0.134 A 
ATOM     57  F   UNL A   1      40.959  28.755  27.773  1.00  0.00    -0.206 F 
ATOM     58  C   UNL A   1      40.976  26.865  26.409  1.00  0.00     0.040 A 
ATOM     59  C   UNL A   1      39.839  24.870  27.062  1.00  0.00     0.040 A 
ATOM     60  F   UNL A   1      38.555  24.785  28.963  1.00  0.00    -0.206 F 
ATOM     61  C   UNL A   1      40.599  25.558  26.131  1.00  0.00     0.006 A 
ENDBRANCH  40  54
BRANCH  41  62
ATOM     62  C   UNL A   1      43.988  34.025  29.361  1.00  0.00     0.057 A 
ATOM     63  C   UNL A   1      44.141  33.993  27.967  1.00  0.00     0.134 A 
ATOM     64  C   UNL A   1      44.692  35.042  30.031  1.00  0.00     0.134 A 
ATOM     65  F   UNL A   1      43.486  33.084  27.231  1.00  0.00    -0.206 F 
ATOM     66  C   UNL A   1      44.916  34.935  27.276  1.00  0.00     0.040 A 
ATOM     67  C   UNL A   1      45.477  35.983  29.355  1.00  0.00     0.040 A 
ATOM     68  F   UNL A   1      44.572  35.214  31.355  1.00  0.00    -0.206 F 
ATOM     69  C   UNL A   1      45.577  35.943  27.971  1.00  0.00     0.006 A 
ENDBRANCH  41  62
BRANCH  53  70
ATOM     70  C   UNL A   1      41.547  30.471  33.906  1.00  0.00     0.057 A 
ATOM     71  C   UNL A   1      40.700  31.556  34.184  1.00  0.00     0.134 A 
ATOM     72  C   UNL A   1      42.283  29.957  34.980  1.00  0.00     0.134 A 
ATOM     73  F   UNL A   1      39.881  32.058  33.253  1.00  0.00    -0.206 F 
ATOM     74  C   UNL A   1      40.625  32.126  35.460  1.00  0.00     0.040 A 
ATOM     75  C   UNL A   1      42.189  30.493  36.266  1.00  0.00     0.040 A 
ATOM     76  F   UNL A   1      43.073  28.885  34.806  1.00  0.00    -0.206 F 
ATOM     77  C   UNL A   1      41.365  31.588  36.507  1.00  0.00     0.006 A 
ENDBRANCH  53  70
ENDBRANCH  27  28
ENDBRANCH  19  22
ENDBRANCH  17  18
ENDBRANCH   1  17
TORSDOF 11
ENDMDL
