MODEL 1
REMARK VINA RESULT:     -13.0      0.000      0.000
REMARK SMILES C[C@H](NC(=O)c1cccc(NC(=O)c2ccccc2C(=O)NCCCNC(=O)c2ccc(-c3c4nc(c(-c5c(F)cccc5F)c5ccc([nH]5)c(-c5c(F)cccc5F)c5nc(c(-c6c(F)cccc6F)c6ccc3[nH]6)C=C5)C=C4)cc2)c1)c1ccccc1
REMARK SMILES IDX 20 1 21 2 22 3 19 5 14 6 15 7 16 8 18 9 17 10 12 11 11 12
REMARK SMILES IDX 13 14 10 15 6 16 7 17 83 18 8 19 9 20 4 21 3 22 5 24 2 25
REMARK SMILES IDX 1 26 84 27 85 28 89 29 86 30 88 31 87 32 23 33 24 34 25 35
REMARK SMILES IDX 26 36 27 37 28 39 29 40 30 41 82 42 31 43 81 44 32 45 33 46
REMARK SMILES IDX 34 47 75 48 35 49 80 50 74 51 76 52 36 53 79 54 73 55 72 56
REMARK SMILES IDX 37 58 63 59 46 60 62 61 47 62 50 63 61 64 77 65 48 66 49 67
REMARK SMILES IDX 60 69 78 70 51 71 38 72 39 73 44 74 40 75 41 76 43 77 45 78
REMARK SMILES IDX 42 79 64 80 65 81 70 82 66 83 67 84 69 85 71 86 68 87 52 88
REMARK SMILES IDX 53 89 58 90 54 91 55 92 57 93 59 94 56 95
REMARK H PARENT 22 4 11 13 3 23 26 38 76 57 50 68
REMARK Flexibility Score: inf
ROOT
ATOM      1  C   UNL A   1      32.848  29.054  24.932  1.00  0.00     0.252 C 
ATOM      2  O   UNL A   1      33.920  28.790  24.386  1.00  0.00    -0.269 OA
ATOM      3  N   UNL A   1      32.864  29.857  26.041  1.00  0.00    -0.352 N 
ATOM      4  H   UNL A   1      33.753  30.185  26.309  1.00  0.00     0.163 HD
ENDROOT
BRANCH   1   5
ATOM      5  C   UNL A   1      31.607  28.416  24.428  1.00  0.00     0.052 A 
ATOM      6  C   UNL A   1      30.968  27.290  24.969  1.00  0.00     0.052 A 
ATOM      7  C   UNL A   1      29.843  26.753  24.313  1.00  0.00     0.014 A 
ATOM      8  C   UNL A   1      29.299  27.379  23.193  1.00  0.00     0.001 A 
ATOM      9  C   UNL A   1      31.018  29.063  23.323  1.00  0.00     0.014 A 
ATOM     10  C   UNL A   1      29.870  28.551  22.714  1.00  0.00     0.001 A 
BRANCH   6  11
ATOM     11  C   UNL A   1      31.388  26.548  26.176  1.00  0.00     0.256 C 
ATOM     12  N   UNL A   1      32.108  25.379  26.155  1.00  0.00    -0.322 N 
ATOM     13  H   UNL A   1      32.183  24.944  27.035  1.00  0.00     0.170 HD
ATOM     14  O   UNL A   1      31.004  26.986  27.264  1.00  0.00    -0.269 OA
BRANCH  12  15
ATOM     15  C   UNL A   1      32.760  24.684  25.126  1.00  0.00     0.042 A 
ATOM     16  C   UNL A   1      32.694  22.795  23.607  1.00  0.00     0.041 A 
ATOM     17  C   UNL A   1      33.815  23.289  22.937  1.00  0.00     0.014 A 
ATOM     18  C   UNL A   1      32.207  23.455  24.739  1.00  0.00     0.040 A 
ATOM     19  C   UNL A   1      34.429  24.456  23.385  1.00  0.00     0.003 A 
ATOM     20  C   UNL A   1      33.905  25.147  24.479  1.00  0.00     0.026 A 
BRANCH  16  21
ATOM     21  C   UNL A   1      32.164  21.487  23.194  1.00  0.00     0.251 C 
ATOM     22  N   UNL A   1      32.334  20.340  23.916  1.00  0.00    -0.346 N 
ATOM     23  H   UNL A   1      32.035  19.549  23.413  1.00  0.00     0.164 HD
ATOM     24  O   UNL A   1      31.538  21.438  22.137  1.00  0.00    -0.269 OA
BRANCH  22  25
ATOM     25  C   UNL A   1      32.842  19.979  25.237  1.00  0.00     0.109 C 
ATOM     26  C   UNL A   1      32.863  18.511  25.625  1.00  0.00     0.036 C 
BRANCH  25  27
ATOM     27  C   UNL A   1      34.182  20.632  25.529  1.00  0.00    -0.026 A 
ATOM     28  C   UNL A   1      35.305  20.295  24.753  1.00  0.00     0.006 A 
ATOM     29  C   UNL A   1      34.321  21.618  26.517  1.00  0.00     0.006 A 
ATOM     30  C   UNL A   1      36.524  20.952  24.938  1.00  0.00     0.000 A 
ATOM     31  C   UNL A   1      35.539  22.276  26.697  1.00  0.00     0.000 A 
ATOM     32  C   UNL A   1      36.638  21.948  25.904  1.00  0.00     0.000 A 
ENDBRANCH  25  27
ENDBRANCH  22  25
ENDBRANCH  16  21
ENDBRANCH  12  15
ENDBRANCH   6  11
ENDBRANCH   1   5
BRANCH   3  33
ATOM     33  C   UNL A   1      31.766  30.295  26.876  1.00  0.00     0.118 C 
BRANCH  33  34
ATOM     34  C   UNL A   1      31.233  31.671  26.529  1.00  0.00     0.042 C 
BRANCH  34  35
ATOM     35  C   UNL A   1      32.279  32.770  26.420  1.00  0.00     0.118 C 
BRANCH  35  36
ATOM     36  N   UNL A   1      32.196  33.817  27.432  1.00  0.00    -0.352 N 
ATOM     37  C   UNL A   1      33.113  34.209  28.387  1.00  0.00     0.251 C 
ATOM     38  H   UNL A   1      31.353  34.324  27.436  1.00  0.00     0.163 HD
ATOM     39  O   UNL A   1      32.889  35.171  29.098  1.00  0.00    -0.269 OA
BRANCH  37  40
ATOM     40  C   UNL A   1      34.331  33.394  28.589  1.00  0.00     0.039 A 
ATOM     41  C   UNL A   1      35.562  34.048  28.663  1.00  0.00     0.014 A 
ATOM     42  C   UNL A   1      34.244  32.024  28.831  1.00  0.00     0.014 A 
ATOM     43  C   UNL A   1      36.684  33.352  29.116  1.00  0.00     0.010 A 
ATOM     44  C   UNL A   1      35.328  31.367  29.396  1.00  0.00     0.010 A 
ATOM     45  C   UNL A   1      36.556  32.026  29.560  1.00  0.00    -0.014 A 
BRANCH  45  46
ATOM     46  C   UNL A   1      37.682  31.314  30.217  1.00  0.00     0.031 A 
ATOM     47  C   UNL A   1      38.002  31.590  31.659  1.00  0.00     0.074 A 
ATOM     48  C   UNL A   1      38.474  30.499  29.492  1.00  0.00     0.049 A 
ATOM     49  N   UNL A   1      39.004  31.161  32.382  1.00  0.00    -0.248 NA
ATOM     50  C   UNL A   1      37.102  32.512  32.371  1.00  0.00     0.031 C 
ATOM     51  C   UNL A   1      38.322  30.211  28.064  1.00  0.00     0.029 A 
ATOM     52  N   UNL A   1      39.575  29.765  29.859  1.00  0.00    -0.354 N 
ATOM     53  C   UNL A   1      38.875  31.789  33.613  1.00  0.00     0.074 A 
ATOM     54  C   UNL A   1      37.736  32.674  33.522  1.00  0.00     0.031 C 
ATOM     55  C   UNL A   1      39.265  29.331  27.688  1.00  0.00     0.029 A 
ATOM     56  C   UNL A   1      40.109  29.020  28.836  1.00  0.00     0.049 A 
ATOM     57  H   UNL A   1      39.947  29.773  30.771  1.00  0.00     0.167 HD
ATOM     58  C   UNL A   1      39.618  31.621  34.732  1.00  0.00     0.037 A 
ATOM     59  C   UNL A   1      41.156  28.174  28.828  1.00  0.00     0.037 A 
ATOM     60  C   UNL A   1      40.709  30.691  34.840  1.00  0.00     0.049 A 
ATOM     61  C   UNL A   1      41.924  27.950  30.101  1.00  0.00     0.074 A 
ATOM     62  C   UNL A   1      41.475  30.384  35.950  1.00  0.00     0.029 A 
ATOM     63  N   UNL A   1      41.178  29.906  33.798  1.00  0.00    -0.354 N 
ATOM     64  N   UNL A   1      41.748  28.500  31.278  1.00  0.00    -0.248 NA
ATOM     65  C   UNL A   1      43.027  26.980  30.048  1.00  0.00     0.031 C 
ATOM     66  C   UNL A   1      42.422  29.425  35.574  1.00  0.00     0.029 A 
ATOM     67  C   UNL A   1      42.224  29.115  34.238  1.00  0.00     0.049 A 
ATOM     68  H   UNL A   1      40.819  29.911  32.881  1.00  0.00     0.167 HD
ATOM     69  C   UNL A   1      42.699  27.926  32.111  1.00  0.00     0.074 A 
ATOM     70  C   UNL A   1      43.442  26.977  31.307  1.00  0.00     0.031 C 
ATOM     71  C   UNL A   1      42.937  28.164  33.423  1.00  0.00     0.037 A 
BRANCH  58  72
ATOM     72  C   UNL A   1      39.250  32.447  35.928  1.00  0.00     0.057 A 
ATOM     73  C   UNL A   1      38.366  31.974  36.907  1.00  0.00     0.134 A 
ATOM     74  C   UNL A   1      39.780  33.731  36.102  1.00  0.00     0.134 A 
ATOM     75  F   UNL A   1      37.810  30.758  36.790  1.00  0.00    -0.206 F 
ATOM     76  C   UNL A   1      37.993  32.761  37.998  1.00  0.00     0.040 A 
ATOM     77  C   UNL A   1      39.436  34.518  37.204  1.00  0.00     0.040 A 
ATOM     78  F   UNL A   1      40.634  34.245  35.205  1.00  0.00    -0.206 F 
ATOM     79  C   UNL A   1      38.533  34.037  38.149  1.00  0.00     0.006 A 
ENDBRANCH  58  72
BRANCH  59  80
ATOM     80  C   UNL A   1      41.506  27.432  27.591  1.00  0.00     0.057 A 
ATOM     81  C   UNL A   1      41.009  26.143  27.366  1.00  0.00     0.134 A 
ATOM     82  C   UNL A   1      42.337  27.985  26.610  1.00  0.00     0.134 A 
ATOM     83  F   UNL A   1      40.222  25.555  28.279  1.00  0.00    -0.206 F 
ATOM     84  C   UNL A   1      41.340  25.421  26.218  1.00  0.00     0.040 A 
ATOM     85  C   UNL A   1      42.660  27.282  25.447  1.00  0.00     0.040 A 
ATOM     86  F   UNL A   1      42.837  29.219  26.763  1.00  0.00    -0.206 F 
ATOM     87  C   UNL A   1      42.165  25.993  25.252  1.00  0.00     0.006 A 
ENDBRANCH  59  80
BRANCH  71  88
ATOM     88  C   UNL A   1      44.017  27.359  34.079  1.00  0.00     0.057 A 
ATOM     89  C   UNL A   1      45.341  27.810  34.133  1.00  0.00     0.134 A 
ATOM     90  C   UNL A   1      43.716  26.145  34.707  1.00  0.00     0.134 A 
ATOM     91  F   UNL A   1      45.692  28.961  33.539  1.00  0.00    -0.206 F 
ATOM     92  C   UNL A   1      46.334  27.071  34.776  1.00  0.00     0.040 A 
ATOM     93  C   UNL A   1      44.695  25.407  35.372  1.00  0.00     0.040 A 
ATOM     94  F   UNL A   1      42.463  25.664  34.695  1.00  0.00    -0.206 F 
ATOM     95  C   UNL A   1      46.010  25.869  35.404  1.00  0.00     0.006 A 
ENDBRANCH  71  88
ENDBRANCH  45  46
ENDBRANCH  37  40
ENDBRANCH  35  36
ENDBRANCH  34  35
ENDBRANCH  33  34
ENDBRANCH   3  33
TORSDOF 15
ENDMDL
MODEL 2
REMARK VINA RESULT:     -13.0      4.428     10.013
REMARK SMILES C[C@H](NC(=O)c1cccc(NC(=O)c2ccccc2C(=O)NCCCNC(=O)c2ccc(-c3c4nc(c(-c5c(F)cccc5F)c5ccc([nH]5)c(-c5c(F)cccc5F)c5nc(c(-c6c(F)cccc6F)c6ccc3[nH]6)C=C5)C=C4)cc2)c1)c1ccccc1
REMARK SMILES IDX 20 1 21 2 22 3 19 5 14 6 15 7 16 8 18 9 17 10 12 11 11 12
REMARK SMILES IDX 13 14 10 15 6 16 7 17 83 18 8 19 9 20 4 21 3 22 5 24 2 25
REMARK SMILES IDX 1 26 84 27 85 28 89 29 86 30 88 31 87 32 23 33 24 34 25 35
REMARK SMILES IDX 26 36 27 37 28 39 29 40 30 41 82 42 31 43 81 44 32 45 33 46
REMARK SMILES IDX 34 47 75 48 35 49 80 50 74 51 76 52 36 53 79 54 73 55 72 56
REMARK SMILES IDX 37 58 63 59 46 60 62 61 47 62 50 63 61 64 77 65 48 66 49 67
REMARK SMILES IDX 60 69 78 70 51 71 38 72 39 73 44 74 40 75 41 76 43 77 45 78
REMARK SMILES IDX 42 79 64 80 65 81 70 82 66 83 67 84 69 85 71 86 68 87 52 88
REMARK SMILES IDX 53 89 58 90 54 91 55 92 57 93 59 94 56 95
REMARK H PARENT 22 4 11 13 3 23 26 38 76 57 50 68
REMARK Flexibility Score: inf
ROOT
ATOM      1  C   UNL A   1      35.188  22.261  26.109  1.00  0.00     0.252 C 
ATOM      2  O   UNL A   1      34.804  22.838  27.126  1.00  0.00    -0.269 OA
ATOM      3  N   UNL A   1      36.534  22.207  25.860  1.00  0.00    -0.352 N 
ATOM      4  H   UNL A   1      37.103  22.627  26.545  1.00  0.00     0.163 HD
ENDROOT
BRANCH   1   5
ATOM      5  C   UNL A   1      34.179  21.741  25.152  1.00  0.00     0.052 A 
ATOM      6  C   UNL A   1      33.834  22.305  23.915  1.00  0.00     0.052 A 
ATOM      7  C   UNL A   1      32.786  21.735  23.165  1.00  0.00     0.014 A 
ATOM      8  C   UNL A   1      32.156  20.565  23.587  1.00  0.00     0.001 A 
ATOM      9  C   UNL A   1      33.564  20.534  25.542  1.00  0.00     0.014 A 
ATOM     10  C   UNL A   1      32.565  19.949  24.762  1.00  0.00     0.001 A 
BRANCH   6  11
ATOM     11  C   UNL A   1      34.442  23.506  23.306  1.00  0.00     0.256 C 
ATOM     12  N   UNL A   1      33.958  24.782  23.461  1.00  0.00    -0.322 N 
ATOM     13  H   UNL A   1      34.395  25.444  22.878  1.00  0.00     0.170 HD
ATOM     14  O   UNL A   1      35.410  23.328  22.561  1.00  0.00    -0.269 OA
BRANCH  12  15
ATOM     15  C   UNL A   1      32.963  25.327  24.286  1.00  0.00     0.042 A 
ATOM     16  C   UNL A   1      30.689  26.154  24.434  1.00  0.00     0.041 A 
ATOM     17  C   UNL A   1      30.802  26.229  25.824  1.00  0.00     0.014 A 
ATOM     18  C   UNL A   1      31.788  25.767  23.662  1.00  0.00     0.040 A 
ATOM     19  C   UNL A   1      32.005  25.889  26.439  1.00  0.00     0.003 A 
ATOM     20  C   UNL A   1      33.083  25.446  25.670  1.00  0.00     0.026 A 
BRANCH  16  21
ATOM     21  C   UNL A   1      29.455  26.657  23.813  1.00  0.00     0.251 C 
ATOM     22  N   UNL A   1      29.378  27.839  23.133  1.00  0.00    -0.346 N 
ATOM     23  H   UNL A   1      28.446  28.071  22.918  1.00  0.00     0.164 HD
ATOM     24  O   UNL A   1      28.443  25.967  23.924  1.00  0.00    -0.269 OA
BRANCH  22  25
ATOM     25  C   UNL A   1      30.313  28.848  22.642  1.00  0.00     0.109 C 
ATOM     26  C   UNL A   1      29.748  30.103  21.999  1.00  0.00     0.036 C 
BRANCH  25  27
ATOM     27  C   UNL A   1      31.363  29.202  23.681  1.00  0.00    -0.026 A 
ATOM     28  C   UNL A   1      30.971  29.782  24.901  1.00  0.00     0.006 A 
ATOM     29  C   UNL A   1      32.720  28.908  23.485  1.00  0.00     0.006 A 
ATOM     30  C   UNL A   1      31.906  30.027  25.909  1.00  0.00     0.000 A 
ATOM     31  C   UNL A   1      33.653  29.149  24.496  1.00  0.00     0.000 A 
ATOM     32  C   UNL A   1      33.245  29.703  25.709  1.00  0.00     0.000 A 
ENDBRANCH  25  27
ENDBRANCH  22  25
ENDBRANCH  16  21
ENDBRANCH  12  15
ENDBRANCH   6  11
ENDBRANCH   1   5
BRANCH   3  33
ATOM     33  C   UNL A   1      37.240  21.622  24.741  1.00  0.00     0.118 C 
BRANCH  33  34
ATOM     34  C   UNL A   1      37.922  20.306  25.057  1.00  0.00     0.042 C 
BRANCH  34  35
ATOM     35  C   UNL A   1      39.212  20.413  25.857  1.00  0.00     0.118 C 
BRANCH  35  36
ATOM     36  N   UNL A   1      40.110  19.269  25.755  1.00  0.00    -0.352 N 
ATOM     37  C   UNL A   1      41.451  19.156  26.066  1.00  0.00     0.251 C 
ATOM     38  H   UNL A   1      39.695  18.446  25.409  1.00  0.00     0.163 HD
ATOM     39  O   UNL A   1      42.013  18.079  25.987  1.00  0.00    -0.269 OA
BRANCH  37  40
ATOM     40  C   UNL A   1      42.212  20.376  26.413  1.00  0.00     0.039 A 
ATOM     41  C   UNL A   1      42.760  21.133  25.376  1.00  0.00     0.014 A 
ATOM     42  C   UNL A   1      42.272  20.832  27.729  1.00  0.00     0.014 A 
ATOM     43  C   UNL A   1      43.245  22.414  25.643  1.00  0.00     0.010 A 
ATOM     44  C   UNL A   1      42.641  22.147  27.972  1.00  0.00     0.010 A 
ATOM     45  C   UNL A   1      43.117  22.960  26.931  1.00  0.00    -0.014 A 
BRANCH  45  46
ATOM     46  C   UNL A   1      43.453  24.379  27.211  1.00  0.00     0.031 A 
ATOM     47  C   UNL A   1      44.874  24.850  27.084  1.00  0.00     0.074 A 
ATOM     48  C   UNL A   1      42.502  25.215  27.675  1.00  0.00     0.049 A 
ATOM     49  N   UNL A   1      45.392  26.013  27.388  1.00  0.00    -0.248 NA
ATOM     50  C   UNL A   1      45.855  23.868  26.595  1.00  0.00     0.031 C 
ATOM     51  C   UNL A   1      41.102  24.860  27.923  1.00  0.00     0.029 A 
ATOM     52  N   UNL A   1      42.572  26.539  28.028  1.00  0.00    -0.354 N 
ATOM     53  C   UNL A   1      46.756  25.886  27.166  1.00  0.00     0.074 A 
ATOM     54  C   UNL A   1      46.995  24.519  26.759  1.00  0.00     0.031 C 
ATOM     55  C   UNL A   1      40.439  25.949  28.346  1.00  0.00     0.029 A 
ATOM     56  C   UNL A   1      41.370  27.068  28.434  1.00  0.00     0.049 A 
ATOM     57  H   UNL A   1      43.406  27.062  27.996  1.00  0.00     0.167 HD
ATOM     58  C   UNL A   1      47.721  26.831  27.258  1.00  0.00     0.037 A 
ATOM     59  C   UNL A   1      41.054  28.317  28.823  1.00  0.00     0.037 A 
ATOM     60  C   UNL A   1      47.471  28.205  27.597  1.00  0.00     0.049 A 
ATOM     61  C   UNL A   1      42.129  29.367  28.851  1.00  0.00     0.074 A 
ATOM     62  C   UNL A   1      48.363  29.260  27.640  1.00  0.00     0.029 A 
ATOM     63  N   UNL A   1      46.227  28.715  27.938  1.00  0.00    -0.354 N 
ATOM     64  N   UNL A   1      43.405  29.249  28.572  1.00  0.00    -0.248 NA
ATOM     65  C   UNL A   1      41.721  30.725  29.238  1.00  0.00     0.031 C 
ATOM     66  C   UNL A   1      47.662  30.408  28.026  1.00  0.00     0.029 A 
ATOM     67  C   UNL A   1      46.328  30.071  28.194  1.00  0.00     0.049 A 
ATOM     68  H   UNL A   1      45.396  28.191  27.990  1.00  0.00     0.167 HD
ATOM     69  C   UNL A   1      43.945  30.520  28.722  1.00  0.00     0.074 A 
ATOM     70  C   UNL A   1      42.857  31.395  29.108  1.00  0.00     0.031 C 
ATOM     71  C   UNL A   1      45.227  30.925  28.558  1.00  0.00     0.037 A 
BRANCH  58  72
ATOM     72  C   UNL A   1      49.128  26.403  26.962  1.00  0.00     0.057 A 
ATOM     73  C   UNL A   1      49.635  26.392  25.656  1.00  0.00     0.134 A 
ATOM     74  C   UNL A   1      49.983  25.992  27.991  1.00  0.00     0.134 A 
ATOM     75  F   UNL A   1      48.861  26.757  24.622  1.00  0.00    -0.206 F 
ATOM     76  C   UNL A   1      50.931  25.954  25.378  1.00  0.00     0.040 A 
ATOM     77  C   UNL A   1      51.291  25.578  27.729  1.00  0.00     0.040 A 
ATOM     78  F   UNL A   1      49.563  25.981  29.265  1.00  0.00    -0.206 F 
ATOM     79  C   UNL A   1      51.764  25.550  26.420  1.00  0.00     0.006 A 
ENDBRANCH  58  72
BRANCH  59  80
ATOM     80  C   UNL A   1      39.651  28.660  29.163  1.00  0.00     0.057 A 
ATOM     81  C   UNL A   1      38.777  29.148  28.185  1.00  0.00     0.134 A 
ATOM     82  C   UNL A   1      39.149  28.510  30.461  1.00  0.00     0.134 A 
ATOM     83  F   UNL A   1      39.207  29.330  26.927  1.00  0.00    -0.206 F 
ATOM     84  C   UNL A   1      37.459  29.494  28.486  1.00  0.00     0.040 A 
ATOM     85  C   UNL A   1      37.825  28.831  30.772  1.00  0.00     0.040 A 
ATOM     86  F   UNL A   1      39.933  28.037  31.440  1.00  0.00    -0.206 F 
ATOM     87  C   UNL A   1      36.978  29.330  29.784  1.00  0.00     0.006 A 
ENDBRANCH  59  80
BRANCH  71  88
ATOM     88  C   UNL A   1      45.514  32.382  28.756  1.00  0.00     0.057 A 
ATOM     89  C   UNL A   1      45.895  32.895  30.001  1.00  0.00     0.134 A 
ATOM     90  C   UNL A   1      45.458  33.271  27.675  1.00  0.00     0.134 A 
ATOM     91  F   UNL A   1      45.955  32.094  31.077  1.00  0.00    -0.206 F 
ATOM     92  C   UNL A   1      46.194  34.247  30.169  1.00  0.00     0.040 A 
ATOM     93  C   UNL A   1      45.775  34.620  27.825  1.00  0.00     0.040 A 
ATOM     94  F   UNL A   1      45.106  32.837  26.455  1.00  0.00    -0.206 F 
ATOM     95  C   UNL A   1      46.142  35.112  29.077  1.00  0.00     0.006 A 
ENDBRANCH  71  88
ENDBRANCH  45  46
ENDBRANCH  37  40
ENDBRANCH  35  36
ENDBRANCH  34  35
ENDBRANCH  33  34
ENDBRANCH   3  33
TORSDOF 15
ENDMDL
MODEL 3
REMARK VINA RESULT:     -12.9      1.478      2.133
REMARK SMILES C[C@H](NC(=O)c1cccc(NC(=O)c2ccccc2C(=O)NCCCNC(=O)c2ccc(-c3c4nc(c(-c5c(F)cccc5F)c5ccc([nH]5)c(-c5c(F)cccc5F)c5nc(c(-c6c(F)cccc6F)c6ccc3[nH]6)C=C5)C=C4)cc2)c1)c1ccccc1
REMARK SMILES IDX 20 1 21 2 22 3 19 5 14 6 15 7 16 8 18 9 17 10 12 11 11 12
REMARK SMILES IDX 13 14 10 15 6 16 7 17 83 18 8 19 9 20 4 21 3 22 5 24 2 25
REMARK SMILES IDX 1 26 84 27 85 28 89 29 86 30 88 31 87 32 23 33 24 34 25 35
REMARK SMILES IDX 26 36 27 37 28 39 29 40 30 41 82 42 31 43 81 44 32 45 33 46
REMARK SMILES IDX 34 47 75 48 35 49 80 50 74 51 76 52 36 53 79 54 73 55 72 56
REMARK SMILES IDX 37 58 63 59 46 60 62 61 47 62 50 63 61 64 77 65 48 66 49 67
REMARK SMILES IDX 60 69 78 70 51 71 38 72 39 73 44 74 40 75 41 76 43 77 45 78
REMARK SMILES IDX 42 79 64 80 65 81 70 82 66 83 67 84 69 85 71 86 68 87 52 88
REMARK SMILES IDX 53 89 58 90 54 91 55 92 57 93 59 94 56 95
REMARK H PARENT 22 4 11 13 3 23 26 38 76 57 50 68
REMARK Flexibility Score: inf
ROOT
ATOM      1  C   UNL A   1      32.943  29.080  24.638  1.00  0.00     0.252 C 
ATOM      2  O   UNL A   1      33.930  28.826  23.949  1.00  0.00    -0.269 OA
ATOM      3  N   UNL A   1      33.095  29.925  25.706  1.00  0.00    -0.352 N 
ATOM      4  H   UNL A   1      34.002  30.288  25.827  1.00  0.00     0.163 HD
ENDROOT
BRANCH   1   5
ATOM      5  C   UNL A   1      31.663  28.388  24.347  1.00  0.00     0.052 A 
ATOM      6  C   UNL A   1      31.134  27.286  25.036  1.00  0.00     0.052 A 
ATOM      7  C   UNL A   1      29.946  26.687  24.572  1.00  0.00     0.014 A 
ATOM      8  C   UNL A   1      29.239  27.232  23.501  1.00  0.00     0.001 A 
ATOM      9  C   UNL A   1      30.913  28.953  23.296  1.00  0.00     0.014 A 
ATOM     10  C   UNL A   1      29.708  28.383  22.880  1.00  0.00     0.001 A 
BRANCH   6  11
ATOM     11  C   UNL A   1      31.733  26.630  26.216  1.00  0.00     0.256 C 
ATOM     12  N   UNL A   1      32.587  25.556  26.155  1.00  0.00    -0.322 N 
ATOM     13  H   UNL A   1      32.781  25.154  27.032  1.00  0.00     0.170 HD
ATOM     14  O   UNL A   1      31.383  27.043  27.325  1.00  0.00    -0.269 OA
BRANCH  12  15
ATOM     15  C   UNL A   1      33.238  24.920  25.088  1.00  0.00     0.042 A 
ATOM     16  C   UNL A   1      34.484  22.975  24.351  1.00  0.00     0.041 A 
ATOM     17  C   UNL A   1      34.402  23.418  23.029  1.00  0.00     0.014 A 
ATOM     18  C   UNL A   1      33.961  23.757  25.385  1.00  0.00     0.040 A 
ATOM     19  C   UNL A   1      33.772  24.627  22.743  1.00  0.00     0.003 A 
ATOM     20  C   UNL A   1      33.198  25.377  23.771  1.00  0.00     0.026 A 
BRANCH  16  21
ATOM     21  C   UNL A   1      35.280  21.771  24.627  1.00  0.00     0.251 C 
ATOM     22  N   UNL A   1      34.735  20.535  24.834  1.00  0.00    -0.346 N 
ATOM     23  H   UNL A   1      35.410  19.890  25.144  1.00  0.00     0.164 HD
ATOM     24  O   UNL A   1      36.502  21.897  24.676  1.00  0.00    -0.269 OA
BRANCH  22  25
ATOM     25  C   UNL A   1      33.415  19.920  24.717  1.00  0.00     0.109 C 
ATOM     26  C   UNL A   1      32.528  20.330  23.554  1.00  0.00     0.036 C 
BRANCH  25  27
ATOM     27  C   UNL A   1      33.481  18.407  24.836  1.00  0.00    -0.026 A 
ATOM     28  C   UNL A   1      34.553  17.708  24.255  1.00  0.00     0.006 A 
ATOM     29  C   UNL A   1      32.528  17.685  25.570  1.00  0.00     0.006 A 
ATOM     30  C   UNL A   1      34.687  16.329  24.433  1.00  0.00     0.000 A 
ATOM     31  C   UNL A   1      32.666  16.307  25.751  1.00  0.00     0.000 A 
ATOM     32  C   UNL A   1      33.747  15.631  25.188  1.00  0.00     0.000 A 
ENDBRANCH  25  27
ENDBRANCH  22  25
ENDBRANCH  16  21
ENDBRANCH  12  15
ENDBRANCH   6  11
ENDBRANCH   1   5
BRANCH   3  33
ATOM     33  C   UNL A   1      32.119  30.363  26.679  1.00  0.00     0.118 C 
BRANCH  33  34
ATOM     34  C   UNL A   1      31.825  31.849  26.639  1.00  0.00     0.042 C 
BRANCH  34  35
ATOM     35  C   UNL A   1      32.831  32.736  27.359  1.00  0.00     0.118 C 
BRANCH  35  36
ATOM     36  N   UNL A   1      32.340  34.053  27.748  1.00  0.00    -0.352 N 
ATOM     37  C   UNL A   1      32.903  35.007  28.572  1.00  0.00     0.251 C 
ATOM     38  H   UNL A   1      31.470  34.301  27.361  1.00  0.00     0.163 HD
ATOM     39  O   UNL A   1      32.371  36.093  28.710  1.00  0.00    -0.269 OA
BRANCH  37  40
ATOM     40  C   UNL A   1      34.113  34.660  29.349  1.00  0.00     0.039 A 
ATOM     41  C   UNL A   1      33.952  34.209  30.661  1.00  0.00     0.014 A 
ATOM     42  C   UNL A   1      35.371  34.657  28.751  1.00  0.00     0.014 A 
ATOM     43  C   UNL A   1      35.032  33.625  31.323  1.00  0.00     0.010 A 
ATOM     44  C   UNL A   1      36.409  33.968  29.363  1.00  0.00     0.010 A 
ATOM     45  C   UNL A   1      36.249  33.430  30.649  1.00  0.00    -0.014 A 
BRANCH  45  46
ATOM     46  C   UNL A   1      37.358  32.652  31.256  1.00  0.00     0.031 A 
ATOM     47  C   UNL A   1      37.904  33.049  32.599  1.00  0.00     0.074 A 
ATOM     48  C   UNL A   1      37.939  31.655  30.559  1.00  0.00     0.049 A 
ATOM     49  N   UNL A   1      38.936  32.574  33.248  1.00  0.00    -0.248 NA
ATOM     50  C   UNL A   1      37.228  34.164  33.283  1.00  0.00     0.031 C 
ATOM     51  C   UNL A   1      37.560  31.224  29.211  1.00  0.00     0.029 A 
ATOM     52  N   UNL A   1      38.982  30.825  30.887  1.00  0.00    -0.354 N 
ATOM     53  C   UNL A   1      39.053  33.356  34.389  1.00  0.00     0.074 A 
ATOM     54  C   UNL A   1      38.029  34.372  34.316  1.00  0.00     0.031 C 
ATOM     55  C   UNL A   1      38.328  30.184  28.847  1.00  0.00     0.029 A 
ATOM     56  C   UNL A   1      39.277  29.897  29.917  1.00  0.00     0.049 A 
ATOM     57  H   UNL A   1      39.474  30.889  31.737  1.00  0.00     0.167 HD
ATOM     58  C   UNL A   1      39.916  33.220  35.423  1.00  0.00     0.037 A 
ATOM     59  C   UNL A   1      40.202  28.920  29.897  1.00  0.00     0.037 A 
ATOM     60  C   UNL A   1      40.891  32.168  35.524  1.00  0.00     0.049 A 
ATOM     61  C   UNL A   1      41.103  28.744  31.088  1.00  0.00     0.074 A 
ATOM     62  C   UNL A   1      41.758  31.891  36.566  1.00  0.00     0.029 A 
ATOM     63  N   UNL A   1      41.113  31.208  34.549  1.00  0.00    -0.354 N 
ATOM     64  N   UNL A   1      41.159  29.449  32.192  1.00  0.00    -0.248 NA
ATOM     65  C   UNL A   1      42.063  27.632  31.034  1.00  0.00     0.031 C 
ATOM     66  C   UNL A   1      42.521  30.772  36.212  1.00  0.00     0.029 A 
ATOM     67  C   UNL A   1      42.106  30.337  34.963  1.00  0.00     0.049 A 
ATOM     68  H   UNL A   1      40.636  31.154  33.690  1.00  0.00     0.167 HD
ATOM     69  C   UNL A   1      42.137  28.851  32.975  1.00  0.00     0.074 A 
ATOM     70  C   UNL A   1      42.642  27.720  32.223  1.00  0.00     0.031 C 
ATOM     71  C   UNL A   1      42.580  29.207  34.204  1.00  0.00     0.037 A 
BRANCH  58  72
ATOM     72  C   UNL A   1      39.818  34.225  36.533  1.00  0.00     0.057 A 
ATOM     73  C   UNL A   1      39.025  33.997  37.665  1.00  0.00     0.134 A 
ATOM     74  C   UNL A   1      40.520  35.434  36.466  1.00  0.00     0.134 A 
ATOM     75  F   UNL A   1      38.314  32.865  37.781  1.00  0.00    -0.206 F 
ATOM     76  C   UNL A   1      38.903  34.952  38.676  1.00  0.00     0.040 A 
ATOM     77  C   UNL A   1      40.428  36.386  37.485  1.00  0.00     0.040 A 
ATOM     78  F   UNL A   1      41.300  35.715  35.412  1.00  0.00    -0.206 F 
ATOM     79  C   UNL A   1      39.610  36.149  38.588  1.00  0.00     0.006 A 
ENDBRANCH  58  72
BRANCH  59  80
ATOM     80  C   UNL A   1      40.287  27.996  28.739  1.00  0.00     0.057 A 
ATOM     81  C   UNL A   1      39.618  26.767  28.755  1.00  0.00     0.134 A 
ATOM     82  C   UNL A   1      41.031  28.312  27.597  1.00  0.00     0.134 A 
ATOM     83  F   UNL A   1      38.903  26.402  29.830  1.00  0.00    -0.206 F 
ATOM     84  C   UNL A   1      39.699  25.875  27.684  1.00  0.00     0.040 A 
ATOM     85  C   UNL A   1      41.103  27.439  26.509  1.00  0.00     0.040 A 
ATOM     86  F   UNL A   1      41.687  29.479  27.517  1.00  0.00    -0.206 F 
ATOM     87  C   UNL A   1      40.440  26.214  26.553  1.00  0.00     0.006 A 
ENDBRANCH  59  80
BRANCH  71  88
ATOM     88  C   UNL A   1      43.633  28.344  34.829  1.00  0.00     0.057 A 
ATOM     89  C   UNL A   1      44.996  28.629  34.688  1.00  0.00     0.134 A 
ATOM     90  C   UNL A   1      43.275  27.247  35.622  1.00  0.00     0.134 A 
ATOM     91  F   UNL A   1      45.401  29.660  33.930  1.00  0.00    -0.206 F 
ATOM     92  C   UNL A   1      45.970  27.840  35.301  1.00  0.00     0.040 A 
ATOM     93  C   UNL A   1      44.237  26.464  36.258  1.00  0.00     0.040 A 
ATOM     94  F   UNL A   1      41.984  26.929  35.801  1.00  0.00    -0.206 F 
ATOM     95  C   UNL A   1      45.590  26.759  36.095  1.00  0.00     0.006 A 
ENDBRANCH  71  88
ENDBRANCH  45  46
ENDBRANCH  37  40
ENDBRANCH  35  36
ENDBRANCH  34  35
ENDBRANCH  33  34
ENDBRANCH   3  33
TORSDOF 15
ENDMDL
