MODEL 1
REMARK VINA RESULT:     -13.0      0.000      0.000
REMARK SMILES O=C(NCCCNC(=O)c1ccc(-c2c3nc(c(-c4c(F)cccc4F)c4ccc([nH]4)c(-c4c(F)cccc4F)c4nc(c(-c5c(F)cccc5F)c5ccc2[nH]5)C=C4)C=C3)cc1)C1=Cc2cc(S(F)(F)(F)(F)F)ccc2O[C@@H]1C(F)(F)F
REMARK SMILES IDX 5 1 4 2 3 3 1 4 2 5 64 7 65 8 79 9 66 10 78 11 67 12 77 13
REMARK SMILES IDX 68 14 76 15 75 16 80 17 81 18 82 19 83 20 69 21 70 22 71 23
REMARK SMILES IDX 72 24 73 25 74 26 6 27 7 28 8 29 9 31 10 32 11 33 63 34
REMARK SMILES IDX 12 35 62 36 13 37 14 38 15 39 56 40 16 41 61 42 55 43 57 44
REMARK SMILES IDX 17 45 60 46 54 47 53 48 18 50 44 51 27 52 43 53 28 54 31 55
REMARK SMILES IDX 42 56 58 57 29 58 30 59 41 61 59 62 32 63 19 64 20 65 25 66
REMARK SMILES IDX 21 67 22 68 24 69 26 70 23 71 45 72 46 73 51 74 47 75 48 76
REMARK SMILES IDX 50 77 52 78 49 79 33 80 34 81 39 82 35 83 36 84 38 85 40 86
REMARK SMILES IDX 37 87
REMARK H PARENT 3 6 7 30 57 49 31 60
REMARK Flexibility Score: inf
ROOT
ATOM      1  C   UNL A   1      34.106  29.608  26.909  1.00  0.00     0.042 C 
ENDROOT
BRANCH   1   2
ATOM      2  C   UNL A   1      33.978  28.142  26.530  1.00  0.00     0.118 C 
BRANCH   2   3
ATOM      3  N   UNL A   1      32.734  27.597  27.092  1.00  0.00    -0.352 N 
ATOM      4  O   UNL A   1      30.638  26.553  26.689  1.00  0.00    -0.270 OA
ATOM      5  C   UNL A   1      31.714  27.024  26.203  1.00  0.00     0.251 C 
ATOM      6  H   UNL A   1      32.584  27.616  28.065  1.00  0.00     0.163 HD
BRANCH   5   7
ATOM      7  C   UNL A   1      31.946  26.995  24.701  1.00  0.00     0.067 C 
ATOM      8  C   UNL A   1      32.755  26.047  24.155  1.00  0.00     0.025 C 
ATOM      9  C   UNL A   1      31.273  28.026  23.808  1.00  0.00     0.314 C 
ATOM     10  C   UNL A   1      33.427  25.016  25.048  1.00  0.00     0.019 A 
ATOM     11  O   UNL A   1      31.297  24.884  26.094  1.00  0.00    -0.475 OA
ATOM     12  C   UNL A   1      34.784  24.745  24.997  1.00  0.00     0.036 A 
ATOM     13  C   UNL A   1      32.648  24.463  25.971  1.00  0.00     0.128 A 
ATOM     14  C   UNL A   1      35.179  23.644  25.793  1.00  0.00     0.107 A 
ATOM     15  C   UNL A   1      33.137  23.488  26.805  1.00  0.00     0.048 A 
ATOM     16  C   UNL A   1      34.455  23.129  26.770  1.00  0.00     0.028 A 
BRANCH   9  17
ATOM     17  C   UNL A   1      30.382  27.319  22.800  1.00  0.00     0.429 C 
ATOM     18  F   UNL A   1      29.825  26.255  23.370  1.00  0.00    -0.167 F 
ATOM     19  F   UNL A   1      29.431  28.152  22.388  1.00  0.00    -0.167 F 
ATOM     20  F   UNL A   1      31.113  26.932  21.757  1.00  0.00    -0.167 F 
ENDBRANCH   9  17
BRANCH  14  21
ATOM     21  S   UNL A   1      36.787  22.889  25.448  1.00  0.00     0.310 S 
ATOM     22  F   UNL A   1      37.017  23.789  24.162  1.00  0.00    -0.094 F 
ATOM     23  F   UNL A   1      36.072  21.847  24.508  1.00  0.00    -0.094 F 
ATOM     24  F   UNL A   1      38.171  22.239  25.165  1.00  0.00    -0.094 F 
ATOM     25  F   UNL A   1      37.502  24.026  26.281  1.00  0.00    -0.094 F 
ATOM     26  F   UNL A   1      35.405  23.628  25.654  1.00  0.00    -0.094 F 
ENDBRANCH  14  21
ENDBRANCH   5   7
ENDBRANCH   2   3
ENDBRANCH   1   2
BRANCH   1  27
ATOM     27  C   UNL A   1      35.384  29.814  27.709  1.00  0.00     0.118 C 
BRANCH  27  28
ATOM     28  N   UNL A   1      35.074  30.544  28.946  1.00  0.00    -0.352 N 
ATOM     29  C   UNL A   1      36.107  30.712  29.978  1.00  0.00     0.251 C 
ATOM     30  H   UNL A   1      34.175  30.920  29.084  1.00  0.00     0.163 HD
ATOM     31  O   UNL A   1      35.839  31.343  31.049  1.00  0.00    -0.269 OA
BRANCH  29  32
ATOM     32  C   UNL A   1      37.496  30.130  29.766  1.00  0.00     0.039 A 
ATOM     33  C   UNL A   1      38.090  30.379  28.541  1.00  0.00     0.014 A 
ATOM     34  C   UNL A   1      38.159  29.525  30.744  1.00  0.00     0.014 A 
ATOM     35  C   UNL A   1      39.309  29.689  28.344  1.00  0.00     0.010 A 
ATOM     36  C   UNL A   1      39.405  28.991  30.517  1.00  0.00     0.010 A 
ATOM     37  C   UNL A   1      40.028  29.149  29.311  1.00  0.00    -0.014 A 
BRANCH  37  38
ATOM     38  C   UNL A   1      41.472  28.725  29.094  1.00  0.00     0.031 A 
ATOM     39  C   UNL A   1      42.490  29.678  29.149  1.00  0.00     0.074 A 
ATOM     40  C   UNL A   1      41.660  27.413  28.692  1.00  0.00     0.049 A 
ATOM     41  N   UNL A   1      43.784  29.503  28.873  1.00  0.00    -0.248 NA
ATOM     42  C   UNL A   1      42.287  31.081  29.541  1.00  0.00     0.031 C 
ATOM     43  C   UNL A   1      40.640  26.445  28.642  1.00  0.00     0.029 A 
ATOM     44  N   UNL A   1      42.831  26.815  28.279  1.00  0.00    -0.354 N 
ATOM     45  C   UNL A   1      44.453  30.643  29.060  1.00  0.00     0.074 A 
ATOM     46  C   UNL A   1      43.499  31.676  29.486  1.00  0.00     0.031 C 
ATOM     47  C   UNL A   1      41.184  25.282  28.193  1.00  0.00     0.029 A 
ATOM     48  C   UNL A   1      42.554  25.505  27.958  1.00  0.00     0.049 A 
ATOM     49  H   UNL A   1      43.713  27.250  28.224  1.00  0.00     0.167 HD
ATOM     50  C   UNL A   1      45.821  30.862  28.893  1.00  0.00     0.037 A 
ATOM     51  C   UNL A   1      43.432  24.544  27.483  1.00  0.00     0.037 A 
ATOM     52  C   UNL A   1      46.708  29.888  28.458  1.00  0.00     0.049 A 
ATOM     53  C   UNL A   1      44.791  24.778  27.260  1.00  0.00     0.074 A 
ATOM     54  C   UNL A   1      48.092  30.090  28.293  1.00  0.00     0.029 A 
ATOM     55  N   UNL A   1      46.427  28.585  28.113  1.00  0.00    -0.354 N 
ATOM     56  N   UNL A   1      45.467  25.907  27.484  1.00  0.00    -0.248 NA
ATOM     57  C   UNL A   1      45.723  23.778  26.726  1.00  0.00     0.031 C 
ATOM     58  C   UNL A   1      48.636  28.927  27.844  1.00  0.00     0.029 A 
ATOM     59  C   UNL A   1      47.600  27.980  27.723  1.00  0.00     0.049 A 
ATOM     60  H   UNL A   1      45.539  28.159  28.141  1.00  0.00     0.167 HD
ATOM     61  C   UNL A   1      46.753  25.743  27.168  1.00  0.00     0.074 A 
ATOM     62  C   UNL A   1      46.936  24.373  26.669  1.00  0.00     0.031 C 
ATOM     63  C   UNL A   1      47.782  26.680  27.280  1.00  0.00     0.037 A 
BRANCH  50  64
ATOM     64  C   UNL A   1      46.370  32.244  29.205  1.00  0.00     0.057 A 
ATOM     65  C   UNL A   1      46.797  32.440  30.508  1.00  0.00     0.134 A 
ATOM     66  C   UNL A   1      46.531  33.182  28.279  1.00  0.00     0.134 A 
ATOM     67  F   UNL A   1      46.890  31.455  31.396  1.00  0.00    -0.206 F 
ATOM     68  C   UNL A   1      47.125  33.783  30.809  1.00  0.00     0.040 A 
ATOM     69  C   UNL A   1      46.985  34.434  28.622  1.00  0.00     0.040 A 
ATOM     70  F   UNL A   1      46.250  32.910  27.008  1.00  0.00    -0.206 F 
ATOM     71  C   UNL A   1      47.368  34.715  29.905  1.00  0.00     0.006 A 
ENDBRANCH  50  64
BRANCH  51  72
ATOM     72  C   UNL A   1      42.885  23.157  27.186  1.00  0.00     0.057 A 
ATOM     73  C   UNL A   1      42.426  22.925  25.900  1.00  0.00     0.134 A 
ATOM     74  C   UNL A   1      42.745  22.246  28.142  1.00  0.00     0.134 A 
ATOM     75  F   UNL A   1      42.762  23.686  24.862  1.00  0.00    -0.206 F 
ATOM     76  C   UNL A   1      41.569  21.805  25.791  1.00  0.00     0.040 A 
ATOM     77  C   UNL A   1      42.006  21.109  27.922  1.00  0.00     0.040 A 
ATOM     78  F   UNL A   1      43.326  22.437  29.323  1.00  0.00    -0.206 F 
ATOM     79  C   UNL A   1      41.474  20.844  26.691  1.00  0.00     0.006 A 
ENDBRANCH  51  72
BRANCH  63  80
ATOM     80  C   UNL A   1      49.186  26.246  26.893  1.00  0.00     0.057 A 
ATOM     81  C   UNL A   1      49.919  25.638  27.900  1.00  0.00     0.134 A 
ATOM     82  C   UNL A   1      49.646  26.309  25.649  1.00  0.00     0.134 A 
ATOM     83  F   UNL A   1      49.403  25.328  29.085  1.00  0.00    -0.206 F 
ATOM     84  C   UNL A   1      51.265  25.378  27.550  1.00  0.00     0.040 A 
ATOM     85  C   UNL A   1      50.928  25.909  25.355  1.00  0.00     0.040 A 
ATOM     86  F   UNL A   1      48.858  26.762  24.677  1.00  0.00    -0.206 F 
ATOM     87  C   UNL A   1      51.728  25.355  26.314  1.00  0.00     0.006 A 
ENDBRANCH  63  80
ENDBRANCH  37  38
ENDBRANCH  29  32
ENDBRANCH  27  28
ENDBRANCH   1  27
TORSDOF 12
ENDMDL
MODEL 2
REMARK VINA RESULT:     -12.7      5.299      9.769
REMARK SMILES O=C(NCCCNC(=O)c1ccc(-c2c3nc(c(-c4c(F)cccc4F)c4ccc([nH]4)c(-c4c(F)cccc4F)c4nc(c(-c5c(F)cccc5F)c5ccc2[nH]5)C=C4)C=C3)cc1)C1=Cc2cc(S(F)(F)(F)(F)F)ccc2O[C@@H]1C(F)(F)F
REMARK SMILES IDX 5 1 4 2 3 3 1 4 2 5 64 7 65 8 79 9 66 10 78 11 67 12 77 13
REMARK SMILES IDX 68 14 76 15 75 16 80 17 81 18 82 19 83 20 69 21 70 22 71 23
REMARK SMILES IDX 72 24 73 25 74 26 6 27 7 28 8 29 9 31 10 32 11 33 63 34
REMARK SMILES IDX 12 35 62 36 13 37 14 38 15 39 56 40 16 41 61 42 55 43 57 44
REMARK SMILES IDX 17 45 60 46 54 47 53 48 18 50 44 51 27 52 43 53 28 54 31 55
REMARK SMILES IDX 42 56 58 57 29 58 30 59 41 61 59 62 32 63 19 64 20 65 25 66
REMARK SMILES IDX 21 67 22 68 24 69 26 70 23 71 45 72 46 73 51 74 47 75 48 76
REMARK SMILES IDX 50 77 52 78 49 79 33 80 34 81 39 82 35 83 36 84 38 85 40 86
REMARK SMILES IDX 37 87
REMARK H PARENT 3 6 7 30 57 49 31 60
REMARK Flexibility Score: inf
ROOT
ATOM      1  C   UNL A   1      37.617  23.159  26.115  1.00  0.00     0.042 C 
ENDROOT
BRANCH   1   2
ATOM      2  C   UNL A   1      36.380  23.909  25.648  1.00  0.00     0.118 C 
BRANCH   2   3
ATOM      3  N   UNL A   1      36.234  23.757  24.194  1.00  0.00    -0.352 N 
ATOM      4  O   UNL A   1      34.876  23.048  22.377  1.00  0.00    -0.270 OA
ATOM      5  C   UNL A   1      35.003  23.180  23.635  1.00  0.00     0.251 C 
ATOM      6  H   UNL A   1      36.961  24.042  23.593  1.00  0.00     0.163 HD
BRANCH   5   7
ATOM      7  C   UNL A   1      33.882  22.740  24.562  1.00  0.00     0.067 C 
ATOM      8  C   UNL A   1      33.066  23.669  25.132  1.00  0.00     0.025 C 
ATOM      9  C   UNL A   1      33.671  21.263  24.853  1.00  0.00     0.314 C 
ATOM     10  C   UNL A   1      33.277  25.146  24.841  1.00  0.00     0.019 A 
ATOM     11  O   UNL A   1      33.541  24.420  22.592  1.00  0.00    -0.475 OA
ATOM     12  C   UNL A   1      33.368  26.105  25.835  1.00  0.00     0.036 A 
ATOM     13  C   UNL A   1      33.484  25.454  23.565  1.00  0.00     0.128 A 
ATOM     14  C   UNL A   1      33.402  27.434  25.349  1.00  0.00     0.107 A 
ATOM     15  C   UNL A   1      33.644  26.763  23.179  1.00  0.00     0.048 A 
ATOM     16  C   UNL A   1      33.686  27.768  24.103  1.00  0.00     0.028 A 
BRANCH   9  17
ATOM     17  C   UNL A   1      32.277  20.852  24.406  1.00  0.00     0.429 C 
ATOM     18  F   UNL A   1      32.261  19.548  24.151  1.00  0.00    -0.167 F 
ATOM     19  F   UNL A   1      31.402  21.127  25.369  1.00  0.00    -0.167 F 
ATOM     20  F   UNL A   1      31.950  21.524  23.305  1.00  0.00    -0.167 F 
ENDBRANCH   9  17
BRANCH  14  21
ATOM     21  S   UNL A   1      33.030  28.767  26.516  1.00  0.00     0.310 S 
ATOM     22  F   UNL A   1      32.520  27.755  27.625  1.00  0.00    -0.094 F 
ATOM     23  F   UNL A   1      31.553  28.804  25.968  1.00  0.00    -0.094 F 
ATOM     24  F   UNL A   1      32.720  29.919  27.512  1.00  0.00    -0.094 F 
ATOM     25  F   UNL A   1      34.471  28.619  27.147  1.00  0.00    -0.094 F 
ATOM     26  F   UNL A   1      33.325  27.521  25.589  1.00  0.00    -0.094 F 
ENDBRANCH  14  21
ENDBRANCH   5   7
ENDBRANCH   2   3
ENDBRANCH   1   2
BRANCH   1  27
ATOM     27  C   UNL A   1      38.658  24.153  26.605  1.00  0.00     0.118 C 
BRANCH  27  28
ATOM     28  N   UNL A   1      39.968  23.814  26.031  1.00  0.00    -0.352 N 
ATOM     29  C   UNL A   1      41.157  24.595  26.400  1.00  0.00     0.251 C 
ATOM     30  H   UNL A   1      40.048  23.063  25.399  1.00  0.00     0.163 HD
ATOM     31  O   UNL A   1      42.289  24.302  25.904  1.00  0.00    -0.269 OA
BRANCH  29  32
ATOM     32  C   UNL A   1      41.032  25.755  27.376  1.00  0.00     0.039 A 
ATOM     33  C   UNL A   1      40.262  25.533  28.505  1.00  0.00     0.014 A 
ATOM     34  C   UNL A   1      41.723  26.877  27.223  1.00  0.00     0.014 A 
ATOM     35  C   UNL A   1      40.057  26.688  29.296  1.00  0.00     0.010 A 
ATOM     36  C   UNL A   1      41.575  27.916  28.110  1.00  0.00     0.010 A 
ATOM     37  C   UNL A   1      40.785  27.788  29.217  1.00  0.00    -0.014 A 
BRANCH  37  38
ATOM     38  C   UNL A   1      40.745  28.852  30.302  1.00  0.00     0.031 A 
ATOM     39  C   UNL A   1      41.596  28.752  31.404  1.00  0.00     0.074 A 
ATOM     40  C   UNL A   1      39.730  29.788  30.189  1.00  0.00     0.049 A 
ATOM     41  N   UNL A   1      41.614  29.527  32.490  1.00  0.00    -0.248 NA
ATOM     42  C   UNL A   1      42.651  27.737  31.541  1.00  0.00     0.031 C 
ATOM     43  C   UNL A   1      38.874  29.900  29.077  1.00  0.00     0.029 A 
ATOM     44  N   UNL A   1      39.369  30.756  31.100  1.00  0.00    -0.354 N 
ATOM     45  C   UNL A   1      42.584  29.134  33.319  1.00  0.00     0.074 A 
ATOM     46  C   UNL A   1      43.261  27.974  32.723  1.00  0.00     0.031 C 
ATOM     47  C   UNL A   1      38.000  30.913  29.319  1.00  0.00     0.029 A 
ATOM     48  C   UNL A   1      38.297  31.452  30.585  1.00  0.00     0.049 A 
ATOM     49  H   UNL A   1      39.801  30.922  31.969  1.00  0.00     0.167 HD
ATOM     50  C   UNL A   1      42.931  29.699  34.546  1.00  0.00     0.037 A 
ATOM     51  C   UNL A   1      37.604  32.498  31.172  1.00  0.00     0.037 A 
ATOM     52  C   UNL A   1      42.264  30.774  35.115  1.00  0.00     0.049 A 
ATOM     53  C   UNL A   1      37.914  33.026  32.427  1.00  0.00     0.074 A 
ATOM     54  C   UNL A   1      42.607  31.361  36.348  1.00  0.00     0.029 A 
ATOM     55  N   UNL A   1      41.178  31.454  34.611  1.00  0.00    -0.354 N 
ATOM     56  N   UNL A   1      38.908  32.659  33.238  1.00  0.00    -0.248 NA
ATOM     57  C   UNL A   1      37.166  34.112  33.073  1.00  0.00     0.031 C 
ATOM     58  C   UNL A   1      41.733  32.374  36.590  1.00  0.00     0.029 A 
ATOM     59  C   UNL A   1      40.830  32.437  35.511  1.00  0.00     0.049 A 
ATOM     60  H   UNL A   1      40.727  31.269  33.755  1.00  0.00     0.167 HD
ATOM     61  C   UNL A   1      38.900  33.407  34.343  1.00  0.00     0.074 A 
ATOM     62  C   UNL A   1      37.775  34.348  34.257  1.00  0.00     0.031 C 
ATOM     63  C   UNL A   1      39.788  33.345  35.419  1.00  0.00     0.037 A 
BRANCH  50  64
ATOM     64  C   UNL A   1      44.107  29.103  35.304  1.00  0.00     0.057 A 
ATOM     65  C   UNL A   1      45.345  29.658  35.023  1.00  0.00     0.134 A 
ATOM     66  C   UNL A   1      43.963  28.181  36.249  1.00  0.00     0.134 A 
ATOM     67  F   UNL A   1      45.498  30.748  34.277  1.00  0.00    -0.206 F 
ATOM     68  C   UNL A   1      46.431  28.959  35.600  1.00  0.00     0.040 A 
ATOM     69  C   UNL A   1      45.063  27.638  36.869  1.00  0.00     0.040 A 
ATOM     70  F   UNL A   1      42.745  27.778  36.598  1.00  0.00    -0.206 F 
ATOM     71  C   UNL A   1      46.323  28.097  36.595  1.00  0.00     0.006 A 
ENDBRANCH  50  64
BRANCH  51  72
ATOM     72  C   UNL A   1      36.439  33.104  30.407  1.00  0.00     0.057 A 
ATOM     73  C   UNL A   1      35.177  32.605  30.685  1.00  0.00     0.134 A 
ATOM     74  C   UNL A   1      36.630  33.989  29.435  1.00  0.00     0.134 A 
ATOM     75  F   UNL A   1      34.895  31.923  31.792  1.00  0.00    -0.206 F 
ATOM     76  C   UNL A   1      34.216  32.886  29.686  1.00  0.00     0.040 A 
ATOM     77  C   UNL A   1      35.608  34.318  28.578  1.00  0.00     0.040 A 
ATOM     78  F   UNL A   1      37.822  34.559  29.290  1.00  0.00    -0.206 F 
ATOM     79  C   UNL A   1      34.349  33.816  28.759  1.00  0.00     0.006 A 
ENDBRANCH  51  72
BRANCH  63  80
ATOM     80  C   UNL A   1      39.600  34.335  36.557  1.00  0.00     0.057 A 
ATOM     81  C   UNL A   1      40.114  35.602  36.333  1.00  0.00     0.134 A 
ATOM     82  C   UNL A   1      38.876  34.067  37.637  1.00  0.00     0.134 A 
ATOM     83  F   UNL A   1      40.620  35.983  35.163  1.00  0.00    -0.206 F 
ATOM     84  C   UNL A   1      40.051  36.453  37.461  1.00  0.00     0.040 A 
ATOM     85  C   UNL A   1      38.745  34.997  38.640  1.00  0.00     0.040 A 
ATOM     86  F   UNL A   1      38.272  32.887  37.749  1.00  0.00    -0.206 F 
ATOM     87  C   UNL A   1      39.278  36.249  38.512  1.00  0.00     0.006 A 
ENDBRANCH  63  80
ENDBRANCH  37  38
ENDBRANCH  29  32
ENDBRANCH  27  28
ENDBRANCH   1  27
TORSDOF 12
ENDMDL
MODEL 3
REMARK VINA RESULT:     -12.7      2.168      4.149
REMARK SMILES O=C(NCCCNC(=O)c1ccc(-c2c3nc(c(-c4c(F)cccc4F)c4ccc([nH]4)c(-c4c(F)cccc4F)c4nc(c(-c5c(F)cccc5F)c5ccc2[nH]5)C=C4)C=C3)cc1)C1=Cc2cc(S(F)(F)(F)(F)F)ccc2O[C@@H]1C(F)(F)F
REMARK SMILES IDX 5 1 4 2 3 3 1 4 2 5 64 7 65 8 79 9 66 10 78 11 67 12 77 13
REMARK SMILES IDX 68 14 76 15 75 16 80 17 81 18 82 19 83 20 69 21 70 22 71 23
REMARK SMILES IDX 72 24 73 25 74 26 6 27 7 28 8 29 9 31 10 32 11 33 63 34
REMARK SMILES IDX 12 35 62 36 13 37 14 38 15 39 56 40 16 41 61 42 55 43 57 44
REMARK SMILES IDX 17 45 60 46 54 47 53 48 18 50 44 51 27 52 43 53 28 54 31 55
REMARK SMILES IDX 42 56 58 57 29 58 30 59 41 61 59 62 32 63 19 64 20 65 25 66
REMARK SMILES IDX 21 67 22 68 24 69 26 70 23 71 45 72 46 73 51 74 47 75 48 76
REMARK SMILES IDX 50 77 52 78 49 79 33 80 34 81 39 82 35 83 36 84 38 85 40 86
REMARK SMILES IDX 37 87
REMARK H PARENT 3 6 7 30 57 49 31 60
REMARK Flexibility Score: inf
ROOT
ATOM      1  C   UNL A   1      33.198  28.581  26.356  1.00  0.00     0.042 C 
ENDROOT
BRANCH   1   2
ATOM      2  C   UNL A   1      32.973  27.079  26.383  1.00  0.00     0.118 C 
BRANCH   2   3
ATOM      3  N   UNL A   1      33.755  26.446  25.311  1.00  0.00    -0.352 N 
ATOM      4  O   UNL A   1      34.003  24.609  23.826  1.00  0.00    -0.270 OA
ATOM      5  C   UNL A   1      33.327  25.156  24.753  1.00  0.00     0.251 C 
ATOM      6  H   UNL A   1      34.566  26.887  24.967  1.00  0.00     0.163 HD
BRANCH   5   7
ATOM      7  C   UNL A   1      32.076  24.476  25.284  1.00  0.00     0.067 C 
ATOM      8  C   UNL A   1      30.847  24.938  24.927  1.00  0.00     0.025 C 
ATOM      9  C   UNL A   1      32.198  23.279  26.213  1.00  0.00     0.314 C 
ATOM     10  C   UNL A   1      30.725  26.135  23.998  1.00  0.00     0.019 A 
ATOM     11  O   UNL A   1      32.439  25.047  22.762  1.00  0.00    -0.475 OA
ATOM     12  C   UNL A   1      29.931  27.233  24.282  1.00  0.00     0.036 A 
ATOM     13  C   UNL A   1      31.523  26.118  22.936  1.00  0.00     0.128 A 
ATOM     14  C   UNL A   1      29.832  28.160  23.218  1.00  0.00     0.107 A 
ATOM     15  C   UNL A   1      31.468  27.126  22.004  1.00  0.00     0.048 A 
ATOM     16  C   UNL A   1      30.663  28.214  22.192  1.00  0.00     0.028 A 
BRANCH   9  17
ATOM     17  C   UNL A   1      31.522  22.074  25.579  1.00  0.00     0.429 C 
ATOM     18  F   UNL A   1      31.442  22.252  24.264  1.00  0.00    -0.167 F 
ATOM     19  F   UNL A   1      32.233  20.980  25.837  1.00  0.00    -0.167 F 
ATOM     20  F   UNL A   1      30.299  21.935  26.084  1.00  0.00    -0.167 F 
ENDBRANCH   9  17
BRANCH  14  21
ATOM     21  S   UNL A   1      28.473  29.355  23.265  1.00  0.00     0.310 S 
ATOM     22  F   UNL A   1      28.656  29.736  21.736  1.00  0.00    -0.094 F 
ATOM     23  F   UNL A   1      29.512  30.490  23.602  1.00  0.00    -0.094 F 
ATOM     24  F   UNL A   1      27.300  30.374  23.316  1.00  0.00    -0.094 F 
ATOM     25  F   UNL A   1      27.467  28.233  22.790  1.00  0.00    -0.094 F 
ATOM     26  F   UNL A   1      29.668  28.333  23.099  1.00  0.00    -0.094 F 
ENDBRANCH  14  21
ENDBRANCH   5   7
ENDBRANCH   2   3
ENDBRANCH   1   2
BRANCH   1  27
ATOM     27  C   UNL A   1      34.362  28.937  27.268  1.00  0.00     0.118 C 
BRANCH  27  28
ATOM     28  N   UNL A   1      34.048  30.169  28.005  1.00  0.00    -0.352 N 
ATOM     29  C   UNL A   1      35.085  30.826  28.814  1.00  0.00     0.251 C 
ATOM     30  H   UNL A   1      33.144  30.555  27.956  1.00  0.00     0.163 HD
ATOM     31  O   UNL A   1      34.813  31.892  29.451  1.00  0.00    -0.269 OA
BRANCH  29  32
ATOM     32  C   UNL A   1      36.481  30.229  28.890  1.00  0.00     0.039 A 
ATOM     33  C   UNL A   1      37.291  30.408  27.781  1.00  0.00     0.014 A 
ATOM     34  C   UNL A   1      36.949  29.679  30.004  1.00  0.00     0.014 A 
ATOM     35  C   UNL A   1      38.517  29.704  27.848  1.00  0.00     0.010 A 
ATOM     36  C   UNL A   1      38.208  29.130  30.037  1.00  0.00     0.010 A 
ATOM     37  C   UNL A   1      39.042  29.218  28.958  1.00  0.00    -0.014 A 
BRANCH  37  38
ATOM     38  C   UNL A   1      40.496  28.779  29.030  1.00  0.00     0.031 A 
ATOM     39  C   UNL A   1      41.492  29.721  29.289  1.00  0.00     0.074 A 
ATOM     40  C   UNL A   1      40.746  27.466  28.670  1.00  0.00     0.049 A 
ATOM     41  N   UNL A   1      42.813  29.532  29.275  1.00  0.00    -0.248 NA
ATOM     42  C   UNL A   1      41.229  31.126  29.638  1.00  0.00     0.031 C 
ATOM     43  C   UNL A   1      39.746  26.508  28.415  1.00  0.00     0.029 A 
ATOM     44  N   UNL A   1      41.969  26.856  28.496  1.00  0.00    -0.354 N 
ATOM     45  C   UNL A   1      43.443  30.665  29.595  1.00  0.00     0.074 A 
ATOM     46  C   UNL A   1      42.434  31.708  29.826  1.00  0.00     0.031 C 
ATOM     47  C   UNL A   1      40.357  25.340  28.080  1.00  0.00     0.029 A 
ATOM     48  C   UNL A   1      41.748  25.548  28.122  1.00  0.00     0.049 A 
ATOM     49  H   UNL A   1      42.849  27.281  28.619  1.00  0.00     0.167 HD
ATOM     50  C   UNL A   1      44.819  30.869  29.704  1.00  0.00     0.037 A 
ATOM     51  C   UNL A   1      42.693  24.579  27.828  1.00  0.00     0.037 A 
ATOM     52  C   UNL A   1      45.765  29.887  29.450  1.00  0.00     0.049 A 
ATOM     53  C   UNL A   1      44.071  24.799  27.881  1.00  0.00     0.074 A 
ATOM     54  C   UNL A   1      47.156  30.074  29.564  1.00  0.00     0.029 A 
ATOM     55  N   UNL A   1      45.545  28.587  29.053  1.00  0.00    -0.354 N 
ATOM     56  N   UNL A   1      44.701  25.920  28.237  1.00  0.00    -0.248 NA
ATOM     57  C   UNL A   1      45.081  23.789  27.539  1.00  0.00     0.031 C 
ATOM     58  C   UNL A   1      47.766  28.906  29.229  1.00  0.00     0.029 A 
ATOM     59  C   UNL A   1      46.766  27.970  28.901  1.00  0.00     0.049 A 
ATOM     60  H   UNL A   1      44.665  28.171  28.903  1.00  0.00     0.167 HD
ATOM     61  C   UNL A   1      46.023  25.742  28.183  1.00  0.00     0.074 A 
ATOM     62  C   UNL A   1      46.287  24.371  27.726  1.00  0.00     0.031 C 
ATOM     63  C   UNL A   1      47.019  26.668  28.499  1.00  0.00     0.037 A 
BRANCH  50  64
ATOM     64  C   UNL A   1      45.310  32.245  30.122  1.00  0.00     0.057 A 
ATOM     65  C   UNL A   1      45.511  33.150  29.093  1.00  0.00     0.134 A 
ATOM     66  C   UNL A   1      45.447  32.607  31.393  1.00  0.00     0.134 A 
ATOM     67  F   UNL A   1      45.144  32.912  27.837  1.00  0.00    -0.206 F 
ATOM     68  C   UNL A   1      46.142  34.349  29.497  1.00  0.00     0.040 A 
ATOM     69  C   UNL A   1      45.943  33.847  31.718  1.00  0.00     0.040 A 
ATOM     70  F   UNL A   1      45.103  31.761  32.360  1.00  0.00    -0.206 F 
ATOM     71  C   UNL A   1      46.220  34.770  30.747  1.00  0.00     0.006 A 
ENDBRANCH  50  64
BRANCH  51  72
ATOM     72  C   UNL A   1      42.202  23.198  27.425  1.00  0.00     0.057 A 
ATOM     73  C   UNL A   1      42.040  22.960  26.070  1.00  0.00     0.134 A 
ATOM     74  C   UNL A   1      41.834  22.299  28.330  1.00  0.00     0.134 A 
ATOM     75  F   UNL A   1      42.614  23.705  25.129  1.00  0.00    -0.206 F 
ATOM     76  C   UNL A   1      41.209  21.853  25.777  1.00  0.00     0.040 A 
ATOM     77  C   UNL A   1      41.143  21.172  27.957  1.00  0.00     0.040 A 
ATOM     78  F   UNL A   1      42.138  22.492  29.611  1.00  0.00    -0.206 F 
ATOM     79  C   UNL A   1      40.896  20.903  26.639  1.00  0.00     0.006 A 
ENDBRANCH  51  72
BRANCH  63  80
ATOM     80  C   UNL A   1      48.467  26.220  28.398  1.00  0.00     0.057 A 
ATOM     81  C   UNL A   1      49.084  26.476  27.184  1.00  0.00     0.134 A 
ATOM     82  C   UNL A   1      49.151  25.743  29.431  1.00  0.00     0.134 A 
ATOM     83  F   UNL A   1      48.511  27.181  26.213  1.00  0.00    -0.206 F 
ATOM     84  C   UNL A   1      50.381  25.920  27.072  1.00  0.00     0.040 A 
ATOM     85  C   UNL A   1      50.458  25.345  29.281  1.00  0.00     0.040 A 
ATOM     86  F   UNL A   1      48.566  25.650  30.622  1.00  0.00    -0.206 F 
ATOM     87  C   UNL A   1      51.113  25.513  28.093  1.00  0.00     0.006 A 
ENDBRANCH  63  80
ENDBRANCH  37  38
ENDBRANCH  29  32
ENDBRANCH  27  28
ENDBRANCH   1  27
TORSDOF 12
ENDMDL
