MODEL 1
REMARK VINA RESULT:     -12.4      0.000      0.000
REMARK SMILES COc1ccc(C[N@@H+]2CCO[C@H](Cc3ccc(F)cc3)C2)cc1C(=O)NCCCNC(=O)c1ccc(-c2c3nc(c(-c4c(F)cccc4F)c4ccc([nH]4)c(-c4c(F)cccc4F)c4nc(c(-c5c(F)cccc5F)c5ccc2[nH]5)C=C4)C=C3)cc1
REMARK SMILES IDX 27 1 26 2 24 3 25 4 23 6 3 7 4 8 5 9 22 10 6 11 2 12 1 13
REMARK SMILES IDX 7 14 8 15 9 16 21 17 10 19 12 20 11 21 13 22 14 23 15 24
REMARK SMILES IDX 20 25 16 26 19 27 17 28 18 29 28 30 29 31 30 32 31 33 32 35
REMARK SMILES IDX 33 36 34 37 86 38 35 39 85 40 36 41 37 42 38 43 79 44 39 45
REMARK SMILES IDX 84 46 78 47 80 48 40 49 83 50 77 51 76 52 41 54 67 55 50 56
REMARK SMILES IDX 66 57 51 58 54 59 65 60 81 61 52 62 53 63 64 65 82 66 55 67
REMARK SMILES IDX 42 68 43 69 48 70 44 71 45 72 47 73 49 74 46 75 68 76 69 77
REMARK SMILES IDX 74 78 70 79 71 80 73 81 75 82 72 83 56 84 57 85 62 86 58 87
REMARK SMILES IDX 59 88 61 89 63 90 60 91
REMARK H PARENT 26 5 8 18 30 34 80 53 54 64
REMARK Flexibility Score: inf
ROOT
ATOM      1  C   UNL A   1      37.273  21.098  24.686  1.00  0.00     0.118 C 
ENDROOT
BRANCH   1   2
ATOM      2  N   UNL A   1      36.481  21.400  25.860  1.00  0.00    -0.352 N 
ATOM      3  C   UNL A   1      35.120  21.449  26.052  1.00  0.00     0.255 C 
ATOM      4  O   UNL A   1      34.744  21.689  27.204  1.00  0.00    -0.269 OA
ATOM      5  H   UNL A   1      37.010  21.608  26.664  1.00  0.00     0.163 HD
BRANCH   3   6
ATOM      6  C   UNL A   1      34.069  21.317  24.987  1.00  0.00     0.082 A 
ATOM      7  C   UNL A   1      33.347  20.179  24.609  1.00  0.00     0.131 A 
ATOM      8  C   UNL A   1      32.474  20.235  23.510  1.00  0.00     0.048 A 
ATOM      9  C   UNL A   1      32.313  21.405  22.766  1.00  0.00     0.013 A 
ATOM     10  C   UNL A   1      33.832  22.515  24.255  1.00  0.00     0.027 A 
ATOM     11  C   UNL A   1      33.033  22.556  23.092  1.00  0.00     0.007 A 
BRANCH   7  12
ATOM     12  O   UNL A   1      33.497  18.927  25.133  1.00  0.00    -0.496 OA
ATOM     13  C   UNL A   1      34.215  18.040  24.281  1.00  0.00     0.278 C 
ENDBRANCH   7  12
BRANCH  11  14
ATOM     14  C   UNL A   1      32.990  23.795  22.211  1.00  0.00     0.299 C 
BRANCH  14  15
ATOM     15  N   UNL A   1      31.745  24.563  22.106  1.00  0.00    -0.327 N 
ATOM     16  C   UNL A   1      31.767  25.866  21.447  1.00  0.00     0.291 C 
ATOM     17  C   UNL A   1      30.761  24.537  23.196  1.00  0.00     0.295 C 
ATOM     18  H   UNL A   1      31.377  23.902  21.421  1.00  0.00     0.348 HD
ATOM     19  C   UNL A   1      31.854  27.033  22.433  1.00  0.00     0.222 C 
ATOM     20  C   UNL A   1      30.748  25.767  24.158  1.00  0.00     0.177 C 
ATOM     21  O   UNL A   1      30.825  27.001  23.426  1.00  0.00    -0.366 OA
BRANCH  20  22
ATOM     22  C   UNL A   1      31.814  25.602  25.245  1.00  0.00     0.073 C 
BRANCH  22  23
ATOM     23  C   UNL A   1      32.320  26.795  26.011  1.00  0.00    -0.045 A 
ATOM     24  C   UNL A   1      31.422  27.551  26.784  1.00  0.00     0.007 A 
ATOM     25  C   UNL A   1      33.634  27.249  25.862  1.00  0.00     0.007 A 
ATOM     26  C   UNL A   1      31.825  28.724  27.413  1.00  0.00     0.039 A 
ATOM     27  C   UNL A   1      34.037  28.434  26.483  1.00  0.00     0.039 A 
ATOM     28  C   UNL A   1      33.132  29.155  27.256  1.00  0.00     0.123 A 
ATOM     29  F   UNL A   1      33.505  30.321  27.798  1.00  0.00    -0.207 F 
ENDBRANCH  22  23
ENDBRANCH  20  22
ENDBRANCH  14  15
ENDBRANCH  11  14
ENDBRANCH   3   6
ENDBRANCH   1   2
BRANCH   1  30
ATOM     30  C   UNL A   1      38.150  19.863  24.799  1.00  0.00     0.042 C 
BRANCH  30  31
ATOM     31  C   UNL A   1      38.995  19.757  26.059  1.00  0.00     0.118 C 
BRANCH  31  32
ATOM     32  N   UNL A   1      40.272  19.075  25.870  1.00  0.00    -0.352 N 
ATOM     33  C   UNL A   1      41.579  19.475  25.998  1.00  0.00     0.251 C 
ATOM     34  H   UNL A   1      40.175  18.134  25.594  1.00  0.00     0.163 HD
ATOM     35  O   UNL A   1      42.466  18.686  25.655  1.00  0.00    -0.269 OA
BRANCH  33  36
ATOM     36  C   UNL A   1      41.969  20.816  26.500  1.00  0.00     0.039 A 
ATOM     37  C   UNL A   1      42.281  21.819  25.573  1.00  0.00     0.014 A 
ATOM     38  C   UNL A   1      42.087  21.100  27.858  1.00  0.00     0.014 A 
ATOM     39  C   UNL A   1      42.629  23.104  26.009  1.00  0.00     0.010 A 
ATOM     40  C   UNL A   1      42.294  22.408  28.290  1.00  0.00     0.010 A 
ATOM     41  C   UNL A   1      42.593  23.424  27.375  1.00  0.00    -0.014 A 
BRANCH  41  42
ATOM     42  C   UNL A   1      42.904  24.795  27.866  1.00  0.00     0.031 A 
ATOM     43  C   UNL A   1      44.336  25.216  28.090  1.00  0.00     0.074 A 
ATOM     44  C   UNL A   1      41.901  25.644  28.170  1.00  0.00     0.049 A 
ATOM     45  N   UNL A   1      44.804  26.342  28.570  1.00  0.00    -0.248 NA
ATOM     46  C   UNL A   1      45.380  24.229  27.768  1.00  0.00     0.031 C 
ATOM     47  C   UNL A   1      40.472  25.341  28.063  1.00  0.00     0.029 A 
ATOM     48  N   UNL A   1      41.930  26.935  28.634  1.00  0.00    -0.354 N 
ATOM     49  C   UNL A   1      46.185  26.185  28.628  1.00  0.00     0.074 A 
ATOM     50  C   UNL A   1      46.474  24.834  28.204  1.00  0.00     0.031 C 
ATOM     51  C   UNL A   1      39.765  26.427  28.410  1.00  0.00     0.029 A 
ATOM     52  C   UNL A   1      40.683  27.489  28.806  1.00  0.00     0.049 A 
ATOM     53  H   UNL A   1      42.765  27.421  28.826  1.00  0.00     0.167 HD
ATOM     54  C   UNL A   1      47.131  27.092  28.967  1.00  0.00     0.037 A 
ATOM     55  C   UNL A   1      40.322  28.713  29.237  1.00  0.00     0.037 A 
ATOM     56  C   UNL A   1      46.844  28.449  29.350  1.00  0.00     0.049 A 
ATOM     57  C   UNL A   1      41.391  29.706  29.600  1.00  0.00     0.074 A 
ATOM     58  C   UNL A   1      47.733  29.468  29.645  1.00  0.00     0.029 A 
ATOM     59  N   UNL A   1      45.569  28.976  29.490  1.00  0.00    -0.354 N 
ATOM     60  N   UNL A   1      42.695  29.567  29.573  1.00  0.00    -0.248 NA
ATOM     61  C   UNL A   1      40.938  31.030  30.050  1.00  0.00     0.031 C 
ATOM     62  C   UNL A   1      46.994  30.597  30.013  1.00  0.00     0.029 A 
ATOM     63  C   UNL A   1      45.646  30.299  29.892  1.00  0.00     0.049 A 
ATOM     64  H   UNL A   1      44.732  28.482  29.328  1.00  0.00     0.167 HD
ATOM     65  C   UNL A   1      43.217  30.790  29.972  1.00  0.00     0.074 A 
ATOM     66  C   UNL A   1      42.089  31.665  30.218  1.00  0.00     0.031 C 
ATOM     67  C   UNL A   1      44.513  31.157  30.125  1.00  0.00     0.037 A 
BRANCH  54  68
ATOM     68  C   UNL A   1      48.567  26.648  28.927  1.00  0.00     0.057 A 
ATOM     69  C   UNL A   1      49.183  26.030  30.024  1.00  0.00     0.134 A 
ATOM     70  C   UNL A   1      49.336  26.816  27.768  1.00  0.00     0.134 A 
ATOM     71  F   UNL A   1      48.508  25.848  31.169  1.00  0.00    -0.206 F 
ATOM     72  C   UNL A   1      50.518  25.624  29.982  1.00  0.00     0.040 A 
ATOM     73  C   UNL A   1      50.663  26.385  27.703  1.00  0.00     0.040 A 
ATOM     74  F   UNL A   1      48.811  27.393  26.678  1.00  0.00    -0.206 F 
ATOM     75  C   UNL A   1      51.260  25.794  28.815  1.00  0.00     0.006 A 
ENDBRANCH  54  68
BRANCH  55  76
ATOM     76  C   UNL A   1      38.884  29.080  29.323  1.00  0.00     0.057 A 
ATOM     77  C   UNL A   1      38.194  29.567  28.207  1.00  0.00     0.134 A 
ATOM     78  C   UNL A   1      38.168  28.967  30.522  1.00  0.00     0.134 A 
ATOM     79  F   UNL A   1      38.828  29.717  27.034  1.00  0.00    -0.206 F 
ATOM     80  C   UNL A   1      36.853  29.951  28.282  1.00  0.00     0.040 A 
ATOM     81  C   UNL A   1      36.820  29.319  30.604  1.00  0.00     0.040 A 
ATOM     82  F   UNL A   1      38.767  28.501  31.627  1.00  0.00    -0.206 F 
ATOM     83  C   UNL A   1      36.161  29.823  29.484  1.00  0.00     0.006 A 
ENDBRANCH  55  76
BRANCH  67  84
ATOM     84  C   UNL A   1      44.782  32.573  30.546  1.00  0.00     0.057 A 
ATOM     85  C   UNL A   1      44.895  33.614  29.616  1.00  0.00     0.134 A 
ATOM     86  C   UNL A   1      44.892  32.902  31.903  1.00  0.00     0.134 A 
ATOM     87  F   UNL A   1      44.811  33.363  28.301  1.00  0.00    -0.206 F 
ATOM     88  C   UNL A   1      45.136  34.928  30.019  1.00  0.00     0.040 A 
ATOM     89  C   UNL A   1      45.101  34.218  32.319  1.00  0.00     0.040 A 
ATOM     90  F   UNL A   1      44.783  31.956  32.846  1.00  0.00    -0.206 F 
ATOM     91  C   UNL A   1      45.232  35.234  31.375  1.00  0.00     0.006 A 
ENDBRANCH  67  84
ENDBRANCH  41  42
ENDBRANCH  33  36
ENDBRANCH  31  32
ENDBRANCH  30  31
ENDBRANCH   1  30
TORSDOF 15
ENDMDL
MODEL 2
REMARK VINA RESULT:     -12.4      2.830      8.123
REMARK SMILES COc1ccc(C[N@@H+]2CCO[C@H](Cc3ccc(F)cc3)C2)cc1C(=O)NCCCNC(=O)c1ccc(-c2c3nc(c(-c4c(F)cccc4F)c4ccc([nH]4)c(-c4c(F)cccc4F)c4nc(c(-c5c(F)cccc5F)c5ccc2[nH]5)C=C4)C=C3)cc1
REMARK SMILES IDX 27 1 26 2 24 3 25 4 23 6 3 7 4 8 5 9 22 10 6 11 2 12 1 13
REMARK SMILES IDX 7 14 8 15 9 16 21 17 10 19 12 20 11 21 13 22 14 23 15 24
REMARK SMILES IDX 20 25 16 26 19 27 17 28 18 29 28 30 29 31 30 32 31 33 32 35
REMARK SMILES IDX 33 36 34 37 86 38 35 39 85 40 36 41 37 42 38 43 79 44 39 45
REMARK SMILES IDX 84 46 78 47 80 48 40 49 83 50 77 51 76 52 41 54 67 55 50 56
REMARK SMILES IDX 66 57 51 58 54 59 65 60 81 61 52 62 53 63 64 65 82 66 55 67
REMARK SMILES IDX 42 68 43 69 48 70 44 71 45 72 47 73 49 74 46 75 68 76 69 77
REMARK SMILES IDX 74 78 70 79 71 80 73 81 75 82 72 83 56 84 57 85 62 86 58 87
REMARK SMILES IDX 59 88 61 89 63 90 60 91
REMARK H PARENT 26 5 8 18 30 34 80 53 54 64
REMARK Flexibility Score: inf
ROOT
ATOM      1  C   UNL A   1      32.813  29.913  25.894  1.00  0.00     0.118 C 
ENDROOT
BRANCH   1   2
ATOM      2  N   UNL A   1      33.233  29.651  24.533  1.00  0.00    -0.352 N 
ATOM      3  C   UNL A   1      32.631  28.951  23.514  1.00  0.00     0.255 C 
ATOM      4  O   UNL A   1      33.227  28.951  22.432  1.00  0.00    -0.269 OA
ATOM      5  H   UNL A   1      34.104  30.044  24.295  1.00  0.00     0.163 HD
BRANCH   3   6
ATOM      6  C   UNL A   1      31.376  28.134  23.621  1.00  0.00     0.082 A 
ATOM      7  C   UNL A   1      30.077  28.471  23.219  1.00  0.00     0.131 A 
ATOM      8  C   UNL A   1      29.009  27.604  23.502  1.00  0.00     0.048 A 
ATOM      9  C   UNL A   1      29.204  26.406  24.192  1.00  0.00     0.013 A 
ATOM     10  C   UNL A   1      31.556  26.874  24.260  1.00  0.00     0.027 A 
ATOM     11  C   UNL A   1      30.477  26.044  24.635  1.00  0.00     0.007 A 
BRANCH   7  12
ATOM     12  O   UNL A   1      29.695  29.661  22.670  1.00  0.00    -0.496 OA
ATOM     13  C   UNL A   1      28.325  29.690  22.283  1.00  0.00     0.278 C 
ENDBRANCH   7  12
BRANCH  11  14
ATOM     14  C   UNL A   1      30.694  24.823  25.515  1.00  0.00     0.299 C 
BRANCH  14  15
ATOM     15  N   UNL A   1      30.595  23.482  24.929  1.00  0.00    -0.327 N 
ATOM     16  C   UNL A   1      30.928  22.322  25.749  1.00  0.00     0.291 C 
ATOM     17  C   UNL A   1      30.954  23.258  23.523  1.00  0.00     0.295 C 
ATOM     18  H   UNL A   1      29.577  23.545  24.920  1.00  0.00     0.348 HD
ATOM     19  C   UNL A   1      32.350  21.810  25.512  1.00  0.00     0.222 C 
ATOM     20  C   UNL A   1      32.358  22.633  23.248  1.00  0.00     0.177 C 
ATOM     21  O   UNL A   1      32.620  21.533  24.135  1.00  0.00    -0.366 OA
BRANCH  20  22
ATOM     22  C   UNL A   1      33.434  23.724  23.249  1.00  0.00     0.073 C 
BRANCH  22  23
ATOM     23  C   UNL A   1      34.741  23.511  23.963  1.00  0.00    -0.045 A 
ATOM     24  C   UNL A   1      34.973  24.158  25.189  1.00  0.00     0.007 A 
ATOM     25  C   UNL A   1      35.785  22.793  23.369  1.00  0.00     0.007 A 
ATOM     26  C   UNL A   1      36.207  24.078  25.823  1.00  0.00     0.039 A 
ATOM     27  C   UNL A   1      37.029  22.723  23.999  1.00  0.00     0.039 A 
ATOM     28  C   UNL A   1      37.227  23.360  25.220  1.00  0.00     0.123 A 
ATOM     29  F   UNL A   1      38.438  23.341  25.789  1.00  0.00    -0.207 F 
ENDBRANCH  22  23
ENDBRANCH  20  22
ENDBRANCH  14  15
ENDBRANCH  11  14
ENDBRANCH   3   6
ENDBRANCH   1   2
BRANCH   1  30
ATOM     30  C   UNL A   1      33.231  28.866  26.912  1.00  0.00     0.042 C 
BRANCH  30  31
ATOM     31  C   UNL A   1      34.659  28.965  27.426  1.00  0.00     0.118 C 
BRANCH  31  32
ATOM     32  N   UNL A   1      34.845  29.933  28.502  1.00  0.00    -0.352 N 
ATOM     33  C   UNL A   1      35.935  30.319  29.242  1.00  0.00     0.251 C 
ATOM     34  H   UNL A   1      34.017  30.407  28.747  1.00  0.00     0.163 HD
ATOM     35  O   UNL A   1      35.754  31.101  30.181  1.00  0.00    -0.269 OA
BRANCH  33  36
ATOM     36  C   UNL A   1      37.307  29.816  28.984  1.00  0.00     0.039 A 
ATOM     37  C   UNL A   1      37.806  29.857  27.675  1.00  0.00     0.014 A 
ATOM     38  C   UNL A   1      38.098  29.258  29.984  1.00  0.00     0.014 A 
ATOM     39  C   UNL A   1      39.105  29.414  27.398  1.00  0.00     0.010 A 
ATOM     40  C   UNL A   1      39.434  28.949  29.738  1.00  0.00     0.010 A 
ATOM     41  C   UNL A   1      39.951  28.999  28.438  1.00  0.00    -0.014 A 
BRANCH  41  42
ATOM     42  C   UNL A   1      41.355  28.575  28.184  1.00  0.00     0.031 A 
ATOM     43  C   UNL A   1      41.669  27.132  27.869  1.00  0.00     0.074 A 
ATOM     44  C   UNL A   1      42.359  29.469  28.293  1.00  0.00     0.049 A 
ATOM     45  N   UNL A   1      42.831  26.559  27.678  1.00  0.00    -0.248 NA
ATOM     46  C   UNL A   1      40.530  26.202  27.795  1.00  0.00     0.031 C 
ATOM     47  C   UNL A   1      42.201  30.879  28.656  1.00  0.00     0.029 A 
ATOM     48  N   UNL A   1      43.712  29.324  28.113  1.00  0.00    -0.354 N 
ATOM     49  C   UNL A   1      42.562  25.208  27.488  1.00  0.00     0.074 A 
ATOM     50  C   UNL A   1      41.138  25.034  27.659  1.00  0.00     0.031 C 
ATOM     51  C   UNL A   1      43.402  31.477  28.632  1.00  0.00     0.029 A 
ATOM     52  C   UNL A   1      44.421  30.489  28.295  1.00  0.00     0.049 A 
ATOM     53  H   UNL A   1      44.136  28.469  27.876  1.00  0.00     0.167 HD
ATOM     54  C   UNL A   1      43.414  24.206  27.166  1.00  0.00     0.037 A 
ATOM     55  C   UNL A   1      45.742  30.731  28.204  1.00  0.00     0.037 A 
ATOM     56  C   UNL A   1      44.827  24.388  26.957  1.00  0.00     0.049 A 
ATOM     57  C   UNL A   1      46.669  29.605  27.837  1.00  0.00     0.074 A 
ATOM     58  C   UNL A   1      45.767  23.454  26.560  1.00  0.00     0.029 A 
ATOM     59  N   UNL A   1      45.501  25.588  27.130  1.00  0.00    -0.354 N 
ATOM     60  N   UNL A   1      46.387  28.349  27.583  1.00  0.00    -0.248 NA
ATOM     61  C   UNL A   1      48.099  29.930  27.738  1.00  0.00     0.031 C 
ATOM     62  C   UNL A   1      47.019  24.076  26.541  1.00  0.00     0.029 A 
ATOM     63  C   UNL A   1      46.850  25.412  26.871  1.00  0.00     0.049 A 
ATOM     64  H   UNL A   1      45.082  26.438  27.397  1.00  0.00     0.167 HD
ATOM     65  C   UNL A   1      47.596  27.744  27.267  1.00  0.00     0.074 A 
ATOM     66  C   UNL A   1      48.611  28.773  27.343  1.00  0.00     0.031 C 
ATOM     67  C   UNL A   1      47.846  26.450  26.945  1.00  0.00     0.037 A 
BRANCH  54  68
ATOM     68  C   UNL A   1      42.839  22.827  27.007  1.00  0.00     0.057 A 
ATOM     69  C   UNL A   1      42.653  22.242  25.746  1.00  0.00     0.134 A 
ATOM     70  C   UNL A   1      42.493  22.061  28.128  1.00  0.00     0.134 A 
ATOM     71  F   UNL A   1      42.952  22.922  24.630  1.00  0.00    -0.206 F 
ATOM     72  C   UNL A   1      42.114  20.962  25.606  1.00  0.00     0.040 A 
ATOM     73  C   UNL A   1      41.984  20.767  28.001  1.00  0.00     0.040 A 
ATOM     74  F   UNL A   1      42.651  22.553  29.365  1.00  0.00    -0.206 F 
ATOM     75  C   UNL A   1      41.785  20.217  26.736  1.00  0.00     0.006 A 
ENDBRANCH  54  68
BRANCH  55  76
ATOM     76  C   UNL A   1      46.269  32.101  28.438  1.00  0.00     0.057 A 
ATOM     77  C   UNL A   1      46.657  32.518  29.716  1.00  0.00     0.134 A 
ATOM     78  C   UNL A   1      46.387  33.029  27.396  1.00  0.00     0.134 A 
ATOM     79  F   UNL A   1      46.552  31.682  30.761  1.00  0.00    -0.206 F 
ATOM     80  C   UNL A   1      47.119  33.814  29.958  1.00  0.00     0.040 A 
ATOM     81  C   UNL A   1      46.874  34.319  27.617  1.00  0.00     0.040 A 
ATOM     82  F   UNL A   1      46.039  32.692  26.146  1.00  0.00    -0.206 F 
ATOM     83  C   UNL A   1      47.233  34.718  28.904  1.00  0.00     0.006 A 
ENDBRANCH  55  76
BRANCH  67  84
ATOM     84  C   UNL A   1      49.264  26.084  26.619  1.00  0.00     0.057 A 
ATOM     85  C   UNL A   1      49.808  26.289  25.344  1.00  0.00     0.134 A 
ATOM     86  C   UNL A   1      50.107  25.555  27.605  1.00  0.00     0.134 A 
ATOM     87  F   UNL A   1      49.050  26.781  24.353  1.00  0.00    -0.206 F 
ATOM     88  C   UNL A   1      51.132  25.953  25.054  1.00  0.00     0.040 A 
ATOM     89  C   UNL A   1      51.441  25.246  27.335  1.00  0.00     0.040 A 
ATOM     90  F   UNL A   1      49.653  25.345  28.849  1.00  0.00    -0.206 F 
ATOM     91  C   UNL A   1      51.954  25.437  26.054  1.00  0.00     0.006 A 
ENDBRANCH  67  84
ENDBRANCH  41  42
ENDBRANCH  33  36
ENDBRANCH  31  32
ENDBRANCH  30  31
ENDBRANCH   1  30
TORSDOF 15
ENDMDL
MODEL 3
REMARK VINA RESULT:     -12.3      2.554      7.814
REMARK SMILES COc1ccc(C[N@@H+]2CCO[C@H](Cc3ccc(F)cc3)C2)cc1C(=O)NCCCNC(=O)c1ccc(-c2c3nc(c(-c4c(F)cccc4F)c4ccc([nH]4)c(-c4c(F)cccc4F)c4nc(c(-c5c(F)cccc5F)c5ccc2[nH]5)C=C4)C=C3)cc1
REMARK SMILES IDX 27 1 26 2 24 3 25 4 23 6 3 7 4 8 5 9 22 10 6 11 2 12 1 13
REMARK SMILES IDX 7 14 8 15 9 16 21 17 10 19 12 20 11 21 13 22 14 23 15 24
REMARK SMILES IDX 20 25 16 26 19 27 17 28 18 29 28 30 29 31 30 32 31 33 32 35
REMARK SMILES IDX 33 36 34 37 86 38 35 39 85 40 36 41 37 42 38 43 79 44 39 45
REMARK SMILES IDX 84 46 78 47 80 48 40 49 83 50 77 51 76 52 41 54 67 55 50 56
REMARK SMILES IDX 66 57 51 58 54 59 65 60 81 61 52 62 53 63 64 65 82 66 55 67
REMARK SMILES IDX 42 68 43 69 48 70 44 71 45 72 47 73 49 74 46 75 68 76 69 77
REMARK SMILES IDX 74 78 70 79 71 80 73 81 75 82 72 83 56 84 57 85 62 86 58 87
REMARK SMILES IDX 59 88 61 89 63 90 60 91
REMARK H PARENT 26 5 8 18 30 34 80 53 54 64
REMARK Flexibility Score: inf
ROOT
ATOM      1  C   UNL A   1      33.751  29.342  25.038  1.00  0.00     0.118 C 
ENDROOT
BRANCH   1   2
ATOM      2  N   UNL A   1      34.037  28.933  23.678  1.00  0.00    -0.352 N 
ATOM      3  C   UNL A   1      33.258  28.307  22.734  1.00  0.00     0.255 C 
ATOM      4  O   UNL A   1      33.781  28.137  21.627  1.00  0.00    -0.269 OA
ATOM      5  H   UNL A   1      34.951  29.140  23.377  1.00  0.00     0.163 HD
BRANCH   3   6
ATOM      6  C   UNL A   1      31.881  27.750  22.949  1.00  0.00     0.082 A 
ATOM      7  C   UNL A   1      30.652  28.265  22.516  1.00  0.00     0.131 A 
ATOM      8  C   UNL A   1      29.454  27.647  22.910  1.00  0.00     0.048 A 
ATOM      9  C   UNL A   1      29.452  26.525  23.742  1.00  0.00     0.013 A 
ATOM     10  C   UNL A   1      31.851  26.564  23.737  1.00  0.00     0.027 A 
ATOM     11  C   UNL A   1      30.652  25.994  24.218  1.00  0.00     0.007 A 
BRANCH   7  12
ATOM     12  O   UNL A   1      30.473  29.430  21.827  1.00  0.00    -0.496 OA
ATOM     13  C   UNL A   1      29.329  30.165  22.249  1.00  0.00     0.278 C 
ENDBRANCH   7  12
BRANCH  11  14
ATOM     14  C   UNL A   1      30.672  24.869  25.241  1.00  0.00     0.299 C 
BRANCH  14  15
ATOM     15  N   UNL A   1      30.744  23.478  24.784  1.00  0.00    -0.327 N 
ATOM     16  C   UNL A   1      30.913  22.414  25.768  1.00  0.00     0.291 C 
ATOM     17  C   UNL A   1      31.418  23.144  23.522  1.00  0.00     0.295 C 
ATOM     18  H   UNL A   1      29.753  23.490  24.542  1.00  0.00     0.348 HD
ATOM     19  C   UNL A   1      32.366  21.952  25.907  1.00  0.00     0.222 C 
ATOM     20  C   UNL A   1      32.864  22.565  23.631  1.00  0.00     0.177 C 
ATOM     21  O   UNL A   1      32.948  21.564  24.659  1.00  0.00    -0.366 OA
BRANCH  20  22
ATOM     22  C   UNL A   1      33.883  23.702  23.764  1.00  0.00     0.073 C 
BRANCH  22  23
ATOM     23  C   UNL A   1      35.246  23.447  24.346  1.00  0.00    -0.045 A 
ATOM     24  C   UNL A   1      35.999  22.351  23.890  1.00  0.00     0.007 A 
ATOM     25  C   UNL A   1      35.724  24.192  25.429  1.00  0.00     0.007 A 
ATOM     26  C   UNL A   1      37.211  22.014  24.481  1.00  0.00     0.039 A 
ATOM     27  C   UNL A   1      36.936  23.847  26.032  1.00  0.00     0.039 A 
ATOM     28  C   UNL A   1      37.669  22.767  25.549  1.00  0.00     0.123 A 
ATOM     29  F   UNL A   1      38.798  22.403  26.170  1.00  0.00    -0.207 F 
ENDBRANCH  22  23
ENDBRANCH  20  22
ENDBRANCH  14  15
ENDBRANCH  11  14
ENDBRANCH   3   6
ENDBRANCH   1   2
BRANCH   1  30
ATOM     30  C   UNL A   1      34.024  28.290  26.099  1.00  0.00     0.042 C 
BRANCH  30  31
ATOM     31  C   UNL A   1      33.485  28.587  27.490  1.00  0.00     0.118 C 
BRANCH  31  32
ATOM     32  N   UNL A   1      33.601  29.984  27.894  1.00  0.00    -0.352 N 
ATOM     33  C   UNL A   1      34.634  30.733  28.402  1.00  0.00     0.251 C 
ATOM     34  H   UNL A   1      32.767  30.495  27.778  1.00  0.00     0.163 HD
ATOM     35  O   UNL A   1      34.393  31.891  28.759  1.00  0.00    -0.269 OA
BRANCH  33  36
ATOM     36  C   UNL A   1      36.011  30.205  28.567  1.00  0.00     0.039 A 
ATOM     37  C   UNL A   1      36.886  30.246  27.474  1.00  0.00     0.014 A 
ATOM     38  C   UNL A   1      36.450  29.624  29.754  1.00  0.00     0.014 A 
ATOM     39  C   UNL A   1      38.200  29.779  27.600  1.00  0.00     0.010 A 
ATOM     40  C   UNL A   1      37.792  29.291  29.922  1.00  0.00     0.010 A 
ATOM     41  C   UNL A   1      38.681  29.339  28.843  1.00  0.00    -0.014 A 
BRANCH  41  42
ATOM     42  C   UNL A   1      40.089  28.889  29.023  1.00  0.00     0.031 A 
ATOM     43  C   UNL A   1      41.115  29.820  29.622  1.00  0.00     0.074 A 
ATOM     44  C   UNL A   1      40.464  27.666  28.595  1.00  0.00     0.049 A 
ATOM     45  N   UNL A   1      42.399  29.633  29.804  1.00  0.00    -0.248 NA
ATOM     46  C   UNL A   1      40.645  31.151  30.040  1.00  0.00     0.031 C 
ATOM     47  C   UNL A   1      39.589  26.693  27.938  1.00  0.00     0.029 A 
ATOM     48  N   UNL A   1      41.681  27.034  28.644  1.00  0.00    -0.354 N 
ATOM     49  C   UNL A   1      42.886  30.825  30.329  1.00  0.00     0.074 A 
ATOM     50  C   UNL A   1      41.778  31.752  30.369  1.00  0.00     0.031 C 
ATOM     51  C   UNL A   1      40.286  25.574  27.685  1.00  0.00     0.029 A 
ATOM     52  C   UNL A   1      41.666  25.763  28.118  1.00  0.00     0.049 A 
ATOM     53  H   UNL A   1      42.490  27.450  29.021  1.00  0.00     0.167 HD
ATOM     54  C   UNL A   1      44.132  31.115  30.771  1.00  0.00     0.037 A 
ATOM     55  C   UNL A   1      42.653  24.855  27.997  1.00  0.00     0.037 A 
ATOM     56  C   UNL A   1      45.225  30.178  30.766  1.00  0.00     0.049 A 
ATOM     57  C   UNL A   1      44.027  25.196  28.503  1.00  0.00     0.074 A 
ATOM     58  C   UNL A   1      46.508  30.348  31.256  1.00  0.00     0.029 A 
ATOM     59  N   UNL A   1      45.161  28.895  30.245  1.00  0.00    -0.354 N 
ATOM     60  N   UNL A   1      44.451  26.300  29.070  1.00  0.00    -0.248 NA
ATOM     61  C   UNL A   1      45.061  24.162  28.358  1.00  0.00     0.031 C 
ATOM     62  C   UNL A   1      47.235  29.185  30.985  1.00  0.00     0.029 A 
ATOM     63  C   UNL A   1      46.389  28.270  30.379  1.00  0.00     0.049 A 
ATOM     64  H   UNL A   1      44.361  28.488  29.841  1.00  0.00     0.167 HD
ATOM     65  C   UNL A   1      45.789  26.083  29.374  1.00  0.00     0.074 A 
ATOM     66  C   UNL A   1      46.101  24.736  28.946  1.00  0.00     0.031 C 
ATOM     67  C   UNL A   1      46.680  26.924  29.953  1.00  0.00     0.037 A 
BRANCH  54  68
ATOM     68  C   UNL A   1      44.377  32.497  31.309  1.00  0.00     0.057 A 
ATOM     69  C   UNL A   1      44.186  32.811  32.662  1.00  0.00     0.134 A 
ATOM     70  C   UNL A   1      44.835  33.522  30.470  1.00  0.00     0.134 A 
ATOM     71  F   UNL A   1      43.738  31.882  33.519  1.00  0.00    -0.206 F 
ATOM     72  C   UNL A   1      44.411  34.098  33.154  1.00  0.00     0.040 A 
ATOM     73  C   UNL A   1      45.094  34.804  30.957  1.00  0.00     0.040 A 
ATOM     74  F   UNL A   1      45.046  33.292  29.166  1.00  0.00    -0.206 F 
ATOM     75  C   UNL A   1      44.874  35.098  32.301  1.00  0.00     0.006 A 
ENDBRANCH  54  68
BRANCH  55  76
ATOM     76  C   UNL A   1      42.375  23.525  27.395  1.00  0.00     0.057 A 
ATOM     77  C   UNL A   1      41.990  22.438  28.189  1.00  0.00     0.134 A 
ATOM     78  C   UNL A   1      42.497  23.302  26.018  1.00  0.00     0.134 A 
ATOM     79  F   UNL A   1      41.873  22.582  29.518  1.00  0.00    -0.206 F 
ATOM     80  C   UNL A   1      41.762  21.173  27.643  1.00  0.00     0.040 A 
ATOM     81  C   UNL A   1      42.243  22.051  25.454  1.00  0.00     0.040 A 
ATOM     82  F   UNL A   1      42.855  24.302  25.199  1.00  0.00    -0.206 F 
ATOM     83  C   UNL A   1      41.883  20.979  26.269  1.00  0.00     0.006 A 
ENDBRANCH  55  76
BRANCH  67  84
ATOM     84  C   UNL A   1      48.067  26.401  30.188  1.00  0.00     0.057 A 
ATOM     85  C   UNL A   1      49.090  26.559  29.243  1.00  0.00     0.134 A 
ATOM     86  C   UNL A   1      48.392  25.763  31.392  1.00  0.00     0.134 A 
ATOM     87  F   UNL A   1      48.841  27.151  28.065  1.00  0.00    -0.206 F 
ATOM     88  C   UNL A   1      50.378  26.076  29.476  1.00  0.00     0.040 A 
ATOM     89  C   UNL A   1      49.685  25.304  31.649  1.00  0.00     0.040 A 
ATOM     90  F   UNL A   1      47.464  25.588  32.344  1.00  0.00    -0.206 F 
ATOM     91  C   UNL A   1      50.680  25.453  30.686  1.00  0.00     0.006 A 
ENDBRANCH  67  84
ENDBRANCH  41  42
ENDBRANCH  33  36
ENDBRANCH  31  32
ENDBRANCH  30  31
ENDBRANCH   1  30
TORSDOF 15
ENDMDL
