MODEL 1
REMARK VINA RESULT:     -12.3      0.000      0.000
REMARK SMILES CC(C)c1cc(C2CC[NH+](Cc3c[nH]nc3C(=O)NCCCNC(=O)c3ccc(-c4c5nc(c(-c6c(F)cccc6F)c6ccc([nH]6)c(-c6c(F)cccc6F)c6nc(c(-c7c(F)cccc7F)c7ccc4[nH]7)C=C6)C=C5)cc3)CC2)n[nH]1
REMARK SMILES IDX 20 1 19 2 17 3 18 4 16 6 12 7 13 8 14 9 15 10 11 12 10 13
REMARK SMILES IDX 7 14 8 15 81 16 9 17 80 18 6 20 4 21 5 22 83 23 82 24 2 26
REMARK SMILES IDX 1 27 3 28 21 29 22 30 23 31 24 32 25 34 26 35 27 36 79 37
REMARK SMILES IDX 28 38 78 39 29 40 30 41 31 42 72 43 32 44 77 45 71 46 73 47
REMARK SMILES IDX 33 48 76 49 70 50 69 51 34 53 60 54 43 55 59 56 44 57 47 58
REMARK SMILES IDX 58 59 74 60 45 61 46 62 57 64 75 65 48 66 35 67 36 68 41 69
REMARK SMILES IDX 37 70 38 71 40 72 42 73 39 74 61 75 62 76 67 77 63 78 64 79
REMARK SMILES IDX 66 80 68 81 65 82 49 83 50 84 55 85 51 86 52 87 54 88 56 89
REMARK SMILES IDX 53 90
REMARK H PARENT 19 5 14 11 10 19 83 25 23 33 73 52 47 63
REMARK Flexibility Score: inf
ROOT
ATOM      1  C   UNL A   1      36.373  19.564  25.000  1.00  0.00     0.118 C 
ENDROOT
BRANCH   1   2
ATOM      2  N   UNL A   1      36.103  18.158  24.994  1.00  0.00    -0.351 N 
ATOM      3  C   UNL A   1      35.020  17.419  24.613  1.00  0.00     0.272 C 
ATOM      4  O   UNL A   1      35.166  16.207  24.826  1.00  0.00    -0.267 OA
ATOM      5  H   UNL A   1      36.851  17.613  25.332  1.00  0.00     0.163 HD
BRANCH   3   6
ATOM      6  C   UNL A   1      33.807  17.944  23.924  1.00  0.00     0.158 A 
ATOM      7  C   UNL A   1      32.784  18.965  24.153  1.00  0.00     0.057 A 
ATOM      8  C   UNL A   1      31.954  18.843  23.045  1.00  0.00     0.115 A 
ATOM      9  N   UNL A   1      32.437  17.844  22.276  1.00  0.00    -0.284 N 
ATOM     10  N   UNL A   1      33.530  17.289  22.771  1.00  0.00    -0.170 NA
ATOM     11  H   UNL A   1      32.020  17.558  21.432  1.00  0.00     0.189 HD
BRANCH   7  12
ATOM     12  C   UNL A   1      32.530  20.021  25.202  1.00  0.00     0.303 C 
BRANCH  12  13
ATOM     13  N   UNL A   1      33.588  21.017  25.411  1.00  0.00    -0.331 N 
ATOM     14  C   UNL A   1      34.595  23.719  25.988  1.00  0.00     0.051 C 
ATOM     15  C   UNL A   1      34.771  23.072  24.610  1.00  0.00     0.071 C 
ATOM     16  C   UNL A   1      34.750  22.610  27.028  1.00  0.00     0.071 C 
ATOM     17  C   UNL A   1      33.699  22.012  24.353  1.00  0.00     0.263 C 
ATOM     18  C   UNL A   1      33.838  21.401  26.792  1.00  0.00     0.263 C 
ATOM     19  H   UNL A   1      34.465  20.516  25.263  1.00  0.00     0.348 HD
BRANCH  14  20
ATOM     20  C   UNL A   1      33.305  24.494  26.076  1.00  0.00     0.066 A 
ATOM     21  C   UNL A   1      31.857  26.171  26.233  1.00  0.00     0.038 A 
ATOM     22  C   UNL A   1      33.050  25.816  25.660  1.00  0.00     0.049 A 
ATOM     23  N   UNL A   1      31.371  25.018  26.779  1.00  0.00    -0.282 N 
ATOM     24  N   UNL A   1      32.248  23.995  26.734  1.00  0.00    -0.180 NA
ATOM     25  H   UNL A   1      30.470  24.941  27.167  1.00  0.00     0.190 HD
BRANCH  21  26
ATOM     26  C   UNL A   1      31.253  27.531  26.335  1.00  0.00     0.031 C 
ATOM     27  C   UNL A   1      31.601  28.243  27.632  1.00  0.00     0.014 C 
ATOM     28  C   UNL A   1      31.598  28.365  25.101  1.00  0.00     0.014 C 
ENDBRANCH  21  26
ENDBRANCH  14  20
ENDBRANCH  12  13
ENDBRANCH   7  12
ENDBRANCH   3   6
ENDBRANCH   1   2
BRANCH   1  29
ATOM     29  C   UNL A   1      37.783  19.797  24.472  1.00  0.00     0.042 C 
BRANCH  29  30
ATOM     30  C   UNL A   1      38.729  20.273  25.559  1.00  0.00     0.118 C 
BRANCH  30  31
ATOM     31  N   UNL A   1      39.827  19.333  25.742  1.00  0.00    -0.352 N 
ATOM     32  C   UNL A   1      41.140  19.551  26.071  1.00  0.00     0.251 C 
ATOM     33  H   UNL A   1      39.586  18.388  25.607  1.00  0.00     0.163 HD
ATOM     34  O   UNL A   1      41.957  18.654  25.904  1.00  0.00    -0.269 OA
BRANCH  32  35
ATOM     35  C   UNL A   1      41.573  20.859  26.614  1.00  0.00     0.039 A 
ATOM     36  C   UNL A   1      41.976  21.859  25.724  1.00  0.00     0.014 A 
ATOM     37  C   UNL A   1      41.619  21.094  27.988  1.00  0.00     0.014 A 
ATOM     38  C   UNL A   1      42.376  23.102  26.216  1.00  0.00     0.010 A 
ATOM     39  C   UNL A   1      41.887  22.368  28.467  1.00  0.00     0.010 A 
ATOM     40  C   UNL A   1      42.302  23.377  27.591  1.00  0.00    -0.014 A 
BRANCH  40  41
ATOM     41  C   UNL A   1      42.701  24.696  28.143  1.00  0.00     0.031 A 
ATOM     42  C   UNL A   1      41.661  25.761  28.364  1.00  0.00     0.074 A 
ATOM     43  C   UNL A   1      44.001  24.956  28.378  1.00  0.00     0.049 A 
ATOM     44  N   UNL A   1      41.814  26.999  28.762  1.00  0.00    -0.248 NA
ATOM     45  C   UNL A   1      40.266  25.403  28.057  1.00  0.00     0.031 C 
ATOM     46  C   UNL A   1      45.108  24.027  28.146  1.00  0.00     0.029 A 
ATOM     47  N   UNL A   1      44.611  26.087  28.860  1.00  0.00    -0.354 N 
ATOM     48  C   UNL A   1      40.545  27.565  28.726  1.00  0.00     0.074 A 
ATOM     49  C   UNL A   1      39.648  26.565  28.196  1.00  0.00     0.031 C 
ATOM     50  C   UNL A   1      46.257  24.612  28.518  1.00  0.00     0.029 A 
ATOM     51  C   UNL A   1      45.975  25.969  28.972  1.00  0.00     0.049 A 
ATOM     52  H   UNL A   1      44.118  26.903  29.103  1.00  0.00     0.167 HD
ATOM     53  C   UNL A   1      40.155  28.797  29.131  1.00  0.00     0.037 A 
ATOM     54  C   UNL A   1      46.894  26.860  29.389  1.00  0.00     0.037 A 
ATOM     55  C   UNL A   1      41.048  29.777  29.687  1.00  0.00     0.049 A 
ATOM     56  C   UNL A   1      46.439  28.220  29.840  1.00  0.00     0.074 A 
ATOM     57  C   UNL A   1      40.750  31.030  30.192  1.00  0.00     0.029 A 
ATOM     58  N   UNL A   1      42.421  29.612  29.807  1.00  0.00    -0.354 N 
ATOM     59  N   UNL A   1      45.226  28.717  29.873  1.00  0.00    -0.248 NA
ATOM     60  C   UNL A   1      47.481  29.139  30.318  1.00  0.00     0.031 C 
ATOM     61  C   UNL A   1      41.949  31.644  30.567  1.00  0.00     0.029 A 
ATOM     62  C   UNL A   1      42.987  30.751  30.353  1.00  0.00     0.049 A 
ATOM     63  H   UNL A   1      42.918  28.805  29.542  1.00  0.00     0.167 HD
ATOM     64  C   UNL A   1      45.353  29.996  30.400  1.00  0.00     0.074 A 
ATOM     65  C   UNL A   1      46.760  30.190  30.685  1.00  0.00     0.031 C 
ATOM     66  C   UNL A   1      44.392  30.924  30.630  1.00  0.00     0.037 A 
BRANCH  53  67
ATOM     67  C   UNL A   1      38.699  29.142  28.980  1.00  0.00     0.057 A 
ATOM     68  C   UNL A   1      37.796  29.047  30.049  1.00  0.00     0.134 A 
ATOM     69  C   UNL A   1      38.191  29.574  27.747  1.00  0.00     0.134 A 
ATOM     70  F   UNL A   1      38.210  28.628  31.254  1.00  0.00    -0.206 F 
ATOM     71  C   UNL A   1      36.437  29.325  29.888  1.00  0.00     0.040 A 
ATOM     72  C   UNL A   1      36.840  29.888  27.583  1.00  0.00     0.040 A 
ATOM     73  F   UNL A   1      38.996  29.695  26.682  1.00  0.00    -0.206 F 
ATOM     74  C   UNL A   1      35.957  29.753  28.653  1.00  0.00     0.006 A 
ENDBRANCH  53  67
BRANCH  54  75
ATOM     75  C   UNL A   1      48.327  26.475  29.430  1.00  0.00     0.057 A 
ATOM     76  C   UNL A   1      49.170  26.713  28.339  1.00  0.00     0.134 A 
ATOM     77  C   UNL A   1      48.893  25.880  30.564  1.00  0.00     0.134 A 
ATOM     78  F   UNL A   1      48.685  27.267  27.219  1.00  0.00    -0.206 F 
ATOM     79  C   UNL A   1      50.521  26.362  28.368  1.00  0.00     0.040 A 
ATOM     80  C   UNL A   1      50.247  25.548  30.617  1.00  0.00     0.040 A 
ATOM     81  F   UNL A   1      48.141  25.636  31.648  1.00  0.00    -0.206 F 
ATOM     82  C   UNL A   1      51.065  25.784  29.513  1.00  0.00     0.006 A 
ENDBRANCH  54  75
BRANCH  66  83
ATOM     83  C   UNL A   1      44.825  32.221  31.251  1.00  0.00     0.057 A 
ATOM     84  C   UNL A   1      44.900  32.391  32.639  1.00  0.00     0.134 A 
ATOM     85  C   UNL A   1      45.212  33.300  30.446  1.00  0.00     0.134 A 
ATOM     86  F   UNL A   1      44.533  31.401  33.467  1.00  0.00    -0.206 F 
ATOM     87  C   UNL A   1      45.322  33.596  33.204  1.00  0.00     0.040 A 
ATOM     88  C   UNL A   1      45.664  34.498  30.999  1.00  0.00     0.040 A 
ATOM     89  F   UNL A   1      45.174  33.200  29.108  1.00  0.00    -0.206 F 
ATOM     90  C   UNL A   1      45.713  34.651  32.382  1.00  0.00     0.006 A 
ENDBRANCH  66  83
ENDBRANCH  40  41
ENDBRANCH  32  35
ENDBRANCH  30  31
ENDBRANCH  29  30
ENDBRANCH   1  29
TORSDOF 14
ENDMDL
MODEL 2
REMARK VINA RESULT:     -12.2      1.317      2.223
REMARK SMILES CC(C)c1cc(C2CC[NH+](Cc3c[nH]nc3C(=O)NCCCNC(=O)c3ccc(-c4c5nc(c(-c6c(F)cccc6F)c6ccc([nH]6)c(-c6c(F)cccc6F)c6nc(c(-c7c(F)cccc7F)c7ccc4[nH]7)C=C6)C=C5)cc3)CC2)n[nH]1
REMARK SMILES IDX 20 1 19 2 17 3 18 4 16 6 12 7 13 8 14 9 15 10 11 12 10 13
REMARK SMILES IDX 7 14 8 15 81 16 9 17 80 18 6 20 4 21 5 22 83 23 82 24 2 26
REMARK SMILES IDX 1 27 3 28 21 29 22 30 23 31 24 32 25 34 26 35 27 36 79 37
REMARK SMILES IDX 28 38 78 39 29 40 30 41 31 42 72 43 32 44 77 45 71 46 73 47
REMARK SMILES IDX 33 48 76 49 70 50 69 51 34 53 60 54 43 55 59 56 44 57 47 58
REMARK SMILES IDX 58 59 74 60 45 61 46 62 57 64 75 65 48 66 35 67 36 68 41 69
REMARK SMILES IDX 37 70 38 71 40 72 42 73 39 74 61 75 62 76 67 77 63 78 64 79
REMARK SMILES IDX 66 80 68 81 65 82 49 83 50 84 55 85 51 86 52 87 54 88 56 89
REMARK SMILES IDX 53 90
REMARK H PARENT 19 5 14 11 10 19 83 25 23 33 73 52 47 63
REMARK Flexibility Score: inf
ROOT
ATOM      1  C   UNL A   1      36.265  20.626  24.755  1.00  0.00     0.118 C 
ENDROOT
BRANCH   1   2
ATOM      2  N   UNL A   1      35.054  20.031  25.235  1.00  0.00    -0.351 N 
ATOM      3  C   UNL A   1      33.735  20.262  24.969  1.00  0.00     0.272 C 
ATOM      4  O   UNL A   1      32.977  19.557  25.651  1.00  0.00    -0.267 OA
ATOM      5  H   UNL A   1      35.203  19.309  25.888  1.00  0.00     0.163 HD
BRANCH   3   6
ATOM      6  C   UNL A   1      33.205  21.178  23.919  1.00  0.00     0.158 A 
ATOM      7  C   UNL A   1      33.377  22.571  23.507  1.00  0.00     0.057 A 
ATOM      8  C   UNL A   1      32.509  22.697  22.428  1.00  0.00     0.115 A 
ATOM      9  N   UNL A   1      31.891  21.509  22.257  1.00  0.00    -0.284 N 
ATOM     10  N   UNL A   1      32.277  20.591  23.126  1.00  0.00    -0.170 NA
ATOM     11  H   UNL A   1      31.221  21.342  21.556  1.00  0.00     0.189 HD
BRANCH   7  12
ATOM     12  C   UNL A   1      34.246  23.726  23.943  1.00  0.00     0.303 C 
BRANCH  12  13
ATOM     13  N   UNL A   1      33.729  24.574  25.024  1.00  0.00    -0.331 N 
ATOM     14  C   UNL A   1      31.811  26.460  26.215  1.00  0.00     0.051 C 
ATOM     15  C   UNL A   1      33.250  26.875  25.886  1.00  0.00     0.071 C 
ATOM     16  C   UNL A   1      31.863  25.013  26.705  1.00  0.00     0.071 C 
ATOM     17  C   UNL A   1      33.838  26.006  24.774  1.00  0.00     0.263 C 
ATOM     18  C   UNL A   1      32.580  24.054  25.748  1.00  0.00     0.263 C 
ATOM     19  H   UNL A   1      34.404  24.486  25.784  1.00  0.00     0.348 HD
BRANCH  14  20
ATOM     20  C   UNL A   1      30.884  26.700  25.051  1.00  0.00     0.066 A 
ATOM     21  C   UNL A   1      29.597  27.717  23.553  1.00  0.00     0.038 A 
ATOM     22  C   UNL A   1      30.769  27.855  24.250  1.00  0.00     0.049 A 
ATOM     23  N   UNL A   1      29.183  26.441  23.806  1.00  0.00    -0.282 N 
ATOM     24  N   UNL A   1      29.924  25.815  24.743  1.00  0.00    -0.180 NA
ATOM     25  H   UNL A   1      28.421  26.019  23.349  1.00  0.00     0.190 HD
BRANCH  21  26
ATOM     26  C   UNL A   1      28.867  28.753  22.766  1.00  0.00     0.031 C 
ATOM     27  C   UNL A   1      27.378  28.792  23.068  1.00  0.00     0.014 C 
ATOM     28  C   UNL A   1      29.532  30.120  22.932  1.00  0.00     0.014 C 
ENDBRANCH  21  26
ENDBRANCH  14  20
ENDBRANCH  12  13
ENDBRANCH   7  12
ENDBRANCH   3   6
ENDBRANCH   1   2
BRANCH   1  29
ATOM     29  C   UNL A   1      37.413  19.647  24.974  1.00  0.00     0.042 C 
BRANCH  29  30
ATOM     30  C   UNL A   1      38.666  20.339  25.479  1.00  0.00     0.118 C 
BRANCH  30  31
ATOM     31  N   UNL A   1      39.740  19.379  25.693  1.00  0.00    -0.352 N 
ATOM     32  C   UNL A   1      41.049  19.574  26.053  1.00  0.00     0.251 C 
ATOM     33  H   UNL A   1      39.484  18.438  25.556  1.00  0.00     0.163 HD
ATOM     34  O   UNL A   1      41.853  18.660  25.910  1.00  0.00    -0.269 OA
BRANCH  32  35
ATOM     35  C   UNL A   1      41.494  20.875  26.600  1.00  0.00     0.039 A 
ATOM     36  C   UNL A   1      42.074  21.808  25.736  1.00  0.00     0.014 A 
ATOM     37  C   UNL A   1      41.376  21.168  27.959  1.00  0.00     0.014 A 
ATOM     38  C   UNL A   1      42.489  23.045  26.231  1.00  0.00     0.010 A 
ATOM     39  C   UNL A   1      41.664  22.444  28.423  1.00  0.00     0.010 A 
ATOM     40  C   UNL A   1      42.256  23.386  27.573  1.00  0.00    -0.014 A 
BRANCH  40  41
ATOM     41  C   UNL A   1      42.667  24.700  28.125  1.00  0.00     0.031 A 
ATOM     42  C   UNL A   1      41.634  25.770  28.361  1.00  0.00     0.074 A 
ATOM     43  C   UNL A   1      43.970  24.955  28.347  1.00  0.00     0.049 A 
ATOM     44  N   UNL A   1      41.797  27.005  28.761  1.00  0.00    -0.248 NA
ATOM     45  C   UNL A   1      40.234  25.418  28.068  1.00  0.00     0.031 C 
ATOM     46  C   UNL A   1      45.071  24.021  28.099  1.00  0.00     0.029 A 
ATOM     47  N   UNL A   1      44.590  26.081  28.825  1.00  0.00    -0.354 N 
ATOM     48  C   UNL A   1      40.530  27.577  28.741  1.00  0.00     0.074 A 
ATOM     49  C   UNL A   1      39.623  26.582  28.217  1.00  0.00     0.031 C 
ATOM     50  C   UNL A   1      46.226  24.600  28.460  1.00  0.00     0.029 A 
ATOM     51  C   UNL A   1      45.955  25.957  28.922  1.00  0.00     0.049 A 
ATOM     52  H   UNL A   1      44.104  26.899  29.076  1.00  0.00     0.167 HD
ATOM     53  C   UNL A   1      40.149  28.809  29.154  1.00  0.00     0.037 A 
ATOM     54  C   UNL A   1      46.882  26.843  29.332  1.00  0.00     0.037 A 
ATOM     55  C   UNL A   1      41.053  29.783  29.703  1.00  0.00     0.049 A 
ATOM     56  C   UNL A   1      46.438  28.203  29.791  1.00  0.00     0.074 A 
ATOM     57  C   UNL A   1      40.765  31.036  30.215  1.00  0.00     0.029 A 
ATOM     58  N   UNL A   1      42.426  29.613  29.807  1.00  0.00    -0.354 N 
ATOM     59  N   UNL A   1      45.228  28.705  29.840  1.00  0.00    -0.248 NA
ATOM     60  C   UNL A   1      47.489  29.116  30.261  1.00  0.00     0.031 C 
ATOM     61  C   UNL A   1      41.971  31.644  30.579  1.00  0.00     0.029 A 
ATOM     62  C   UNL A   1      43.003  30.748  30.351  1.00  0.00     0.049 A 
ATOM     63  H   UNL A   1      42.917  28.804  29.535  1.00  0.00     0.167 HD
ATOM     64  C   UNL A   1      45.367  29.982  30.369  1.00  0.00     0.074 A 
ATOM     65  C   UNL A   1      46.778  30.169  30.639  1.00  0.00     0.031 C 
ATOM     66  C   UNL A   1      44.412  30.914  30.613  1.00  0.00     0.037 A 
BRANCH  53  67
ATOM     67  C   UNL A   1      38.694  29.161  29.020  1.00  0.00     0.057 A 
ATOM     68  C   UNL A   1      37.800  29.059  30.096  1.00  0.00     0.134 A 
ATOM     69  C   UNL A   1      38.175  29.608  27.797  1.00  0.00     0.134 A 
ATOM     70  F   UNL A   1      38.224  28.626  31.293  1.00  0.00    -0.206 F 
ATOM     71  C   UNL A   1      36.440  29.344  29.951  1.00  0.00     0.040 A 
ATOM     72  C   UNL A   1      36.824  29.928  27.648  1.00  0.00     0.040 A 
ATOM     73  F   UNL A   1      38.971  29.736  26.725  1.00  0.00    -0.206 F 
ATOM     74  C   UNL A   1      35.951  29.785  28.725  1.00  0.00     0.006 A 
ENDBRANCH  53  67
BRANCH  54  75
ATOM     75  C   UNL A   1      48.314  26.451  29.355  1.00  0.00     0.057 A 
ATOM     76  C   UNL A   1      49.154  26.719  28.268  1.00  0.00     0.134 A 
ATOM     77  C   UNL A   1      48.882  25.821  30.469  1.00  0.00     0.134 A 
ATOM     78  F   UNL A   1      48.667  27.308  27.167  1.00  0.00    -0.206 F 
ATOM     79  C   UNL A   1      50.504  26.362  28.282  1.00  0.00     0.040 A 
ATOM     80  C   UNL A   1      50.235  25.482  30.507  1.00  0.00     0.040 A 
ATOM     81  F   UNL A   1      48.133  25.548  31.548  1.00  0.00    -0.206 F 
ATOM     82  C   UNL A   1      51.050  25.748  29.408  1.00  0.00     0.006 A 
ENDBRANCH  54  75
BRANCH  66  83
ATOM     83  C   UNL A   1      44.857  32.207  31.233  1.00  0.00     0.057 A 
ATOM     84  C   UNL A   1      45.185  33.327  30.460  1.00  0.00     0.134 A 
ATOM     85  C   UNL A   1      44.915  32.343  32.626  1.00  0.00     0.134 A 
ATOM     86  F   UNL A   1      45.162  33.260  29.120  1.00  0.00    -0.206 F 
ATOM     87  C   UNL A   1      45.580  34.529  31.050  1.00  0.00     0.040 A 
ATOM     88  C   UNL A   1      45.277  33.548  33.227  1.00  0.00     0.040 A 
ATOM     89  F   UNL A   1      44.602  31.311  33.426  1.00  0.00    -0.206 F 
ATOM     90  C   UNL A   1      45.619  34.644  32.438  1.00  0.00     0.006 A 
ENDBRANCH  66  83
ENDBRANCH  40  41
ENDBRANCH  32  35
ENDBRANCH  30  31
ENDBRANCH  29  30
ENDBRANCH   1  29
TORSDOF 14
ENDMDL
MODEL 3
REMARK VINA RESULT:     -12.1      2.047      3.453
REMARK SMILES CC(C)c1cc(C2CC[NH+](Cc3c[nH]nc3C(=O)NCCCNC(=O)c3ccc(-c4c5nc(c(-c6c(F)cccc6F)c6ccc([nH]6)c(-c6c(F)cccc6F)c6nc(c(-c7c(F)cccc7F)c7ccc4[nH]7)C=C6)C=C5)cc3)CC2)n[nH]1
REMARK SMILES IDX 20 1 19 2 17 3 18 4 16 6 12 7 13 8 14 9 15 10 11 12 10 13
REMARK SMILES IDX 7 14 8 15 81 16 9 17 80 18 6 20 4 21 5 22 83 23 82 24 2 26
REMARK SMILES IDX 1 27 3 28 21 29 22 30 23 31 24 32 25 34 26 35 27 36 79 37
REMARK SMILES IDX 28 38 78 39 29 40 30 41 31 42 72 43 32 44 77 45 71 46 73 47
REMARK SMILES IDX 33 48 76 49 70 50 69 51 34 53 60 54 43 55 59 56 44 57 47 58
REMARK SMILES IDX 58 59 74 60 45 61 46 62 57 64 75 65 48 66 35 67 36 68 41 69
REMARK SMILES IDX 37 70 38 71 40 72 42 73 39 74 61 75 62 76 67 77 63 78 64 79
REMARK SMILES IDX 66 80 68 81 65 82 49 83 50 84 55 85 51 86 52 87 54 88 56 89
REMARK SMILES IDX 53 90
REMARK H PARENT 19 5 14 11 10 19 83 25 23 33 73 52 47 63
REMARK Flexibility Score: inf
ROOT
ATOM      1  C   UNL A   1      36.160  20.381  25.000  1.00  0.00     0.118 C 
ENDROOT
BRANCH   1   2
ATOM      2  N   UNL A   1      36.585  21.700  25.363  1.00  0.00    -0.351 N 
ATOM      3  C   UNL A   1      35.945  22.758  25.942  1.00  0.00     0.272 C 
ATOM      4  O   UNL A   1      36.663  23.763  26.033  1.00  0.00    -0.267 OA
ATOM      5  H   UNL A   1      37.530  21.880  25.152  1.00  0.00     0.163 HD
BRANCH   3   6
ATOM      6  C   UNL A   1      34.565  22.738  26.508  1.00  0.00     0.158 A 
ATOM      7  C   UNL A   1      33.403  23.624  26.567  1.00  0.00     0.057 A 
ATOM      8  C   UNL A   1      32.477  22.890  27.300  1.00  0.00     0.115 A 
ATOM      9  N   UNL A   1      33.056  21.720  27.642  1.00  0.00    -0.284 N 
ATOM     10  N   UNL A   1      34.293  21.601  27.193  1.00  0.00    -0.170 NA
ATOM     11  H   UNL A   1      32.604  21.025  28.172  1.00  0.00     0.189 HD
BRANCH   7  12
ATOM     12  C   UNL A   1      33.051  24.981  26.008  1.00  0.00     0.303 C 
BRANCH  12  13
ATOM     13  N   UNL A   1      32.905  25.081  24.550  1.00  0.00    -0.331 N 
ATOM     14  C   UNL A   1      31.993  26.370  22.069  1.00  0.00     0.051 C 
ATOM     15  C   UNL A   1      31.401  25.041  22.549  1.00  0.00     0.071 C 
ATOM     16  C   UNL A   1      33.482  26.351  22.415  1.00  0.00     0.071 C 
ATOM     17  C   UNL A   1      31.546  24.883  24.064  1.00  0.00     0.263 C 
ATOM     18  C   UNL A   1      33.777  26.038  23.887  1.00  0.00     0.263 C 
ATOM     19  H   UNL A   1      33.341  24.238  24.176  1.00  0.00     0.348 HD
BRANCH  14  20
ATOM     20  C   UNL A   1      31.231  27.548  22.621  1.00  0.00     0.066 A 
ATOM     21  C   UNL A   1      29.615  29.023  23.007  1.00  0.00     0.038 A 
ATOM     22  C   UNL A   1      29.837  27.690  22.779  1.00  0.00     0.049 A 
ATOM     23  N   UNL A   1      30.858  29.565  23.172  1.00  0.00    -0.282 N 
ATOM     24  N   UNL A   1      31.857  28.700  22.903  1.00  0.00    -0.180 NA
ATOM     25  H   UNL A   1      31.009  30.494  23.459  1.00  0.00     0.190 HD
BRANCH  21  26
ATOM     26  C   UNL A   1      28.317  29.758  22.985  1.00  0.00     0.031 C 
ATOM     27  C   UNL A   1      28.158  30.651  21.765  1.00  0.00     0.014 C 
ATOM     28  C   UNL A   1      27.149  28.786  23.153  1.00  0.00     0.014 C 
ENDBRANCH  21  26
ENDBRANCH  14  20
ENDBRANCH  12  13
ENDBRANCH   7  12
ENDBRANCH   3   6
ENDBRANCH   1   2
BRANCH   1  29
ATOM     29  C   UNL A   1      37.379  19.466  24.964  1.00  0.00     0.042 C 
BRANCH  29  30
ATOM     30  C   UNL A   1      38.642  20.178  25.410  1.00  0.00     0.118 C 
BRANCH  30  31
ATOM     31  N   UNL A   1      39.694  19.222  25.725  1.00  0.00    -0.352 N 
ATOM     32  C   UNL A   1      41.002  19.424  26.088  1.00  0.00     0.251 C 
ATOM     33  H   UNL A   1      39.423  18.278  25.669  1.00  0.00     0.163 HD
ATOM     34  O   UNL A   1      41.789  18.487  26.040  1.00  0.00    -0.269 OA
BRANCH  32  35
ATOM     35  C   UNL A   1      41.464  20.761  26.524  1.00  0.00     0.039 A 
ATOM     36  C   UNL A   1      41.645  21.002  27.889  1.00  0.00     0.014 A 
ATOM     37  C   UNL A   1      41.687  21.787  25.604  1.00  0.00     0.014 A 
ATOM     38  C   UNL A   1      42.091  22.252  28.319  1.00  0.00     0.010 A 
ATOM     39  C   UNL A   1      42.256  22.981  26.019  1.00  0.00     0.010 A 
ATOM     40  C   UNL A   1      42.433  23.242  27.383  1.00  0.00    -0.014 A 
BRANCH  40  41
ATOM     41  C   UNL A   1      42.930  24.574  27.807  1.00  0.00     0.031 A 
ATOM     42  C   UNL A   1      41.950  25.646  28.206  1.00  0.00     0.074 A 
ATOM     43  C   UNL A   1      44.248  24.841  27.766  1.00  0.00     0.049 A 
ATOM     44  N   UNL A   1      42.174  26.894  28.531  1.00  0.00    -0.248 NA
ATOM     45  C   UNL A   1      40.524  25.280  28.199  1.00  0.00     0.031 C 
ATOM     46  C   UNL A   1      45.290  23.905  27.338  1.00  0.00     0.029 A 
ATOM     47  N   UNL A   1      44.938  25.984  28.082  1.00  0.00    -0.354 N 
ATOM     48  C   UNL A   1      40.922  27.460  28.739  1.00  0.00     0.074 A 
ATOM     49  C   UNL A   1      39.941  26.445  28.429  1.00  0.00     0.031 C 
ATOM     50  C   UNL A   1      46.487  24.500  27.452  1.00  0.00     0.029 A 
ATOM     51  C   UNL A   1      46.297  25.869  27.918  1.00  0.00     0.049 A 
ATOM     52  H   UNL A   1      44.500  26.807  28.398  1.00  0.00     0.167 HD
ATOM     53  C   UNL A   1      40.615  28.702  29.181  1.00  0.00     0.037 A 
ATOM     54  C   UNL A   1      47.276  26.771  28.115  1.00  0.00     0.037 A 
ATOM     55  C   UNL A   1      41.598  29.697  29.517  1.00  0.00     0.049 A 
ATOM     56  C   UNL A   1      46.915  28.143  28.611  1.00  0.00     0.074 A 
ATOM     57  C   UNL A   1      41.402  30.963  30.038  1.00  0.00     0.029 A 
ATOM     58  N   UNL A   1      42.967  29.535  29.359  1.00  0.00    -0.354 N 
ATOM     59  N   UNL A   1      45.732  28.641  28.878  1.00  0.00    -0.248 NA
ATOM     60  C   UNL A   1      48.028  29.075  28.842  1.00  0.00     0.031 C 
ATOM     61  C   UNL A   1      42.649  31.587  30.145  1.00  0.00     0.029 A 
ATOM     62  C   UNL A   1      43.627  30.689  29.748  1.00  0.00     0.049 A 
ATOM     63  H   UNL A   1      43.405  28.721  29.021  1.00  0.00     0.167 HD
ATOM     64  C   UNL A   1      45.957  29.934  29.333  1.00  0.00     0.074 A 
ATOM     65  C   UNL A   1      47.392  30.135  29.320  1.00  0.00     0.031 C 
ATOM     66  C   UNL A   1      45.058  30.869  29.728  1.00  0.00     0.037 A 
BRANCH  53  67
ATOM     67  C   UNL A   1      39.158  29.044  29.320  1.00  0.00     0.057 A 
ATOM     68  C   UNL A   1      38.399  29.526  28.242  1.00  0.00     0.134 A 
ATOM     69  C   UNL A   1      38.501  28.890  30.548  1.00  0.00     0.134 A 
ATOM     70  F   UNL A   1      38.966  29.710  27.040  1.00  0.00    -0.206 F 
ATOM     71  C   UNL A   1      37.058  29.884  28.392  1.00  0.00     0.040 A 
ATOM     72  C   UNL A   1      37.151  29.213  30.701  1.00  0.00     0.040 A 
ATOM     73  F   UNL A   1      39.161  28.428  31.621  1.00  0.00    -0.206 F 
ATOM     74  C   UNL A   1      36.429  29.722  29.624  1.00  0.00     0.006 A 
ENDBRANCH  53  67
BRANCH  54  75
ATOM     75  C   UNL A   1      48.690  26.386  27.873  1.00  0.00     0.057 A 
ATOM     76  C   UNL A   1      49.479  25.856  28.900  1.00  0.00     0.134 A 
ATOM     77  C   UNL A   1      49.279  26.518  26.610  1.00  0.00     0.134 A 
ATOM     78  F   UNL A   1      48.977  25.718  30.135  1.00  0.00    -0.206 F 
ATOM     79  C   UNL A   1      50.807  25.484  28.683  1.00  0.00     0.040 A 
ATOM     80  C   UNL A   1      50.596  26.126  26.373  1.00  0.00     0.040 A 
ATOM     81  F   UNL A   1      48.571  27.008  25.581  1.00  0.00    -0.206 F 
ATOM     82  C   UNL A   1      51.367  25.612  27.414  1.00  0.00     0.006 A 
ENDBRANCH  54  75
BRANCH  66  83
ATOM     83  C   UNL A   1      45.601  32.182  30.213  1.00  0.00     0.057 A 
ATOM     84  C   UNL A   1      45.778  33.275  29.355  1.00  0.00     0.134 A 
ATOM     85  C   UNL A   1      45.909  32.367  31.567  1.00  0.00     0.134 A 
ATOM     86  F   UNL A   1      45.512  33.161  28.044  1.00  0.00    -0.206 F 
ATOM     87  C   UNL A   1      46.266  34.496  29.822  1.00  0.00     0.040 A 
ATOM     88  C   UNL A   1      46.368  33.592  32.051  1.00  0.00     0.040 A 
ATOM     89  F   UNL A   1      45.752  31.364  32.445  1.00  0.00    -0.206 F 
ATOM     90  C   UNL A   1      46.555  34.659  31.176  1.00  0.00     0.006 A 
ENDBRANCH  66  83
ENDBRANCH  40  41
ENDBRANCH  32  35
ENDBRANCH  30  31
ENDBRANCH  29  30
ENDBRANCH   1  29
TORSDOF 14
ENDMDL
