MODEL 1
REMARK VINA RESULT:     -12.1      0.000      0.000
REMARK SMILES Cc1cc(C(=O)N2[C@@H](C(=O)NCCCNC(=O)c3ccc(-c4c5nc(c(-c6c(F)cccc6F)c6ccc([nH]6)c(-c6c(F)cccc6F)c6nc(c(-c7c(F)cccc7F)c7ccc4[nH]7)C=C6)C=C5)cc3)C[C@H]3CCCC[C@H]32)c(C)s1
REMARK SMILES IDX 13 1 12 2 11 3 9 4 10 5 8 7 7 8 78 9 72 10 73 11 77 12 74 13
REMARK SMILES IDX 76 14 75 15 5 16 6 17 4 18 1 19 2 20 3 21 81 22 79 23 80 24
REMARK SMILES IDX 14 25 15 26 16 27 17 29 18 30 19 31 71 32 20 33 70 34 21 35
REMARK SMILES IDX 22 36 23 37 64 38 24 39 69 40 63 41 65 42 25 43 68 44 62 45
REMARK SMILES IDX 61 46 26 48 52 49 35 50 51 51 36 52 39 53 50 54 66 55 37 56
REMARK SMILES IDX 38 57 49 59 67 60 40 61 27 62 28 63 33 64 29 65 30 66 32 67
REMARK SMILES IDX 34 68 31 69 53 70 54 71 59 72 55 73 56 74 58 75 60 76 57 77
REMARK SMILES IDX 41 78 42 79 47 80 43 81 44 82 46 83 48 84 45 85
REMARK H PARENT 11 6 15 28 65 47 39 58
REMARK Flexibility Score: inf
ROOT
ATOM      1  C   UNL A   1      32.048  28.166  27.631  1.00  0.00     0.042 C 
ENDROOT
BRANCH   1   2
ATOM      2  C   UNL A   1      31.189  27.622  26.492  1.00  0.00     0.117 C 
BRANCH   2   3
ATOM      3  N   UNL A   1      31.135  26.170  26.451  1.00  0.00    -0.354 N 
ATOM      4  C   UNL A   1      32.004  25.203  26.062  1.00  0.00     0.242 C 
ATOM      5  O   UNL A   1      31.632  24.042  26.286  1.00  0.00    -0.273 OA
ATOM      6  H   UNL A   1      30.280  25.808  26.778  1.00  0.00     0.163 HD
BRANCH   4   7
ATOM      7  C   UNL A   1      33.324  25.416  25.281  1.00  0.00     0.175 C 
ATOM      8  N   UNL A   1      33.542  24.871  23.935  1.00  0.00    -0.323 N 
ATOM      9  C   UNL A   1      34.664  23.934  23.917  1.00  0.00     0.089 C 
ATOM     10  C   UNL A   1      34.478  24.818  26.120  1.00  0.00     0.041 C 
ATOM     11  C   UNL A   1      35.530  24.442  25.072  1.00  0.00     0.014 C 
ATOM     12  C   UNL A   1      34.203  22.486  24.112  1.00  0.00     0.025 C 
ATOM     13  C   UNL A   1      36.600  23.463  25.543  1.00  0.00     0.006 C 
ATOM     14  C   UNL A   1      35.363  21.556  24.451  1.00  0.00     0.002 C 
ATOM     15  C   UNL A   1      36.097  22.032  25.700  1.00  0.00     0.000 C 
BRANCH   8  16
ATOM     16  C   UNL A   1      33.019  25.337  22.735  1.00  0.00     0.255 C 
ATOM     17  O   UNL A   1      33.279  24.787  21.666  1.00  0.00    -0.269 OA
BRANCH  16  18
ATOM     18  C   UNL A   1      32.153  26.515  22.778  1.00  0.00     0.053 A 
ATOM     19  C   UNL A   1      28.710  28.087  23.120  1.00  0.00     0.056 C 
ATOM     20  C   UNL A   1      30.151  27.734  22.978  1.00  0.00     0.003 A 
ATOM     21  C   UNL A   1      30.719  26.483  22.893  1.00  0.00     0.029 A 
ATOM     22  S   UNL A   1      31.337  28.957  22.947  1.00  0.00    -0.145 S 
ATOM     23  C   UNL A   1      32.618  27.821  22.856  1.00  0.00     0.014 A 
ATOM     24  C   UNL A   1      34.022  28.328  22.888  1.00  0.00     0.057 C 
ENDBRANCH  16  18
ENDBRANCH   8  16
ENDBRANCH   4   7
ENDBRANCH   2   3
ENDBRANCH   1   2
BRANCH   1  25
ATOM     25  C   UNL A   1      33.377  28.779  27.205  1.00  0.00     0.118 C 
BRANCH  25  26
ATOM     26  N   UNL A   1      33.567  30.125  27.719  1.00  0.00    -0.352 N 
ATOM     27  C   UNL A   1      34.643  30.742  28.307  1.00  0.00     0.251 C 
ATOM     28  H   UNL A   1      32.776  30.703  27.628  1.00  0.00     0.163 HD
ATOM     29  O   UNL A   1      34.466  31.844  28.825  1.00  0.00    -0.269 OA
BRANCH  27  30
ATOM     30  C   UNL A   1      36.003  30.142  28.349  1.00  0.00     0.039 A 
ATOM     31  C   UNL A   1      36.429  29.571  29.557  1.00  0.00     0.014 A 
ATOM     32  C   UNL A   1      36.912  30.242  27.294  1.00  0.00     0.014 A 
ATOM     33  C   UNL A   1      37.738  29.093  29.700  1.00  0.00     0.010 A 
ATOM     34  C   UNL A   1      38.197  29.701  27.411  1.00  0.00     0.010 A 
ATOM     35  C   UNL A   1      38.635  29.148  28.625  1.00  0.00    -0.014 A 
BRANCH  35  36
ATOM     36  C   UNL A   1      40.053  28.726  28.781  1.00  0.00     0.031 A 
ATOM     37  C   UNL A   1      41.058  29.677  29.381  1.00  0.00     0.074 A 
ATOM     38  C   UNL A   1      40.461  27.511  28.369  1.00  0.00     0.049 A 
ATOM     39  N   UNL A   1      42.357  29.551  29.486  1.00  0.00    -0.248 NA
ATOM     40  C   UNL A   1      40.534  30.946  29.907  1.00  0.00     0.031 C 
ATOM     41  C   UNL A   1      39.610  26.489  27.757  1.00  0.00     0.029 A 
ATOM     42  N   UNL A   1      41.705  26.930  28.408  1.00  0.00    -0.354 N 
ATOM     43  C   UNL A   1      42.810  30.748  30.027  1.00  0.00     0.074 A 
ATOM     44  C   UNL A   1      41.648  31.584  30.237  1.00  0.00     0.031 C 
ATOM     45  C   UNL A   1      40.352  25.396  27.504  1.00  0.00     0.029 A 
ATOM     46  C   UNL A   1      41.732  25.651  27.912  1.00  0.00     0.049 A 
ATOM     47  H   UNL A   1      42.502  27.389  28.759  1.00  0.00     0.167 HD
ATOM     48  C   UNL A   1      44.077  31.120  30.323  1.00  0.00     0.037 A 
ATOM     49  C   UNL A   1      42.751  24.779  27.800  1.00  0.00     0.037 A 
ATOM     50  C   UNL A   1      45.233  30.274  30.199  1.00  0.00     0.049 A 
ATOM     51  C   UNL A   1      44.128  25.171  28.252  1.00  0.00     0.074 A 
ATOM     52  C   UNL A   1      46.554  30.562  30.497  1.00  0.00     0.029 A 
ATOM     53  N   UNL A   1      45.196  28.957  29.774  1.00  0.00    -0.354 N 
ATOM     54  N   UNL A   1      44.544  26.317  28.730  1.00  0.00    -0.248 NA
ATOM     55  C   UNL A   1      45.178  24.144  28.150  1.00  0.00     0.031 C 
ATOM     56  C   UNL A   1      47.318  29.412  30.259  1.00  0.00     0.029 A 
ATOM     57  C   UNL A   1      46.467  28.410  29.821  1.00  0.00     0.049 A 
ATOM     58  H   UNL A   1      44.386  28.480  29.480  1.00  0.00     0.167 HD
ATOM     59  C   UNL A   1      45.897  26.150  28.992  1.00  0.00     0.074 A 
ATOM     60  C   UNL A   1      46.232  24.788  28.633  1.00  0.00     0.031 C 
ATOM     61  C   UNL A   1      46.781  27.050  29.482  1.00  0.00     0.037 A 
BRANCH  48  62
ATOM     62  C   UNL A   1      44.279  32.524  30.802  1.00  0.00     0.057 A 
ATOM     63  C   UNL A   1      44.497  33.582  29.912  1.00  0.00     0.134 A 
ATOM     64  C   UNL A   1      44.246  32.817  32.171  1.00  0.00     0.134 A 
ATOM     65  F   UNL A   1      44.557  33.358  28.591  1.00  0.00    -0.206 F 
ATOM     66  C   UNL A   1      44.691  34.886  30.370  1.00  0.00     0.040 A 
ATOM     67  C   UNL A   1      44.425  34.118  32.640  1.00  0.00     0.040 A 
ATOM     68  F   UNL A   1      44.043  31.843  33.071  1.00  0.00    -0.206 F 
ATOM     69  C   UNL A   1      44.653  35.156  31.737  1.00  0.00     0.006 A 
ENDBRANCH  48  62
BRANCH  49  70
ATOM     70  C   UNL A   1      42.501  23.422  27.265  1.00  0.00     0.057 A 
ATOM     71  C   UNL A   1      42.657  23.154  25.902  1.00  0.00     0.134 A 
ATOM     72  C   UNL A   1      42.099  22.373  28.097  1.00  0.00     0.134 A 
ATOM     73  F   UNL A   1      43.021  24.131  25.058  1.00  0.00    -0.206 F 
ATOM     74  C   UNL A   1      42.416  21.883  25.378  1.00  0.00     0.040 A 
ATOM     75  C   UNL A   1      41.863  21.095  27.588  1.00  0.00     0.040 A 
ATOM     76  F   UNL A   1      41.932  22.576  29.412  1.00  0.00    -0.206 F 
ATOM     77  C   UNL A   1      42.020  20.849  26.225  1.00  0.00     0.006 A 
ENDBRANCH  49  70
BRANCH  61  78
ATOM     78  C   UNL A   1      48.187  26.582  29.683  1.00  0.00     0.057 A 
ATOM     79  C   UNL A   1      49.163  26.763  28.698  1.00  0.00     0.134 A 
ATOM     80  C   UNL A   1      48.573  25.974  30.883  1.00  0.00     0.134 A 
ATOM     81  F   UNL A   1      48.847  27.331  27.524  1.00  0.00    -0.206 F 
ATOM     82  C   UNL A   1      50.479  26.348  28.897  1.00  0.00     0.040 A 
ATOM     83  C   UNL A   1      49.888  25.560  31.096  1.00  0.00     0.040 A 
ATOM     84  F   UNL A   1      47.678  25.772  31.862  1.00  0.00    -0.206 F 
ATOM     85  C   UNL A   1      50.845  25.746  30.100  1.00  0.00     0.006 A 
ENDBRANCH  61  78
ENDBRANCH  35  36
ENDBRANCH  27  30
ENDBRANCH  25  26
ENDBRANCH   1  25
TORSDOF 12
ENDMDL
MODEL 2
REMARK VINA RESULT:     -11.9      1.699      2.530
REMARK SMILES Cc1cc(C(=O)N2[C@@H](C(=O)NCCCNC(=O)c3ccc(-c4c5nc(c(-c6c(F)cccc6F)c6ccc([nH]6)c(-c6c(F)cccc6F)c6nc(c(-c7c(F)cccc7F)c7ccc4[nH]7)C=C6)C=C5)cc3)C[C@H]3CCCC[C@H]32)c(C)s1
REMARK SMILES IDX 13 1 12 2 11 3 9 4 10 5 8 7 7 8 78 9 72 10 73 11 77 12 74 13
REMARK SMILES IDX 76 14 75 15 5 16 6 17 4 18 1 19 2 20 3 21 81 22 79 23 80 24
REMARK SMILES IDX 14 25 15 26 16 27 17 29 18 30 19 31 71 32 20 33 70 34 21 35
REMARK SMILES IDX 22 36 23 37 64 38 24 39 69 40 63 41 65 42 25 43 68 44 62 45
REMARK SMILES IDX 61 46 26 48 52 49 35 50 51 51 36 52 39 53 50 54 66 55 37 56
REMARK SMILES IDX 38 57 49 59 67 60 40 61 27 62 28 63 33 64 29 65 30 66 32 67
REMARK SMILES IDX 34 68 31 69 53 70 54 71 59 72 55 73 56 74 58 75 60 76 57 77
REMARK SMILES IDX 41 78 42 79 47 80 43 81 44 82 46 83 48 84 45 85
REMARK H PARENT 11 6 15 28 65 47 39 58
REMARK Flexibility Score: inf
ROOT
ATOM      1  C   UNL A   1      34.258  29.081  27.636  1.00  0.00     0.042 C 
ENDROOT
BRANCH   1   2
ATOM      2  C   UNL A   1      33.850  28.499  26.285  1.00  0.00     0.117 C 
BRANCH   2   3
ATOM      3  N   UNL A   1      33.004  27.322  26.394  1.00  0.00    -0.354 N 
ATOM      4  C   UNL A   1      33.077  26.058  25.906  1.00  0.00     0.242 C 
ATOM      5  O   UNL A   1      32.201  25.284  26.319  1.00  0.00    -0.273 OA
ATOM      6  H   UNL A   1      32.202  27.475  26.944  1.00  0.00     0.163 HD
BRANCH   4   7
ATOM      7  C   UNL A   1      34.059  25.548  24.823  1.00  0.00     0.175 C 
ATOM      8  N   UNL A   1      33.606  25.055  23.515  1.00  0.00    -0.323 N 
ATOM      9  C   UNL A   1      33.980  23.656  23.317  1.00  0.00     0.089 C 
ATOM     10  C   UNL A   1      34.854  24.362  25.417  1.00  0.00     0.041 C 
ATOM     11  C   UNL A   1      35.232  23.528  24.189  1.00  0.00     0.014 C 
ATOM     12  C   UNL A   1      32.862  22.698  23.741  1.00  0.00     0.025 C 
ATOM     13  C   UNL A   1      35.661  22.093  24.481  1.00  0.00     0.006 C 
ATOM     14  C   UNL A   1      33.357  21.263  23.879  1.00  0.00     0.002 C 
ATOM     15  C   UNL A   1      34.508  21.176  24.875  1.00  0.00     0.000 C 
BRANCH   8  16
ATOM     16  C   UNL A   1      33.154  25.803  22.435  1.00  0.00     0.255 C 
ATOM     17  O   UNL A   1      33.646  25.673  21.315  1.00  0.00    -0.269 OA
BRANCH  16  18
ATOM     18  C   UNL A   1      32.077  26.765  22.672  1.00  0.00     0.053 A 
ATOM     19  C   UNL A   1      28.450  27.541  23.497  1.00  0.00     0.056 C 
ATOM     20  C   UNL A   1      29.906  27.513  23.181  1.00  0.00     0.003 A 
ATOM     21  C   UNL A   1      30.704  26.420  22.926  1.00  0.00     0.029 A 
ATOM     22  S   UNL A   1      30.806  28.960  23.143  1.00  0.00    -0.145 S 
ATOM     23  C   UNL A   1      32.272  28.131  22.821  1.00  0.00     0.014 A 
ATOM     24  C   UNL A   1      33.538  28.922  22.759  1.00  0.00     0.057 C 
ENDBRANCH  16  18
ENDBRANCH   8  16
ENDBRANCH   4   7
ENDBRANCH   2   3
ENDBRANCH   1   2
BRANCH   1  25
ATOM     25  C   UNL A   1      34.594  30.568  27.625  1.00  0.00     0.118 C 
BRANCH  25  26
ATOM     26  N   UNL A   1      34.839  31.101  28.955  1.00  0.00    -0.352 N 
ATOM     27  C   UNL A   1      35.881  30.941  29.833  1.00  0.00     0.251 C 
ATOM     28  H   UNL A   1      34.122  31.686  29.289  1.00  0.00     0.163 HD
ATOM     29  O   UNL A   1      35.740  31.362  30.981  1.00  0.00    -0.269 OA
BRANCH  27  30
ATOM     30  C   UNL A   1      37.164  30.287  29.464  1.00  0.00     0.039 A 
ATOM     31  C   UNL A   1      37.960  29.776  30.501  1.00  0.00     0.014 A 
ATOM     32  C   UNL A   1      37.669  30.279  28.162  1.00  0.00     0.014 A 
ATOM     33  C   UNL A   1      39.230  29.252  30.234  1.00  0.00     0.010 A 
ATOM     34  C   UNL A   1      38.908  29.691  27.885  1.00  0.00     0.010 A 
ATOM     35  C   UNL A   1      39.716  29.198  28.921  1.00  0.00    -0.014 A 
BRANCH  35  36
ATOM     36  C   UNL A   1      41.095  28.725  28.627  1.00  0.00     0.031 A 
ATOM     37  C   UNL A   1      42.251  29.690  28.699  1.00  0.00     0.074 A 
ATOM     38  C   UNL A   1      41.326  27.447  28.270  1.00  0.00     0.049 A 
ATOM     39  N   UNL A   1      43.503  29.511  28.358  1.00  0.00    -0.248 NA
ATOM     40  C   UNL A   1      41.953  31.043  29.193  1.00  0.00     0.031 C 
ATOM     41  C   UNL A   1      40.309  26.402  28.143  1.00  0.00     0.029 A 
ATOM     42  N   UNL A   1      42.500  26.811  27.951  1.00  0.00    -0.354 N 
ATOM     43  C   UNL A   1      44.124  30.741  28.534  1.00  0.00     0.074 A 
ATOM     44  C   UNL A   1      43.114  31.658  29.020  1.00  0.00     0.031 C 
ATOM     45  C   UNL A   1      40.909  25.248  27.801  1.00  0.00     0.029 A 
ATOM     46  C   UNL A   1      42.345  25.480  27.659  1.00  0.00     0.049 A 
ATOM     47  H   UNL A   1      43.372  27.269  27.933  1.00  0.00     0.167 HD
ATOM     48  C   UNL A   1      45.415  31.081  28.312  1.00  0.00     0.037 A 
ATOM     49  C   UNL A   1      43.254  24.548  27.319  1.00  0.00     0.037 A 
ATOM     50  C   UNL A   1      46.448  30.166  27.909  1.00  0.00     0.049 A 
ATOM     51  C   UNL A   1      44.704  24.921  27.200  1.00  0.00     0.074 A 
ATOM     52  C   UNL A   1      47.790  30.420  27.682  1.00  0.00     0.029 A 
ATOM     53  N   UNL A   1      46.257  28.809  27.710  1.00  0.00    -0.354 N 
ATOM     54  N   UNL A   1      45.266  26.096  27.338  1.00  0.00    -0.248 NA
ATOM     55  C   UNL A   1      45.645  23.836  26.880  1.00  0.00     0.031 C 
ATOM     56  C   UNL A   1      48.415  29.211  27.353  1.00  0.00     0.029 A 
ATOM     57  C   UNL A   1      47.460  28.207  27.385  1.00  0.00     0.049 A 
ATOM     58  H   UNL A   1      45.394  28.343  27.789  1.00  0.00     0.167 HD
ATOM     59  C   UNL A   1      46.624  25.892  27.130  1.00  0.00     0.074 A 
ATOM     60  C   UNL A   1      46.805  24.480  26.868  1.00  0.00     0.031 C 
ATOM     61  C   UNL A   1      47.628  26.800  27.149  1.00  0.00     0.037 A 
BRANCH  48  62
ATOM     62  C   UNL A   1      45.778  32.522  28.490  1.00  0.00     0.057 A 
ATOM     63  C   UNL A   1      46.236  33.021  29.715  1.00  0.00     0.134 A 
ATOM     64  C   UNL A   1      45.675  33.417  27.418  1.00  0.00     0.134 A 
ATOM     65  F   UNL A   1      46.338  32.214  30.782  1.00  0.00    -0.206 F 
ATOM     66  C   UNL A   1      46.566  34.367  29.872  1.00  0.00     0.040 A 
ATOM     67  C   UNL A   1      46.014  34.763  27.558  1.00  0.00     0.040 A 
ATOM     68  F   UNL A   1      45.239  32.997  26.220  1.00  0.00    -0.206 F 
ATOM     69  C   UNL A   1      46.457  35.241  28.791  1.00  0.00     0.006 A 
ENDBRANCH  48  62
BRANCH  49  70
ATOM     70  C   UNL A   1      42.825  23.149  27.099  1.00  0.00     0.057 A 
ATOM     71  C   UNL A   1      42.503  22.324  28.181  1.00  0.00     0.134 A 
ATOM     72  C   UNL A   1      42.733  22.608  25.813  1.00  0.00     0.134 A 
ATOM     73  F   UNL A   1      42.596  22.789  29.436  1.00  0.00    -0.206 F 
ATOM     74  C   UNL A   1      42.107  21.000  27.994  1.00  0.00     0.040 A 
ATOM     75  C   UNL A   1      42.329  21.288  25.610  1.00  0.00     0.040 A 
ATOM     76  F   UNL A   1      43.032  23.355  24.741  1.00  0.00    -0.206 F 
ATOM     77  C   UNL A   1      42.016  20.481  26.703  1.00  0.00     0.006 A 
ENDBRANCH  49  70
BRANCH  61  78
ATOM     78  C   UNL A   1      49.012  26.288  26.907  1.00  0.00     0.057 A 
ATOM     79  C   UNL A   1      49.768  25.718  27.937  1.00  0.00     0.134 A 
ATOM     80  C   UNL A   1      49.579  26.338  25.629  1.00  0.00     0.134 A 
ATOM     81  F   UNL A   1      49.279  25.653  29.185  1.00  0.00    -0.206 F 
ATOM     82  C   UNL A   1      51.050  25.220  27.704  1.00  0.00     0.040 A 
ATOM     83  C   UNL A   1      50.858  25.837  25.383  1.00  0.00     0.040 A 
ATOM     84  F   UNL A   1      48.901  26.876  24.604  1.00  0.00    -0.206 F 
ATOM     85  C   UNL A   1      51.597  25.277  26.423  1.00  0.00     0.006 A 
ENDBRANCH  61  78
ENDBRANCH  35  36
ENDBRANCH  27  30
ENDBRANCH  25  26
ENDBRANCH   1  25
TORSDOF 12
ENDMDL
MODEL 3
REMARK VINA RESULT:     -11.9      1.849      3.307
REMARK SMILES Cc1cc(C(=O)N2[C@@H](C(=O)NCCCNC(=O)c3ccc(-c4c5nc(c(-c6c(F)cccc6F)c6ccc([nH]6)c(-c6c(F)cccc6F)c6nc(c(-c7c(F)cccc7F)c7ccc4[nH]7)C=C6)C=C5)cc3)C[C@H]3CCCC[C@H]32)c(C)s1
REMARK SMILES IDX 13 1 12 2 11 3 9 4 10 5 8 7 7 8 78 9 72 10 73 11 77 12 74 13
REMARK SMILES IDX 76 14 75 15 5 16 6 17 4 18 1 19 2 20 3 21 81 22 79 23 80 24
REMARK SMILES IDX 14 25 15 26 16 27 17 29 18 30 19 31 71 32 20 33 70 34 21 35
REMARK SMILES IDX 22 36 23 37 64 38 24 39 69 40 63 41 65 42 25 43 68 44 62 45
REMARK SMILES IDX 61 46 26 48 52 49 35 50 51 51 36 52 39 53 50 54 66 55 37 56
REMARK SMILES IDX 38 57 49 59 67 60 40 61 27 62 28 63 33 64 29 65 30 66 32 67
REMARK SMILES IDX 34 68 31 69 53 70 54 71 59 72 55 73 56 74 58 75 60 76 57 77
REMARK SMILES IDX 41 78 42 79 47 80 43 81 44 82 46 83 48 84 45 85
REMARK H PARENT 11 6 15 28 65 47 39 58
REMARK Flexibility Score: inf
ROOT
ATOM      1  C   UNL A   1      33.660  28.168  25.814  1.00  0.00     0.042 C 
ENDROOT
BRANCH   1   2
ATOM      2  C   UNL A   1      32.945  26.980  25.175  1.00  0.00     0.117 C 
BRANCH   2   3
ATOM      3  N   UNL A   1      32.647  25.912  26.115  1.00  0.00    -0.354 N 
ATOM      4  C   UNL A   1      32.798  24.564  26.092  1.00  0.00     0.242 C 
ATOM      5  O   UNL A   1      32.522  23.986  27.153  1.00  0.00    -0.273 OA
ATOM      6  H   UNL A   1      32.248  26.239  26.954  1.00  0.00     0.163 HD
BRANCH   4   7
ATOM      7  C   UNL A   1      33.159  23.702  24.857  1.00  0.00     0.175 C 
ATOM      8  N   UNL A   1      33.264  22.238  24.919  1.00  0.00    -0.323 N 
ATOM      9  C   UNL A   1      34.613  21.788  24.578  1.00  0.00     0.089 C 
ATOM     10  C   UNL A   1      34.546  24.157  24.345  1.00  0.00     0.041 C 
ATOM     11  C   UNL A   1      35.106  22.907  23.658  1.00  0.00     0.014 C 
ATOM     12  C   UNL A   1      35.489  21.613  25.823  1.00  0.00     0.025 C 
ATOM     13  C   UNL A   1      36.612  22.915  23.417  1.00  0.00     0.006 C 
ATOM     14  C   UNL A   1      36.968  21.497  25.472  1.00  0.00     0.002 C 
ATOM     15  C   UNL A   1      37.438  22.714  24.683  1.00  0.00     0.000 C 
BRANCH   8  16
ATOM     16  C   UNL A   1      32.229  21.314  24.981  1.00  0.00     0.255 C 
ATOM     17  O   UNL A   1      31.171  21.574  25.552  1.00  0.00    -0.269 OA
BRANCH  16  18
ATOM     18  C   UNL A   1      32.437  20.010  24.351  1.00  0.00     0.053 A 
ATOM     19  C   UNL A   1      33.069  16.271  24.606  1.00  0.00     0.056 C 
ATOM     20  C   UNL A   1      32.807  17.690  24.232  1.00  0.00     0.003 A 
ATOM     21  C   UNL A   1      32.719  18.788  25.057  1.00  0.00     0.029 A 
ATOM     22  S   UNL A   1      32.525  18.113  22.605  1.00  0.00    -0.145 S 
ATOM     23  C   UNL A   1      32.250  19.759  22.999  1.00  0.00     0.014 A 
ATOM     24  C   UNL A   1      31.840  20.692  21.908  1.00  0.00     0.057 C 
ENDBRANCH  16  18
ENDBRANCH   8  16
ENDBRANCH   4   7
ENDBRANCH   2   3
ENDBRANCH   1   2
BRANCH   1  25
ATOM     25  C   UNL A   1      33.288  28.444  27.266  1.00  0.00     0.118 C 
BRANCH  25  26
ATOM     26  N   UNL A   1      33.438  29.843  27.631  1.00  0.00    -0.352 N 
ATOM     27  C   UNL A   1      34.497  30.552  28.141  1.00  0.00     0.251 C 
ATOM     28  H   UNL A   1      32.629  30.383  27.483  1.00  0.00     0.163 HD
ATOM     29  O   UNL A   1      34.287  31.699  28.538  1.00  0.00    -0.269 OA
BRANCH  27  30
ATOM     30  C   UNL A   1      35.874  30.003  28.238  1.00  0.00     0.039 A 
ATOM     31  C   UNL A   1      36.272  29.445  29.464  1.00  0.00     0.014 A 
ATOM     32  C   UNL A   1      36.822  30.137  27.222  1.00  0.00     0.014 A 
ATOM     33  C   UNL A   1      37.590  29.016  29.659  1.00  0.00     0.010 A 
ATOM     34  C   UNL A   1      38.120  29.644  27.392  1.00  0.00     0.010 A 
ATOM     35  C   UNL A   1      38.527  29.105  28.622  1.00  0.00    -0.014 A 
BRANCH  35  36
ATOM     36  C   UNL A   1      39.952  28.734  28.835  1.00  0.00     0.031 A 
ATOM     37  C   UNL A   1      40.891  29.712  29.497  1.00  0.00     0.074 A 
ATOM     38  C   UNL A   1      40.425  27.544  28.423  1.00  0.00     0.049 A 
ATOM     39  N   UNL A   1      42.189  29.634  29.660  1.00  0.00    -0.248 NA
ATOM     40  C   UNL A   1      40.295  30.950  30.019  1.00  0.00     0.031 C 
ATOM     41  C   UNL A   1      39.644  26.502  27.755  1.00  0.00     0.029 A 
ATOM     42  N   UNL A   1      41.688  27.010  28.509  1.00  0.00    -0.354 N 
ATOM     43  C   UNL A   1      42.570  30.837  30.241  1.00  0.00     0.074 A 
ATOM     44  C   UNL A   1      41.367  31.624  30.411  1.00  0.00     0.031 C 
ATOM     45  C   UNL A   1      40.439  25.443  27.519  1.00  0.00     0.029 A 
ATOM     46  C   UNL A   1      41.788  25.743  27.993  1.00  0.00     0.049 A 
ATOM     47  H   UNL A   1      42.450  27.493  28.903  1.00  0.00     0.167 HD
ATOM     48  C   UNL A   1      43.806  31.252  30.600  1.00  0.00     0.037 A 
ATOM     49  C   UNL A   1      42.844  24.912  27.914  1.00  0.00     0.037 A 
ATOM     50  C   UNL A   1      44.999  30.453  30.516  1.00  0.00     0.049 A 
ATOM     51  C   UNL A   1      44.183  25.348  28.435  1.00  0.00     0.074 A 
ATOM     52  C   UNL A   1      46.293  30.786  30.878  1.00  0.00     0.029 A 
ATOM     53  N   UNL A   1      45.033  29.144  30.067  1.00  0.00    -0.354 N 
ATOM     54  N   UNL A   1      44.531  26.501  28.950  1.00  0.00    -0.248 NA
ATOM     55  C   UNL A   1      45.275  24.364  28.364  1.00  0.00     0.031 C 
ATOM     56  C   UNL A   1      47.111  29.671  30.657  1.00  0.00     0.029 A 
ATOM     57  C   UNL A   1      46.321  28.646  30.164  1.00  0.00     0.049 A 
ATOM     58  H   UNL A   1      44.256  28.642  29.729  1.00  0.00     0.167 HD
ATOM     59  C   UNL A   1      45.877  26.380  29.272  1.00  0.00     0.074 A 
ATOM     60  C   UNL A   1      46.281  25.039  28.905  1.00  0.00     0.031 C 
ATOM     61  C   UNL A   1      46.703  27.305  29.817  1.00  0.00     0.037 A 
BRANCH  48  62
ATOM     62  C   UNL A   1      43.931  32.653  31.111  1.00  0.00     0.057 A 
ATOM     63  C   UNL A   1      43.907  32.944  32.480  1.00  0.00     0.134 A 
ATOM     64  C   UNL A   1      44.085  33.722  30.219  1.00  0.00     0.134 A 
ATOM     65  F   UNL A   1      43.743  31.963  33.380  1.00  0.00    -0.206 F 
ATOM     66  C   UNL A   1      44.017  34.255  32.945  1.00  0.00     0.040 A 
ATOM     67  C   UNL A   1      44.209  35.035  30.672  1.00  0.00     0.040 A 
ATOM     68  F   UNL A   1      44.113  33.505  28.895  1.00  0.00    -0.206 F 
ATOM     69  C   UNL A   1      44.171  35.304  32.039  1.00  0.00     0.006 A 
ENDBRANCH  48  62
BRANCH  49  70
ATOM     70  C   UNL A   1      42.672  23.557  27.345  1.00  0.00     0.057 A 
ATOM     71  C   UNL A   1      42.310  22.482  28.163  1.00  0.00     0.134 A 
ATOM     72  C   UNL A   1      42.868  23.307  25.984  1.00  0.00     0.134 A 
ATOM     73  F   UNL A   1      42.130  22.666  29.480  1.00  0.00    -0.206 F 
ATOM     74  C   UNL A   1      42.153  21.196  27.647  1.00  0.00     0.040 A 
ATOM     75  C   UNL A   1      42.705  22.027  25.452  1.00  0.00     0.040 A 
ATOM     76  F   UNL A   1      43.217  24.302  25.156  1.00  0.00    -0.206 F 
ATOM     77  C   UNL A   1      42.348  20.968  26.285  1.00  0.00     0.006 A 
ENDBRANCH  49  70
BRANCH  61  78
ATOM     78  C   UNL A   1      48.115  26.887  30.074  1.00  0.00     0.057 A 
ATOM     79  C   UNL A   1      49.126  27.123  29.137  1.00  0.00     0.134 A 
ATOM     80  C   UNL A   1      48.469  26.273  31.281  1.00  0.00     0.134 A 
ATOM     81  F   UNL A   1      48.842  27.700  27.959  1.00  0.00    -0.206 F 
ATOM     82  C   UNL A   1      50.448  26.755  29.389  1.00  0.00     0.040 A 
ATOM     83  C   UNL A   1      49.789  25.906  31.546  1.00  0.00     0.040 A 
ATOM     84  F   UNL A   1      47.540  26.019  32.214  1.00  0.00    -0.206 F 
ATOM     85  C   UNL A   1      50.782  26.146  30.599  1.00  0.00     0.006 A 
ENDBRANCH  61  78
ENDBRANCH  35  36
ENDBRANCH  27  30
ENDBRANCH  25  26
ENDBRANCH   1  25
TORSDOF 12
ENDMDL
