MODEL 1
REMARK VINA RESULT:     -11.6      0.000      0.000
REMARK SMILES Cc1cc(CS(=O)(=O)[C@@H](C)CC(=O)NCCCNC(=O)c2ccc(-c3c4nc(c(-c5c(F)cccc5F)c5ccc([nH]5)c(-c5c(F)cccc5F)c5nc(c(-c6c(F)cccc6F)c6ccc3[nH]6)C=C5)C=C4)cc2)c2ccccc2n1
REMARK SMILES IDX 15 1 14 2 12 3 13 4 11 6 9 7 10 8 6 9 7 10 8 11 5 12 4 13
REMARK SMILES IDX 1 14 2 15 3 16 81 17 80 18 75 19 79 20 76 21 78 22 77 23
REMARK SMILES IDX 16 24 17 25 18 26 19 27 20 29 21 30 22 31 74 32 23 33 73 34
REMARK SMILES IDX 24 35 25 36 26 37 67 38 27 39 72 40 66 41 68 42 28 43 71 44
REMARK SMILES IDX 65 45 64 46 29 48 55 49 38 50 54 51 39 52 42 53 53 54 69 55
REMARK SMILES IDX 40 56 41 57 52 59 70 60 43 61 30 62 31 63 36 64 32 65 33 66
REMARK SMILES IDX 35 67 37 68 34 69 56 70 57 71 62 72 58 73 59 74 61 75 63 76
REMARK SMILES IDX 60 77 44 78 45 79 50 80 46 81 47 82 49 83 51 84 48 85
REMARK H PARENT 14 5 18 28 68 47 42 58
REMARK Flexibility Score: inf
ROOT
ATOM      1  C   UNL A   1      36.021  21.423  25.378  1.00  0.00     0.117 C 
ENDROOT
BRANCH   1   2
ATOM      2  N   UNL A   1      35.075  20.348  25.544  1.00  0.00    -0.356 N 
ATOM      3  C   UNL A   1      33.794  20.284  25.085  1.00  0.00     0.221 C 
ATOM      4  O   UNL A   1      33.160  19.240  25.230  1.00  0.00    -0.275 OA
ATOM      5  H   UNL A   1      35.393  19.565  26.049  1.00  0.00     0.163 HD
BRANCH   3   6
ATOM      6  C   UNL A   1      33.174  21.499  24.424  1.00  0.00     0.119 C 
BRANCH   6   7
ATOM      7  C   UNL A   1      32.262  22.261  25.376  1.00  0.00     0.115 C 
ATOM      8  C   UNL A   1      31.081  22.889  24.626  1.00  0.00     0.025 C 
BRANCH   7   9
ATOM      9  S   UNL A   1      32.969  23.457  26.562  1.00  0.00     0.157 S 
ATOM     10  O   UNL A   1      33.699  22.640  27.523  1.00  0.00    -0.228 OA
ATOM     11  O   UNL A   1      31.857  24.250  27.065  1.00  0.00    -0.228 OA
BRANCH   9  12
ATOM     12  C   UNL A   1      34.172  24.678  25.977  1.00  0.00     0.173 C 
BRANCH  12  13
ATOM     13  C   UNL A   1      33.696  25.686  24.972  1.00  0.00    -0.022 A 
ATOM     14  C   UNL A   1      32.875  25.894  21.288  1.00  0.00     0.067 C 
ATOM     15  C   UNL A   1      33.221  26.265  22.696  1.00  0.00     0.038 A 
ATOM     16  C   UNL A   1      33.541  25.298  23.637  1.00  0.00     0.029 A 
ATOM     17  N   UNL A   1      33.139  27.577  23.003  1.00  0.00    -0.253 NA
ATOM     18  C   UNL A   1      33.194  27.953  24.287  1.00  0.00     0.071 A 
ATOM     19  C   UNL A   1      33.364  27.029  25.338  1.00  0.00     0.004 A 
ATOM     20  C   UNL A   1      33.074  29.305  24.579  1.00  0.00     0.029 A 
ATOM     21  C   UNL A   1      33.202  27.511  26.665  1.00  0.00     0.010 A 
ATOM     22  C   UNL A   1      32.994  29.775  25.889  1.00  0.00     0.002 A 
ATOM     23  C   UNL A   1      33.001  28.867  26.933  1.00  0.00     0.001 A 
ENDBRANCH  12  13
ENDBRANCH   9  12
ENDBRANCH   7   9
ENDBRANCH   6   7
ENDBRANCH   3   6
ENDBRANCH   1   2
BRANCH   1  24
ATOM     24  C   UNL A   1      37.328  20.976  24.754  1.00  0.00     0.042 C 
BRANCH  24  25
ATOM     25  C   UNL A   1      38.500  21.144  25.699  1.00  0.00     0.118 C 
BRANCH  25  26
ATOM     26  N   UNL A   1      39.393  19.987  25.691  1.00  0.00    -0.352 N 
ATOM     27  C   UNL A   1      40.735  19.891  25.993  1.00  0.00     0.251 C 
ATOM     28  H   UNL A   1      38.969  19.139  25.428  1.00  0.00     0.163 HD
ATOM     29  O   UNL A   1      41.343  18.858  25.764  1.00  0.00    -0.269 OA
BRANCH  27  30
ATOM     30  C   UNL A   1      41.425  21.066  26.567  1.00  0.00     0.039 A 
ATOM     31  C   UNL A   1      41.993  22.022  25.723  1.00  0.00     0.014 A 
ATOM     32  C   UNL A   1      41.441  21.248  27.949  1.00  0.00     0.014 A 
ATOM     33  C   UNL A   1      42.474  23.215  26.268  1.00  0.00     0.010 A 
ATOM     34  C   UNL A   1      41.776  22.483  28.468  1.00  0.00     0.010 A 
ATOM     35  C   UNL A   1      42.312  23.478  27.638  1.00  0.00    -0.014 A 
BRANCH  35  36
ATOM     36  C   UNL A   1      42.707  24.765  28.257  1.00  0.00     0.031 A 
ATOM     37  C   UNL A   1      41.659  25.821  28.485  1.00  0.00     0.074 A 
ATOM     38  C   UNL A   1      44.007  25.026  28.491  1.00  0.00     0.049 A 
ATOM     39  N   UNL A   1      41.802  27.069  28.844  1.00  0.00    -0.248 NA
ATOM     40  C   UNL A   1      40.262  25.436  28.210  1.00  0.00     0.031 C 
ATOM     41  C   UNL A   1      45.122  24.110  28.231  1.00  0.00     0.029 A 
ATOM     42  N   UNL A   1      44.614  26.150  28.990  1.00  0.00    -0.354 N 
ATOM     43  C   UNL A   1      40.529  27.622  28.790  1.00  0.00     0.074 A 
ATOM     44  C   UNL A   1      39.638  26.599  28.295  1.00  0.00     0.031 C 
ATOM     45  C   UNL A   1      46.270  24.695  28.609  1.00  0.00     0.029 A 
ATOM     46  C   UNL A   1      45.980  26.037  29.098  1.00  0.00     0.049 A 
ATOM     47  H   UNL A   1      44.119  26.961  29.247  1.00  0.00     0.167 HD
ATOM     48  C   UNL A   1      40.129  28.862  29.157  1.00  0.00     0.037 A 
ATOM     49  C   UNL A   1      46.889  26.923  29.542  1.00  0.00     0.037 A 
ATOM     50  C   UNL A   1      41.015  29.846  29.716  1.00  0.00     0.049 A 
ATOM     51  C   UNL A   1      46.415  28.272  30.009  1.00  0.00     0.074 A 
ATOM     52  C   UNL A   1      40.712  31.105  30.202  1.00  0.00     0.029 A 
ATOM     53  N   UNL A   1      42.381  29.668  29.877  1.00  0.00    -0.354 N 
ATOM     54  N   UNL A   1      45.198  28.762  30.015  1.00  0.00    -0.248 NA
ATOM     55  C   UNL A   1      47.435  29.187  30.536  1.00  0.00     0.031 C 
ATOM     56  C   UNL A   1      41.902  31.699  30.637  1.00  0.00     0.029 A 
ATOM     57  C   UNL A   1      42.938  30.796  30.454  1.00  0.00     0.049 A 
ATOM     58  H   UNL A   1      42.880  28.859  29.620  1.00  0.00     0.167 HD
ATOM     59  C   UNL A   1      45.302  30.030  30.569  1.00  0.00     0.074 A 
ATOM     60  C   UNL A   1      46.699  30.227  30.900  1.00  0.00     0.031 C 
ATOM     61  C   UNL A   1      44.331  30.952  30.785  1.00  0.00     0.037 A 
BRANCH  48  62
ATOM     62  C   UNL A   1      38.676  29.197  28.987  1.00  0.00     0.057 A 
ATOM     63  C   UNL A   1      37.766  29.109  30.051  1.00  0.00     0.134 A 
ATOM     64  C   UNL A   1      38.175  29.607  27.745  1.00  0.00     0.134 A 
ATOM     65  F   UNL A   1      38.175  28.705  31.263  1.00  0.00    -0.206 F 
ATOM     66  C   UNL A   1      36.407  29.377  29.877  1.00  0.00     0.040 A 
ATOM     67  C   UNL A   1      36.824  29.909  27.567  1.00  0.00     0.040 A 
ATOM     68  F   UNL A   1      38.989  29.718  26.684  1.00  0.00    -0.206 F 
ATOM     69  C   UNL A   1      35.934  29.785  28.632  1.00  0.00     0.006 A 
ENDBRANCH  48  62
BRANCH  49  70
ATOM     70  C   UNL A   1      48.325  26.548  29.617  1.00  0.00     0.057 A 
ATOM     71  C   UNL A   1      48.824  25.848  30.723  1.00  0.00     0.134 A 
ATOM     72  C   UNL A   1      49.225  26.865  28.595  1.00  0.00     0.134 A 
ATOM     73  F   UNL A   1      48.012  25.527  31.741  1.00  0.00    -0.206 F 
ATOM     74  C   UNL A   1      50.170  25.494  30.819  1.00  0.00     0.040 A 
ATOM     75  C   UNL A   1      50.571  26.496  28.668  1.00  0.00     0.040 A 
ATOM     76  F   UNL A   1      48.808  27.523  27.504  1.00  0.00    -0.206 F 
ATOM     77  C   UNL A   1      51.048  25.814  29.786  1.00  0.00     0.006 A 
ENDBRANCH  49  70
BRANCH  61  78
ATOM     78  C   UNL A   1      44.744  32.235  31.437  1.00  0.00     0.057 A 
ATOM     79  C   UNL A   1      44.763  32.381  32.828  1.00  0.00     0.134 A 
ATOM     80  C   UNL A   1      45.174  33.320  30.662  1.00  0.00     0.134 A 
ATOM     81  F   UNL A   1      44.351  31.381  33.623  1.00  0.00    -0.206 F 
ATOM     82  C   UNL A   1      45.179  33.569  33.428  1.00  0.00     0.040 A 
ATOM     83  C   UNL A   1      45.615  34.504  31.251  1.00  0.00     0.040 A 
ATOM     84  F   UNL A   1      45.188  33.238  29.323  1.00  0.00    -0.206 F 
ATOM     85  C   UNL A   1      45.614  34.633  32.638  1.00  0.00     0.006 A 
ENDBRANCH  61  78
ENDBRANCH  35  36
ENDBRANCH  27  30
ENDBRANCH  25  26
ENDBRANCH  24  25
ENDBRANCH   1  24
TORSDOF 14
ENDMDL
MODEL 2
REMARK VINA RESULT:     -11.5      4.348      8.296
REMARK SMILES Cc1cc(CS(=O)(=O)[C@@H](C)CC(=O)NCCCNC(=O)c2ccc(-c3c4nc(c(-c5c(F)cccc5F)c5ccc([nH]5)c(-c5c(F)cccc5F)c5nc(c(-c6c(F)cccc6F)c6ccc3[nH]6)C=C5)C=C4)cc2)c2ccccc2n1
REMARK SMILES IDX 15 1 14 2 12 3 13 4 11 6 9 7 10 8 6 9 7 10 8 11 5 12 4 13
REMARK SMILES IDX 1 14 2 15 3 16 81 17 80 18 75 19 79 20 76 21 78 22 77 23
REMARK SMILES IDX 16 24 17 25 18 26 19 27 20 29 21 30 22 31 74 32 23 33 73 34
REMARK SMILES IDX 24 35 25 36 26 37 67 38 27 39 72 40 66 41 68 42 28 43 71 44
REMARK SMILES IDX 65 45 64 46 29 48 55 49 38 50 54 51 39 52 42 53 53 54 69 55
REMARK SMILES IDX 40 56 41 57 52 59 70 60 43 61 30 62 31 63 36 64 32 65 33 66
REMARK SMILES IDX 35 67 37 68 34 69 56 70 57 71 62 72 58 73 59 74 61 75 63 76
REMARK SMILES IDX 60 77 44 78 45 79 50 80 46 81 47 82 49 83 51 84 48 85
REMARK H PARENT 14 5 18 28 68 47 42 58
REMARK Flexibility Score: inf
ROOT
ATOM      1  C   UNL A   1      30.810  30.473  25.169  1.00  0.00     0.117 C 
ENDROOT
BRANCH   1   2
ATOM      2  N   UNL A   1      30.427  30.404  23.781  1.00  0.00    -0.356 N 
ATOM      3  C   UNL A   1      30.496  29.330  22.948  1.00  0.00     0.221 C 
ATOM      4  O   UNL A   1      30.024  29.421  21.815  1.00  0.00    -0.275 OA
ATOM      5  H   UNL A   1      30.071  31.234  23.388  1.00  0.00     0.163 HD
BRANCH   3   6
ATOM      6  C   UNL A   1      31.163  28.054  23.424  1.00  0.00     0.119 C 
BRANCH   6   7
ATOM      7  C   UNL A   1      31.605  27.175  22.261  1.00  0.00     0.115 C 
ATOM      8  C   UNL A   1      30.623  26.019  22.039  1.00  0.00     0.025 C 
BRANCH   7   9
ATOM      9  S   UNL A   1      33.326  26.573  22.170  1.00  0.00     0.157 S 
ATOM     10  O   UNL A   1      34.137  27.778  22.067  1.00  0.00    -0.228 OA
ATOM     11  O   UNL A   1      33.379  25.632  21.060  1.00  0.00    -0.228 OA
BRANCH   9  12
ATOM     12  C   UNL A   1      34.021  25.661  23.572  1.00  0.00     0.173 C 
BRANCH  12  13
ATOM     13  C   UNL A   1      33.178  25.557  24.810  1.00  0.00    -0.022 A 
ATOM     14  C   UNL A   1      30.891  23.081  26.521  1.00  0.00     0.067 C 
ATOM     15  C   UNL A   1      31.575  24.350  26.119  1.00  0.00     0.038 A 
ATOM     16  C   UNL A   1      32.444  24.389  25.040  1.00  0.00     0.029 A 
ATOM     17  N   UNL A   1      31.343  25.425  26.903  1.00  0.00    -0.253 NA
ATOM     18  C   UNL A   1      32.100  26.518  26.753  1.00  0.00     0.071 A 
ATOM     19  C   UNL A   1      33.120  26.604  25.783  1.00  0.00     0.004 A 
ATOM     20  C   UNL A   1      31.865  27.599  27.594  1.00  0.00     0.029 A 
ATOM     21  C   UNL A   1      33.993  27.724  25.849  1.00  0.00     0.010 A 
ATOM     22  C   UNL A   1      32.682  28.727  27.596  1.00  0.00     0.002 A 
ATOM     23  C   UNL A   1      33.784  28.763  26.759  1.00  0.00     0.001 A 
ENDBRANCH  12  13
ENDBRANCH   9  12
ENDBRANCH   7   9
ENDBRANCH   6   7
ENDBRANCH   3   6
ENDBRANCH   1   2
BRANCH   1  24
ATOM     24  C   UNL A   1      30.865  31.891  25.703  1.00  0.00     0.042 C 
BRANCH  24  25
ATOM     25  C   UNL A   1      31.933  32.062  26.762  1.00  0.00     0.118 C 
BRANCH  25  26
ATOM     26  N   UNL A   1      32.044  33.444  27.225  1.00  0.00    -0.352 N 
ATOM     27  C   UNL A   1      32.997  34.050  28.015  1.00  0.00     0.251 C 
ATOM     28  H   UNL A   1      31.319  34.040  26.924  1.00  0.00     0.163 HD
ATOM     29  O   UNL A   1      32.820  35.185  28.428  1.00  0.00    -0.269 OA
BRANCH  27  30
ATOM     30  C   UNL A   1      34.215  33.293  28.374  1.00  0.00     0.039 A 
ATOM     31  C   UNL A   1      35.448  33.945  28.440  1.00  0.00     0.014 A 
ATOM     32  C   UNL A   1      34.112  31.945  28.714  1.00  0.00     0.014 A 
ATOM     33  C   UNL A   1      36.553  33.266  28.960  1.00  0.00     0.010 A 
ATOM     34  C   UNL A   1      35.162  31.326  29.365  1.00  0.00     0.010 A 
ATOM     35  C   UNL A   1      36.400  31.972  29.482  1.00  0.00    -0.014 A 
BRANCH  35  36
ATOM     36  C   UNL A   1      37.509  31.240  30.139  1.00  0.00     0.031 A 
ATOM     37  C   UNL A   1      37.806  31.508  31.590  1.00  0.00     0.074 A 
ATOM     38  C   UNL A   1      38.314  30.444  29.410  1.00  0.00     0.049 A 
ATOM     39  N   UNL A   1      38.822  31.122  32.315  1.00  0.00    -0.248 NA
ATOM     40  C   UNL A   1      36.860  32.384  32.307  1.00  0.00     0.031 C 
ATOM     41  C   UNL A   1      38.174  30.174  27.976  1.00  0.00     0.029 A 
ATOM     42  N   UNL A   1      39.422  29.724  29.774  1.00  0.00    -0.354 N 
ATOM     43  C   UNL A   1      38.661  31.744  33.547  1.00  0.00     0.074 A 
ATOM     44  C   UNL A   1      37.493  32.588  33.450  1.00  0.00     0.031 C 
ATOM     45  C   UNL A   1      39.136  29.318  27.593  1.00  0.00     0.029 A 
ATOM     46  C   UNL A   1      39.982  29.012  28.739  1.00  0.00     0.049 A 
ATOM     47  H   UNL A   1      39.784  29.718  30.689  1.00  0.00     0.167 HD
ATOM     48  C   UNL A   1      39.398  31.595  34.672  1.00  0.00     0.037 A 
ATOM     49  C   UNL A   1      41.058  28.204  28.726  1.00  0.00     0.037 A 
ATOM     50  C   UNL A   1      40.514  30.696  34.774  1.00  0.00     0.049 A 
ATOM     51  C   UNL A   1      41.822  28.001  30.005  1.00  0.00     0.074 A 
ATOM     52  C   UNL A   1      41.286  30.398  35.883  1.00  0.00     0.029 A 
ATOM     53  N   UNL A   1      41.006  29.936  33.723  1.00  0.00    -0.354 N 
ATOM     54  N   UNL A   1      41.622  28.544  31.182  1.00  0.00    -0.248 NA
ATOM     55  C   UNL A   1      42.957  27.070  29.957  1.00  0.00     0.031 C 
ATOM     56  C   UNL A   1      42.261  29.473  35.496  1.00  0.00     0.029 A 
ATOM     57  C   UNL A   1      42.074  29.169  34.156  1.00  0.00     0.049 A 
ATOM     58  H   UNL A   1      40.649  29.941  32.806  1.00  0.00     0.167 HD
ATOM     59  C   UNL A   1      42.585  28.001  32.020  1.00  0.00     0.074 A 
ATOM     60  C   UNL A   1      43.362  27.075  31.219  1.00  0.00     0.031 C 
ATOM     61  C   UNL A   1      42.814  28.246  33.335  1.00  0.00     0.037 A 
BRANCH  48  62
ATOM     62  C   UNL A   1      38.996  32.402  35.872  1.00  0.00     0.057 A 
ATOM     63  C   UNL A   1      39.423  33.725  36.053  1.00  0.00     0.134 A 
ATOM     64  C   UNL A   1      38.177  31.850  36.865  1.00  0.00     0.134 A 
ATOM     65  F   UNL A   1      40.224  34.310  35.149  1.00  0.00    -0.206 F 
ATOM     66  C   UNL A   1      39.083  34.457  37.193  1.00  0.00     0.040 A 
ATOM     67  C   UNL A   1      37.804  32.582  37.995  1.00  0.00     0.040 A 
ATOM     68  F   UNL A   1      37.728  30.590  36.757  1.00  0.00    -0.206 F 
ATOM     69  C   UNL A   1      38.267  33.886  38.165  1.00  0.00     0.006 A 
ENDBRANCH  48  62
BRANCH  49  70
ATOM     70  C   UNL A   1      41.442  27.490  27.482  1.00  0.00     0.057 A 
ATOM     71  C   UNL A   1      42.300  28.088  26.550  1.00  0.00     0.134 A 
ATOM     72  C   UNL A   1      40.975  26.203  27.195  1.00  0.00     0.134 A 
ATOM     73  F   UNL A   1      42.769  29.326  26.763  1.00  0.00    -0.206 F 
ATOM     74  C   UNL A   1      42.666  27.440  25.370  1.00  0.00     0.040 A 
ATOM     75  C   UNL A   1      41.352  25.533  26.028  1.00  0.00     0.040 A 
ATOM     76  F   UNL A   1      40.160  25.571  28.051  1.00  0.00    -0.206 F 
ATOM     77  C   UNL A   1      42.195  26.155  25.108  1.00  0.00     0.006 A 
ENDBRANCH  49  70
BRANCH  61  78
ATOM     78  C   UNL A   1      43.919  27.476  33.988  1.00  0.00     0.057 A 
ATOM     79  C   UNL A   1      43.691  26.242  34.607  1.00  0.00     0.134 A 
ATOM     80  C   UNL A   1      45.235  27.956  33.955  1.00  0.00     0.134 A 
ATOM     81  F   UNL A   1      42.450  25.738  34.682  1.00  0.00    -0.206 F 
ATOM     82  C   UNL A   1      44.732  25.518  35.186  1.00  0.00     0.040 A 
ATOM     83  C   UNL A   1      46.287  27.229  34.509  1.00  0.00     0.040 A 
ATOM     84  F   UNL A   1      45.518  29.129  33.368  1.00  0.00    -0.206 F 
ATOM     85  C   UNL A   1      46.037  26.007  35.131  1.00  0.00     0.006 A 
ENDBRANCH  61  78
ENDBRANCH  35  36
ENDBRANCH  27  30
ENDBRANCH  25  26
ENDBRANCH  24  25
ENDBRANCH   1  24
TORSDOF 14
ENDMDL
MODEL 3
REMARK VINA RESULT:     -11.5      0.685      6.379
REMARK SMILES Cc1cc(CS(=O)(=O)[C@@H](C)CC(=O)NCCCNC(=O)c2ccc(-c3c4nc(c(-c5c(F)cccc5F)c5ccc([nH]5)c(-c5c(F)cccc5F)c5nc(c(-c6c(F)cccc6F)c6ccc3[nH]6)C=C5)C=C4)cc2)c2ccccc2n1
REMARK SMILES IDX 15 1 14 2 12 3 13 4 11 6 9 7 10 8 6 9 7 10 8 11 5 12 4 13
REMARK SMILES IDX 1 14 2 15 3 16 81 17 80 18 75 19 79 20 76 21 78 22 77 23
REMARK SMILES IDX 16 24 17 25 18 26 19 27 20 29 21 30 22 31 74 32 23 33 73 34
REMARK SMILES IDX 24 35 25 36 26 37 67 38 27 39 72 40 66 41 68 42 28 43 71 44
REMARK SMILES IDX 65 45 64 46 29 48 55 49 38 50 54 51 39 52 42 53 53 54 69 55
REMARK SMILES IDX 40 56 41 57 52 59 70 60 43 61 30 62 31 63 36 64 32 65 33 66
REMARK SMILES IDX 35 67 37 68 34 69 56 70 57 71 62 72 58 73 59 74 61 75 63 76
REMARK SMILES IDX 60 77 44 78 45 79 50 80 46 81 47 82 49 83 51 84 48 85
REMARK H PARENT 14 5 18 28 68 47 42 58
REMARK Flexibility Score: inf
ROOT
ATOM      1  C   UNL A   1      36.445  20.851  25.113  1.00  0.00     0.117 C 
ENDROOT
BRANCH   1   2
ATOM      2  N   UNL A   1      35.367  19.894  25.124  1.00  0.00    -0.356 N 
ATOM      3  C   UNL A   1      34.080  20.082  24.721  1.00  0.00     0.221 C 
ATOM      4  O   UNL A   1      33.314  19.119  24.702  1.00  0.00    -0.275 OA
ATOM      5  H   UNL A   1      35.588  18.996  25.462  1.00  0.00     0.163 HD
BRANCH   3   6
ATOM      6  C   UNL A   1      33.614  21.469  24.323  1.00  0.00     0.119 C 
BRANCH   6   7
ATOM      7  C   UNL A   1      32.656  22.063  25.347  1.00  0.00     0.115 C 
ATOM      8  C   UNL A   1      31.395  22.611  24.669  1.00  0.00     0.025 C 
BRANCH   7   9
ATOM      9  S   UNL A   1      33.268  23.242  26.599  1.00  0.00     0.157 S 
ATOM     10  O   UNL A   1      34.234  22.484  27.383  1.00  0.00    -0.228 OA
ATOM     11  O   UNL A   1      32.097  23.757  27.294  1.00  0.00    -0.228 OA
BRANCH   9  12
ATOM     12  C   UNL A   1      34.163  24.721  26.059  1.00  0.00     0.173 C 
BRANCH  12  13
ATOM     13  C   UNL A   1      33.347  25.860  25.519  1.00  0.00    -0.022 A 
ATOM     14  C   UNL A   1      31.850  29.125  26.695  1.00  0.00     0.067 C 
ATOM     15  C   UNL A   1      32.135  27.891  25.897  1.00  0.00     0.038 A 
ATOM     16  C   UNL A   1      32.991  26.909  26.372  1.00  0.00     0.029 A 
ATOM     17  N   UNL A   1      31.564  27.828  24.675  1.00  0.00    -0.253 NA
ATOM     18  C   UNL A   1      31.964  26.883  23.816  1.00  0.00     0.071 A 
ATOM     19  C   UNL A   1      32.944  25.925  24.148  1.00  0.00     0.004 A 
ATOM     20  C   UNL A   1      31.385  26.859  22.553  1.00  0.00     0.029 A 
ATOM     21  C   UNL A   1      33.437  25.104  23.098  1.00  0.00     0.010 A 
ATOM     22  C   UNL A   1      31.826  25.993  21.553  1.00  0.00     0.002 A 
ATOM     23  C   UNL A   1      32.895  25.153  21.812  1.00  0.00     0.001 A 
ENDBRANCH  12  13
ENDBRANCH   9  12
ENDBRANCH   7   9
ENDBRANCH   6   7
ENDBRANCH   3   6
ENDBRANCH   1   2
BRANCH   1  24
ATOM     24  C   UNL A   1      37.780  20.242  24.731  1.00  0.00     0.042 C 
BRANCH  24  25
ATOM     25  C   UNL A   1      38.860  20.546  25.747  1.00  0.00     0.118 C 
BRANCH  25  26
ATOM     26  N   UNL A   1      39.873  19.495  25.816  1.00  0.00    -0.352 N 
ATOM     27  C   UNL A   1      41.218  19.567  26.110  1.00  0.00     0.251 C 
ATOM     28  H   UNL A   1      39.542  18.589  25.622  1.00  0.00     0.163 HD
ATOM     29  O   UNL A   1      41.933  18.590  25.952  1.00  0.00    -0.269 OA
BRANCH  27  30
ATOM     30  C   UNL A   1      41.779  20.849  26.586  1.00  0.00     0.039 A 
ATOM     31  C   UNL A   1      42.267  21.781  25.668  1.00  0.00     0.014 A 
ATOM     32  C   UNL A   1      41.751  21.149  27.947  1.00  0.00     0.014 A 
ATOM     33  C   UNL A   1      42.619  23.058  26.112  1.00  0.00     0.010 A 
ATOM     34  C   UNL A   1      41.953  22.452  28.360  1.00  0.00     0.010 A 
ATOM     35  C   UNL A   1      42.405  23.419  27.452  1.00  0.00    -0.014 A 
BRANCH  35  36
ATOM     36  C   UNL A   1      42.661  24.788  27.960  1.00  0.00     0.031 A 
ATOM     37  C   UNL A   1      44.052  25.156  28.403  1.00  0.00     0.074 A 
ATOM     38  C   UNL A   1      41.636  25.641  28.140  1.00  0.00     0.049 A 
ATOM     39  N   UNL A   1      44.468  26.221  29.037  1.00  0.00    -0.248 NA
ATOM     40  C   UNL A   1      45.111  24.160  28.154  1.00  0.00     0.031 C 
ATOM     41  C   UNL A   1      40.231  25.364  27.825  1.00  0.00     0.029 A 
ATOM     42  N   UNL A   1      41.614  26.915  28.646  1.00  0.00    -0.354 N 
ATOM     43  C   UNL A   1      45.813  25.999  29.300  1.00  0.00     0.074 A 
ATOM     44  C   UNL A   1      46.129  24.672  28.825  1.00  0.00     0.031 C 
ATOM     45  C   UNL A   1      39.493  26.450  28.109  1.00  0.00     0.029 A 
ATOM     46  C   UNL A   1      40.362  27.481  28.663  1.00  0.00     0.049 A 
ATOM     47  H   UNL A   1      42.420  27.381  28.968  1.00  0.00     0.167 HD
ATOM     48  C   UNL A   1      46.717  26.841  29.855  1.00  0.00     0.037 A 
ATOM     49  C   UNL A   1      39.967  28.697  29.080  1.00  0.00     0.037 A 
ATOM     50  C   UNL A   1      46.404  28.184  30.256  1.00  0.00     0.049 A 
ATOM     51  C   UNL A   1      41.000  29.642  29.630  1.00  0.00     0.074 A 
ATOM     52  C   UNL A   1      47.252  29.158  30.752  1.00  0.00     0.029 A 
ATOM     53  N   UNL A   1      45.138  28.747  30.189  1.00  0.00    -0.354 N 
ATOM     54  N   UNL A   1      42.284  29.445  29.815  1.00  0.00    -0.248 NA
ATOM     55  C   UNL A   1      40.533  30.978  30.023  1.00  0.00     0.031 C 
ATOM     56  C   UNL A   1      46.493  30.304  31.007  1.00  0.00     0.029 A 
ATOM     57  C   UNL A   1      45.180  30.055  30.637  1.00  0.00     0.049 A 
ATOM     58  H   UNL A   1      44.329  28.284  29.871  1.00  0.00     0.167 HD
ATOM     59  C   UNL A   1      42.782  30.637  30.319  1.00  0.00     0.074 A 
ATOM     60  C   UNL A   1      41.665  31.557  30.398  1.00  0.00     0.031 C 
ATOM     61  C   UNL A   1      44.050  30.948  30.688  1.00  0.00     0.037 A 
BRANCH  48  62
ATOM     62  C   UNL A   1      48.119  26.333  30.026  1.00  0.00     0.057 A 
ATOM     63  C   UNL A   1      48.547  25.729  31.216  1.00  0.00     0.134 A 
ATOM     64  C   UNL A   1      49.056  26.453  28.992  1.00  0.00     0.134 A 
ATOM     65  F   UNL A   1      47.706  25.598  32.253  1.00  0.00    -0.206 F 
ATOM     66  C   UNL A   1      49.865  25.299  31.387  1.00  0.00     0.040 A 
ATOM     67  C   UNL A   1      50.368  25.999  29.140  1.00  0.00     0.040 A 
ATOM     68  F   UNL A   1      48.714  27.018  27.824  1.00  0.00    -0.206 F 
ATOM     69  C   UNL A   1      50.778  25.429  30.344  1.00  0.00     0.006 A 
ENDBRANCH  48  62
BRANCH  49  70
ATOM     70  C   UNL A   1      38.546  29.109  28.946  1.00  0.00     0.057 A 
ATOM     71  C   UNL A   1      37.670  29.023  30.035  1.00  0.00     0.134 A 
ATOM     72  C   UNL A   1      38.031  29.604  27.743  1.00  0.00     0.134 A 
ATOM     73  F   UNL A   1      38.102  28.544  31.211  1.00  0.00    -0.206 F 
ATOM     74  C   UNL A   1      36.330  29.395  29.928  1.00  0.00     0.040 A 
ATOM     75  C   UNL A   1      36.697  30.002  27.628  1.00  0.00     0.040 A 
ATOM     76  F   UNL A   1      38.820  29.723  26.666  1.00  0.00    -0.206 F 
ATOM     77  C   UNL A   1      35.840  29.891  28.722  1.00  0.00     0.006 A 
ENDBRANCH  49  70
BRANCH  61  78
ATOM     78  C   UNL A   1      44.296  32.343  31.172  1.00  0.00     0.057 A 
ATOM     79  C   UNL A   1      44.597  33.386  30.290  1.00  0.00     0.134 A 
ATOM     80  C   UNL A   1      44.182  32.652  32.533  1.00  0.00     0.134 A 
ATOM     81  F   UNL A   1      44.732  33.149  28.976  1.00  0.00    -0.206 F 
ATOM     82  C   UNL A   1      44.794  34.689  30.747  1.00  0.00     0.040 A 
ATOM     83  C   UNL A   1      44.352  33.956  32.999  1.00  0.00     0.040 A 
ATOM     84  F   UNL A   1      43.886  31.697  33.428  1.00  0.00    -0.206 F 
ATOM     85  C   UNL A   1      44.664  34.978  32.105  1.00  0.00     0.006 A 
ENDBRANCH  61  78
ENDBRANCH  35  36
ENDBRANCH  27  30
ENDBRANCH  25  26
ENDBRANCH  24  25
ENDBRANCH   1  24
TORSDOF 14
ENDMDL
