MODEL 1
REMARK VINA RESULT:     -11.9      0.000      0.000
REMARK SMILES COc1cc(-c2nnc(S)n2-c2ccc(C(=O)NCCCNC(=O)c3ccc(-c4c5nc(c(-c6c(F)cccc6F)c6ccc([nH]6)c(-c6c(F)cccc6F)c6nc(c(-c7c(F)cccc7F)c7ccc4[nH]7)C=C6)C=C5)cc3)cc2)cc(OC)c1OC
REMARK SMILES IDX 19 1 18 2 16 3 17 4 15 6 12 7 13 8 80 9 14 10 79 11 11 12
REMARK SMILES IDX 6 13 7 14 8 15 9 16 5 17 3 18 4 19 85 20 82 21 81 22 2 23
REMARK SMILES IDX 1 24 86 25 87 26 83 27 84 28 10 29 20 31 21 32 22 33 23 34
REMARK SMILES IDX 24 36 25 37 26 38 78 39 27 40 77 41 28 42 29 43 30 44 71 45
REMARK SMILES IDX 31 46 76 47 70 48 72 49 32 50 75 51 69 52 68 53 33 55 59 56
REMARK SMILES IDX 42 57 58 58 43 59 46 60 57 61 73 62 44 63 45 64 56 66 74 67
REMARK SMILES IDX 47 68 34 69 35 70 40 71 36 72 37 73 39 74 41 75 38 76 60 77
REMARK SMILES IDX 61 78 66 79 62 80 63 81 65 82 67 83 64 84 48 85 49 86 54 87
REMARK SMILES IDX 50 88 51 89 53 90 55 91 52 92
REMARK H PARENT 18 5 10 30 22 35 72 54 46 65
REMARK Flexibility Score: inf
ROOT
ATOM      1  C   UNL A   1      40.196  20.636  26.860  1.00  0.00     0.118 C 
ENDROOT
BRANCH   1   2
ATOM      2  N   UNL A   1      39.852  22.017  26.544  1.00  0.00    -0.352 N 
ATOM      3  C   UNL A   1      38.680  22.591  26.110  1.00  0.00     0.251 C 
ATOM      4  O   UNL A   1      38.637  23.816  26.007  1.00  0.00    -0.269 OA
ATOM      5  H   UNL A   1      40.594  22.654  26.661  1.00  0.00     0.163 HD
BRANCH   3   6
ATOM      6  C   UNL A   1      37.457  21.795  25.802  1.00  0.00     0.039 A 
ATOM      7  C   UNL A   1      35.204  20.315  25.064  1.00  0.00     0.050 A 
ATOM      8  C   UNL A   1      36.460  19.923  24.596  1.00  0.00     0.027 A 
ATOM      9  C   UNL A   1      35.069  21.387  25.940  1.00  0.00     0.027 A 
ATOM     10  C   UNL A   1      37.583  20.680  24.955  1.00  0.00     0.016 A 
ATOM     11  C   UNL A   1      36.201  22.087  26.335  1.00  0.00     0.016 A 
BRANCH   7  12
ATOM     12  N   UNL A   1      34.030  19.633  24.682  1.00  0.00    -0.270 N 
ATOM     13  C   UNL A   1      32.749  20.178  24.602  1.00  0.00     0.169 A 
ATOM     14  N   UNL A   1      31.883  19.195  24.445  1.00  0.00    -0.129 NA
ATOM     15  N   UNL A   1      32.580  18.006  24.385  1.00  0.00    -0.123 NA
ATOM     16  C   UNL A   1      33.856  18.277  24.537  1.00  0.00     0.193 A 
BRANCH  13  17
ATOM     17  C   UNL A   1      32.450  21.614  24.652  1.00  0.00     0.027 A 
ATOM     18  C   UNL A   1      32.305  23.793  23.577  1.00  0.00     0.165 A 
ATOM     19  C   UNL A   1      32.784  22.469  23.597  1.00  0.00     0.062 A 
ATOM     20  C   UNL A   1      31.480  24.286  24.609  1.00  0.00     0.203 A 
ATOM     21  C   UNL A   1      31.228  23.450  25.714  1.00  0.00     0.165 A 
ATOM     22  C   UNL A   1      31.725  22.138  25.726  1.00  0.00     0.062 A 
BRANCH  18  23
ATOM     23  O   UNL A   1      32.513  24.503  22.420  1.00  0.00    -0.493 OA
ATOM     24  C   UNL A   1      33.556  25.471  22.564  1.00  0.00     0.278 C 
ENDBRANCH  18  23
BRANCH  20  25
ATOM     25  O   UNL A   1      30.792  25.468  24.574  1.00  0.00    -0.490 OA
ATOM     26  C   UNL A   1      31.251  26.580  25.320  1.00  0.00     0.278 C 
ENDBRANCH  20  25
BRANCH  21  27
ATOM     27  O   UNL A   1      30.486  23.712  26.838  1.00  0.00    -0.493 OA
ATOM     28  C   UNL A   1      29.501  22.782  27.257  1.00  0.00     0.278 C 
ENDBRANCH  21  27
ENDBRANCH  13  17
BRANCH  16  29
ATOM     29  S   UNL A   1      35.104  17.086  24.724  1.00  0.00    -0.103 SA
ATOM     30  H   UNL A   1      35.461  16.607  23.503  1.00  0.00     0.111 HD
ENDBRANCH  16  29
ENDBRANCH   7  12
ENDBRANCH   3   6
ENDBRANCH   1   2
BRANCH   1  31
ATOM     31  C   UNL A   1      41.226  20.058  25.876  1.00  0.00     0.042 C 
BRANCH  31  32
ATOM     32  C   UNL A   1      42.539  19.709  26.547  1.00  0.00     0.118 C 
BRANCH  32  33
ATOM     33  N   UNL A   1      43.633  19.574  25.584  1.00  0.00    -0.352 N 
ATOM     34  C   UNL A   1      44.279  20.565  24.867  1.00  0.00     0.251 C 
ATOM     35  H   UNL A   1      43.950  18.657  25.424  1.00  0.00     0.163 HD
ATOM     36  O   UNL A   1      44.918  20.303  23.865  1.00  0.00    -0.269 OA
BRANCH  34  37
ATOM     37  C   UNL A   1      44.170  21.954  25.345  1.00  0.00     0.039 A 
ATOM     38  C   UNL A   1      43.238  22.844  24.805  1.00  0.00     0.014 A 
ATOM     39  C   UNL A   1      44.997  22.336  26.394  1.00  0.00     0.014 A 
ATOM     40  C   UNL A   1      43.096  24.098  25.394  1.00  0.00     0.010 A 
ATOM     41  C   UNL A   1      44.706  23.469  27.098  1.00  0.00     0.010 A 
ATOM     42  C   UNL A   1      43.823  24.393  26.557  1.00  0.00    -0.014 A 
BRANCH  42  43
ATOM     43  C   UNL A   1      43.624  25.637  27.286  1.00  0.00     0.031 A 
ATOM     44  C   UNL A   1      44.593  26.718  26.960  1.00  0.00     0.074 A 
ATOM     45  C   UNL A   1      42.504  25.873  28.004  1.00  0.00     0.049 A 
ATOM     46  N   UNL A   1      45.463  27.263  27.743  1.00  0.00    -0.248 NA
ATOM     47  C   UNL A   1      44.692  27.163  25.559  1.00  0.00     0.031 C 
ATOM     48  C   UNL A   1      41.307  25.033  28.151  1.00  0.00     0.029 A 
ATOM     49  N   UNL A   1      42.149  27.000  28.675  1.00  0.00    -0.354 N 
ATOM     50  C   UNL A   1      46.081  28.261  26.995  1.00  0.00     0.074 A 
ATOM     51  C   UNL A   1      45.700  28.036  25.625  1.00  0.00     0.031 C 
ATOM     52  C   UNL A   1      40.288  25.772  28.641  1.00  0.00     0.029 A 
ATOM     53  C   UNL A   1      40.803  27.074  29.014  1.00  0.00     0.049 A 
ATOM     54  H   UNL A   1      42.794  27.706  28.904  1.00  0.00     0.167 HD
ATOM     55  C   UNL A   1      46.665  29.336  27.594  1.00  0.00     0.037 A 
ATOM     56  C   UNL A   1      40.165  28.152  29.531  1.00  0.00     0.037 A 
ATOM     57  C   UNL A   1      46.892  29.097  28.997  1.00  0.00     0.049 A 
ATOM     58  C   UNL A   1      41.211  29.043  30.096  1.00  0.00     0.074 A 
ATOM     59  C   UNL A   1      47.591  28.140  29.709  1.00  0.00     0.029 A 
ATOM     60  N   UNL A   1      46.023  29.663  29.899  1.00  0.00    -0.354 N 
ATOM     61  N   UNL A   1      41.934  28.740  31.140  1.00  0.00    -0.248 NA
ATOM     62  C   UNL A   1      41.781  30.049  29.212  1.00  0.00     0.031 C 
ATOM     63  C   UNL A   1      46.751  27.826  30.818  1.00  0.00     0.029 A 
ATOM     64  C   UNL A   1      45.639  28.666  30.761  1.00  0.00     0.049 A 
ATOM     65  H   UNL A   1      45.734  30.603  29.922  1.00  0.00     0.167 HD
ATOM     66  C   UNL A   1      43.211  29.179  30.826  1.00  0.00     0.074 A 
ATOM     67  C   UNL A   1      43.040  30.046  29.660  1.00  0.00     0.031 C 
ATOM     68  C   UNL A   1      44.320  28.573  31.344  1.00  0.00     0.037 A 
BRANCH  55  69
ATOM     69  C   UNL A   1      46.703  30.718  26.995  1.00  0.00     0.057 A 
ATOM     70  C   UNL A   1      47.909  31.441  26.991  1.00  0.00     0.134 A 
ATOM     71  C   UNL A   1      45.553  31.469  26.674  1.00  0.00     0.134 A 
ATOM     72  F   UNL A   1      49.069  30.846  27.309  1.00  0.00    -0.206 F 
ATOM     73  C   UNL A   1      47.956  32.818  26.738  1.00  0.00     0.040 A 
ATOM     74  C   UNL A   1      45.597  32.831  26.367  1.00  0.00     0.040 A 
ATOM     75  F   UNL A   1      44.320  30.954  26.741  1.00  0.00    -0.206 F 
ATOM     76  C   UNL A   1      46.798  33.518  26.427  1.00  0.00     0.006 A 
ENDBRANCH  55  69
BRANCH  56  77
ATOM     77  C   UNL A   1      38.772  28.602  29.310  1.00  0.00     0.057 A 
ATOM     78  C   UNL A   1      37.875  28.718  30.382  1.00  0.00     0.134 A 
ATOM     79  C   UNL A   1      38.366  29.195  28.102  1.00  0.00     0.134 A 
ATOM     80  F   UNL A   1      38.184  28.214  31.585  1.00  0.00    -0.206 F 
ATOM     81  C   UNL A   1      36.664  29.415  30.271  1.00  0.00     0.040 A 
ATOM     82  C   UNL A   1      37.157  29.888  27.975  1.00  0.00     0.040 A 
ATOM     83  F   UNL A   1      39.168  29.203  27.027  1.00  0.00    -0.206 F 
ATOM     84  C   UNL A   1      36.309  30.015  29.067  1.00  0.00     0.006 A 
ENDBRANCH  56  77
BRANCH  68  85
ATOM     85  C   UNL A   1      44.131  27.547  32.432  1.00  0.00     0.057 A 
ATOM     86  C   UNL A   1      44.068  26.162  32.210  1.00  0.00     0.134 A 
ATOM     87  C   UNL A   1      44.181  27.963  33.766  1.00  0.00     0.134 A 
ATOM     88  F   UNL A   1      44.120  25.653  30.974  1.00  0.00    -0.206 F 
ATOM     89  C   UNL A   1      44.017  25.241  33.262  1.00  0.00     0.040 A 
ATOM     90  C   UNL A   1      44.164  27.053  34.827  1.00  0.00     0.040 A 
ATOM     91  F   UNL A   1      44.299  29.267  34.063  1.00  0.00    -0.206 F 
ATOM     92  C   UNL A   1      44.072  25.686  34.577  1.00  0.00     0.006 A 
ENDBRANCH  68  85
ENDBRANCH  42  43
ENDBRANCH  34  37
ENDBRANCH  32  33
ENDBRANCH  31  32
ENDBRANCH   1  31
TORSDOF 16
ENDMDL
MODEL 2
REMARK VINA RESULT:     -11.8      2.889      7.848
REMARK SMILES COc1cc(-c2nnc(S)n2-c2ccc(C(=O)NCCCNC(=O)c3ccc(-c4c5nc(c(-c6c(F)cccc6F)c6ccc([nH]6)c(-c6c(F)cccc6F)c6nc(c(-c7c(F)cccc7F)c7ccc4[nH]7)C=C6)C=C5)cc3)cc2)cc(OC)c1OC
REMARK SMILES IDX 19 1 18 2 16 3 17 4 15 6 12 7 13 8 80 9 14 10 79 11 11 12
REMARK SMILES IDX 6 13 7 14 8 15 9 16 5 17 3 18 4 19 85 20 82 21 81 22 2 23
REMARK SMILES IDX 1 24 86 25 87 26 83 27 84 28 10 29 20 31 21 32 22 33 23 34
REMARK SMILES IDX 24 36 25 37 26 38 78 39 27 40 77 41 28 42 29 43 30 44 71 45
REMARK SMILES IDX 31 46 76 47 70 48 72 49 32 50 75 51 69 52 68 53 33 55 59 56
REMARK SMILES IDX 42 57 58 58 43 59 46 60 57 61 73 62 44 63 45 64 56 66 74 67
REMARK SMILES IDX 47 68 34 69 35 70 40 71 36 72 37 73 39 74 41 75 38 76 60 77
REMARK SMILES IDX 61 78 66 79 62 80 63 81 65 82 67 83 64 84 48 85 49 86 54 87
REMARK SMILES IDX 50 88 51 89 53 90 55 91 52 92
REMARK H PARENT 18 5 10 30 22 35 72 54 46 65
REMARK Flexibility Score: inf
ROOT
ATOM      1  C   UNL A   1      33.290  27.584  26.149  1.00  0.00     0.118 C 
ENDROOT
BRANCH   1   2
ATOM      2  N   UNL A   1      32.170  26.686  26.400  1.00  0.00    -0.352 N 
ATOM      3  C   UNL A   1      32.090  25.313  26.439  1.00  0.00     0.251 C 
ATOM      4  O   UNL A   1      31.019  24.804  26.770  1.00  0.00    -0.269 OA
ATOM      5  H   UNL A   1      31.316  27.145  26.570  1.00  0.00     0.163 HD
BRANCH   3   6
ATOM      6  C   UNL A   1      33.251  24.428  26.140  1.00  0.00     0.039 A 
ATOM      7  C   UNL A   1      35.489  22.805  25.729  1.00  0.00     0.050 A 
ATOM      8  C   UNL A   1      34.719  22.625  26.880  1.00  0.00     0.027 A 
ATOM      9  C   UNL A   1      35.122  23.733  24.760  1.00  0.00     0.027 A 
ATOM     10  C   UNL A   1      33.609  23.454  27.088  1.00  0.00     0.016 A 
ATOM     11  C   UNL A   1      33.982  24.502  24.953  1.00  0.00     0.016 A 
BRANCH   7  12
ATOM     12  N   UNL A   1      36.656  22.048  25.498  1.00  0.00    -0.270 N 
ATOM     13  C   UNL A   1      36.712  20.681  25.226  1.00  0.00     0.169 A 
ATOM     14  N   UNL A   1      37.969  20.288  25.303  1.00  0.00    -0.129 NA
ATOM     15  N   UNL A   1      38.752  21.386  25.590  1.00  0.00    -0.123 NA
ATOM     16  C   UNL A   1      37.960  22.427  25.713  1.00  0.00     0.193 A 
BRANCH  13  17
ATOM     17  C   UNL A   1      35.551  19.853  24.878  1.00  0.00     0.027 A 
ATOM     18  C   UNL A   1      34.546  17.680  24.440  1.00  0.00     0.165 A 
ATOM     19  C   UNL A   1      35.685  18.498  24.565  1.00  0.00     0.062 A 
ATOM     20  C   UNL A   1      33.249  18.203  24.631  1.00  0.00     0.203 A 
ATOM     21  C   UNL A   1      33.118  19.587  24.851  1.00  0.00     0.165 A 
ATOM     22  C   UNL A   1      34.263  20.391  24.958  1.00  0.00     0.062 A 
BRANCH  18  23
ATOM     23  O   UNL A   1      34.768  16.330  24.324  1.00  0.00    -0.493 OA
ATOM     24  C   UNL A   1      35.582  15.827  25.386  1.00  0.00     0.278 C 
ENDBRANCH  18  23
BRANCH  20  25
ATOM     25  O   UNL A   1      32.107  17.459  24.748  1.00  0.00    -0.490 OA
ATOM     26  C   UNL A   1      32.015  16.452  25.740  1.00  0.00     0.278 C 
ENDBRANCH  20  25
BRANCH  21  27
ATOM     27  O   UNL A   1      31.974  20.323  25.037  1.00  0.00    -0.493 OA
ATOM     28  C   UNL A   1      31.835  21.574  24.384  1.00  0.00     0.278 C 
ENDBRANCH  21  27
ENDBRANCH  13  17
BRANCH  16  29
ATOM     29  S   UNL A   1      38.465  23.995  26.260  1.00  0.00    -0.103 SA
ATOM     30  H   UNL A   1      38.295  24.900  25.260  1.00  0.00     0.111 HD
ENDBRANCH  16  29
ENDBRANCH   7  12
ENDBRANCH   3   6
ENDBRANCH   1   2
BRANCH   1  31
ATOM     31  C   UNL A   1      33.343  28.738  27.164  1.00  0.00     0.042 C 
BRANCH  31  32
ATOM     32  C   UNL A   1      34.513  29.671  26.923  1.00  0.00     0.118 C 
BRANCH  32  33
ATOM     33  N   UNL A   1      34.330  30.967  27.579  1.00  0.00    -0.352 N 
ATOM     34  C   UNL A   1      34.964  31.461  28.706  1.00  0.00     0.251 C 
ATOM     35  H   UNL A   1      33.669  31.565  27.164  1.00  0.00     0.163 HD
ATOM     36  O   UNL A   1      34.489  32.384  29.341  1.00  0.00    -0.269 OA
BRANCH  34  37
ATOM     37  C   UNL A   1      36.230  30.836  29.123  1.00  0.00     0.039 A 
ATOM     38  C   UNL A   1      36.258  29.599  29.770  1.00  0.00     0.014 A 
ATOM     39  C   UNL A   1      37.407  31.501  28.803  1.00  0.00     0.014 A 
ATOM     40  C   UNL A   1      37.493  29.002  30.015  1.00  0.00     0.010 A 
ATOM     41  C   UNL A   1      38.592  30.823  28.845  1.00  0.00     0.010 A 
ATOM     42  C   UNL A   1      38.657  29.617  29.529  1.00  0.00    -0.014 A 
BRANCH  42  43
ATOM     43  C   UNL A   1      39.961  28.981  29.645  1.00  0.00     0.031 A 
ATOM     44  C   UNL A   1      40.480  28.863  31.035  1.00  0.00     0.074 A 
ATOM     45  C   UNL A   1      40.532  28.327  28.610  1.00  0.00     0.049 A 
ATOM     46  N   UNL A   1      41.531  29.419  31.536  1.00  0.00    -0.248 NA
ATOM     47  C   UNL A   1      39.663  28.135  32.022  1.00  0.00     0.031 C 
ATOM     48  C   UNL A   1      39.991  28.072  27.268  1.00  0.00     0.029 A 
ATOM     49  N   UNL A   1      41.700  27.634  28.586  1.00  0.00    -0.354 N 
ATOM     50  C   UNL A   1      41.626  28.952  32.844  1.00  0.00     0.074 A 
ATOM     51  C   UNL A   1      40.368  28.319  33.141  1.00  0.00     0.031 C 
ATOM     52  C   UNL A   1      40.701  27.091  26.668  1.00  0.00     0.029 A 
ATOM     53  C   UNL A   1      41.848  26.782  27.498  1.00  0.00     0.049 A 
ATOM     54  H   UNL A   1      42.388  27.729  29.284  1.00  0.00     0.167 HD
ATOM     55  C   UNL A   1      42.820  28.915  33.499  1.00  0.00     0.037 A 
ATOM     56  C   UNL A   1      42.832  25.866  27.325  1.00  0.00     0.037 A 
ATOM     57  C   UNL A   1      43.803  29.742  32.845  1.00  0.00     0.049 A 
ATOM     58  C   UNL A   1      43.944  26.249  28.233  1.00  0.00     0.074 A 
ATOM     59  C   UNL A   1      43.865  31.082  32.512  1.00  0.00     0.029 A 
ATOM     60  N   UNL A   1      44.750  29.125  32.062  1.00  0.00    -0.354 N 
ATOM     61  N   UNL A   1      44.666  27.325  28.078  1.00  0.00    -0.248 NA
ATOM     62  C   UNL A   1      43.931  25.693  29.578  1.00  0.00     0.031 C 
ATOM     63  C   UNL A   1      44.442  31.106  31.208  1.00  0.00     0.029 A 
ATOM     64  C   UNL A   1      44.774  29.796  30.864  1.00  0.00     0.049 A 
ATOM     65  H   UNL A   1      45.304  28.352  32.313  1.00  0.00     0.167 HD
ATOM     66  C   UNL A   1      44.842  27.821  29.361  1.00  0.00     0.074 A 
ATOM     67  C   UNL A   1      44.433  26.734  30.250  1.00  0.00     0.031 C 
ATOM     68  C   UNL A   1      45.014  29.156  29.591  1.00  0.00     0.037 A 
BRANCH  55  69
ATOM     69  C   UNL A   1      43.195  27.864  34.512  1.00  0.00     0.057 A 
ATOM     70  C   UNL A   1      43.480  28.244  35.834  1.00  0.00     0.134 A 
ATOM     71  C   UNL A   1      43.551  26.541  34.178  1.00  0.00     0.134 A 
ATOM     72  F   UNL A   1      43.215  29.487  36.265  1.00  0.00    -0.206 F 
ATOM     73  C   UNL A   1      44.120  27.388  36.738  1.00  0.00     0.040 A 
ATOM     74  C   UNL A   1      44.141  25.661  35.088  1.00  0.00     0.040 A 
ATOM     75  F   UNL A   1      43.446  26.064  32.932  1.00  0.00    -0.206 F 
ATOM     76  C   UNL A   1      44.455  26.092  36.366  1.00  0.00     0.006 A 
ENDBRANCH  55  69
BRANCH  56  77
ATOM     77  C   UNL A   1      42.762  24.541  26.668  1.00  0.00     0.057 A 
ATOM     78  C   UNL A   1      43.499  24.275  25.505  1.00  0.00     0.134 A 
ATOM     79  C   UNL A   1      42.204  23.422  27.310  1.00  0.00     0.134 A 
ATOM     80  F   UNL A   1      44.099  25.272  24.838  1.00  0.00    -0.206 F 
ATOM     81  C   UNL A   1      43.700  22.973  25.029  1.00  0.00     0.040 A 
ATOM     82  C   UNL A   1      42.390  22.117  26.842  1.00  0.00     0.040 A 
ATOM     83  F   UNL A   1      41.532  23.546  28.465  1.00  0.00    -0.206 F 
ATOM     84  C   UNL A   1      43.157  21.887  25.707  1.00  0.00     0.006 A 
ENDBRANCH  56  77
BRANCH  68  85
ATOM     85  C   UNL A   1      45.221  30.064  28.406  1.00  0.00     0.057 A 
ATOM     86  C   UNL A   1      44.184  30.714  27.716  1.00  0.00     0.134 A 
ATOM     87  C   UNL A   1      46.526  30.426  28.053  1.00  0.00     0.134 A 
ATOM     88  F   UNL A   1      42.903  30.519  28.045  1.00  0.00    -0.206 F 
ATOM     89  C   UNL A   1      44.434  31.644  26.701  1.00  0.00     0.040 A 
ATOM     90  C   UNL A   1      46.789  31.378  27.065  1.00  0.00     0.040 A 
ATOM     91  F   UNL A   1      47.573  29.894  28.704  1.00  0.00    -0.206 F 
ATOM     92  C   UNL A   1      45.741  31.984  26.377  1.00  0.00     0.006 A 
ENDBRANCH  68  85
ENDBRANCH  42  43
ENDBRANCH  34  37
ENDBRANCH  32  33
ENDBRANCH  31  32
ENDBRANCH   1  31
TORSDOF 16
ENDMDL
MODEL 3
REMARK VINA RESULT:     -11.8      5.450     10.458
REMARK SMILES COc1cc(-c2nnc(S)n2-c2ccc(C(=O)NCCCNC(=O)c3ccc(-c4c5nc(c(-c6c(F)cccc6F)c6ccc([nH]6)c(-c6c(F)cccc6F)c6nc(c(-c7c(F)cccc7F)c7ccc4[nH]7)C=C6)C=C5)cc3)cc2)cc(OC)c1OC
REMARK SMILES IDX 19 1 18 2 16 3 17 4 15 6 12 7 13 8 80 9 14 10 79 11 11 12
REMARK SMILES IDX 6 13 7 14 8 15 9 16 5 17 3 18 4 19 85 20 82 21 81 22 2 23
REMARK SMILES IDX 1 24 86 25 87 26 83 27 84 28 10 29 20 31 21 32 22 33 23 34
REMARK SMILES IDX 24 36 25 37 26 38 78 39 27 40 77 41 28 42 29 43 30 44 71 45
REMARK SMILES IDX 31 46 76 47 70 48 72 49 32 50 75 51 69 52 68 53 33 55 59 56
REMARK SMILES IDX 42 57 58 58 43 59 46 60 57 61 73 62 44 63 45 64 56 66 74 67
REMARK SMILES IDX 47 68 34 69 35 70 40 71 36 72 37 73 39 74 41 75 38 76 60 77
REMARK SMILES IDX 61 78 66 79 62 80 63 81 65 82 67 83 64 84 48 85 49 86 54 87
REMARK SMILES IDX 50 88 51 89 53 90 55 91 52 92
REMARK H PARENT 18 5 10 30 22 35 72 54 46 65
REMARK Flexibility Score: inf
ROOT
ATOM      1  C   UNL A   1      38.737  31.465  33.308  1.00  0.00     0.118 C 
ENDROOT
BRANCH   1   2
ATOM      2  N   UNL A   1      38.295  31.985  34.596  1.00  0.00    -0.352 N 
ATOM      3  C   UNL A   1      37.236  32.793  34.941  1.00  0.00     0.251 C 
ATOM      4  O   UNL A   1      37.036  33.008  36.136  1.00  0.00    -0.269 OA
ATOM      5  H   UNL A   1      38.856  31.709  35.356  1.00  0.00     0.163 HD
BRANCH   3   6
ATOM      6  C   UNL A   1      36.306  33.379  33.934  1.00  0.00     0.039 A 
ATOM      7  C   UNL A   1      34.596  34.348  31.946  1.00  0.00     0.050 A 
ATOM      8  C   UNL A   1      34.447  33.032  32.392  1.00  0.00     0.027 A 
ATOM      9  C   UNL A   1      35.537  35.196  32.522  1.00  0.00     0.027 A 
ATOM     10  C   UNL A   1      35.319  32.548  33.375  1.00  0.00     0.016 A 
ATOM     11  C   UNL A   1      36.350  34.717  33.540  1.00  0.00     0.016 A 
BRANCH   7  12
ATOM     12  N   UNL A   1      33.793  34.870  30.911  1.00  0.00    -0.270 N 
ATOM     13  C   UNL A   1      33.997  34.698  29.542  1.00  0.00     0.169 A 
ATOM     14  N   UNL A   1      33.195  35.519  28.891  1.00  0.00    -0.129 NA
ATOM     15  N   UNL A   1      32.436  36.209  29.814  1.00  0.00    -0.123 NA
ATOM     16  C   UNL A   1      32.806  35.822  31.013  1.00  0.00     0.193 A 
BRANCH  13  17
ATOM     17  C   UNL A   1      34.932  33.731  28.955  1.00  0.00     0.027 A 
ATOM     18  C   UNL A   1      37.174  32.812  28.725  1.00  0.00     0.165 A 
ATOM     19  C   UNL A   1      36.314  33.856  29.117  1.00  0.00     0.062 A 
ATOM     20  C   UNL A   1      36.665  31.620  28.167  1.00  0.00     0.203 A 
ATOM     21  C   UNL A   1      35.282  31.541  27.919  1.00  0.00     0.165 A 
ATOM     22  C   UNL A   1      34.441  32.596  28.301  1.00  0.00     0.062 A 
BRANCH  18  23
ATOM     23  O   UNL A   1      38.491  32.930  29.094  1.00  0.00    -0.493 OA
ATOM     24  C   UNL A   1      38.875  34.294  29.285  1.00  0.00     0.278 C 
ENDBRANCH  18  23
BRANCH  20  25
ATOM     25  O   UNL A   1      37.385  30.475  27.962  1.00  0.00    -0.490 OA
ATOM     26  C   UNL A   1      37.519  29.524  29.002  1.00  0.00     0.278 C 
ENDBRANCH  20  25
BRANCH  21  27
ATOM     27  O   UNL A   1      34.566  30.508  27.367  1.00  0.00    -0.493 OA
ATOM     28  C   UNL A   1      33.164  30.644  27.194  1.00  0.00     0.278 C 
ENDBRANCH  21  27
ENDBRANCH  13  17
BRANCH  16  29
ATOM     29  S   UNL A   1      32.271  36.549  32.495  1.00  0.00    -0.103 SA
ATOM     30  H   UNL A   1      32.854  35.915  33.547  1.00  0.00     0.111 HD
ENDBRANCH  16  29
ENDBRANCH   7  12
ENDBRANCH   3   6
ENDBRANCH   1   2
BRANCH   1  31
ATOM     31  C   UNL A   1      39.359  32.560  32.427  1.00  0.00     0.042 C 
BRANCH  31  32
ATOM     32  C   UNL A   1      40.508  33.273  33.109  1.00  0.00     0.118 C 
BRANCH  32  33
ATOM     33  N   UNL A   1      40.982  34.422  32.337  1.00  0.00    -0.352 N 
ATOM     34  C   UNL A   1      42.111  34.522  31.543  1.00  0.00     0.251 C 
ATOM     35  H   UNL A   1      40.425  35.231  32.389  1.00  0.00     0.163 HD
ATOM     36  O   UNL A   1      42.574  35.606  31.240  1.00  0.00    -0.269 OA
BRANCH  34  37
ATOM     37  C   UNL A   1      42.746  33.279  31.076  1.00  0.00     0.039 A 
ATOM     38  C   UNL A   1      43.832  32.713  31.750  1.00  0.00     0.014 A 
ATOM     39  C   UNL A   1      42.193  32.655  29.965  1.00  0.00     0.014 A 
ATOM     40  C   UNL A   1      44.298  31.467  31.335  1.00  0.00     0.010 A 
ATOM     41  C   UNL A   1      42.505  31.352  29.702  1.00  0.00     0.010 A 
ATOM     42  C   UNL A   1      43.611  30.785  30.319  1.00  0.00    -0.014 A 
BRANCH  42  43
ATOM     43  C   UNL A   1      43.975  29.430  29.931  1.00  0.00     0.031 A 
ATOM     44  C   UNL A   1      44.871  29.336  28.746  1.00  0.00     0.074 A 
ATOM     45  C   UNL A   1      43.730  28.367  30.728  1.00  0.00     0.049 A 
ATOM     46  N   UNL A   1      44.612  28.802  27.599  1.00  0.00    -0.248 NA
ATOM     47  C   UNL A   1      46.170  30.029  28.800  1.00  0.00     0.031 C 
ATOM     48  C   UNL A   1      43.150  28.340  32.077  1.00  0.00     0.029 A 
ATOM     49  N   UNL A   1      44.068  27.066  30.533  1.00  0.00    -0.354 N 
ATOM     50  C   UNL A   1      45.783  28.908  26.854  1.00  0.00     0.074 A 
ATOM     51  C   UNL A   1      46.637  29.821  27.567  1.00  0.00     0.031 C 
ATOM     52  C   UNL A   1      43.408  27.149  32.661  1.00  0.00     0.029 A 
ATOM     53  C   UNL A   1      44.001  26.272  31.672  1.00  0.00     0.049 A 
ATOM     54  H   UNL A   1      44.337  26.713  29.655  1.00  0.00     0.167 HD
ATOM     55  C   UNL A   1      46.050  28.051  25.829  1.00  0.00     0.037 A 
ATOM     56  C   UNL A   1      44.440  24.995  31.786  1.00  0.00     0.037 A 
ATOM     57  C   UNL A   1      44.863  27.352  25.406  1.00  0.00     0.049 A 
ATOM     58  C   UNL A   1      44.562  24.455  30.407  1.00  0.00     0.074 A 
ATOM     59  C   UNL A   1      43.627  27.752  24.936  1.00  0.00     0.029 A 
ATOM     60  N   UNL A   1      44.693  26.053  25.823  1.00  0.00    -0.354 N 
ATOM     61  N   UNL A   1      43.541  24.228  29.626  1.00  0.00    -0.248 NA
ATOM     62  C   UNL A   1      45.839  24.628  29.731  1.00  0.00     0.031 C 
ATOM     63  C   UNL A   1      42.694  26.885  25.580  1.00  0.00     0.029 A 
ATOM     64  C   UNL A   1      43.421  25.960  26.329  1.00  0.00     0.049 A 
ATOM     65  H   UNL A   1      45.358  25.329  25.768  1.00  0.00     0.167 HD
ATOM     66  C   UNL A   1      43.953  24.653  28.372  1.00  0.00     0.074 A 
ATOM     67  C   UNL A   1      45.403  24.817  28.482  1.00  0.00     0.031 C 
ATOM     68  C   UNL A   1      43.062  25.120  27.449  1.00  0.00     0.037 A 
BRANCH  55  69
ATOM     69  C   UNL A   1      47.435  27.589  25.455  1.00  0.00     0.057 A 
ATOM     70  C   UNL A   1      47.818  27.563  24.104  1.00  0.00     0.134 A 
ATOM     71  C   UNL A   1      48.305  26.913  26.338  1.00  0.00     0.134 A 
ATOM     72  F   UNL A   1      47.058  28.144  23.162  1.00  0.00    -0.206 F 
ATOM     73  C   UNL A   1      48.952  26.872  23.658  1.00  0.00     0.040 A 
ATOM     74  C   UNL A   1      49.467  26.268  25.911  1.00  0.00     0.040 A 
ATOM     75  F   UNL A   1      48.024  26.754  27.636  1.00  0.00    -0.206 F 
ATOM     76  C   UNL A   1      49.780  26.220  24.563  1.00  0.00     0.006 A 
ENDBRANCH  55  69
BRANCH  56  77
ATOM     77  C   UNL A   1      45.038  24.319  32.960  1.00  0.00     0.057 A 
ATOM     78  C   UNL A   1      44.494  23.126  33.457  1.00  0.00     0.134 A 
ATOM     79  C   UNL A   1      46.310  24.665  33.447  1.00  0.00     0.134 A 
ATOM     80  F   UNL A   1      43.300  22.693  33.029  1.00  0.00    -0.206 F 
ATOM     81  C   UNL A   1      45.190  22.305  34.355  1.00  0.00     0.040 A 
ATOM     82  C   UNL A   1      47.013  23.859  34.350  1.00  0.00     0.040 A 
ATOM     83  F   UNL A   1      46.956  25.750  32.996  1.00  0.00    -0.206 F 
ATOM     84  C   UNL A   1      46.460  22.664  34.793  1.00  0.00     0.006 A 
ENDBRANCH  56  77
BRANCH  68  85
ATOM     85  C   UNL A   1      41.590  24.970  27.738  1.00  0.00     0.057 A 
ATOM     86  C   UNL A   1      40.820  25.919  28.431  1.00  0.00     0.134 A 
ATOM     87  C   UNL A   1      40.892  23.909  27.153  1.00  0.00     0.134 A 
ATOM     88  F   UNL A   1      41.373  27.025  28.940  1.00  0.00    -0.206 F 
ATOM     89  C   UNL A   1      39.433  25.795  28.568  1.00  0.00     0.040 A 
ATOM     90  C   UNL A   1      39.503  23.791  27.252  1.00  0.00     0.040 A 
ATOM     91  F   UNL A   1      41.547  22.991  26.425  1.00  0.00    -0.206 F 
ATOM     92  C   UNL A   1      38.769  24.731  27.970  1.00  0.00     0.006 A 
ENDBRANCH  68  85
ENDBRANCH  42  43
ENDBRANCH  34  37
ENDBRANCH  32  33
ENDBRANCH  31  32
ENDBRANCH   1  31
TORSDOF 16
ENDMDL
