MODEL 1
REMARK VINA RESULT:     -13.8      0.000      0.000
REMARK SMILES Cc1ccccc1[C@@H]1[NH2+][C@@H](C(=O)NCCCNC(=O)c2ccc(-c3c4nc(c(-c5c(F)cccc5F)c5ccc([nH]5)c(-c5c(F)cccc5F)c5nc(c(-c6c(F)cccc6F)c6ccc3[nH]6)C=C5)C=C4)cc2)CC2=c3ccccc3=N[C@@H]21
REMARK SMILES IDX 15 1 14 2 13 3 11 4 12 5 10 7 8 8 9 9 83 10 75 13 82 14
REMARK SMILES IDX 74 15 76 16 81 17 77 18 80 19 78 20 79 21 7 22 1 23 2 24
REMARK SMILES IDX 3 25 4 26 6 27 5 28 16 29 17 30 18 31 19 33 20 34 21 35
REMARK SMILES IDX 73 36 22 37 72 38 23 39 24 40 25 41 66 42 26 43 71 44 65 45
REMARK SMILES IDX 67 46 27 47 70 48 64 49 63 50 28 52 54 53 37 54 53 55 38 56
REMARK SMILES IDX 41 57 52 58 68 59 39 60 40 61 51 63 69 64 42 65 29 66 30 67
REMARK SMILES IDX 35 68 31 69 32 70 34 71 36 72 33 73 55 74 56 75 61 76 57 77
REMARK SMILES IDX 58 78 60 79 62 80 59 81 43 82 44 83 49 84 45 85 46 86 48 87
REMARK SMILES IDX 50 88 47 89
REMARK H PARENT 13 6 9 11 9 12 17 32 67 51 41 62
REMARK Flexibility Score: inf
ROOT
ATOM      1  C   UNL A   1      33.614  31.792  27.581  1.00  0.00     0.042 C 
ENDROOT
BRANCH   1   2
ATOM      2  C   UNL A   1      32.342  31.031  27.121  1.00  0.00     0.118 C 
BRANCH   2   3
ATOM      3  N   UNL A   1      31.855  29.723  27.603  1.00  0.00    -0.351 N 
ATOM      4  C   UNL A   1      31.761  28.482  26.968  1.00  0.00     0.278 C 
ATOM      5  O   UNL A   1      31.926  27.434  27.585  1.00  0.00    -0.268 OA
ATOM      6  H   UNL A   1      31.543  29.725  28.536  1.00  0.00     0.163 HD
BRANCH   4   7
ATOM      7  C   UNL A   1      31.321  28.553  25.519  1.00  0.00     0.277 C 
ATOM      8  C   UNL A   1      31.342  26.463  24.145  1.00  0.00     0.243 C 
ATOM      9  N   UNL A   1      30.746  27.220  25.272  1.00  0.00    -0.327 N 
ATOM     10  C   UNL A   1      30.882  27.284  22.873  1.00  0.00     0.196 C 
ATOM     11  H   UNL A   1      30.865  26.666  26.120  1.00  0.00     0.347 HD
ATOM     12  H   UNL A   1      29.772  27.380  25.017  1.00  0.00     0.347 HD
ATOM     13  C   UNL A   1      31.208  28.777  23.153  1.00  0.00    -0.024 C 
ATOM     14  N   UNL A   1      29.385  27.288  22.727  1.00  0.00    -0.270 NA
ATOM     15  C   UNL A   1      32.164  29.049  24.327  1.00  0.00     0.109 C 
ATOM     16  C   UNL A   1      30.123  29.552  22.981  1.00  0.00     0.002 A 
ATOM     17  C   UNL A   1      29.051  28.543  22.805  1.00  0.00     0.066 A 
ATOM     18  C   UNL A   1      29.812  30.859  23.508  1.00  0.00     0.010 A 
ATOM     19  C   UNL A   1      27.657  29.045  22.928  1.00  0.00     0.028 A 
ATOM     20  C   UNL A   1      28.532  31.195  23.732  1.00  0.00     0.001 A 
ATOM     21  C   UNL A   1      27.448  30.290  23.393  1.00  0.00     0.002 A 
BRANCH   8  22
ATOM     22  C   UNL A   1      31.104  24.964  24.431  1.00  0.00     0.015 A 
ATOM     23  C   UNL A   1      32.599  24.095  22.532  1.00  0.00     0.045 C 
ATOM     24  C   UNL A   1      31.789  23.913  23.781  1.00  0.00    -0.042 A 
ATOM     25  C   UNL A   1      31.876  22.639  24.403  1.00  0.00     0.004 A 
ATOM     26  C   UNL A   1      31.323  22.396  25.654  1.00  0.00     0.000 A 
ATOM     27  C   UNL A   1      30.469  24.634  25.650  1.00  0.00     0.010 A 
ATOM     28  C   UNL A   1      30.630  23.408  26.274  1.00  0.00     0.001 A 
ENDBRANCH   8  22
ENDBRANCH   4   7
ENDBRANCH   2   3
ENDBRANCH   1   2
BRANCH   1  29
ATOM     29  C   UNL A   1      34.935  31.029  27.779  1.00  0.00     0.118 C 
BRANCH  29  30
ATOM     30  N   UNL A   1      35.897  31.821  28.571  1.00  0.00    -0.352 N 
ATOM     31  C   UNL A   1      37.171  31.505  29.015  1.00  0.00     0.251 C 
ATOM     32  H   UNL A   1      35.584  32.719  28.824  1.00  0.00     0.163 HD
ATOM     33  O   UNL A   1      37.885  32.358  29.508  1.00  0.00    -0.269 OA
BRANCH  31  34
ATOM     34  C   UNL A   1      37.687  30.138  28.799  1.00  0.00     0.039 A 
ATOM     35  C   UNL A   1      37.657  29.237  29.868  1.00  0.00     0.014 A 
ATOM     36  C   UNL A   1      38.317  29.808  27.602  1.00  0.00     0.014 A 
ATOM     37  C   UNL A   1      38.488  28.118  29.837  1.00  0.00     0.010 A 
ATOM     38  C   UNL A   1      39.139  28.694  27.571  1.00  0.00     0.010 A 
ATOM     39  C   UNL A   1      39.311  27.920  28.727  1.00  0.00    -0.014 A 
BRANCH  39  40
ATOM     40  C   UNL A   1      40.563  27.172  28.825  1.00  0.00     0.031 A 
ATOM     41  C   UNL A   1      40.709  25.751  28.478  1.00  0.00     0.074 A 
ATOM     42  C   UNL A   1      41.685  27.868  29.111  1.00  0.00     0.049 A 
ATOM     43  N   UNL A   1      41.673  25.013  28.921  1.00  0.00    -0.248 NA
ATOM     44  C   UNL A   1      39.790  25.047  27.599  1.00  0.00     0.031 C 
ATOM     45  C   UNL A   1      43.074  27.459  28.900  1.00  0.00     0.029 A 
ATOM     46  N   UNL A   1      41.792  29.125  29.699  1.00  0.00    -0.354 N 
ATOM     47  C   UNL A   1      41.695  23.870  28.165  1.00  0.00     0.074 A 
ATOM     48  C   UNL A   1      40.449  23.895  27.423  1.00  0.00     0.031 C 
ATOM     49  C   UNL A   1      43.889  28.340  29.500  1.00  0.00     0.029 A 
ATOM     50  C   UNL A   1      43.058  29.213  30.303  1.00  0.00     0.049 A 
ATOM     51  H   UNL A   1      41.102  29.828  29.694  1.00  0.00     0.167 HD
ATOM     52  C   UNL A   1      42.821  23.095  28.125  1.00  0.00     0.037 A 
ATOM     53  C   UNL A   1      43.139  29.325  31.663  1.00  0.00     0.037 A 
ATOM     54  C   UNL A   1      43.926  23.664  28.904  1.00  0.00     0.049 A 
ATOM     55  C   UNL A   1      43.743  28.108  32.347  1.00  0.00     0.074 A 
ATOM     56  C   UNL A   1      45.103  24.323  28.579  1.00  0.00     0.029 A 
ATOM     57  N   UNL A   1      43.781  23.828  30.271  1.00  0.00    -0.354 N 
ATOM     58  N   UNL A   1      44.215  27.063  31.724  1.00  0.00    -0.248 NA
ATOM     59  C   UNL A   1      43.764  27.935  33.801  1.00  0.00     0.031 C 
ATOM     60  C   UNL A   1      45.671  24.857  29.772  1.00  0.00     0.029 A 
ATOM     61  C   UNL A   1      44.839  24.527  30.824  1.00  0.00     0.049 A 
ATOM     62  H   UNL A   1      43.016  23.488  30.789  1.00  0.00     0.167 HD
ATOM     63  C   UNL A   1      44.475  26.069  32.628  1.00  0.00     0.074 A 
ATOM     64  C   UNL A   1      44.204  26.671  33.920  1.00  0.00     0.031 C 
ATOM     65  C   UNL A   1      44.829  24.804  32.252  1.00  0.00     0.037 A 
BRANCH  52  66
ATOM     66  C   UNL A   1      42.976  21.945  27.159  1.00  0.00     0.057 A 
ATOM     67  C   UNL A   1      42.194  20.779  27.256  1.00  0.00     0.134 A 
ATOM     68  C   UNL A   1      43.908  21.933  26.106  1.00  0.00     0.134 A 
ATOM     69  F   UNL A   1      41.176  20.679  28.118  1.00  0.00    -0.206 F 
ATOM     70  C   UNL A   1      42.417  19.646  26.463  1.00  0.00     0.040 A 
ATOM     71  C   UNL A   1      44.182  20.788  25.343  1.00  0.00     0.040 A 
ATOM     72  F   UNL A   1      44.566  23.044  25.747  1.00  0.00    -0.206 F 
ATOM     73  C   UNL A   1      43.445  19.629  25.533  1.00  0.00     0.006 A 
ENDBRANCH  52  66
BRANCH  53  74
ATOM     74  C   UNL A   1      42.026  30.152  32.211  1.00  0.00     0.057 A 
ATOM     75  C   UNL A   1      42.096  31.552  32.062  1.00  0.00     0.134 A 
ATOM     76  C   UNL A   1      40.767  29.603  32.476  1.00  0.00     0.134 A 
ATOM     77  F   UNL A   1      43.268  32.145  31.783  1.00  0.00    -0.206 F 
ATOM     78  C   UNL A   1      40.951  32.352  32.056  1.00  0.00     0.040 A 
ATOM     79  C   UNL A   1      39.617  30.399  32.493  1.00  0.00     0.040 A 
ATOM     80  F   UNL A   1      40.610  28.278  32.600  1.00  0.00    -0.206 F 
ATOM     81  C   UNL A   1      39.702  31.768  32.242  1.00  0.00     0.006 A 
ENDBRANCH  53  74
BRANCH  65  82
ATOM     82  C   UNL A   1      45.161  23.713  33.233  1.00  0.00     0.057 A 
ATOM     83  C   UNL A   1      44.222  22.755  33.641  1.00  0.00     0.134 A 
ATOM     84  C   UNL A   1      46.406  23.659  33.891  1.00  0.00     0.134 A 
ATOM     85  F   UNL A   1      42.971  22.760  33.155  1.00  0.00    -0.206 F 
ATOM     86  C   UNL A   1      44.523  21.766  34.586  1.00  0.00     0.040 A 
ATOM     87  C   UNL A   1      46.702  22.709  34.871  1.00  0.00     0.040 A 
ATOM     88  F   UNL A   1      47.398  24.512  33.599  1.00  0.00    -0.206 F 
ATOM     89  C   UNL A   1      45.766  21.745  35.210  1.00  0.00     0.006 A 
ENDBRANCH  65  82
ENDBRANCH  39  40
ENDBRANCH  31  34
ENDBRANCH  29  30
ENDBRANCH   1  29
TORSDOF 11
ENDMDL
MODEL 2
REMARK VINA RESULT:     -13.7      4.035      9.944
REMARK SMILES Cc1ccccc1[C@@H]1[NH2+][C@@H](C(=O)NCCCNC(=O)c2ccc(-c3c4nc(c(-c5c(F)cccc5F)c5ccc([nH]5)c(-c5c(F)cccc5F)c5nc(c(-c6c(F)cccc6F)c6ccc3[nH]6)C=C5)C=C4)cc2)CC2=c3ccccc3=N[C@@H]21
REMARK SMILES IDX 15 1 14 2 13 3 11 4 12 5 10 7 8 8 9 9 83 10 75 13 82 14
REMARK SMILES IDX 74 15 76 16 81 17 77 18 80 19 78 20 79 21 7 22 1 23 2 24
REMARK SMILES IDX 3 25 4 26 6 27 5 28 16 29 17 30 18 31 19 33 20 34 21 35
REMARK SMILES IDX 73 36 22 37 72 38 23 39 24 40 25 41 66 42 26 43 71 44 65 45
REMARK SMILES IDX 67 46 27 47 70 48 64 49 63 50 28 52 54 53 37 54 53 55 38 56
REMARK SMILES IDX 41 57 52 58 68 59 39 60 40 61 51 63 69 64 42 65 29 66 30 67
REMARK SMILES IDX 35 68 31 69 32 70 34 71 36 72 33 73 55 74 56 75 61 76 57 77
REMARK SMILES IDX 58 78 60 79 62 80 59 81 43 82 44 83 49 84 45 85 46 86 48 87
REMARK SMILES IDX 50 88 47 89
REMARK H PARENT 13 6 9 11 9 12 17 32 67 51 41 62
REMARK Flexibility Score: inf
ROOT
ATOM      1  C   UNL A   1      39.165  21.319  26.086  1.00  0.00     0.042 C 
ENDROOT
BRANCH   1   2
ATOM      2  C   UNL A   1      38.069  21.007  25.032  1.00  0.00     0.118 C 
BRANCH   2   3
ATOM      3  N   UNL A   1      37.441  21.949  24.084  1.00  0.00    -0.351 N 
ATOM      4  C   UNL A   1      36.173  22.537  24.069  1.00  0.00     0.278 C 
ATOM      5  O   UNL A   1      36.001  23.672  23.637  1.00  0.00    -0.268 OA
ATOM      6  H   UNL A   1      38.017  22.209  23.330  1.00  0.00     0.163 HD
BRANCH   4   7
ATOM      7  C   UNL A   1      35.052  21.615  24.505  1.00  0.00     0.277 C 
ATOM      8  C   UNL A   1      32.744  22.548  24.741  1.00  0.00     0.243 C 
ATOM      9  N   UNL A   1      33.866  22.186  23.844  1.00  0.00    -0.327 N 
ATOM     10  C   UNL A   1      32.219  21.145  25.251  1.00  0.00     0.196 C 
ATOM     11  H   UNL A   1      34.159  23.030  23.351  1.00  0.00     0.347 HD
ATOM     12  H   UNL A   1      33.509  21.453  23.232  1.00  0.00     0.347 HD
ATOM     13  C   UNL A   1      33.459  20.343  25.732  1.00  0.00    -0.024 C 
ATOM     14  N   UNL A   1      31.693  20.306  24.119  1.00  0.00    -0.270 NA
ATOM     15  C   UNL A   1      34.747  21.157  25.945  1.00  0.00     0.109 C 
ATOM     16  C   UNL A   1      33.521  19.139  25.137  1.00  0.00     0.002 A 
ATOM     17  C   UNL A   1      32.451  19.247  24.116  1.00  0.00     0.066 A 
ATOM     18  C   UNL A   1      34.641  18.255  24.925  1.00  0.00     0.010 A 
ATOM     19  C   UNL A   1      32.465  18.216  23.046  1.00  0.00     0.028 A 
ATOM     20  C   UNL A   1      34.653  17.447  23.853  1.00  0.00     0.001 A 
ATOM     21  C   UNL A   1      33.530  17.401  22.935  1.00  0.00     0.002 A 
BRANCH   8  22
ATOM     22  C   UNL A   1      31.931  23.651  24.029  1.00  0.00     0.015 A 
ATOM     23  C   UNL A   1      30.581  24.361  26.095  1.00  0.00     0.045 C 
ATOM     24  C   UNL A   1      31.063  24.550  24.687  1.00  0.00    -0.042 A 
ATOM     25  C   UNL A   1      30.739  25.791  24.077  1.00  0.00     0.004 A 
ATOM     26  C   UNL A   1      31.274  26.165  22.851  1.00  0.00     0.000 A 
ATOM     27  C   UNL A   1      32.361  24.034  22.737  1.00  0.00     0.010 A 
ATOM     28  C   UNL A   1      32.094  25.279  22.194  1.00  0.00     0.001 A 
ENDBRANCH   8  22
ENDBRANCH   4   7
ENDBRANCH   2   3
ENDBRANCH   1   2
BRANCH   1  29
ATOM     29  C   UNL A   1      39.349  22.757  26.599  1.00  0.00     0.118 C 
BRANCH  29  30
ATOM     30  N   UNL A   1      40.770  23.055  26.863  1.00  0.00    -0.352 N 
ATOM     31  C   UNL A   1      41.381  24.224  27.284  1.00  0.00     0.251 C 
ATOM     32  H   UNL A   1      41.384  22.299  26.717  1.00  0.00     0.163 HD
ATOM     33  O   UNL A   1      42.551  24.227  27.618  1.00  0.00    -0.269 OA
BRANCH  31  34
ATOM     34  C   UNL A   1      40.569  25.451  27.410  1.00  0.00     0.039 A 
ATOM     35  C   UNL A   1      40.825  26.514  26.537  1.00  0.00     0.014 A 
ATOM     36  C   UNL A   1      39.672  25.592  28.466  1.00  0.00     0.014 A 
ATOM     37  C   UNL A   1      40.394  27.795  26.880  1.00  0.00     0.010 A 
ATOM     38  C   UNL A   1      39.241  26.865  28.803  1.00  0.00     0.010 A 
ATOM     39  C   UNL A   1      39.699  27.974  28.078  1.00  0.00    -0.014 A 
BRANCH  39  40
ATOM     40  C   UNL A   1      39.711  29.251  28.788  1.00  0.00     0.031 A 
ATOM     41  C   UNL A   1      38.641  30.256  28.706  1.00  0.00     0.074 A 
ATOM     42  C   UNL A   1      40.697  29.455  29.689  1.00  0.00     0.049 A 
ATOM     43  N   UNL A   1      38.820  31.502  29.000  1.00  0.00    -0.248 NA
ATOM     44  C   UNL A   1      37.283  29.941  28.297  1.00  0.00     0.031 C 
ATOM     45  C   UNL A   1      40.735  30.436  30.773  1.00  0.00     0.029 A 
ATOM     46  N   UNL A   1      41.924  28.803  29.785  1.00  0.00    -0.354 N 
ATOM     47  C   UNL A   1      37.581  32.074  29.130  1.00  0.00     0.074 A 
ATOM     48  C   UNL A   1      36.662  31.090  28.591  1.00  0.00     0.031 C 
ATOM     49  C   UNL A   1      41.964  30.456  31.309  1.00  0.00     0.029 A 
ATOM     50  C   UNL A   1      42.818  29.661  30.449  1.00  0.00     0.049 A 
ATOM     51  H   UNL A   1      42.130  27.902  29.446  1.00  0.00     0.167 HD
ATOM     52  C   UNL A   1      37.438  33.250  29.812  1.00  0.00     0.037 A 
ATOM     53  C   UNL A   1      43.902  30.145  29.772  1.00  0.00     0.037 A 
ATOM     54  C   UNL A   1      38.701  33.729  30.386  1.00  0.00     0.049 A 
ATOM     55  C   UNL A   1      43.852  31.643  29.517  1.00  0.00     0.074 A 
ATOM     56  C   UNL A   1      39.236  33.755  31.665  1.00  0.00     0.029 A 
ATOM     57  N   UNL A   1      39.750  34.053  29.543  1.00  0.00    -0.354 N 
ATOM     58  N   UNL A   1      42.912  32.440  29.948  1.00  0.00    -0.248 NA
ATOM     59  C   UNL A   1      44.812  32.343  28.661  1.00  0.00     0.031 C 
ATOM     60  C   UNL A   1      40.609  34.126  31.577  1.00  0.00     0.029 A 
ATOM     61  C   UNL A   1      40.912  34.322  30.244  1.00  0.00     0.049 A 
ATOM     62  H   UNL A   1      39.678  34.088  28.562  1.00  0.00     0.167 HD
ATOM     63  C   UNL A   1      43.048  33.669  29.364  1.00  0.00     0.074 A 
ATOM     64  C   UNL A   1      44.270  33.570  28.587  1.00  0.00     0.031 C 
ATOM     65  C   UNL A   1      42.118  34.660  29.502  1.00  0.00     0.037 A 
BRANCH  52  66
ATOM     66  C   UNL A   1      36.084  33.820  30.164  1.00  0.00     0.057 A 
ATOM     67  C   UNL A   1      35.212  34.327  29.184  1.00  0.00     0.134 A 
ATOM     68  C   UNL A   1      35.591  33.903  31.478  1.00  0.00     0.134 A 
ATOM     69  F   UNL A   1      35.469  34.208  27.876  1.00  0.00    -0.206 F 
ATOM     70  C   UNL A   1      34.017  34.988  29.497  1.00  0.00     0.040 A 
ATOM     71  C   UNL A   1      34.428  34.611  31.813  1.00  0.00     0.040 A 
ATOM     72  F   UNL A   1      36.199  33.268  32.490  1.00  0.00    -0.206 F 
ATOM     73  C   UNL A   1      33.643  35.174  30.818  1.00  0.00     0.006 A 
ENDBRANCH  52  66
BRANCH  53  74
ATOM     74  C   UNL A   1      44.452  29.132  28.826  1.00  0.00     0.057 A 
ATOM     75  C   UNL A   1      45.200  28.059  29.352  1.00  0.00     0.134 A 
ATOM     76  C   UNL A   1      43.926  28.970  27.540  1.00  0.00     0.134 A 
ATOM     77  F   UNL A   1      45.715  28.137  30.590  1.00  0.00    -0.206 F 
ATOM     78  C   UNL A   1      45.314  26.840  28.682  1.00  0.00     0.040 A 
ATOM     79  C   UNL A   1      44.053  27.759  26.851  1.00  0.00     0.040 A 
ATOM     80  F   UNL A   1      43.177  29.929  26.980  1.00  0.00    -0.206 F 
ATOM     81  C   UNL A   1      44.712  26.679  27.438  1.00  0.00     0.006 A 
ENDBRANCH  53  74
BRANCH  65  82
ATOM     82  C   UNL A   1      42.274  36.030  28.903  1.00  0.00     0.057 A 
ATOM     83  C   UNL A   1      41.772  36.360  27.636  1.00  0.00     0.134 A 
ATOM     84  C   UNL A   1      43.038  37.034  29.532  1.00  0.00     0.134 A 
ATOM     85  F   UNL A   1      41.107  35.459  26.898  1.00  0.00    -0.206 F 
ATOM     86  C   UNL A   1      41.956  37.626  27.064  1.00  0.00     0.040 A 
ATOM     87  C   UNL A   1      43.271  38.282  28.951  1.00  0.00     0.040 A 
ATOM     88  F   UNL A   1      43.576  36.856  30.746  1.00  0.00    -0.206 F 
ATOM     89  C   UNL A   1      42.714  38.590  27.719  1.00  0.00     0.006 A 
ENDBRANCH  65  82
ENDBRANCH  39  40
ENDBRANCH  31  34
ENDBRANCH  29  30
ENDBRANCH   1  29
TORSDOF 11
ENDMDL
MODEL 3
REMARK VINA RESULT:     -13.6      1.546      3.344
REMARK SMILES Cc1ccccc1[C@@H]1[NH2+][C@@H](C(=O)NCCCNC(=O)c2ccc(-c3c4nc(c(-c5c(F)cccc5F)c5ccc([nH]5)c(-c5c(F)cccc5F)c5nc(c(-c6c(F)cccc6F)c6ccc3[nH]6)C=C5)C=C4)cc2)CC2=c3ccccc3=N[C@@H]21
REMARK SMILES IDX 15 1 14 2 13 3 11 4 12 5 10 7 8 8 9 9 83 10 75 13 82 14
REMARK SMILES IDX 74 15 76 16 81 17 77 18 80 19 78 20 79 21 7 22 1 23 2 24
REMARK SMILES IDX 3 25 4 26 6 27 5 28 16 29 17 30 18 31 19 33 20 34 21 35
REMARK SMILES IDX 73 36 22 37 72 38 23 39 24 40 25 41 66 42 26 43 71 44 65 45
REMARK SMILES IDX 67 46 27 47 70 48 64 49 63 50 28 52 54 53 37 54 53 55 38 56
REMARK SMILES IDX 41 57 52 58 68 59 39 60 40 61 51 63 69 64 42 65 29 66 30 67
REMARK SMILES IDX 35 68 31 69 32 70 34 71 36 72 33 73 55 74 56 75 61 76 57 77
REMARK SMILES IDX 58 78 60 79 62 80 59 81 43 82 44 83 49 84 45 85 46 86 48 87
REMARK SMILES IDX 50 88 47 89
REMARK H PARENT 13 6 9 11 9 12 17 32 67 51 41 62
REMARK Flexibility Score: inf
ROOT
ATOM      1  C   UNL A   1      33.354  30.726  27.613  1.00  0.00     0.042 C 
ENDROOT
BRANCH   1   2
ATOM      2  C   UNL A   1      33.094  29.737  26.446  1.00  0.00     0.118 C 
BRANCH   2   3
ATOM      3  N   UNL A   1      34.038  29.331  25.385  1.00  0.00    -0.351 N 
ATOM      4  C   UNL A   1      33.891  28.462  24.301  1.00  0.00     0.278 C 
ATOM      5  O   UNL A   1      34.463  28.668  23.236  1.00  0.00    -0.268 OA
ATOM      6  H   UNL A   1      34.927  29.748  25.453  1.00  0.00     0.163 HD
BRANCH   4   7
ATOM      7  C   UNL A   1      33.086  27.214  24.605  1.00  0.00     0.277 C 
ATOM      8  C   UNL A   1      30.604  27.274  24.301  1.00  0.00     0.243 C 
ATOM      9  N   UNL A   1      31.947  27.310  23.676  1.00  0.00    -0.327 N 
ATOM     10  C   UNL A   1      30.493  25.791  24.840  1.00  0.00     0.196 C 
ATOM     11  H   UNL A   1      32.032  28.189  23.166  1.00  0.00     0.347 HD
ATOM     12  H   UNL A   1      32.001  26.481  23.084  1.00  0.00     0.347 HD
ATOM     13  C   UNL A   1      31.799  25.494  25.628  1.00  0.00    -0.024 C 
ATOM     14  N   UNL A   1      30.541  24.789  23.719  1.00  0.00    -0.270 NA
ATOM     15  C   UNL A   1      32.654  26.718  25.999  1.00  0.00     0.109 C 
ATOM     16  C   UNL A   1      32.394  24.374  25.180  1.00  0.00     0.002 A 
ATOM     17  C   UNL A   1      31.597  24.069  23.968  1.00  0.00     0.066 A 
ATOM     18  C   UNL A   1      33.766  23.940  25.276  1.00  0.00     0.010 A 
ATOM     19  C   UNL A   1      32.190  23.080  23.030  1.00  0.00     0.028 A 
ATOM     20  C   UNL A   1      34.283  23.161  24.312  1.00  0.00     0.001 A 
ATOM     21  C   UNL A   1      33.467  22.694  23.206  1.00  0.00     0.002 A 
BRANCH   8  22
ATOM     22  C   UNL A   1      29.637  27.997  23.339  1.00  0.00     0.015 A 
ATOM     23  C   UNL A   1      27.530  26.731  24.083  1.00  0.00     0.045 C 
ATOM     24  C   UNL A   1      28.233  27.837  23.354  1.00  0.00    -0.042 A 
ATOM     25  C   UNL A   1      27.404  28.848  22.800  1.00  0.00     0.004 A 
ATOM     26  C   UNL A   1      27.932  30.014  22.260  1.00  0.00     0.000 A 
ATOM     27  C   UNL A   1      30.125  29.150  22.682  1.00  0.00     0.010 A 
ATOM     28  C   UNL A   1      29.298  30.158  22.216  1.00  0.00     0.001 A 
ENDBRANCH   8  22
ENDBRANCH   4   7
ENDBRANCH   2   3
ENDBRANCH   1   2
BRANCH   1  29
ATOM     29  C   UNL A   1      34.628  31.589  27.618  1.00  0.00     0.118 C 
BRANCH  29  30
ATOM     30  N   UNL A   1      34.988  32.004  28.988  1.00  0.00    -0.352 N 
ATOM     31  C   UNL A   1      35.956  31.514  29.851  1.00  0.00     0.251 C 
ATOM     32  H   UNL A   1      34.455  32.750  29.348  1.00  0.00     0.163 HD
ATOM     33  O   UNL A   1      36.223  32.104  30.881  1.00  0.00    -0.269 OA
BRANCH  31  34
ATOM     34  C   UNL A   1      36.723  30.315  29.459  1.00  0.00     0.039 A 
ATOM     35  C   UNL A   1      36.875  29.285  30.394  1.00  0.00     0.014 A 
ATOM     36  C   UNL A   1      37.397  30.281  28.241  1.00  0.00     0.014 A 
ATOM     37  C   UNL A   1      37.906  28.362  30.227  1.00  0.00     0.010 A 
ATOM     38  C   UNL A   1      38.419  29.361  28.075  1.00  0.00     0.010 A 
ATOM     39  C   UNL A   1      38.744  28.481  29.116  1.00  0.00    -0.014 A 
BRANCH  39  40
ATOM     40  C   UNL A   1      40.117  27.981  29.136  1.00  0.00     0.031 A 
ATOM     41  C   UNL A   1      40.549  26.718  28.519  1.00  0.00     0.074 A 
ATOM     42  C   UNL A   1      41.073  28.802  29.623  1.00  0.00     0.049 A 
ATOM     43  N   UNL A   1      41.632  26.101  28.860  1.00  0.00    -0.248 NA
ATOM     44  C   UNL A   1      39.804  26.053  27.463  1.00  0.00     0.031 C 
ATOM     45  C   UNL A   1      42.520  28.717  29.418  1.00  0.00     0.029 A 
ATOM     46  N   UNL A   1      40.918  29.904  30.459  1.00  0.00    -0.354 N 
ATOM     47  C   UNL A   1      41.894  25.167  27.892  1.00  0.00     0.074 A 
ATOM     48  C   UNL A   1      40.682  25.110  27.097  1.00  0.00     0.031 C 
ATOM     49  C   UNL A   1      43.132  29.591  30.231  1.00  0.00     0.029 A 
ATOM     50  C   UNL A   1      42.130  30.102  31.144  1.00  0.00     0.049 A 
ATOM     51  H   UNL A   1      40.103  30.448  30.555  1.00  0.00     0.167 HD
ATOM     52  C   UNL A   1      43.151  24.646  27.764  1.00  0.00     0.037 A 
ATOM     53  C   UNL A   1      42.162  29.939  32.500  1.00  0.00     0.037 A 
ATOM     54  C   UNL A   1      44.107  25.238  28.707  1.00  0.00     0.049 A 
ATOM     55  C   UNL A   1      42.981  28.744  32.959  1.00  0.00     0.074 A 
ATOM     56  C   UNL A   1      45.136  26.161  28.592  1.00  0.00     0.029 A 
ATOM     57  N   UNL A   1      43.906  25.081  30.067  1.00  0.00    -0.354 N 
ATOM     58  N   UNL A   1      43.663  27.961  32.168  1.00  0.00    -0.248 NA
ATOM     59  C   UNL A   1      43.008  28.276  34.346  1.00  0.00     0.031 C 
ATOM     60  C   UNL A   1      45.565  26.531  29.900  1.00  0.00     0.029 A 
ATOM     61  C   UNL A   1      44.794  25.837  30.812  1.00  0.00     0.049 A 
ATOM     62  H   UNL A   1      43.214  24.501  30.459  1.00  0.00     0.167 HD
ATOM     63  C   UNL A   1      44.098  26.867  32.865  1.00  0.00     0.074 A 
ATOM     64  C   UNL A   1      43.688  27.123  34.234  1.00  0.00     0.031 C 
ATOM     65  C   UNL A   1      44.702  25.800  32.264  1.00  0.00     0.037 A 
BRANCH  52  66
ATOM     66  C   UNL A   1      43.550  23.775  26.597  1.00  0.00     0.057 A 
ATOM     67  C   UNL A   1      43.415  22.375  26.630  1.00  0.00     0.134 A 
ATOM     68  C   UNL A   1      44.094  24.277  25.400  1.00  0.00     0.134 A 
ATOM     69  F   UNL A   1      42.799  21.747  27.639  1.00  0.00    -0.206 F 
ATOM     70  C   UNL A   1      43.908  21.538  25.621  1.00  0.00     0.040 A 
ATOM     71  C   UNL A   1      44.642  23.452  24.408  1.00  0.00     0.040 A 
ATOM     72  F   UNL A   1      44.080  25.589  25.127  1.00  0.00    -0.206 F 
ATOM     73  C   UNL A   1      44.567  22.073  24.525  1.00  0.00     0.006 A 
ENDBRANCH  52  66
BRANCH  53  74
ATOM     74  C   UNL A   1      40.896  30.407  33.136  1.00  0.00     0.057 A 
ATOM     75  C   UNL A   1      40.687  31.794  33.271  1.00  0.00     0.134 A 
ATOM     76  C   UNL A   1      39.769  29.583  33.215  1.00  0.00     0.134 A 
ATOM     77  F   UNL A   1      41.721  32.646  33.182  1.00  0.00    -0.206 F 
ATOM     78  C   UNL A   1      39.405  32.342  33.357  1.00  0.00     0.040 A 
ATOM     79  C   UNL A   1      38.482  30.121  33.324  1.00  0.00     0.040 A 
ATOM     80  F   UNL A   1      39.878  28.256  33.066  1.00  0.00    -0.206 F 
ATOM     81  C   UNL A   1      38.296  31.503  33.353  1.00  0.00     0.006 A 
ENDBRANCH  53  74
BRANCH  65  82
ATOM     82  C   UNL A   1      45.224  24.611  33.022  1.00  0.00     0.057 A 
ATOM     83  C   UNL A   1      44.463  23.451  33.222  1.00  0.00     0.134 A 
ATOM     84  C   UNL A   1      46.471  24.638  33.679  1.00  0.00     0.134 A 
ATOM     85  F   UNL A   1      43.222  23.342  32.724  1.00  0.00    -0.206 F 
ATOM     86  C   UNL A   1      44.939  22.362  33.964  1.00  0.00     0.040 A 
ATOM     87  C   UNL A   1      46.936  23.579  34.463  1.00  0.00     0.040 A 
ATOM     88  F   UNL A   1      47.304  25.683  33.574  1.00  0.00    -0.206 F 
ATOM     89  C   UNL A   1      46.177  22.427  34.593  1.00  0.00     0.006 A 
ENDBRANCH  65  82
ENDBRANCH  39  40
ENDBRANCH  31  34
ENDBRANCH  29  30
ENDBRANCH   1  29
TORSDOF 11
ENDMDL
