MODEL 1
REMARK VINA RESULT:     -12.0      0.000      0.000
REMARK SMILES N#C/C(=C\c1ccc(-c2cc(C(F)(F)F)ccc2Cl)o1)C(=O)NCCCNC(=O)c1ccc(-c2c3nc(c(-c4c(F)cccc4F)c4ccc([nH]4)c(-c4c(F)cccc4F)c4nc(c(-c5c(F)cccc5F)c5ccc2[nH]5)C=C4)C=C3)cc1
REMARK SMILES IDX 24 1 23 2 21 3 22 4 3 6 4 7 2 8 1 9 5 10 6 11 20 12 7 13
REMARK SMILES IDX 8 14 9 15 10 16 18 17 11 18 17 19 19 20 16 21 12 22 13 23
REMARK SMILES IDX 14 24 15 25 25 26 26 27 27 28 28 29 29 31 30 32 31 33 83 34
REMARK SMILES IDX 32 35 82 36 33 37 34 38 35 39 76 40 36 41 81 42 75 43 77 44
REMARK SMILES IDX 37 45 80 46 74 47 73 48 38 50 64 51 47 52 63 53 48 54 51 55
REMARK SMILES IDX 62 56 78 57 49 58 50 59 61 61 79 62 52 63 39 64 40 65 45 66
REMARK SMILES IDX 41 67 42 68 44 69 46 70 43 71 65 72 66 73 71 74 67 75 68 76
REMARK SMILES IDX 70 77 72 78 69 79 53 80 54 81 59 82 55 83 56 84 58 85 60 86
REMARK SMILES IDX 57 87
REMARK H PARENT 23 5 27 30 77 49 51 60
REMARK Flexibility Score: inf
ROOT
ATOM      1  C   UNL A   1      36.155  20.509  25.001  1.00  0.00     0.118 C 
ENDROOT
BRANCH   1   2
ATOM      2  N   UNL A   1      35.085  19.535  24.889  1.00  0.00    -0.351 N 
ATOM      3  C   UNL A   1      33.743  19.603  25.110  1.00  0.00     0.262 C 
ATOM      4  O   UNL A   1      33.089  18.584  24.890  1.00  0.00    -0.268 OA
ATOM      5  H   UNL A   1      35.390  18.647  24.596  1.00  0.00     0.163 HD
BRANCH   3   6
ATOM      6  C   UNL A   1      33.057  20.831  25.578  1.00  0.00     0.120 C 
ATOM      7  C   UNL A   1      32.052  21.517  24.973  1.00  0.00     0.072 C 
BRANCH   6   8
ATOM      8  C   UNL A   1      33.572  21.494  26.846  1.00  0.00     0.105 C 
ATOM      9  N   UNL A   1      33.999  22.043  27.897  1.00  0.00    -0.192 NA
ENDBRANCH   6   8
BRANCH   7  10
ATOM     10  C   UNL A   1      31.463  22.722  25.504  1.00  0.00     0.129 A 
ATOM     11  C   UNL A   1      30.492  22.879  26.491  1.00  0.00     0.051 A 
ATOM     12  O   UNL A   1      31.834  23.999  25.097  1.00  0.00    -0.457 OA
ATOM     13  C   UNL A   1      30.227  24.256  26.643  1.00  0.00     0.051 A 
ATOM     14  C   UNL A   1      31.089  24.911  25.796  1.00  0.00     0.136 A 
BRANCH  14  15
ATOM     15  C   UNL A   1      31.336  26.333  25.566  1.00  0.00     0.036 A 
ATOM     16  C   UNL A   1      32.354  26.998  26.275  1.00  0.00     0.026 A 
ATOM     17  C   UNL A   1      30.653  27.044  24.559  1.00  0.00     0.052 A 
ATOM     18  C   UNL A   1      32.707  28.332  25.973  1.00  0.00     0.056 A 
ATOM     19  C   UNL A   1      30.991  28.369  24.261  1.00  0.00     0.022 A 
ATOM     20  Cl  UNL A   1      29.363  26.345  23.637  1.00  0.00    -0.084 Cl
ATOM     21  C   UNL A   1      32.015  29.006  24.958  1.00  0.00     0.014 A 
BRANCH  18  22
ATOM     22  C   UNL A   1      33.830  29.020  26.719  1.00  0.00     0.416 C 
ATOM     23  F   UNL A   1      35.039  28.841  26.120  1.00  0.00    -0.166 F 
ATOM     24  F   UNL A   1      33.648  30.366  26.810  1.00  0.00    -0.166 F 
ATOM     25  F   UNL A   1      33.980  28.578  27.999  1.00  0.00    -0.166 F 
ENDBRANCH  18  22
ENDBRANCH  14  15
ENDBRANCH   7  10
ENDBRANCH   3   6
ENDBRANCH   1   2
BRANCH   1  26
ATOM     26  C   UNL A   1      37.516  19.872  24.720  1.00  0.00     0.042 C 
BRANCH  26  27
ATOM     27  C   UNL A   1      38.562  20.261  25.757  1.00  0.00     0.118 C 
BRANCH  27  28
ATOM     28  N   UNL A   1      39.654  19.294  25.803  1.00  0.00    -0.352 N 
ATOM     29  C   UNL A   1      40.997  19.498  26.001  1.00  0.00     0.251 C 
ATOM     30  H   UNL A   1      39.388  18.355  25.673  1.00  0.00     0.163 HD
ATOM     31  O   UNL A   1      41.797  18.603  25.766  1.00  0.00    -0.269 OA
BRANCH  29  32
ATOM     32  C   UNL A   1      41.465  20.806  26.498  1.00  0.00     0.039 A 
ATOM     33  C   UNL A   1      41.932  20.913  27.810  1.00  0.00     0.014 A 
ATOM     34  C   UNL A   1      41.430  21.922  25.662  1.00  0.00     0.014 A 
ATOM     35  C   UNL A   1      42.421  22.137  28.267  1.00  0.00     0.010 A 
ATOM     36  C   UNL A   1      41.992  23.115  26.089  1.00  0.00     0.010 A 
ATOM     37  C   UNL A   1      42.483  23.237  27.399  1.00  0.00    -0.014 A 
BRANCH  37  38
ATOM     38  C   UNL A   1      43.025  24.549  27.821  1.00  0.00     0.031 A 
ATOM     39  C   UNL A   1      42.075  25.635  28.237  1.00  0.00     0.074 A 
ATOM     40  C   UNL A   1      44.342  24.800  27.703  1.00  0.00     0.049 A 
ATOM     41  N   UNL A   1      42.305  26.905  28.442  1.00  0.00    -0.248 NA
ATOM     42  C   UNL A   1      40.665  25.243  28.400  1.00  0.00     0.031 C 
ATOM     43  C   UNL A   1      45.354  23.834  27.278  1.00  0.00     0.029 A 
ATOM     44  N   UNL A   1      45.048  25.960  27.901  1.00  0.00    -0.354 N 
ATOM     45  C   UNL A   1      41.067  27.469  28.720  1.00  0.00     0.074 A 
ATOM     46  C   UNL A   1      40.084  26.414  28.606  1.00  0.00     0.031 C 
ATOM     47  C   UNL A   1      46.551  24.439  27.246  1.00  0.00     0.029 A 
ATOM     48  C   UNL A   1      46.382  25.845  27.598  1.00  0.00     0.049 A 
ATOM     49  H   UNL A   1      44.637  26.793  28.229  1.00  0.00     0.167 HD
ATOM     50  C   UNL A   1      40.779  28.749  29.055  1.00  0.00     0.037 A 
ATOM     51  C   UNL A   1      47.354  26.778  27.580  1.00  0.00     0.037 A 
ATOM     52  C   UNL A   1      41.771  29.782  29.186  1.00  0.00     0.049 A 
ATOM     53  C   UNL A   1      47.015  28.196  27.950  1.00  0.00     0.074 A 
ATOM     54  C   UNL A   1      41.600  31.096  29.585  1.00  0.00     0.029 A 
ATOM     55  N   UNL A   1      43.122  29.616  28.917  1.00  0.00    -0.354 N 
ATOM     56  N   UNL A   1      45.851  28.710  28.267  1.00  0.00    -0.248 NA
ATOM     57  C   UNL A   1      48.122  29.162  27.964  1.00  0.00     0.031 C 
ATOM     58  C   UNL A   1      42.838  31.739  29.501  1.00  0.00     0.029 A 
ATOM     59  C   UNL A   1      43.793  30.810  29.116  1.00  0.00     0.049 A 
ATOM     60  H   UNL A   1      43.542  28.774  28.626  1.00  0.00     0.167 HD
ATOM     61  C   UNL A   1      46.089  30.047  28.555  1.00  0.00     0.074 A 
ATOM     62  C   UNL A   1      47.510  30.266  28.371  1.00  0.00     0.031 C 
ATOM     63  C   UNL A   1      45.212  31.004  28.945  1.00  0.00     0.037 A 
BRANCH  50  64
ATOM     64  C   UNL A   1      39.333  29.095  29.277  1.00  0.00     0.057 A 
ATOM     65  C   UNL A   1      38.506  29.551  28.241  1.00  0.00     0.134 A 
ATOM     66  C   UNL A   1      38.760  28.974  30.550  1.00  0.00     0.134 A 
ATOM     67  F   UNL A   1      38.993  29.702  26.999  1.00  0.00    -0.206 F 
ATOM     68  C   UNL A   1      37.180  29.917  28.470  1.00  0.00     0.040 A 
ATOM     69  C   UNL A   1      37.424  29.302  30.784  1.00  0.00     0.040 A 
ATOM     70  F   UNL A   1      39.489  28.536  31.588  1.00  0.00    -0.206 F 
ATOM     71  C   UNL A   1      36.634  29.789  29.746  1.00  0.00     0.006 A 
ENDBRANCH  50  64
BRANCH  51  72
ATOM     72  C   UNL A   1      48.737  26.386  27.216  1.00  0.00     0.057 A 
ATOM     73  C   UNL A   1      49.653  25.982  28.194  1.00  0.00     0.134 A 
ATOM     74  C   UNL A   1      49.169  26.371  25.884  1.00  0.00     0.134 A 
ATOM     75  F   UNL A   1      49.303  25.988  29.488  1.00  0.00    -0.206 F 
ATOM     76  C   UNL A   1      50.950  25.585  27.863  1.00  0.00     0.040 A 
ATOM     77  C   UNL A   1      50.455  25.954  25.535  1.00  0.00     0.040 A 
ATOM     78  F   UNL A   1      48.335  26.734  24.897  1.00  0.00    -0.206 F 
ATOM     79  C   UNL A   1      51.351  25.563  26.529  1.00  0.00     0.006 A 
ENDBRANCH  51  72
BRANCH  63  80
ATOM     80  C   UNL A   1      45.760  32.364  29.262  1.00  0.00     0.057 A 
ATOM     81  C   UNL A   1      45.812  33.388  28.310  1.00  0.00     0.134 A 
ATOM     82  C   UNL A   1      46.160  32.675  30.570  1.00  0.00     0.134 A 
ATOM     83  F   UNL A   1      45.455  33.154  27.038  1.00  0.00    -0.206 F 
ATOM     84  C   UNL A   1      46.250  34.671  28.644  1.00  0.00     0.040 A 
ATOM     85  C   UNL A   1      46.572  33.959  30.923  1.00  0.00     0.040 A 
ATOM     86  F   UNL A   1      46.125  31.740  31.532  1.00  0.00    -0.206 F 
ATOM     87  C   UNL A   1      46.620  34.962  29.957  1.00  0.00     0.006 A 
ENDBRANCH  63  80
ENDBRANCH  37  38
ENDBRANCH  29  32
ENDBRANCH  27  28
ENDBRANCH  26  27
ENDBRANCH   1  26
TORSDOF 14
ENDMDL
MODEL 2
REMARK VINA RESULT:     -12.0      5.243     10.028
REMARK SMILES N#C/C(=C\c1ccc(-c2cc(C(F)(F)F)ccc2Cl)o1)C(=O)NCCCNC(=O)c1ccc(-c2c3nc(c(-c4c(F)cccc4F)c4ccc([nH]4)c(-c4c(F)cccc4F)c4nc(c(-c5c(F)cccc5F)c5ccc2[nH]5)C=C4)C=C3)cc1
REMARK SMILES IDX 24 1 23 2 21 3 22 4 3 6 4 7 2 8 1 9 5 10 6 11 20 12 7 13
REMARK SMILES IDX 8 14 9 15 10 16 18 17 11 18 17 19 19 20 16 21 12 22 13 23
REMARK SMILES IDX 14 24 15 25 25 26 26 27 27 28 28 29 29 31 30 32 31 33 83 34
REMARK SMILES IDX 32 35 82 36 33 37 34 38 35 39 76 40 36 41 81 42 75 43 77 44
REMARK SMILES IDX 37 45 80 46 74 47 73 48 38 50 64 51 47 52 63 53 48 54 51 55
REMARK SMILES IDX 62 56 78 57 49 58 50 59 61 61 79 62 52 63 39 64 40 65 45 66
REMARK SMILES IDX 41 67 42 68 44 69 46 70 43 71 65 72 66 73 71 74 67 75 68 76
REMARK SMILES IDX 70 77 72 78 69 79 53 80 54 81 59 82 55 83 56 84 58 85 60 86
REMARK SMILES IDX 57 87
REMARK H PARENT 23 5 27 30 77 49 51 60
REMARK Flexibility Score: inf
ROOT
ATOM      1  C   UNL A   1      31.614  30.336  25.638  1.00  0.00     0.118 C 
ENDROOT
BRANCH   1   2
ATOM      2  N   UNL A   1      30.697  30.450  24.518  1.00  0.00    -0.351 N 
ATOM      3  C   UNL A   1      30.262  29.561  23.583  1.00  0.00     0.262 C 
ATOM      4  O   UNL A   1      29.439  29.970  22.764  1.00  0.00    -0.268 OA
ATOM      5  H   UNL A   1      30.313  31.349  24.414  1.00  0.00     0.163 HD
BRANCH   3   6
ATOM      6  C   UNL A   1      30.719  28.151  23.526  1.00  0.00     0.120 C 
ATOM      7  C   UNL A   1      30.142  27.056  24.087  1.00  0.00     0.072 C 
BRANCH   6   8
ATOM      8  C   UNL A   1      32.044  27.861  22.841  1.00  0.00     0.105 C 
ATOM      9  N   UNL A   1      33.144  27.620  22.273  1.00  0.00    -0.192 NA
ENDBRANCH   6   8
BRANCH   7  10
ATOM     10  C   UNL A   1      30.681  25.721  23.990  1.00  0.00     0.129 A 
ATOM     11  C   UNL A   1      30.274  24.651  23.195  1.00  0.00     0.051 A 
ATOM     12  O   UNL A   1      31.790  25.289  24.709  1.00  0.00    -0.457 OA
ATOM     13  C   UNL A   1      31.102  23.545  23.475  1.00  0.00     0.051 A 
ATOM     14  C   UNL A   1      32.037  23.983  24.384  1.00  0.00     0.136 A 
BRANCH  14  15
ATOM     15  C   UNL A   1      33.191  23.321  24.989  1.00  0.00     0.036 A 
ATOM     16  C   UNL A   1      34.393  23.193  24.267  1.00  0.00     0.026 A 
ATOM     17  C   UNL A   1      33.175  22.900  26.334  1.00  0.00     0.052 A 
ATOM     18  C   UNL A   1      35.563  22.687  24.874  1.00  0.00     0.056 A 
ATOM     19  C   UNL A   1      34.328  22.389  26.939  1.00  0.00     0.022 A 
ATOM     20  Cl  UNL A   1      31.751  22.980  27.318  1.00  0.00    -0.084 Cl
ATOM     21  C   UNL A   1      35.516  22.289  26.217  1.00  0.00     0.014 A 
BRANCH  18  22
ATOM     22  C   UNL A   1      36.857  22.593  24.095  1.00  0.00     0.416 C 
ATOM     23  F   UNL A   1      37.554  21.459  24.378  1.00  0.00    -0.166 F 
ATOM     24  F   UNL A   1      36.656  22.589  22.749  1.00  0.00    -0.166 F 
ATOM     25  F   UNL A   1      37.712  23.626  24.339  1.00  0.00    -0.166 F 
ENDBRANCH  18  22
ENDBRANCH  14  15
ENDBRANCH   7  10
ENDBRANCH   3   6
ENDBRANCH   1   2
BRANCH   1  26
ATOM     26  C   UNL A   1      31.405  31.470  26.642  1.00  0.00     0.042 C 
BRANCH  26  27
ATOM     27  C   UNL A   1      32.707  32.185  26.986  1.00  0.00     0.118 C 
BRANCH  27  28
ATOM     28  N   UNL A   1      32.473  33.584  27.326  1.00  0.00    -0.352 N 
ATOM     29  C   UNL A   1      33.022  34.345  28.327  1.00  0.00     0.251 C 
ATOM     30  H   UNL A   1      31.825  34.053  26.751  1.00  0.00     0.163 HD
ATOM     31  O   UNL A   1      32.532  35.428  28.617  1.00  0.00    -0.269 OA
BRANCH  29  32
ATOM     32  C   UNL A   1      34.207  33.845  29.050  1.00  0.00     0.039 A 
ATOM     33  C   UNL A   1      34.048  32.851  30.020  1.00  0.00     0.014 A 
ATOM     34  C   UNL A   1      35.469  34.369  28.768  1.00  0.00     0.014 A 
ATOM     35  C   UNL A   1      35.172  32.341  30.670  1.00  0.00     0.010 A 
ATOM     36  C   UNL A   1      36.590  33.804  29.354  1.00  0.00     0.010 A 
ATOM     37  C   UNL A   1      36.452  32.792  30.318  1.00  0.00    -0.014 A 
BRANCH  37  38
ATOM     38  C   UNL A   1      37.682  32.260  30.951  1.00  0.00     0.031 A 
ATOM     39  C   UNL A   1      38.446  31.167  30.261  1.00  0.00     0.074 A 
ATOM     40  C   UNL A   1      38.028  32.663  32.187  1.00  0.00     0.049 A 
ATOM     41  N   UNL A   1      39.415  30.417  30.718  1.00  0.00    -0.248 NA
ATOM     42  C   UNL A   1      38.030  30.845  28.886  1.00  0.00     0.031 C 
ATOM     43  C   UNL A   1      37.341  33.692  32.967  1.00  0.00     0.029 A 
ATOM     44  N   UNL A   1      39.028  32.225  33.018  1.00  0.00    -0.354 N 
ATOM     45  C   UNL A   1      39.698  29.513  29.702  1.00  0.00     0.074 A 
ATOM     46  C   UNL A   1      38.764  29.774  28.629  1.00  0.00     0.031 C 
ATOM     47  C   UNL A   1      37.940  33.808  34.163  1.00  0.00     0.029 A 
ATOM     48  C   UNL A   1      39.017  32.827  34.252  1.00  0.00     0.049 A 
ATOM     49  H   UNL A   1      39.690  31.545  32.754  1.00  0.00     0.167 HD
ATOM     50  C   UNL A   1      40.659  28.561  29.664  1.00  0.00     0.037 A 
ATOM     51  C   UNL A   1      39.773  32.594  35.342  1.00  0.00     0.037 A 
ATOM     52  C   UNL A   1      41.595  28.329  30.731  1.00  0.00     0.049 A 
ATOM     53  C   UNL A   1      40.833  31.529  35.283  1.00  0.00     0.074 A 
ATOM     54  C   UNL A   1      42.652  27.437  30.772  1.00  0.00     0.029 A 
ATOM     55  N   UNL A   1      41.582  28.993  31.949  1.00  0.00    -0.354 N 
ATOM     56  N   UNL A   1      41.132  30.716  34.298  1.00  0.00    -0.248 NA
ATOM     57  C   UNL A   1      41.663  31.351  36.482  1.00  0.00     0.031 C 
ATOM     58  C   UNL A   1      43.242  27.521  32.036  1.00  0.00     0.029 A 
ATOM     59  C   UNL A   1      42.597  28.513  32.759  1.00  0.00     0.049 A 
ATOM     60  H   UNL A   1      40.945  29.701  32.201  1.00  0.00     0.167 HD
ATOM     61  C   UNL A   1      42.206  29.956  34.742  1.00  0.00     0.074 A 
ATOM     62  C   UNL A   1      42.505  30.404  36.088  1.00  0.00     0.031 C 
ATOM     63  C   UNL A   1      42.890  28.985  34.091  1.00  0.00     0.037 A 
BRANCH  50  64
ATOM     64  C   UNL A   1      40.724  27.694  28.438  1.00  0.00     0.057 A 
ATOM     65  C   UNL A   1      41.484  28.046  27.313  1.00  0.00     0.134 A 
ATOM     66  C   UNL A   1      40.012  26.489  28.379  1.00  0.00     0.134 A 
ATOM     67  F   UNL A   1      42.181  29.193  27.296  1.00  0.00    -0.206 F 
ATOM     68  C   UNL A   1      41.496  27.258  26.162  1.00  0.00     0.040 A 
ATOM     69  C   UNL A   1      40.045  25.674  27.247  1.00  0.00     0.040 A 
ATOM     70  F   UNL A   1      39.270  26.083  29.421  1.00  0.00    -0.206 F 
ATOM     71  C   UNL A   1      40.778  26.065  26.129  1.00  0.00     0.006 A 
ENDBRANCH  50  64
BRANCH  51  72
ATOM     72  C   UNL A   1      39.558  33.401  36.568  1.00  0.00     0.057 A 
ATOM     73  C   UNL A   1      38.720  32.947  37.591  1.00  0.00     0.134 A 
ATOM     74  C   UNL A   1      40.211  34.625  36.763  1.00  0.00     0.134 A 
ATOM     75  F   UNL A   1      38.057  31.790  37.457  1.00  0.00    -0.206 F 
ATOM     76  C   UNL A   1      38.530  33.684  38.762  1.00  0.00     0.040 A 
ATOM     77  C   UNL A   1      40.050  35.361  37.939  1.00  0.00     0.040 A 
ATOM     78  F   UNL A   1      41.039  35.109  35.825  1.00  0.00    -0.206 F 
ATOM     79  C   UNL A   1      39.203  34.892  38.941  1.00  0.00     0.006 A 
ENDBRANCH  51  72
BRANCH  63  80
ATOM     80  C   UNL A   1      44.068  28.372  34.789  1.00  0.00     0.057 A 
ATOM     81  C   UNL A   1      45.349  28.933  34.722  1.00  0.00     0.134 A 
ATOM     82  C   UNL A   1      43.894  27.251  35.612  1.00  0.00     0.134 A 
ATOM     83  F   UNL A   1      45.586  30.000  33.944  1.00  0.00    -0.206 F 
ATOM     84  C   UNL A   1      46.417  28.395  35.443  1.00  0.00     0.040 A 
ATOM     85  C   UNL A   1      44.945  26.721  36.358  1.00  0.00     0.040 A 
ATOM     86  F   UNL A   1      42.689  26.672  35.726  1.00  0.00    -0.206 F 
ATOM     87  C   UNL A   1      46.213  27.293  36.274  1.00  0.00     0.006 A 
ENDBRANCH  63  80
ENDBRANCH  37  38
ENDBRANCH  29  32
ENDBRANCH  27  28
ENDBRANCH  26  27
ENDBRANCH   1  26
TORSDOF 14
ENDMDL
MODEL 3
REMARK VINA RESULT:     -12.0      5.349     10.093
REMARK SMILES N#C/C(=C\c1ccc(-c2cc(C(F)(F)F)ccc2Cl)o1)C(=O)NCCCNC(=O)c1ccc(-c2c3nc(c(-c4c(F)cccc4F)c4ccc([nH]4)c(-c4c(F)cccc4F)c4nc(c(-c5c(F)cccc5F)c5ccc2[nH]5)C=C4)C=C3)cc1
REMARK SMILES IDX 24 1 23 2 21 3 22 4 3 6 4 7 2 8 1 9 5 10 6 11 20 12 7 13
REMARK SMILES IDX 8 14 9 15 10 16 18 17 11 18 17 19 19 20 16 21 12 22 13 23
REMARK SMILES IDX 14 24 15 25 25 26 26 27 27 28 28 29 29 31 30 32 31 33 83 34
REMARK SMILES IDX 32 35 82 36 33 37 34 38 35 39 76 40 36 41 81 42 75 43 77 44
REMARK SMILES IDX 37 45 80 46 74 47 73 48 38 50 64 51 47 52 63 53 48 54 51 55
REMARK SMILES IDX 62 56 78 57 49 58 50 59 61 61 79 62 52 63 39 64 40 65 45 66
REMARK SMILES IDX 41 67 42 68 44 69 46 70 43 71 65 72 66 73 71 74 67 75 68 76
REMARK SMILES IDX 70 77 72 78 69 79 53 80 54 81 59 82 55 83 56 84 58 85 60 86
REMARK SMILES IDX 57 87
REMARK H PARENT 23 5 27 30 77 49 51 60
REMARK Flexibility Score: inf
ROOT
ATOM      1  C   UNL A   1      31.665  30.342  26.157  1.00  0.00     0.118 C 
ENDROOT
BRANCH   1   2
ATOM      2  N   UNL A   1      31.332  30.066  24.771  1.00  0.00    -0.351 N 
ATOM      3  C   UNL A   1      31.167  28.910  24.071  1.00  0.00     0.262 C 
ATOM      4  O   UNL A   1      30.848  29.015  22.886  1.00  0.00    -0.268 OA
ATOM      5  H   UNL A   1      31.200  30.876  24.229  1.00  0.00     0.163 HD
BRANCH   3   6
ATOM      6  C   UNL A   1      31.335  27.564  24.670  1.00  0.00     0.120 C 
ATOM      7  C   UNL A   1      30.537  26.474  24.529  1.00  0.00     0.072 C 
BRANCH   6   8
ATOM      8  C   UNL A   1      32.483  27.359  25.646  1.00  0.00     0.105 C 
ATOM      9  N   UNL A   1      33.435  27.189  26.455  1.00  0.00    -0.192 NA
ENDBRANCH   6   8
BRANCH   7  10
ATOM     10  C   UNL A   1      30.778  25.207  25.176  1.00  0.00     0.129 A 
ATOM     11  C   UNL A   1      30.088  24.595  26.222  1.00  0.00     0.051 A 
ATOM     12  O   UNL A   1      31.792  24.334  24.797  1.00  0.00    -0.457 OA
ATOM     13  C   UNL A   1      30.723  23.371  26.519  1.00  0.00     0.051 A 
ATOM     14  C   UNL A   1      31.741  23.232  25.607  1.00  0.00     0.136 A 
BRANCH  14  15
ATOM     15  C   UNL A   1      32.693  22.148  25.367  1.00  0.00     0.036 A 
ATOM     16  C   UNL A   1      32.260  20.944  24.781  1.00  0.00     0.026 A 
ATOM     17  C   UNL A   1      34.072  22.315  25.604  1.00  0.00     0.052 A 
ATOM     18  C   UNL A   1      33.179  19.938  24.409  1.00  0.00     0.056 A 
ATOM     19  C   UNL A   1      34.987  21.318  25.247  1.00  0.00     0.022 A 
ATOM     20  Cl  UNL A   1      34.724  23.739  26.346  1.00  0.00    -0.084 Cl
ATOM     21  C   UNL A   1      34.545  20.140  24.648  1.00  0.00     0.014 A 
BRANCH  18  22
ATOM     22  C   UNL A   1      32.701  18.665  23.743  1.00  0.00     0.416 C 
ATOM     23  F   UNL A   1      31.940  18.908  22.641  1.00  0.00    -0.166 F 
ATOM     24  F   UNL A   1      33.729  17.876  23.328  1.00  0.00    -0.166 F 
ATOM     25  F   UNL A   1      31.938  17.882  24.557  1.00  0.00    -0.166 F 
ENDBRANCH  18  22
ENDBRANCH  14  15
ENDBRANCH   7  10
ENDBRANCH   3   6
ENDBRANCH   1   2
BRANCH   1  26
ATOM     26  C   UNL A   1      31.452  31.818  26.493  1.00  0.00     0.042 C 
BRANCH  26  27
ATOM     27  C   UNL A   1      32.649  32.425  27.215  1.00  0.00     0.118 C 
BRANCH  27  28
ATOM     28  N   UNL A   1      32.437  33.839  27.503  1.00  0.00    -0.352 N 
ATOM     29  C   UNL A   1      33.051  34.645  28.429  1.00  0.00     0.251 C 
ATOM     30  H   UNL A   1      31.753  34.282  26.950  1.00  0.00     0.163 HD
ATOM     31  O   UNL A   1      32.581  35.742  28.699  1.00  0.00    -0.269 OA
BRANCH  29  32
ATOM     32  C   UNL A   1      34.280  34.177  29.096  1.00  0.00     0.039 A 
ATOM     33  C   UNL A   1      34.179  33.347  30.215  1.00  0.00     0.014 A 
ATOM     34  C   UNL A   1      35.529  34.569  28.612  1.00  0.00     0.014 A 
ATOM     35  C   UNL A   1      35.340  32.862  30.819  1.00  0.00     0.010 A 
ATOM     36  C   UNL A   1      36.678  34.021  29.160  1.00  0.00     0.010 A 
ATOM     37  C   UNL A   1      36.595  33.171  30.275  1.00  0.00    -0.014 A 
BRANCH  37  38
ATOM     38  C   UNL A   1      37.858  32.655  30.853  1.00  0.00     0.031 A 
ATOM     39  C   UNL A   1      38.503  31.445  30.241  1.00  0.00     0.074 A 
ATOM     40  C   UNL A   1      38.341  33.188  31.990  1.00  0.00     0.049 A 
ATOM     41  N   UNL A   1      39.480  30.706  30.698  1.00  0.00    -0.248 NA
ATOM     42  C   UNL A   1      37.939  30.979  28.964  1.00  0.00     0.031 C 
ATOM     43  C   UNL A   1      37.780  34.342  32.692  1.00  0.00     0.029 A 
ATOM     44  N   UNL A   1      39.400  32.802  32.773  1.00  0.00    -0.354 N 
ATOM     45  C   UNL A   1      39.622  29.669  29.784  1.00  0.00     0.074 A 
ATOM     46  C   UNL A   1      38.598  29.846  28.778  1.00  0.00     0.031 C 
ATOM     47  C   UNL A   1      38.498  34.571  33.802  1.00  0.00     0.029 A 
ATOM     48  C   UNL A   1      39.537  33.552  33.915  1.00  0.00     0.049 A 
ATOM     49  H   UNL A   1      40.003  32.060  32.538  1.00  0.00     0.167 HD
ATOM     50  C   UNL A   1      40.533  28.668  29.779  1.00  0.00     0.037 A 
ATOM     51  C   UNL A   1      40.387  33.414  34.951  1.00  0.00     0.037 A 
ATOM     52  C   UNL A   1      41.561  28.519  30.775  1.00  0.00     0.049 A 
ATOM     53  C   UNL A   1      41.390  32.294  34.931  1.00  0.00     0.074 A 
ATOM     54  C   UNL A   1      42.578  27.583  30.831  1.00  0.00     0.029 A 
ATOM     55  N   UNL A   1      41.696  29.329  31.894  1.00  0.00    -0.354 N 
ATOM     56  N   UNL A   1      41.555  31.350  34.035  1.00  0.00    -0.248 NA
ATOM     57  C   UNL A   1      42.327  32.220  36.060  1.00  0.00     0.031 C 
ATOM     58  C   UNL A   1      43.293  27.791  32.014  1.00  0.00     0.029 A 
ATOM     59  C   UNL A   1      42.765  28.898  32.661  1.00  0.00     0.049 A 
ATOM     60  H   UNL A   1      41.118  30.096  32.111  1.00  0.00     0.167 HD
ATOM     61  C   UNL A   1      42.635  30.594  34.470  1.00  0.00     0.074 A 
ATOM     62  C   UNL A   1      43.085  31.188  35.713  1.00  0.00     0.031 C 
ATOM     63  C   UNL A   1      43.209  29.514  33.888  1.00  0.00     0.037 A 
BRANCH  50  64
ATOM     64  C   UNL A   1      40.439  27.655  28.673  1.00  0.00     0.057 A 
ATOM     65  C   UNL A   1      41.149  27.792  27.472  1.00  0.00     0.134 A 
ATOM     66  C   UNL A   1      39.624  26.524  28.812  1.00  0.00     0.134 A 
ATOM     67  F   UNL A   1      41.940  28.857  27.268  1.00  0.00    -0.206 F 
ATOM     68  C   UNL A   1      41.015  26.870  26.433  1.00  0.00     0.040 A 
ATOM     69  C   UNL A   1      39.509  25.576  27.794  1.00  0.00     0.040 A 
ATOM     70  F   UNL A   1      38.922  26.322  29.938  1.00  0.00    -0.206 F 
ATOM     71  C   UNL A   1      40.195  25.755  26.595  1.00  0.00     0.006 A 
ENDBRANCH  50  64
BRANCH  51  72
ATOM     72  C   UNL A   1      40.329  34.377  36.078  1.00  0.00     0.057 A 
ATOM     73  C   UNL A   1      39.610  34.083  37.241  1.00  0.00     0.134 A 
ATOM     74  C   UNL A   1      41.018  35.596  36.037  1.00  0.00     0.134 A 
ATOM     75  F   UNL A   1      38.919  32.938  37.335  1.00  0.00    -0.206 F 
ATOM     76  C   UNL A   1      39.569  34.968  38.320  1.00  0.00     0.040 A 
ATOM     77  C   UNL A   1      41.007  36.480  37.117  1.00  0.00     0.040 A 
ATOM     78  F   UNL A   1      41.738  35.932  34.955  1.00  0.00    -0.206 F 
ATOM     79  C   UNL A   1      40.276  36.168  38.262  1.00  0.00     0.006 A 
ENDBRANCH  51  72
BRANCH  63  80
ATOM     80  C   UNL A   1      44.424  28.929  34.546  1.00  0.00     0.057 A 
ATOM     81  C   UNL A   1      44.340  27.881  35.469  1.00  0.00     0.134 A 
ATOM     82  C   UNL A   1      45.703  29.369  34.179  1.00  0.00     0.134 A 
ATOM     83  F   UNL A   1      43.146  27.420  35.871  1.00  0.00    -0.206 F 
ATOM     84  C   UNL A   1      45.487  27.296  36.011  1.00  0.00     0.040 A 
ATOM     85  C   UNL A   1      46.856  28.775  34.692  1.00  0.00     0.040 A 
ATOM     86  F   UNL A   1      45.851  30.365  33.292  1.00  0.00    -0.206 F 
ATOM     87  C   UNL A   1      46.749  27.735  35.612  1.00  0.00     0.006 A 
ENDBRANCH  63  80
ENDBRANCH  37  38
ENDBRANCH  29  32
ENDBRANCH  27  28
ENDBRANCH  26  27
ENDBRANCH   1  26
TORSDOF 14
ENDMDL
