MODEL 1
REMARK VINA RESULT:     -11.8      0.000      0.000
REMARK SMILES O=C(NCCCNC(=O)c1cc(/C=C/c2cc(O)cc(O)c2)ccc1O)c1ccc(-c2c3nc(c(-c4c(F)cccc4F)c4ccc([nH]4)c(-c4c(F)cccc4F)c4nc(c(-c5c(F)cccc5F)c5ccc2[nH]5)C=C4)C=C3)cc1
REMARK SMILES IDX 5 1 4 2 3 3 1 4 2 5 27 7 28 8 80 9 29 10 79 11 30 12 31 13
REMARK SMILES IDX 32 14 73 15 33 16 78 17 72 18 74 19 34 20 77 21 71 22 70 23
REMARK SMILES IDX 35 25 61 26 44 27 60 28 45 29 48 30 59 31 75 32 46 33 47 34
REMARK SMILES IDX 58 36 76 37 49 38 36 39 37 40 42 41 38 42 39 43 41 44 43 45
REMARK SMILES IDX 40 46 62 47 63 48 68 49 64 50 65 51 67 52 69 53 66 54 50 55
REMARK SMILES IDX 51 56 56 57 52 58 53 59 55 60 57 61 54 62 6 63 7 64 8 65
REMARK SMILES IDX 9 67 10 68 11 69 25 70 12 71 24 72 23 73 26 74 13 76 14 77
REMARK SMILES IDX 15 78 16 79 22 80 17 81 20 82 19 83 18 84 21 86
REMARK H PARENT 3 6 74 24 48 35 7 66 26 75 18 85 21 87
REMARK Flexibility Score: inf
ROOT
ATOM      1  C   UNL A   1      37.874  20.101  24.610  1.00  0.00     0.042 C 
ENDROOT
BRANCH   1   2
ATOM      2  C   UNL A   1      38.737  20.185  25.859  1.00  0.00     0.118 C 
BRANCH   2   3
ATOM      3  N   UNL A   1      39.907  19.316  25.800  1.00  0.00    -0.352 N 
ATOM      4  O   UNL A   1      42.086  18.742  25.756  1.00  0.00    -0.269 OA
ATOM      5  C   UNL A   1      41.235  19.584  26.035  1.00  0.00     0.251 C 
ATOM      6  H   UNL A   1      39.715  18.383  25.552  1.00  0.00     0.163 HD
BRANCH   5   7
ATOM      7  C   UNL A   1      41.650  20.887  26.599  1.00  0.00     0.039 A 
ATOM      8  C   UNL A   1      41.647  21.097  27.976  1.00  0.00     0.014 A 
ATOM      9  C   UNL A   1      42.071  21.910  25.742  1.00  0.00     0.014 A 
ATOM     10  C   UNL A   1      41.865  22.370  28.480  1.00  0.00     0.010 A 
ATOM     11  C   UNL A   1      42.417  23.162  26.264  1.00  0.00     0.010 A 
ATOM     12  C   UNL A   1      42.280  23.414  27.636  1.00  0.00    -0.014 A 
BRANCH  12  13
ATOM     13  C   UNL A   1      42.627  24.720  28.255  1.00  0.00     0.031 A 
ATOM     14  C   UNL A   1      44.050  25.102  28.551  1.00  0.00     0.074 A 
ATOM     15  C   UNL A   1      41.630  25.603  28.466  1.00  0.00     0.049 A 
ATOM     16  N   UNL A   1      44.515  26.244  28.994  1.00  0.00    -0.248 NA
ATOM     17  C   UNL A   1      45.083  24.078  28.336  1.00  0.00     0.031 C 
ATOM     18  C   UNL A   1      40.206  25.333  28.243  1.00  0.00     0.029 A 
ATOM     19  N   UNL A   1      41.658  26.913  28.867  1.00  0.00    -0.354 N 
ATOM     20  C   UNL A   1      45.889  26.073  29.123  1.00  0.00     0.074 A 
ATOM     21  C   UNL A   1      46.179  24.709  28.737  1.00  0.00     0.031 C 
ATOM     22  C   UNL A   1      39.508  26.461  28.429  1.00  0.00     0.029 A 
ATOM     23  C   UNL A   1      40.421  27.515  28.850  1.00  0.00     0.049 A 
ATOM     24  H   UNL A   1      42.481  27.379  29.139  1.00  0.00     0.167 HD
ATOM     25  C   UNL A   1      46.818  26.975  29.518  1.00  0.00     0.037 A 
ATOM     26  C   UNL A   1      40.058  28.775  29.147  1.00  0.00     0.037 A 
ATOM     27  C   UNL A   1      46.525  28.338  29.888  1.00  0.00     0.049 A 
ATOM     28  C   UNL A   1      41.112  29.755  29.562  1.00  0.00     0.074 A 
ATOM     29  C   UNL A   1      47.400  29.329  30.299  1.00  0.00     0.029 A 
ATOM     30  N   UNL A   1      45.258  28.902  29.887  1.00  0.00    -0.354 N 
ATOM     31  N   UNL A   1      42.406  29.578  29.667  1.00  0.00    -0.248 NA
ATOM     32  C   UNL A   1      40.656  31.107  29.907  1.00  0.00     0.031 C 
ATOM     33  C   UNL A   1      46.659  30.484  30.574  1.00  0.00     0.029 A 
ATOM     34  C   UNL A   1      45.327  30.223  30.298  1.00  0.00     0.049 A 
ATOM     35  H   UNL A   1      44.431  28.432  29.632  1.00  0.00     0.167 HD
ATOM     36  C   UNL A   1      42.921  30.792  30.095  1.00  0.00     0.074 A 
ATOM     37  C   UNL A   1      41.803  31.709  30.188  1.00  0.00     0.031 C 
ATOM     38  C   UNL A   1      44.201  31.115  30.398  1.00  0.00     0.037 A 
BRANCH  25  39
ATOM     39  C   UNL A   1      48.249  26.523  29.577  1.00  0.00     0.057 A 
ATOM     40  C   UNL A   1      48.770  25.875  30.704  1.00  0.00     0.134 A 
ATOM     41  C   UNL A   1      49.096  26.680  28.472  1.00  0.00     0.134 A 
ATOM     42  F   UNL A   1      48.015  25.704  31.799  1.00  0.00    -0.206 F 
ATOM     43  C   UNL A   1      50.087  25.411  30.734  1.00  0.00     0.040 A 
ATOM     44  C   UNL A   1      50.408  26.201  28.483  1.00  0.00     0.040 A 
ATOM     45  F   UNL A   1      48.658  27.286  27.359  1.00  0.00    -0.206 F 
ATOM     46  C   UNL A   1      50.907  25.566  29.618  1.00  0.00     0.006 A 
ENDBRANCH  25  39
BRANCH  26  47
ATOM     47  C   UNL A   1      38.629  29.167  29.071  1.00  0.00     0.057 A 
ATOM     48  C   UNL A   1      38.059  29.617  27.875  1.00  0.00     0.134 A 
ATOM     49  C   UNL A   1      37.796  29.087  30.195  1.00  0.00     0.134 A 
ATOM     50  F   UNL A   1      38.809  29.729  26.769  1.00  0.00    -0.206 F 
ATOM     51  C   UNL A   1      36.716  29.988  27.802  1.00  0.00     0.040 A 
ATOM     52  C   UNL A   1      36.445  29.427  30.130  1.00  0.00     0.040 A 
ATOM     53  F   UNL A   1      38.281  28.654  31.367  1.00  0.00    -0.206 F 
ATOM     54  C   UNL A   1      35.903  29.886  28.931  1.00  0.00     0.006 A 
ENDBRANCH  26  47
BRANCH  38  55
ATOM     55  C   UNL A   1      44.445  32.521  30.857  1.00  0.00     0.057 A 
ATOM     56  C   UNL A   1      44.720  33.551  29.948  1.00  0.00     0.134 A 
ATOM     57  C   UNL A   1      44.410  32.847  32.218  1.00  0.00     0.134 A 
ATOM     58  F   UNL A   1      44.784  33.297  28.633  1.00  0.00    -0.206 F 
ATOM     59  C   UNL A   1      44.982  34.851  30.380  1.00  0.00     0.040 A 
ATOM     60  C   UNL A   1      44.648  34.148  32.660  1.00  0.00     0.040 A 
ATOM     61  F   UNL A   1      44.148  31.906  33.138  1.00  0.00    -0.206 F 
ATOM     62  C   UNL A   1      44.943  35.153  31.739  1.00  0.00     0.006 A 
ENDBRANCH  38  55
ENDBRANCH  12  13
ENDBRANCH   5   7
ENDBRANCH   2   3
ENDBRANCH   1   2
BRANCH   1  63
ATOM     63  C   UNL A   1      37.093  21.373  24.322  1.00  0.00     0.118 C 
BRANCH  63  64
ATOM     64  N   UNL A   1      37.601  22.507  25.077  1.00  0.00    -0.352 N 
ATOM     65  C   UNL A   1      36.912  23.520  25.692  1.00  0.00     0.255 C 
ATOM     66  H   UNL A   1      38.581  22.554  25.158  1.00  0.00     0.163 HD
ATOM     67  O   UNL A   1      37.523  24.481  26.154  1.00  0.00    -0.269 OA
BRANCH  65  68
ATOM     68  C   UNL A   1      35.436  23.507  25.734  1.00  0.00     0.082 A 
ATOM     69  C   UNL A   1      34.769  24.534  25.050  1.00  0.00     0.025 A 
ATOM     70  C   UNL A   1      34.707  22.555  26.454  1.00  0.00     0.128 A 
ATOM     71  C   UNL A   1      33.371  24.592  25.035  1.00  0.00    -0.025 A 
ATOM     72  C   UNL A   1      33.317  22.578  26.417  1.00  0.00     0.047 A 
ATOM     73  C   UNL A   1      32.657  23.585  25.705  1.00  0.00     0.012 A 
BRANCH  70  74
ATOM     74  O   UNL A   1      35.348  21.600  27.191  1.00  0.00    -0.507 OA
ATOM     75  H   UNL A   1      35.574  21.771  28.085  1.00  0.00     0.293 HD
ENDBRANCH  70  74
BRANCH  71  76
ATOM     76  C   UNL A   1      32.607  25.654  24.355  1.00  0.00     0.009 C 
ATOM     77  C   UNL A   1      31.410  26.131  24.734  1.00  0.00     0.009 C 
BRANCH  77  78
ATOM     78  C   UNL A   1      30.684  27.155  23.968  1.00  0.00    -0.018 A 
ATOM     79  C   UNL A   1      31.366  28.098  23.185  1.00  0.00     0.054 A 
ATOM     80  C   UNL A   1      29.283  27.144  23.967  1.00  0.00     0.054 A 
ATOM     81  C   UNL A   1      30.647  29.026  22.435  1.00  0.00     0.119 A 
ATOM     82  C   UNL A   1      28.584  28.084  23.210  1.00  0.00     0.119 A 
ATOM     83  C   UNL A   1      29.257  29.029  22.445  1.00  0.00     0.092 A 
BRANCH  81  84
ATOM     84  O   UNL A   1      31.280  29.955  21.661  1.00  0.00    -0.508 OA
ATOM     85  H   UNL A   1      32.190  29.855  21.460  1.00  0.00     0.293 HD
ENDBRANCH  81  84
BRANCH  82  86
ATOM     86  O   UNL A   1      27.220  28.106  23.191  1.00  0.00    -0.508 OA
ATOM     87  H   UNL A   1      26.766  28.315  22.398  1.00  0.00     0.293 HD
ENDBRANCH  82  86
ENDBRANCH  77  78
ENDBRANCH  71  76
ENDBRANCH  65  68
ENDBRANCH  63  64
ENDBRANCH   1  63
TORSDOF 15
ENDMDL
MODEL 2
REMARK VINA RESULT:     -11.8      2.975      8.314
REMARK SMILES O=C(NCCCNC(=O)c1cc(/C=C/c2cc(O)cc(O)c2)ccc1O)c1ccc(-c2c3nc(c(-c4c(F)cccc4F)c4ccc([nH]4)c(-c4c(F)cccc4F)c4nc(c(-c5c(F)cccc5F)c5ccc2[nH]5)C=C4)C=C3)cc1
REMARK SMILES IDX 5 1 4 2 3 3 1 4 2 5 27 7 28 8 80 9 29 10 79 11 30 12 31 13
REMARK SMILES IDX 32 14 73 15 33 16 78 17 72 18 74 19 34 20 77 21 71 22 70 23
REMARK SMILES IDX 35 25 61 26 44 27 60 28 45 29 48 30 59 31 75 32 46 33 47 34
REMARK SMILES IDX 58 36 76 37 49 38 36 39 37 40 42 41 38 42 39 43 41 44 43 45
REMARK SMILES IDX 40 46 62 47 63 48 68 49 64 50 65 51 67 52 69 53 66 54 50 55
REMARK SMILES IDX 51 56 56 57 52 58 53 59 55 60 57 61 54 62 6 63 7 64 8 65
REMARK SMILES IDX 9 67 10 68 11 69 25 70 12 71 24 72 23 73 26 74 13 76 14 77
REMARK SMILES IDX 15 78 16 79 22 80 17 81 20 82 19 83 18 84 21 86
REMARK H PARENT 3 6 74 24 48 35 7 66 26 75 18 85 21 87
REMARK Flexibility Score: inf
ROOT
ATOM      1  C   UNL A   1      33.080  28.727  27.035  1.00  0.00     0.042 C 
ENDROOT
BRANCH   1   2
ATOM      2  C   UNL A   1      34.503  29.159  27.351  1.00  0.00     0.118 C 
BRANCH   2   3
ATOM      3  N   UNL A   1      34.564  30.246  28.322  1.00  0.00    -0.352 N 
ATOM      4  O   UNL A   1      35.372  31.496  30.014  1.00  0.00    -0.269 OA
ATOM      5  C   UNL A   1      35.591  30.663  29.136  1.00  0.00     0.251 C 
ATOM      6  H   UNL A   1      33.734  30.768  28.408  1.00  0.00     0.163 HD
BRANCH   5   7
ATOM      7  C   UNL A   1      36.949  30.101  28.981  1.00  0.00     0.039 A 
ATOM      8  C   UNL A   1      37.600  29.511  30.062  1.00  0.00     0.014 A 
ATOM      9  C   UNL A   1      37.578  30.142  27.732  1.00  0.00     0.014 A 
ATOM     10  C   UNL A   1      38.935  29.150  29.951  1.00  0.00     0.010 A 
ATOM     11  C   UNL A   1      38.883  29.658  27.588  1.00  0.00     0.010 A 
ATOM     12  C   UNL A   1      39.588  29.192  28.708  1.00  0.00    -0.014 A 
BRANCH  12  13
ATOM     13  C   UNL A   1      40.976  28.667  28.626  1.00  0.00     0.031 A 
ATOM     14  C   UNL A   1      41.261  27.240  28.250  1.00  0.00     0.074 A 
ATOM     15  C   UNL A   1      41.991  29.534  28.814  1.00  0.00     0.049 A 
ATOM     16  N   UNL A   1      42.419  26.665  28.040  1.00  0.00    -0.248 NA
ATOM     17  C   UNL A   1      40.109  26.338  28.100  1.00  0.00     0.031 C 
ATOM     18  C   UNL A   1      41.835  30.937  29.211  1.00  0.00     0.029 A 
ATOM     19  N   UNL A   1      43.343  29.386  28.653  1.00  0.00    -0.354 N 
ATOM     20  C   UNL A   1      42.139  25.336  27.746  1.00  0.00     0.074 A 
ATOM     21  C   UNL A   1      40.702  25.182  27.832  1.00  0.00     0.031 C 
ATOM     22  C   UNL A   1      43.031  31.539  29.182  1.00  0.00     0.029 A 
ATOM     23  C   UNL A   1      44.046  30.554  28.833  1.00  0.00     0.049 A 
ATOM     24  H   UNL A   1      43.771  28.528  28.429  1.00  0.00     0.167 HD
ATOM     25  C   UNL A   1      43.001  24.342  27.426  1.00  0.00     0.037 A 
ATOM     26  C   UNL A   1      45.362  30.807  28.735  1.00  0.00     0.037 A 
ATOM     27  C   UNL A   1      44.431  24.505  27.329  1.00  0.00     0.049 A 
ATOM     28  C   UNL A   1      46.289  29.690  28.360  1.00  0.00     0.074 A 
ATOM     29  C   UNL A   1      45.388  23.557  27.008  1.00  0.00     0.029 A 
ATOM     30  N   UNL A   1      45.108  25.695  27.548  1.00  0.00    -0.354 N 
ATOM     31  N   UNL A   1      46.004  28.443  28.076  1.00  0.00    -0.248 NA
ATOM     32  C   UNL A   1      47.720  30.014  28.300  1.00  0.00     0.031 C 
ATOM     33  C   UNL A   1      46.646  24.167  27.060  1.00  0.00     0.029 A 
ATOM     34  C   UNL A   1      46.469  25.505  27.376  1.00  0.00     0.049 A 
ATOM     35  H   UNL A   1      44.683  26.550  27.789  1.00  0.00     0.167 HD
ATOM     36  C   UNL A   1      47.218  27.830  27.808  1.00  0.00     0.074 A 
ATOM     37  C   UNL A   1      48.237  28.854  27.923  1.00  0.00     0.031 C 
ATOM     38  C   UNL A   1      47.469  26.533  27.509  1.00  0.00     0.037 A 
BRANCH  25  39
ATOM     39  C   UNL A   1      42.428  22.980  27.160  1.00  0.00     0.057 A 
ATOM     40  C   UNL A   1      42.308  22.473  25.861  1.00  0.00     0.134 A 
ATOM     41  C   UNL A   1      42.051  22.143  28.218  1.00  0.00     0.134 A 
ATOM     42  F   UNL A   1      42.641  23.227  24.803  1.00  0.00    -0.206 F 
ATOM     43  C   UNL A   1      41.821  21.185  25.623  1.00  0.00     0.040 A 
ATOM     44  C   UNL A   1      41.582  20.847  27.994  1.00  0.00     0.040 A 
ATOM     45  F   UNL A   1      42.146  22.565  29.488  1.00  0.00    -0.206 F 
ATOM     46  C   UNL A   1      41.465  20.365  26.692  1.00  0.00     0.006 A 
ENDBRANCH  25  39
BRANCH  26  47
ATOM     47  C   UNL A   1      45.873  32.172  29.009  1.00  0.00     0.057 A 
ATOM     48  C   UNL A   1      46.013  33.118  27.987  1.00  0.00     0.134 A 
ATOM     49  C   UNL A   1      46.222  32.567  30.307  1.00  0.00     0.134 A 
ATOM     50  F   UNL A   1      45.709  32.794  26.722  1.00  0.00    -0.206 F 
ATOM     51  C   UNL A   1      46.495  34.402  28.243  1.00  0.00     0.040 A 
ATOM     52  C   UNL A   1      46.677  33.857  30.582  1.00  0.00     0.040 A 
ATOM     53  F   UNL A   1      46.101  31.710  31.331  1.00  0.00    -0.206 F 
ATOM     54  C   UNL A   1      46.821  34.776  29.546  1.00  0.00     0.006 A 
ENDBRANCH  26  47
BRANCH  38  55
ATOM     55  C   UNL A   1      48.905  26.163  27.288  1.00  0.00     0.057 A 
ATOM     56  C   UNL A   1      49.484  26.208  26.014  1.00  0.00     0.134 A 
ATOM     57  C   UNL A   1      49.712  25.754  28.355  1.00  0.00     0.134 A 
ATOM     58  F   UNL A   1      48.756  26.575  24.948  1.00  0.00    -0.206 F 
ATOM     59  C   UNL A   1      50.810  25.829  25.804  1.00  0.00     0.040 A 
ATOM     60  C   UNL A   1      51.046  25.395  28.162  1.00  0.00     0.040 A 
ATOM     61  F   UNL A   1      49.217  25.695  29.602  1.00  0.00    -0.206 F 
ATOM     62  C   UNL A   1      51.596  25.425  26.881  1.00  0.00     0.006 A 
ENDBRANCH  38  55
ENDBRANCH  12  13
ENDBRANCH   5   7
ENDBRANCH   2   3
ENDBRANCH   1   2
BRANCH   1  63
ATOM     63  C   UNL A   1      32.891  28.253  25.603  1.00  0.00     0.118 C 
BRANCH  63  64
ATOM     64  N   UNL A   1      31.497  28.300  25.193  1.00  0.00    -0.352 N 
ATOM     65  C   UNL A   1      30.875  27.654  24.156  1.00  0.00     0.255 C 
ATOM     66  H   UNL A   1      30.916  28.877  25.739  1.00  0.00     0.163 HD
ATOM     67  O   UNL A   1      29.714  27.938  23.869  1.00  0.00    -0.269 OA
BRANCH  65  68
ATOM     68  C   UNL A   1      31.612  26.678  23.328  1.00  0.00     0.082 A 
ATOM     69  C   UNL A   1      31.445  25.321  23.643  1.00  0.00     0.025 A 
ATOM     70  C   UNL A   1      32.481  27.059  22.302  1.00  0.00     0.128 A 
ATOM     71  C   UNL A   1      32.102  24.330  22.903  1.00  0.00    -0.025 A 
ATOM     72  C   UNL A   1      33.112  26.085  21.535  1.00  0.00     0.047 A 
ATOM     73  C   UNL A   1      32.915  24.732  21.830  1.00  0.00     0.012 A 
BRANCH  70  74
ATOM     74  O   UNL A   1      32.715  28.380  22.042  1.00  0.00    -0.507 OA
ATOM     75  H   UNL A   1      32.109  28.869  21.520  1.00  0.00     0.293 HD
ENDBRANCH  70  74
BRANCH  71  76
ATOM     76  C   UNL A   1      31.989  22.889  23.191  1.00  0.00     0.009 C 
ATOM     77  C   UNL A   1      32.929  22.123  23.768  1.00  0.00     0.009 C 
BRANCH  77  78
ATOM     78  C   UNL A   1      32.762  20.676  23.969  1.00  0.00    -0.018 A 
ATOM     79  C   UNL A   1      32.896  20.099  25.241  1.00  0.00     0.054 A 
ATOM     80  C   UNL A   1      32.394  19.871  22.883  1.00  0.00     0.054 A 
ATOM     81  C   UNL A   1      32.687  18.731  25.406  1.00  0.00     0.119 A 
ATOM     82  C   UNL A   1      32.192  18.504  23.072  1.00  0.00     0.119 A 
ATOM     83  C   UNL A   1      32.339  17.927  24.327  1.00  0.00     0.092 A 
BRANCH  81  84
ATOM     84  O   UNL A   1      32.807  18.139  26.629  1.00  0.00    -0.508 OA
ATOM     85  H   UNL A   1      32.454  17.282  26.772  1.00  0.00     0.293 HD
ENDBRANCH  81  84
BRANCH  82  86
ATOM     86  O   UNL A   1      31.840  17.690  22.036  1.00  0.00    -0.508 OA
ATOM     87  H   UNL A   1      31.500  18.060  21.244  1.00  0.00     0.293 HD
ENDBRANCH  82  86
ENDBRANCH  77  78
ENDBRANCH  71  76
ENDBRANCH  65  68
ENDBRANCH  63  64
ENDBRANCH   1  63
TORSDOF 15
ENDMDL
MODEL 3
REMARK VINA RESULT:     -11.7      4.193      9.126
REMARK SMILES O=C(NCCCNC(=O)c1cc(/C=C/c2cc(O)cc(O)c2)ccc1O)c1ccc(-c2c3nc(c(-c4c(F)cccc4F)c4ccc([nH]4)c(-c4c(F)cccc4F)c4nc(c(-c5c(F)cccc5F)c5ccc2[nH]5)C=C4)C=C3)cc1
REMARK SMILES IDX 5 1 4 2 3 3 1 4 2 5 27 7 28 8 80 9 29 10 79 11 30 12 31 13
REMARK SMILES IDX 32 14 73 15 33 16 78 17 72 18 74 19 34 20 77 21 71 22 70 23
REMARK SMILES IDX 35 25 61 26 44 27 60 28 45 29 48 30 59 31 75 32 46 33 47 34
REMARK SMILES IDX 58 36 76 37 49 38 36 39 37 40 42 41 38 42 39 43 41 44 43 45
REMARK SMILES IDX 40 46 62 47 63 48 68 49 64 50 65 51 67 52 69 53 66 54 50 55
REMARK SMILES IDX 51 56 56 57 52 58 53 59 55 60 57 61 54 62 6 63 7 64 8 65
REMARK SMILES IDX 9 67 10 68 11 69 25 70 12 71 24 72 23 73 26 74 13 76 14 77
REMARK SMILES IDX 15 78 16 79 22 80 17 81 20 82 19 83 18 84 21 86
REMARK H PARENT 3 6 74 24 48 35 7 66 26 75 18 85 21 87
REMARK Flexibility Score: inf
ROOT
ATOM      1  C   UNL A   1      31.778  28.466  26.814  1.00  0.00     0.042 C 
ENDROOT
BRANCH   1   2
ATOM      2  C   UNL A   1      32.688  29.412  26.047  1.00  0.00     0.118 C 
BRANCH   2   3
ATOM      3  N   UNL A   1      32.374  30.817  26.282  1.00  0.00    -0.352 N 
ATOM      4  O   UNL A   1      32.451  32.840  27.272  1.00  0.00    -0.269 OA
ATOM      5  C   UNL A   1      32.989  31.750  27.084  1.00  0.00     0.251 C 
ATOM      6  H   UNL A   1      31.595  31.153  25.784  1.00  0.00     0.163 HD
BRANCH   5   7
ATOM      7  C   UNL A   1      34.277  31.445  27.741  1.00  0.00     0.039 A 
ATOM      8  C   UNL A   1      34.604  30.135  28.084  1.00  0.00     0.014 A 
ATOM      9  C   UNL A   1      35.185  32.477  28.001  1.00  0.00     0.014 A 
ATOM     10  C   UNL A   1      35.729  29.885  28.857  1.00  0.00     0.010 A 
ATOM     11  C   UNL A   1      36.384  32.204  28.669  1.00  0.00     0.010 A 
ATOM     12  C   UNL A   1      36.649  30.909  29.137  1.00  0.00    -0.014 A 
BRANCH  12  13
ATOM     13  C   UNL A   1      37.901  30.551  29.854  1.00  0.00     0.031 A 
ATOM     14  C   UNL A   1      38.138  30.956  31.281  1.00  0.00     0.074 A 
ATOM     15  C   UNL A   1      38.792  29.768  29.214  1.00  0.00     0.049 A 
ATOM     16  N   UNL A   1      39.134  30.632  32.069  1.00  0.00    -0.248 NA
ATOM     17  C   UNL A   1      37.146  31.845  31.905  1.00  0.00     0.031 C 
ATOM     18  C   UNL A   1      38.682  29.336  27.817  1.00  0.00     0.029 A 
ATOM     19  N   UNL A   1      39.936  29.158  29.658  1.00  0.00    -0.354 N 
ATOM     20  C   UNL A   1      38.896  31.283  33.274  1.00  0.00     0.074 A 
ATOM     21  C   UNL A   1      37.676  32.045  33.105  1.00  0.00     0.031 C 
ATOM     22  C   UNL A   1      39.665  28.468  27.545  1.00  0.00     0.029 A 
ATOM     23  C   UNL A   1      40.515  28.334  28.721  1.00  0.00     0.049 A 
ATOM     24  H   UNL A   1      40.307  29.293  30.559  1.00  0.00     0.167 HD
ATOM     25  C   UNL A   1      39.625  31.241  34.414  1.00  0.00     0.037 A 
ATOM     26  C   UNL A   1      41.612  27.562  28.794  1.00  0.00     0.037 A 
ATOM     27  C   UNL A   1      40.832  30.470  34.581  1.00  0.00     0.049 A 
ATOM     28  C   UNL A   1      42.386  27.521  30.076  1.00  0.00     0.074 A 
ATOM     29  C   UNL A   1      41.639  30.360  35.701  1.00  0.00     0.029 A 
ATOM     30  N   UNL A   1      41.403  29.673  33.600  1.00  0.00    -0.354 N 
ATOM     31  N   UNL A   1      42.140  28.135  31.207  1.00  0.00    -0.248 NA
ATOM     32  C   UNL A   1      43.594  26.686  30.091  1.00  0.00     0.031 C 
ATOM     33  C   UNL A   1      42.714  29.520  35.388  1.00  0.00     0.029 A 
ATOM     34  C   UNL A   1      42.554  29.075  34.086  1.00  0.00     0.049 A 
ATOM     35  H   UNL A   1      41.042  29.550  32.692  1.00  0.00     0.167 HD
ATOM     36  C   UNL A   1      43.162  27.767  32.068  1.00  0.00     0.074 A 
ATOM     37  C   UNL A   1      44.008  26.843  31.339  1.00  0.00     0.031 C 
ATOM     38  C   UNL A   1      43.390  28.170  33.341  1.00  0.00     0.037 A 
BRANCH  25  39
ATOM     39  C   UNL A   1      39.143  32.055  35.580  1.00  0.00     0.057 A 
ATOM     40  C   UNL A   1      39.471  33.410  35.717  1.00  0.00     0.134 A 
ATOM     41  C   UNL A   1      38.293  31.495  36.542  1.00  0.00     0.134 A 
ATOM     42  F   UNL A   1      40.290  34.004  34.837  1.00  0.00    -0.206 F 
ATOM     43  C   UNL A   1      38.979  34.175  36.777  1.00  0.00     0.040 A 
ATOM     44  C   UNL A   1      37.778  32.256  37.594  1.00  0.00     0.040 A 
ATOM     45  F   UNL A   1      37.935  30.205  36.467  1.00  0.00    -0.206 F 
ATOM     46  C   UNL A   1      38.122  33.600  37.714  1.00  0.00     0.006 A 
ENDBRANCH  25  39
BRANCH  26  47
ATOM     47  C   UNL A   1      42.041  26.777  27.610  1.00  0.00     0.057 A 
ATOM     48  C   UNL A   1      42.846  27.340  26.614  1.00  0.00     0.134 A 
ATOM     49  C   UNL A   1      41.666  25.436  27.456  1.00  0.00     0.134 A 
ATOM     50  F   UNL A   1      43.225  28.624  26.697  1.00  0.00    -0.206 F 
ATOM     51  C   UNL A   1      43.250  26.604  25.499  1.00  0.00     0.040 A 
ATOM     52  C   UNL A   1      42.087  24.679  26.363  1.00  0.00     0.040 A 
ATOM     53  F   UNL A   1      40.905  24.836  28.383  1.00  0.00    -0.206 F 
ATOM     54  C   UNL A   1      42.875  25.267  25.376  1.00  0.00     0.006 A 
ENDBRANCH  26  47
BRANCH  38  55
ATOM     55  C   UNL A   1      44.605  27.605  34.014  1.00  0.00     0.057 A 
ATOM     56  C   UNL A   1      44.544  26.422  34.761  1.00  0.00     0.134 A 
ATOM     57  C   UNL A   1      45.843  28.251  33.918  1.00  0.00     0.134 A 
ATOM     58  F   UNL A   1      43.382  25.767  34.903  1.00  0.00    -0.206 F 
ATOM     59  C   UNL A   1      45.667  25.917  35.416  1.00  0.00     0.040 A 
ATOM     60  C   UNL A   1      46.978  27.743  34.549  1.00  0.00     0.040 A 
ATOM     61  F   UNL A   1      45.968  29.386  33.212  1.00  0.00    -0.206 F 
ATOM     62  C   UNL A   1      46.890  26.577  35.308  1.00  0.00     0.006 A 
ENDBRANCH  38  55
ENDBRANCH  12  13
ENDBRANCH   5   7
ENDBRANCH   2   3
ENDBRANCH   1   2
BRANCH   1  63
ATOM     63  C   UNL A   1      31.305  27.278  25.993  1.00  0.00     0.118 C 
BRANCH  63  64
ATOM     64  N   UNL A   1      30.316  27.660  24.999  1.00  0.00    -0.352 N 
ATOM     65  C   UNL A   1      30.283  27.386  23.656  1.00  0.00     0.255 C 
ATOM     66  H   UNL A   1      29.561  28.194  25.338  1.00  0.00     0.163 HD
ATOM     67  O   UNL A   1      29.441  27.927  22.943  1.00  0.00    -0.269 OA
BRANCH  65  68
ATOM     68  C   UNL A   1      31.299  26.507  23.044  1.00  0.00     0.082 A 
ATOM     69  C   UNL A   1      31.172  25.128  23.272  1.00  0.00     0.025 A 
ATOM     70  C   UNL A   1      32.379  26.998  22.304  1.00  0.00     0.128 A 
ATOM     71  C   UNL A   1      32.090  24.225  22.723  1.00  0.00    -0.025 A 
ATOM     72  C   UNL A   1      33.278  26.111  21.721  1.00  0.00     0.047 A 
ATOM     73  C   UNL A   1      33.126  24.735  21.923  1.00  0.00     0.012 A 
BRANCH  70  74
ATOM     74  O   UNL A   1      32.559  28.343  22.145  1.00  0.00    -0.507 OA
ATOM     75  H   UNL A   1      33.271  28.775  22.576  1.00  0.00     0.293 HD
ENDBRANCH  70  74
BRANCH  71  76
ATOM     76  C   UNL A   1      32.029  22.768  22.939  1.00  0.00     0.009 C 
ATOM     77  C   UNL A   1      32.681  22.083  23.893  1.00  0.00     0.009 C 
BRANCH  77  78
ATOM     78  C   UNL A   1      32.612  20.620  24.008  1.00  0.00    -0.018 A 
ATOM     79  C   UNL A   1      32.824  19.976  25.236  1.00  0.00     0.054 A 
ATOM     80  C   UNL A   1      32.262  19.860  22.884  1.00  0.00     0.054 A 
ATOM     81  C   UNL A   1      32.707  18.590  25.321  1.00  0.00     0.119 A 
ATOM     82  C   UNL A   1      32.153  18.473  22.992  1.00  0.00     0.119 A 
ATOM     83  C   UNL A   1      32.376  17.832  24.204  1.00  0.00     0.092 A 
BRANCH  81  84
ATOM     84  O   UNL A   1      32.903  17.934  26.501  1.00  0.00    -0.508 OA
ATOM     85  H   UNL A   1      33.640  17.363  26.603  1.00  0.00     0.293 HD
ENDBRANCH  81  84
BRANCH  82  86
ATOM     86  O   UNL A   1      31.820  17.703  21.917  1.00  0.00    -0.508 OA
ATOM     87  H   UNL A   1      32.109  17.946  21.059  1.00  0.00     0.293 HD
ENDBRANCH  82  86
ENDBRANCH  77  78
ENDBRANCH  71  76
ENDBRANCH  65  68
ENDBRANCH  63  64
ENDBRANCH   1  63
TORSDOF 15
ENDMDL
