MODEL 1
REMARK VINA RESULT:     -12.1      0.000      0.000
REMARK SMILES CC(C)N1C(=O)C[C@@H]([N@@H+]2CC[C@H](C(=O)NCCCNC(=O)c3ccc(-c4c5nc(c(-c6c(F)cccc6F)c6ccc([nH]6)c(-c6c(F)cccc6F)c6nc(c(-c7c(F)cccc7F)c7ccc4[nH]7)C=C6)C=C5)cc3)[C@@H]2C)C1=O
REMARK SMILES IDX 17 1 16 2 15 3 13 4 14 5 12 7 9 8 10 9 76 10 11 12 77 13
REMARK SMILES IDX 8 14 4 15 5 16 78 17 6 18 7 19 79 20 2 21 1 22 3 23 18 24
REMARK SMILES IDX 19 25 20 26 21 28 22 29 23 30 75 31 24 32 74 33 25 34 26 35
REMARK SMILES IDX 27 36 68 37 28 38 73 39 67 40 69 41 29 42 72 43 66 44 65 45
REMARK SMILES IDX 30 47 56 48 39 49 55 50 40 51 43 52 54 53 70 54 41 55 42 56
REMARK SMILES IDX 53 58 71 59 44 60 31 61 32 62 37 63 33 64 34 65 36 66 38 67
REMARK SMILES IDX 35 68 57 69 58 70 63 71 59 72 60 73 62 74 64 75 61 76 45 77
REMARK SMILES IDX 46 78 51 79 47 80 48 81 50 82 52 83 49 84
REMARK H PARENT 15 6 9 11 19 27 69 46 43 57
REMARK Flexibility Score: inf
ROOT
ATOM      1  C   UNL A   1      31.500  32.193  26.501  1.00  0.00     0.042 C 
ENDROOT
BRANCH   1   2
ATOM      2  C   UNL A   1      31.492  30.670  26.516  1.00  0.00     0.117 C 
BRANCH   2   3
ATOM      3  N   UNL A   1      31.731  30.110  25.199  1.00  0.00    -0.356 N 
ATOM      4  C   UNL A   1      31.589  28.840  24.732  1.00  0.00     0.229 C 
ATOM      5  O   UNL A   1      31.825  28.647  23.537  1.00  0.00    -0.275 OA
ATOM      6  H   UNL A   1      32.048  30.758  24.529  1.00  0.00     0.163 HD
BRANCH   4   7
ATOM      7  C   UNL A   1      31.157  27.719  25.666  1.00  0.00     0.142 C 
ATOM      8  N   UNL A   1      32.379  25.650  25.473  1.00  0.00    -0.321 N 
ATOM      9  C   UNL A   1      31.367  25.683  24.418  1.00  0.00     0.264 C 
ATOM     10  C   UNL A   1      32.326  26.903  26.243  1.00  0.00     0.194 C 
ATOM     11  H   UNL A   1      32.142  24.916  26.141  1.00  0.00     0.349 HD
ATOM     12  C   UNL A   1      30.337  26.691  24.894  1.00  0.00     0.081 C 
ATOM     13  C   UNL A   1      33.608  27.697  26.495  1.00  0.00     0.076 C 
BRANCH   8  14
ATOM     14  C   UNL A   1      33.690  25.108  25.089  1.00  0.00     0.284 C 
ATOM     15  N   UNL A   1      33.867  22.891  24.316  1.00  0.00    -0.275 N 
ATOM     16  C   UNL A   1      34.076  23.671  23.215  1.00  0.00     0.236 C 
ATOM     17  C   UNL A   1      33.801  23.632  25.465  1.00  0.00     0.288 C 
ATOM     18  O   UNL A   1      34.323  23.281  22.083  1.00  0.00    -0.274 OA
ATOM     19  C   UNL A   1      34.028  25.115  23.603  1.00  0.00     0.176 C 
ATOM     20  O   UNL A   1      33.826  23.203  26.612  1.00  0.00    -0.267 OA
BRANCH  15  21
ATOM     21  C   UNL A   1      33.924  21.431  24.251  1.00  0.00     0.087 C 
ATOM     22  C   UNL A   1      35.150  20.901  24.992  1.00  0.00     0.031 C 
ATOM     23  C   UNL A   1      32.643  20.759  24.744  1.00  0.00     0.031 C 
ENDBRANCH  15  21
ENDBRANCH   8  14
ENDBRANCH   4   7
ENDBRANCH   2   3
ENDBRANCH   1   2
BRANCH   1  24
ATOM     24  C   UNL A   1      32.673  32.814  27.252  1.00  0.00     0.118 C 
BRANCH  24  25
ATOM     25  N   UNL A   1      32.433  34.203  27.626  1.00  0.00    -0.352 N 
ATOM     26  C   UNL A   1      33.009  34.970  28.609  1.00  0.00     0.251 C 
ATOM     27  H   UNL A   1      31.750  34.664  27.090  1.00  0.00     0.163 HD
ATOM     28  O   UNL A   1      32.531  36.066  28.887  1.00  0.00    -0.269 OA
BRANCH  26  29
ATOM     29  C   UNL A   1      34.186  34.470  29.349  1.00  0.00     0.039 A 
ATOM     30  C   UNL A   1      33.997  33.856  30.589  1.00  0.00     0.014 A 
ATOM     31  C   UNL A   1      35.474  34.615  28.827  1.00  0.00     0.014 A 
ATOM     32  C   UNL A   1      35.090  33.310  31.266  1.00  0.00     0.010 A 
ATOM     33  C   UNL A   1      36.548  34.000  29.460  1.00  0.00     0.010 A 
ATOM     34  C   UNL A   1      36.368  33.338  30.685  1.00  0.00    -0.014 A 
BRANCH  34  35
ATOM     35  C   UNL A   1      37.531  32.676  31.327  1.00  0.00     0.031 A 
ATOM     36  C   UNL A   1      38.215  31.525  30.644  1.00  0.00     0.074 A 
ATOM     37  C   UNL A   1      37.913  33.052  32.563  1.00  0.00     0.049 A 
ATOM     38  N   UNL A   1      39.161  30.740  31.093  1.00  0.00    -0.248 NA
ATOM     39  C   UNL A   1      37.754  31.194  29.287  1.00  0.00     0.031 C 
ATOM     40  C   UNL A   1      37.308  34.131  33.347  1.00  0.00     0.029 A 
ATOM     41  N   UNL A   1      38.893  32.555  33.387  1.00  0.00    -0.354 N 
ATOM     42  C   UNL A   1      39.395  29.816  30.083  1.00  0.00     0.074 A 
ATOM     43  C   UNL A   1      38.457  30.104  29.020  1.00  0.00     0.031 C 
ATOM     44  C   UNL A   1      37.938  34.224  34.528  1.00  0.00     0.029 A 
ATOM     45  C   UNL A   1      38.957  33.182  34.608  1.00  0.00     0.049 A 
ATOM     46  H   UNL A   1      39.492  31.819  33.127  1.00  0.00     0.167 HD
ATOM     47  C   UNL A   1      40.321  28.830  30.037  1.00  0.00     0.037 A 
ATOM     48  C   UNL A   1      39.736  32.933  35.678  1.00  0.00     0.037 A 
ATOM     49  C   UNL A   1      41.265  28.559  31.090  1.00  0.00     0.049 A 
ATOM     50  C   UNL A   1      40.735  31.812  35.615  1.00  0.00     0.074 A 
ATOM     51  C   UNL A   1      42.280  27.618  31.115  1.00  0.00     0.029 A 
ATOM     52  N   UNL A   1      41.307  29.225  32.305  1.00  0.00    -0.354 N 
ATOM     53  N   UNL A   1      40.989  30.985  34.630  1.00  0.00    -0.248 NA
ATOM     54  C   UNL A   1      41.559  31.588  36.812  1.00  0.00     0.031 C 
ATOM     55  C   UNL A   1      42.899  27.677  32.367  1.00  0.00     0.029 A 
ATOM     56  C   UNL A   1      42.310  28.697  33.100  1.00  0.00     0.049 A 
ATOM     57  H   UNL A   1      40.710  29.965  32.566  1.00  0.00     0.167 HD
ATOM     58  C   UNL A   1      42.021  30.168  35.074  1.00  0.00     0.074 A 
ATOM     59  C   UNL A   1      42.352  30.604  36.414  1.00  0.00     0.031 C 
ATOM     60  C   UNL A   1      42.640  29.151  34.426  1.00  0.00     0.037 A 
BRANCH  47  61
ATOM     61  C   UNL A   1      40.359  27.967  28.808  1.00  0.00     0.057 A 
ATOM     62  C   UNL A   1      41.122  28.309  27.685  1.00  0.00     0.134 A 
ATOM     63  C   UNL A   1      39.650  26.759  28.762  1.00  0.00     0.134 A 
ATOM     64  F   UNL A   1      41.816  29.458  27.658  1.00  0.00    -0.206 F 
ATOM     65  C   UNL A   1      41.158  27.497  26.550  1.00  0.00     0.040 A 
ATOM     66  C   UNL A   1      39.703  25.924  27.645  1.00  0.00     0.040 A 
ATOM     67  F   UNL A   1      38.904  26.366  29.805  1.00  0.00    -0.206 F 
ATOM     68  C   UNL A   1      40.453  26.296  26.531  1.00  0.00     0.006 A 
ENDBRANCH  47  61
BRANCH  48  69
ATOM     69  C   UNL A   1      39.608  33.767  36.902  1.00  0.00     0.057 A 
ATOM     70  C   UNL A   1      38.727  33.411  37.929  1.00  0.00     0.134 A 
ATOM     71  C   UNL A   1      40.351  34.942  37.070  1.00  0.00     0.134 A 
ATOM     72  F   UNL A   1      37.975  32.307  37.821  1.00  0.00    -0.206 F 
ATOM     73  C   UNL A   1      38.573  34.203  39.069  1.00  0.00     0.040 A 
ATOM     74  C   UNL A   1      40.228  35.729  38.216  1.00  0.00     0.040 A 
ATOM     75  F   UNL A   1      41.220  35.336  36.126  1.00  0.00    -0.206 F 
ATOM     76  C   UNL A   1      39.329  35.364  39.216  1.00  0.00     0.006 A 
ENDBRANCH  48  69
BRANCH  60  77
ATOM     77  C   UNL A   1      43.771  28.464  35.135  1.00  0.00     0.057 A 
ATOM     78  C   UNL A   1      43.573  27.325  35.925  1.00  0.00     0.134 A 
ATOM     79  C   UNL A   1      45.087  28.916  34.973  1.00  0.00     0.134 A 
ATOM     80  F   UNL A   1      42.335  26.848  36.132  1.00  0.00    -0.206 F 
ATOM     81  C   UNL A   1      44.640  26.668  36.539  1.00  0.00     0.040 A 
ATOM     82  C   UNL A   1      46.166  28.253  35.558  1.00  0.00     0.040 A 
ATOM     83  F   UNL A   1      45.349  29.998  34.222  1.00  0.00    -0.206 F 
ATOM     84  C   UNL A   1      45.943  27.127  36.347  1.00  0.00     0.006 A 
ENDBRANCH  60  77
ENDBRANCH  34  35
ENDBRANCH  26  29
ENDBRANCH  24  25
ENDBRANCH   1  24
TORSDOF 12
ENDMDL
MODEL 2
REMARK VINA RESULT:     -12.1      5.422     11.334
REMARK SMILES CC(C)N1C(=O)C[C@@H]([N@@H+]2CC[C@H](C(=O)NCCCNC(=O)c3ccc(-c4c5nc(c(-c6c(F)cccc6F)c6ccc([nH]6)c(-c6c(F)cccc6F)c6nc(c(-c7c(F)cccc7F)c7ccc4[nH]7)C=C6)C=C5)cc3)[C@@H]2C)C1=O
REMARK SMILES IDX 17 1 16 2 15 3 13 4 14 5 12 7 9 8 10 9 76 10 11 12 77 13
REMARK SMILES IDX 8 14 4 15 5 16 78 17 6 18 7 19 79 20 2 21 1 22 3 23 18 24
REMARK SMILES IDX 19 25 20 26 21 28 22 29 23 30 75 31 24 32 74 33 25 34 26 35
REMARK SMILES IDX 27 36 68 37 28 38 73 39 67 40 69 41 29 42 72 43 66 44 65 45
REMARK SMILES IDX 30 47 56 48 39 49 55 50 40 51 43 52 54 53 70 54 41 55 42 56
REMARK SMILES IDX 53 58 71 59 44 60 31 61 32 62 37 63 33 64 34 65 36 66 38 67
REMARK SMILES IDX 35 68 57 69 58 70 63 71 59 72 60 73 62 74 64 75 61 76 45 77
REMARK SMILES IDX 46 78 51 79 47 80 48 81 50 82 52 83 49 84
REMARK H PARENT 15 6 9 11 19 27 69 46 43 57
REMARK Flexibility Score: inf
ROOT
ATOM      1  C   UNL A   1      44.676  20.477  24.704  1.00  0.00     0.042 C 
ENDROOT
BRANCH   1   2
ATOM      2  C   UNL A   1      46.127  20.879  24.930  1.00  0.00     0.117 C 
BRANCH   2   3
ATOM      3  N   UNL A   1      46.490  22.063  24.171  1.00  0.00    -0.356 N 
ATOM      4  C   UNL A   1      46.591  23.366  24.548  1.00  0.00     0.229 C 
ATOM      5  O   UNL A   1      46.968  24.174  23.695  1.00  0.00    -0.275 OA
ATOM      6  H   UNL A   1      46.700  21.893  23.224  1.00  0.00     0.163 HD
BRANCH   4   7
ATOM      7  C   UNL A   1      46.246  23.787  25.969  1.00  0.00     0.142 C 
ATOM      8  N   UNL A   1      45.880  26.144  26.316  1.00  0.00    -0.321 N 
ATOM      9  C   UNL A   1      47.322  25.899  26.326  1.00  0.00     0.264 C 
ATOM     10  C   UNL A   1      45.170  24.882  26.051  1.00  0.00     0.194 C 
ATOM     11  H   UNL A   1      45.582  26.426  27.250  1.00  0.00     0.349 HD
ATOM     12  C   UNL A   1      47.465  24.419  26.630  1.00  0.00     0.081 C 
ATOM     13  C   UNL A   1      44.102  24.825  24.958  1.00  0.00     0.076 C 
BRANCH   8  14
ATOM     14  C   UNL A   1      45.441  27.365  25.624  1.00  0.00     0.284 C 
ATOM     15  N   UNL A   1      45.230  29.383  26.817  1.00  0.00    -0.275 N 
ATOM     16  C   UNL A   1      46.327  29.551  26.020  1.00  0.00     0.236 C 
ATOM     17  C   UNL A   1      44.564  28.221  26.535  1.00  0.00     0.288 C 
ATOM     18  O   UNL A   1      47.023  30.553  25.942  1.00  0.00    -0.274 OA
ATOM     19  C   UNL A   1      46.531  28.332  25.178  1.00  0.00     0.176 C 
ATOM     20  O   UNL A   1      43.451  27.903  26.935  1.00  0.00    -0.267 OA
BRANCH  15  21
ATOM     21  C   UNL A   1      44.750  30.442  27.703  1.00  0.00     0.087 C 
ATOM     22  C   UNL A   1      45.818  30.823  28.726  1.00  0.00     0.031 C 
ATOM     23  C   UNL A   1      44.239  31.670  26.948  1.00  0.00     0.031 C 
ENDBRANCH  15  21
ENDBRANCH   8  14
ENDBRANCH   4   7
ENDBRANCH   2   3
ENDBRANCH   1   2
BRANCH   1  24
ATOM     24  C   UNL A   1      44.171  19.411  25.671  1.00  0.00     0.118 C 
BRANCH  24  25
ATOM     25  N   UNL A   1      42.774  19.059  25.445  1.00  0.00    -0.352 N 
ATOM     26  C   UNL A   1      41.624  19.660  25.894  1.00  0.00     0.251 C 
ATOM     27  H   UNL A   1      42.633  18.265  24.883  1.00  0.00     0.163 HD
ATOM     28  O   UNL A   1      40.543  19.097  25.747  1.00  0.00    -0.269 OA
BRANCH  26  29
ATOM     29  C   UNL A   1      41.685  20.971  26.572  1.00  0.00     0.039 A 
ATOM     30  C   UNL A   1      41.919  21.012  27.949  1.00  0.00     0.014 A 
ATOM     31  C   UNL A   1      41.505  22.157  25.856  1.00  0.00     0.014 A 
ATOM     32  C   UNL A   1      42.055  22.244  28.593  1.00  0.00     0.010 A 
ATOM     33  C   UNL A   1      41.723  23.380  26.480  1.00  0.00     0.010 A 
ATOM     34  C   UNL A   1      42.004  23.437  27.854  1.00  0.00    -0.014 A 
BRANCH  34  35
ATOM     35  C   UNL A   1      42.250  24.757  28.488  1.00  0.00     0.031 A 
ATOM     36  C   UNL A   1      43.550  25.022  29.196  1.00  0.00     0.074 A 
ATOM     37  C   UNL A   1      41.271  25.682  28.505  1.00  0.00     0.049 A 
ATOM     38  N   UNL A   1      43.904  26.057  29.914  1.00  0.00    -0.248 NA
ATOM     39  C   UNL A   1      44.575  23.971  29.110  1.00  0.00     0.031 C 
ATOM     40  C   UNL A   1      39.953  25.532  27.885  1.00  0.00     0.029 A 
ATOM     41  N   UNL A   1      41.226  26.927  29.081  1.00  0.00    -0.354 N 
ATOM     42  C   UNL A   1      45.183  25.775  30.376  1.00  0.00     0.074 A 
ATOM     43  C   UNL A   1      45.522  24.450  29.902  1.00  0.00     0.031 C 
ATOM     44  C   UNL A   1      39.236  26.646  28.100  1.00  0.00     0.029 A 
ATOM     45  C   UNL A   1      40.021  27.569  28.914  1.00  0.00     0.049 A 
ATOM     46  H   UNL A   1      41.984  27.323  29.567  1.00  0.00     0.167 HD
ATOM     47  C   UNL A   1      46.008  26.557  31.111  1.00  0.00     0.037 A 
ATOM     48  C   UNL A   1      39.592  28.756  29.381  1.00  0.00     0.037 A 
ATOM     49  C   UNL A   1      45.675  27.882  31.564  1.00  0.00     0.049 A 
ATOM     50  C   UNL A   1      40.516  29.593  30.223  1.00  0.00     0.074 A 
ATOM     51  C   UNL A   1      46.463  28.776  32.266  1.00  0.00     0.029 A 
ATOM     52  N   UNL A   1      44.450  28.501  31.363  1.00  0.00    -0.354 N 
ATOM     53  N   UNL A   1      41.745  29.341  30.601  1.00  0.00    -0.248 NA
ATOM     54  C   UNL A   1      39.993  30.880  30.703  1.00  0.00     0.031 C 
ATOM     55  C   UNL A   1      45.697  29.913  32.540  1.00  0.00     0.029 A 
ATOM     56  C   UNL A   1      44.451  29.753  31.954  1.00  0.00     0.049 A 
ATOM     57  H   UNL A   1      43.691  28.107  30.874  1.00  0.00     0.167 HD
ATOM     58  C   UNL A   1      42.155  30.449  31.331  1.00  0.00     0.074 A 
ATOM     59  C   UNL A   1      41.046  31.378  31.336  1.00  0.00     0.031 C 
ATOM     60  C   UNL A   1      43.345  30.675  31.939  1.00  0.00     0.037 A 
BRANCH  47  61
ATOM     61  C   UNL A   1      47.355  25.999  31.475  1.00  0.00     0.057 A 
ATOM     62  C   UNL A   1      48.442  26.052  30.593  1.00  0.00     0.134 A 
ATOM     63  C   UNL A   1      47.576  25.433  32.737  1.00  0.00     0.134 A 
ATOM     64  F   UNL A   1      48.297  26.571  29.364  1.00  0.00    -0.206 F 
ATOM     65  C   UNL A   1      49.693  25.539  30.942  1.00  0.00     0.040 A 
ATOM     66  C   UNL A   1      48.830  24.944  33.109  1.00  0.00     0.040 A 
ATOM     67  F   UNL A   1      46.581  25.355  33.633  1.00  0.00    -0.206 F 
ATOM     68  C   UNL A   1      49.891  24.989  32.207  1.00  0.00     0.006 A 
ENDBRANCH  47  61
BRANCH  48  69
ATOM     69  C   UNL A   1      38.222  29.232  29.058  1.00  0.00     0.057 A 
ATOM     70  C   UNL A   1      37.910  29.724  27.786  1.00  0.00     0.134 A 
ATOM     71  C   UNL A   1      37.196  29.219  30.012  1.00  0.00     0.134 A 
ATOM     72  F   UNL A   1      38.852  29.779  26.834  1.00  0.00    -0.206 F 
ATOM     73  C   UNL A   1      36.635  30.205  27.478  1.00  0.00     0.040 A 
ATOM     74  C   UNL A   1      35.910  29.670  29.711  1.00  0.00     0.040 A 
ATOM     75  F   UNL A   1      37.427  28.752  31.248  1.00  0.00    -0.206 F 
ATOM     76  C   UNL A   1      35.630  30.175  28.442  1.00  0.00     0.006 A 
ENDBRANCH  48  69
BRANCH  60  77
ATOM     77  C   UNL A   1      43.533  31.998  32.624  1.00  0.00     0.057 A 
ATOM     78  C   UNL A   1      43.952  33.141  31.932  1.00  0.00     0.134 A 
ATOM     79  C   UNL A   1      43.227  32.142  33.984  1.00  0.00     0.134 A 
ATOM     80  F   UNL A   1      44.273  33.069  30.631  1.00  0.00    -0.206 F 
ATOM     81  C   UNL A   1      44.076  34.375  32.572  1.00  0.00     0.040 A 
ATOM     82  C   UNL A   1      43.319  33.375  34.628  1.00  0.00     0.040 A 
ATOM     83  F   UNL A   1      42.810  31.088  34.703  1.00  0.00    -0.206 F 
ATOM     84  C   UNL A   1      43.748  34.496  33.922  1.00  0.00     0.006 A 
ENDBRANCH  60  77
ENDBRANCH  34  35
ENDBRANCH  26  29
ENDBRANCH  24  25
ENDBRANCH   1  24
TORSDOF 12
ENDMDL
MODEL 3
REMARK VINA RESULT:     -12.0      0.898      1.773
REMARK SMILES CC(C)N1C(=O)C[C@@H]([N@@H+]2CC[C@H](C(=O)NCCCNC(=O)c3ccc(-c4c5nc(c(-c6c(F)cccc6F)c6ccc([nH]6)c(-c6c(F)cccc6F)c6nc(c(-c7c(F)cccc7F)c7ccc4[nH]7)C=C6)C=C5)cc3)[C@@H]2C)C1=O
REMARK SMILES IDX 17 1 16 2 15 3 13 4 14 5 12 7 9 8 10 9 76 10 11 12 77 13
REMARK SMILES IDX 8 14 4 15 5 16 78 17 6 18 7 19 79 20 2 21 1 22 3 23 18 24
REMARK SMILES IDX 19 25 20 26 21 28 22 29 23 30 75 31 24 32 74 33 25 34 26 35
REMARK SMILES IDX 27 36 68 37 28 38 73 39 67 40 69 41 29 42 72 43 66 44 65 45
REMARK SMILES IDX 30 47 56 48 39 49 55 50 40 51 43 52 54 53 70 54 41 55 42 56
REMARK SMILES IDX 53 58 71 59 44 60 31 61 32 62 37 63 33 64 34 65 36 66 38 67
REMARK SMILES IDX 35 68 57 69 58 70 63 71 59 72 60 73 62 74 64 75 61 76 45 77
REMARK SMILES IDX 46 78 51 79 47 80 48 81 50 82 52 83 49 84
REMARK H PARENT 15 6 9 11 19 27 69 46 43 57
REMARK Flexibility Score: inf
ROOT
ATOM      1  C   UNL A   1      31.403  31.995  26.522  1.00  0.00     0.042 C 
ENDROOT
BRANCH   1   2
ATOM      2  C   UNL A   1      31.753  30.679  25.841  1.00  0.00     0.117 C 
BRANCH   2   3
ATOM      3  N   UNL A   1      31.523  29.538  26.709  1.00  0.00    -0.356 N 
ATOM      4  C   UNL A   1      31.781  28.215  26.528  1.00  0.00     0.229 C 
ATOM      5  O   UNL A   1      31.519  27.454  27.463  1.00  0.00    -0.275 OA
ATOM      6  H   UNL A   1      31.110  29.759  27.575  1.00  0.00     0.163 HD
BRANCH   4   7
ATOM      7  C   UNL A   1      32.369  27.717  25.217  1.00  0.00     0.142 C 
ATOM      8  N   UNL A   1      32.487  25.324  24.950  1.00  0.00    -0.321 N 
ATOM      9  C   UNL A   1      33.635  25.752  25.749  1.00  0.00     0.264 C 
ATOM     10  C   UNL A   1      31.647  26.490  24.635  1.00  0.00     0.194 C 
ATOM     11  H   UNL A   1      32.816  24.981  24.047  1.00  0.00     0.349 HD
ATOM     12  C   UNL A   1      33.796  27.229  25.443  1.00  0.00     0.081 C 
ATOM     13  C   UNL A   1      30.142  26.438  24.901  1.00  0.00     0.076 C 
BRANCH   8  14
ATOM     14  C   UNL A   1      31.838  24.075  25.376  1.00  0.00     0.284 C 
ATOM     15  N   UNL A   1      33.147  22.220  25.998  1.00  0.00    -0.275 N 
ATOM     16  C   UNL A   1      32.603  22.681  27.162  1.00  0.00     0.236 C 
ATOM     17  C   UNL A   1      32.632  22.860  24.903  1.00  0.00     0.288 C 
ATOM     18  O   UNL A   1      32.757  22.203  28.277  1.00  0.00    -0.274 OA
ATOM     19  C   UNL A   1      31.708  23.845  26.876  1.00  0.00     0.176 C 
ATOM     20  O   UNL A   1      32.772  22.528  23.732  1.00  0.00    -0.267 OA
BRANCH  15  21
ATOM     21  C   UNL A   1      34.014  21.044  25.963  1.00  0.00     0.087 C 
ATOM     22  C   UNL A   1      33.277  19.841  25.378  1.00  0.00     0.031 C 
ATOM     23  C   UNL A   1      35.335  21.294  25.234  1.00  0.00     0.031 C 
ENDBRANCH  15  21
ENDBRANCH   8  14
ENDBRANCH   4   7
ENDBRANCH   2   3
ENDBRANCH   1   2
BRANCH   1  24
ATOM     24  C   UNL A   1      32.549  32.599  27.328  1.00  0.00     0.118 C 
BRANCH  24  25
ATOM     25  N   UNL A   1      32.351  34.015  27.618  1.00  0.00    -0.352 N 
ATOM     26  C   UNL A   1      32.972  34.829  28.532  1.00  0.00     0.251 C 
ATOM     27  H   UNL A   1      31.662  34.457  27.071  1.00  0.00     0.163 HD
ATOM     28  O   UNL A   1      32.527  35.952  28.751  1.00  0.00    -0.269 OA
BRANCH  26  29
ATOM     29  C   UNL A   1      34.159  34.350  29.269  1.00  0.00     0.039 A 
ATOM     30  C   UNL A   1      33.987  33.781  30.534  1.00  0.00     0.014 A 
ATOM     31  C   UNL A   1      35.438  34.468  28.721  1.00  0.00     0.014 A 
ATOM     32  C   UNL A   1      35.089  33.254  31.212  1.00  0.00     0.010 A 
ATOM     33  C   UNL A   1      36.520  33.871  29.358  1.00  0.00     0.010 A 
ATOM     34  C   UNL A   1      36.357  33.254  30.609  1.00  0.00    -0.014 A 
BRANCH  34  35
ATOM     35  C   UNL A   1      37.528  32.609  31.255  1.00  0.00     0.031 A 
ATOM     36  C   UNL A   1      38.217  31.453  30.585  1.00  0.00     0.074 A 
ATOM     37  C   UNL A   1      37.912  33.004  32.485  1.00  0.00     0.049 A 
ATOM     38  N   UNL A   1      39.170  30.682  31.041  1.00  0.00    -0.248 NA
ATOM     39  C   UNL A   1      37.752  31.101  29.234  1.00  0.00     0.031 C 
ATOM     40  C   UNL A   1      37.303  34.089  33.256  1.00  0.00     0.029 A 
ATOM     41  N   UNL A   1      38.899  32.525  33.311  1.00  0.00    -0.354 N 
ATOM     42  C   UNL A   1      39.406  29.745  30.043  1.00  0.00     0.074 A 
ATOM     43  C   UNL A   1      38.462  30.012  28.979  1.00  0.00     0.031 C 
ATOM     44  C   UNL A   1      37.937  34.203  34.433  1.00  0.00     0.029 A 
ATOM     45  C   UNL A   1      38.964  33.170  34.523  1.00  0.00     0.049 A 
ATOM     46  H   UNL A   1      39.502  31.790  33.058  1.00  0.00     0.167 HD
ATOM     47  C   UNL A   1      40.339  28.765  30.006  1.00  0.00     0.037 A 
ATOM     48  C   UNL A   1      39.748  32.941  35.593  1.00  0.00     0.037 A 
ATOM     49  C   UNL A   1      41.289  28.515  31.058  1.00  0.00     0.049 A 
ATOM     50  C   UNL A   1      40.756  31.825  35.541  1.00  0.00     0.074 A 
ATOM     51  C   UNL A   1      42.311  27.582  31.092  1.00  0.00     0.029 A 
ATOM     52  N   UNL A   1      41.331  29.198  32.264  1.00  0.00    -0.354 N 
ATOM     53  N   UNL A   1      41.011  30.987  34.566  1.00  0.00    -0.248 NA
ATOM     54  C   UNL A   1      41.585  31.624  36.738  1.00  0.00     0.031 C 
ATOM     55  C   UNL A   1      42.934  27.662  32.340  1.00  0.00     0.029 A 
ATOM     56  C   UNL A   1      42.342  28.687  33.061  1.00  0.00     0.049 A 
ATOM     57  H   UNL A   1      40.731  29.937  32.517  1.00  0.00     0.167 HD
ATOM     58  C   UNL A   1      42.051  30.183  35.017  1.00  0.00     0.074 A 
ATOM     59  C   UNL A   1      42.384  30.640  36.349  1.00  0.00     0.031 C 
ATOM     60  C   UNL A   1      42.674  29.161  34.380  1.00  0.00     0.037 A 
BRANCH  47  61
ATOM     61  C   UNL A   1      40.378  27.886  28.789  1.00  0.00     0.057 A 
ATOM     62  C   UNL A   1      41.151  28.207  27.666  1.00  0.00     0.134 A 
ATOM     63  C   UNL A   1      39.660  26.683  28.753  1.00  0.00     0.134 A 
ATOM     64  F   UNL A   1      41.854  29.350  27.629  1.00  0.00    -0.206 F 
ATOM     65  C   UNL A   1      41.188  27.380  26.542  1.00  0.00     0.040 A 
ATOM     66  C   UNL A   1      39.713  25.833  27.648  1.00  0.00     0.040 A 
ATOM     67  F   UNL A   1      38.904  26.309  29.797  1.00  0.00    -0.206 F 
ATOM     68  C   UNL A   1      40.473  26.185  26.534  1.00  0.00     0.006 A 
ENDBRANCH  47  61
BRANCH  48  69
ATOM     69  C   UNL A   1      39.620  33.790  36.806  1.00  0.00     0.057 A 
ATOM     70  C   UNL A   1      38.788  33.413  37.866  1.00  0.00     0.134 A 
ATOM     71  C   UNL A   1      40.313  35.001  36.931  1.00  0.00     0.134 A 
ATOM     72  F   UNL A   1      38.085  32.274  37.800  1.00  0.00    -0.206 F 
ATOM     73  C   UNL A   1      38.633  34.218  38.997  1.00  0.00     0.040 A 
ATOM     74  C   UNL A   1      40.189  35.802  38.067  1.00  0.00     0.040 A 
ATOM     75  F   UNL A   1      41.133  35.416  35.953  1.00  0.00    -0.206 F 
ATOM     76  C   UNL A   1      39.339  35.415  39.101  1.00  0.00     0.006 A 
ENDBRANCH  48  69
BRANCH  60  77
ATOM     77  C   UNL A   1      43.813  28.493  35.094  1.00  0.00     0.057 A 
ATOM     78  C   UNL A   1      45.131  28.953  34.986  1.00  0.00     0.134 A 
ATOM     79  C   UNL A   1      43.575  27.410  35.951  1.00  0.00     0.134 A 
ATOM     80  F   UNL A   1      45.429  29.978  34.173  1.00  0.00    -0.206 F 
ATOM     81  C   UNL A   1      46.173  28.352  35.693  1.00  0.00     0.040 A 
ATOM     82  C   UNL A   1      44.603  26.818  36.684  1.00  0.00     0.040 A 
ATOM     83  F   UNL A   1      42.333  26.925  36.106  1.00  0.00    -0.206 F 
ATOM     84  C   UNL A   1      45.908  27.287  36.554  1.00  0.00     0.006 A 
ENDBRANCH  60  77
ENDBRANCH  34  35
ENDBRANCH  26  29
ENDBRANCH  24  25
ENDBRANCH   1  24
TORSDOF 12
ENDMDL
