MODEL 1
REMARK VINA RESULT:     -11.3      0.000      0.000
REMARK SMILES Cc1nc(-c2ccco2)nc(S)c1C(=O)NCCCNC(=O)c1ccc(-c2c3nc(c(-c4c(F)cccc4F)c4ccc([nH]4)c(-c4c(F)cccc4F)c4nc(c(-c5c(F)cccc5F)c5ccc2[nH]5)C=C4)C=C3)cc1
REMARK SMILES IDX 18 1 17 2 16 3 14 4 15 5 13 7 1 8 2 9 3 10 4 11 11 12 10 13
REMARK SMILES IDX 5 14 6 15 9 16 7 17 8 18 12 19 19 21 20 22 21 23 22 25 23 26
REMARK SMILES IDX 24 27 76 28 25 29 75 30 26 31 27 32 28 33 69 34 29 35 74 36
REMARK SMILES IDX 68 37 70 38 30 39 73 40 67 41 66 42 31 44 57 45 40 46 56 47
REMARK SMILES IDX 41 48 44 49 55 50 71 51 42 52 43 53 54 55 72 56 45 57 32 58
REMARK SMILES IDX 33 59 38 60 34 61 35 62 37 63 39 64 36 65 58 66 59 67 64 68
REMARK SMILES IDX 60 69 61 70 63 71 65 72 62 73 46 74 47 75 52 76 48 77 49 78
REMARK SMILES IDX 51 79 53 80 50 81
REMARK H PARENT 16 6 12 20 20 24 70 43 44 54
REMARK Flexibility Score: inf
ROOT
ATOM      1  C   UNL A   1      37.475  19.880  24.817  1.00  0.00     0.042 C 
ENDROOT
BRANCH   1   2
ATOM      2  C   UNL A   1      36.194  20.698  25.001  1.00  0.00     0.118 C 
BRANCH   2   3
ATOM      3  N   UNL A   1      35.054  19.804  25.036  1.00  0.00    -0.352 N 
ATOM      4  C   UNL A   1      33.701  19.967  25.161  1.00  0.00     0.255 C 
ATOM      5  O   UNL A   1      33.081  18.930  25.412  1.00  0.00    -0.269 OA
ATOM      6  H   UNL A   1      35.314  18.858  24.952  1.00  0.00     0.163 HD
BRANCH   4   7
ATOM      7  C   UNL A   1      32.919  21.222  24.975  1.00  0.00     0.093 A 
ATOM      8  C   UNL A   1      32.160  20.935  22.521  1.00  0.00     0.068 C 
ATOM      9  C   UNL A   1      32.252  21.643  23.827  1.00  0.00     0.055 A 
ATOM     10  N   UNL A   1      31.667  22.860  23.730  1.00  0.00    -0.230 NA
ATOM     11  C   UNL A   1      31.830  23.723  24.732  1.00  0.00     0.196 A 
ATOM     12  C   UNL A   1      32.990  22.207  25.981  1.00  0.00     0.110 A 
ATOM     13  N   UNL A   1      32.489  23.464  25.856  1.00  0.00    -0.218 NA
BRANCH  11  14
ATOM     14  C   UNL A   1      31.448  25.085  24.433  1.00  0.00     0.171 A 
ATOM     15  C   UNL A   1      30.907  25.702  23.323  1.00  0.00     0.054 A 
ATOM     16  O   UNL A   1      31.513  25.972  25.471  1.00  0.00    -0.461 OA
ATOM     17  C   UNL A   1      30.602  27.029  23.712  1.00  0.00     0.043 A 
ATOM     18  C   UNL A   1      31.006  27.148  25.021  1.00  0.00     0.196 A 
ENDBRANCH  11  14
BRANCH  12  19
ATOM     19  S   UNL A   1      33.708  21.970  27.610  1.00  0.00    -0.123 SA
ATOM     20  H   UNL A   1      33.090  20.930  28.231  1.00  0.00     0.110 HD
ENDBRANCH  12  19
ENDBRANCH   4   7
ENDBRANCH   2   3
ENDBRANCH   1   2
BRANCH   1  21
ATOM     21  C   UNL A   1      38.648  20.353  25.661  1.00  0.00     0.118 C 
BRANCH  21  22
ATOM     22  N   UNL A   1      39.718  19.373  25.714  1.00  0.00    -0.352 N 
ATOM     23  C   UNL A   1      41.049  19.538  26.026  1.00  0.00     0.251 C 
ATOM     24  H   UNL A   1      39.452  18.451  25.492  1.00  0.00     0.163 HD
ATOM     25  O   UNL A   1      41.837  18.626  25.811  1.00  0.00    -0.269 OA
BRANCH  23  26
ATOM     26  C   UNL A   1      41.537  20.821  26.590  1.00  0.00     0.039 A 
ATOM     27  C   UNL A   1      41.508  21.066  27.963  1.00  0.00     0.014 A 
ATOM     28  C   UNL A   1      42.041  21.795  25.723  1.00  0.00     0.014 A 
ATOM     29  C   UNL A   1      41.804  22.335  28.447  1.00  0.00     0.010 A 
ATOM     30  C   UNL A   1      42.440  23.039  26.225  1.00  0.00     0.010 A 
ATOM     31  C   UNL A   1      42.279  23.337  27.586  1.00  0.00    -0.014 A 
BRANCH  31  32
ATOM     32  C   UNL A   1      42.605  24.682  28.132  1.00  0.00     0.031 A 
ATOM     33  C   UNL A   1      44.025  25.052  28.469  1.00  0.00     0.074 A 
ATOM     34  C   UNL A   1      41.620  25.590  28.282  1.00  0.00     0.049 A 
ATOM     35  N   UNL A   1      44.490  26.169  28.973  1.00  0.00    -0.248 NA
ATOM     36  C   UNL A   1      45.062  24.039  28.214  1.00  0.00     0.031 C 
ATOM     37  C   UNL A   1      40.206  25.357  27.978  1.00  0.00     0.029 A 
ATOM     38  N   UNL A   1      41.655  26.894  28.709  1.00  0.00    -0.354 N 
ATOM     39  C   UNL A   1      45.860  25.985  29.111  1.00  0.00     0.074 A 
ATOM     40  C   UNL A   1      46.152  24.641  28.668  1.00  0.00     0.031 C 
ATOM     41  C   UNL A   1      39.518  26.489  28.181  1.00  0.00     0.029 A 
ATOM     42  C   UNL A   1      40.424  27.507  28.703  1.00  0.00     0.049 A 
ATOM     43  H   UNL A   1      42.482  27.345  28.994  1.00  0.00     0.167 HD
ATOM     44  C   UNL A   1      46.789  26.864  29.556  1.00  0.00     0.037 A 
ATOM     45  C   UNL A   1      40.057  28.741  29.096  1.00  0.00     0.037 A 
ATOM     46  C   UNL A   1      46.495  28.212  29.970  1.00  0.00     0.049 A 
ATOM     47  C   UNL A   1      41.102  29.677  29.631  1.00  0.00     0.074 A 
ATOM     48  C   UNL A   1      47.376  29.186  30.410  1.00  0.00     0.029 A 
ATOM     49  N   UNL A   1      45.230  28.778  29.992  1.00  0.00    -0.354 N 
ATOM     50  N   UNL A   1      42.395  29.491  29.746  1.00  0.00    -0.248 NA
ATOM     51  C   UNL A   1      40.639  30.990  30.100  1.00  0.00     0.031 C 
ATOM     52  C   UNL A   1      46.637  30.324  30.748  1.00  0.00     0.029 A 
ATOM     53  C   UNL A   1      45.303  30.078  30.465  1.00  0.00     0.049 A 
ATOM     54  H   UNL A   1      44.402  28.322  29.715  1.00  0.00     0.167 HD
ATOM     55  C   UNL A   1      42.901  30.665  30.287  1.00  0.00     0.074 A 
ATOM     56  C   UNL A   1      41.780  31.566  30.452  1.00  0.00     0.031 C 
ATOM     57  C   UNL A   1      44.178  30.965  30.622  1.00  0.00     0.037 A 
BRANCH  44  58
ATOM     58  C   UNL A   1      48.219  26.410  29.626  1.00  0.00     0.057 A 
ATOM     59  C   UNL A   1      49.122  26.646  28.583  1.00  0.00     0.134 A 
ATOM     60  C   UNL A   1      48.721  25.814  30.791  1.00  0.00     0.134 A 
ATOM     61  F   UNL A   1      48.706  27.203  27.435  1.00  0.00    -0.206 F 
ATOM     62  C   UNL A   1      50.472  26.302  28.694  1.00  0.00     0.040 A 
ATOM     63  C   UNL A   1      50.071  25.489  30.923  1.00  0.00     0.040 A 
ATOM     64  F   UNL A   1      47.911  25.566  31.832  1.00  0.00    -0.206 F 
ATOM     65  C   UNL A   1      50.951  25.733  29.871  1.00  0.00     0.006 A 
ENDBRANCH  44  58
BRANCH  45  66
ATOM     66  C   UNL A   1      38.632  29.150  29.010  1.00  0.00     0.057 A 
ATOM     67  C   UNL A   1      37.790  29.086  30.126  1.00  0.00     0.134 A 
ATOM     68  C   UNL A   1      38.082  29.628  27.814  1.00  0.00     0.134 A 
ATOM     69  F   UNL A   1      38.252  28.619  31.294  1.00  0.00    -0.206 F 
ATOM     70  C   UNL A   1      36.451  29.474  30.054  1.00  0.00     0.040 A 
ATOM     71  C   UNL A   1      36.754  30.049  27.735  1.00  0.00     0.040 A 
ATOM     72  F   UNL A   1      38.837  29.721  26.709  1.00  0.00    -0.206 F 
ATOM     73  C   UNL A   1      35.932  29.966  28.856  1.00  0.00     0.006 A 
ENDBRANCH  45  66
BRANCH  57  74
ATOM     74  C   UNL A   1      44.442  32.331  31.187  1.00  0.00     0.057 A 
ATOM     75  C   UNL A   1      44.453  32.565  32.567  1.00  0.00     0.134 A 
ATOM     76  C   UNL A   1      44.754  33.405  30.344  1.00  0.00     0.134 A 
ATOM     77  F   UNL A   1      44.152  31.580  33.427  1.00  0.00    -0.206 F 
ATOM     78  C   UNL A   1      44.749  33.825  33.089  1.00  0.00     0.040 A 
ATOM     79  C   UNL A   1      45.080  34.661  30.855  1.00  0.00     0.040 A 
ATOM     80  F   UNL A   1      44.772  33.244  29.013  1.00  0.00    -0.206 F 
ATOM     81  C   UNL A   1      45.074  34.876  32.232  1.00  0.00     0.006 A 
ENDBRANCH  57  74
ENDBRANCH  31  32
ENDBRANCH  23  26
ENDBRANCH  21  22
ENDBRANCH   1  21
TORSDOF 12
ENDMDL
MODEL 2
REMARK VINA RESULT:     -11.3      0.172      6.510
REMARK SMILES Cc1nc(-c2ccco2)nc(S)c1C(=O)NCCCNC(=O)c1ccc(-c2c3nc(c(-c4c(F)cccc4F)c4ccc([nH]4)c(-c4c(F)cccc4F)c4nc(c(-c5c(F)cccc5F)c5ccc2[nH]5)C=C4)C=C3)cc1
REMARK SMILES IDX 18 1 17 2 16 3 14 4 15 5 13 7 1 8 2 9 3 10 4 11 11 12 10 13
REMARK SMILES IDX 5 14 6 15 9 16 7 17 8 18 12 19 19 21 20 22 21 23 22 25 23 26
REMARK SMILES IDX 24 27 76 28 25 29 75 30 26 31 27 32 28 33 69 34 29 35 74 36
REMARK SMILES IDX 68 37 70 38 30 39 73 40 67 41 66 42 31 44 57 45 40 46 56 47
REMARK SMILES IDX 41 48 44 49 55 50 71 51 42 52 43 53 54 55 72 56 45 57 32 58
REMARK SMILES IDX 33 59 38 60 34 61 35 62 37 63 39 64 36 65 58 66 59 67 64 68
REMARK SMILES IDX 60 69 61 70 63 71 65 72 62 73 46 74 47 75 52 76 48 77 49 78
REMARK SMILES IDX 51 79 53 80 50 81
REMARK H PARENT 16 6 12 20 20 24 70 43 44 54
REMARK Flexibility Score: inf
ROOT
ATOM      1  C   UNL A   1      37.466  19.918  24.817  1.00  0.00     0.042 C 
ENDROOT
BRANCH   1   2
ATOM      2  C   UNL A   1      36.193  20.745  25.016  1.00  0.00     0.118 C 
BRANCH   2   3
ATOM      3  N   UNL A   1      35.046  19.860  25.050  1.00  0.00    -0.352 N 
ATOM      4  C   UNL A   1      33.695  20.034  25.190  1.00  0.00     0.255 C 
ATOM      5  O   UNL A   1      33.069  18.998  25.434  1.00  0.00    -0.269 OA
ATOM      6  H   UNL A   1      35.296  18.913  24.950  1.00  0.00     0.163 HD
BRANCH   4   7
ATOM      7  C   UNL A   1      32.922  21.298  25.029  1.00  0.00     0.093 A 
ATOM      8  C   UNL A   1      32.132  21.048  22.582  1.00  0.00     0.068 C 
ATOM      9  C   UNL A   1      32.247  21.739  23.895  1.00  0.00     0.055 A 
ATOM     10  N   UNL A   1      31.671  22.962  23.820  1.00  0.00    -0.230 NA
ATOM     11  C   UNL A   1      31.853  23.811  24.831  1.00  0.00     0.196 A 
ATOM     12  C   UNL A   1      33.015  22.269  26.047  1.00  0.00     0.110 A 
ATOM     13  N   UNL A   1      32.524  23.532  25.944  1.00  0.00    -0.218 NA
BRANCH  11  14
ATOM     14  C   UNL A   1      31.480  25.180  24.553  1.00  0.00     0.171 A 
ATOM     15  C   UNL A   1      30.974  25.824  23.442  1.00  0.00     0.054 A 
ATOM     16  O   UNL A   1      31.512  26.041  25.615  1.00  0.00    -0.461 OA
ATOM     17  C   UNL A   1      30.657  27.142  23.854  1.00  0.00     0.043 A 
ATOM     18  C   UNL A   1      31.019  27.228  25.178  1.00  0.00     0.196 A 
ENDBRANCH  11  14
BRANCH  12  19
ATOM     19  S   UNL A   1      33.750  22.005  27.664  1.00  0.00    -0.123 SA
ATOM     20  H   UNL A   1      32.991  21.124  28.369  1.00  0.00     0.110 HD
ENDBRANCH  12  19
ENDBRANCH   4   7
ENDBRANCH   2   3
ENDBRANCH   1   2
BRANCH   1  21
ATOM     21  C   UNL A   1      38.664  20.407  25.615  1.00  0.00     0.118 C 
BRANCH  21  22
ATOM     22  N   UNL A   1      39.699  19.395  25.728  1.00  0.00    -0.352 N 
ATOM     23  C   UNL A   1      41.027  19.527  26.068  1.00  0.00     0.251 C 
ATOM     24  H   UNL A   1      39.409  18.475  25.531  1.00  0.00     0.163 HD
ATOM     25  O   UNL A   1      41.790  18.584  25.904  1.00  0.00    -0.269 OA
BRANCH  23  26
ATOM     26  C   UNL A   1      41.543  20.813  26.599  1.00  0.00     0.039 A 
ATOM     27  C   UNL A   1      41.506  21.099  27.964  1.00  0.00     0.014 A 
ATOM     28  C   UNL A   1      42.083  21.747  25.710  1.00  0.00     0.014 A 
ATOM     29  C   UNL A   1      41.831  22.374  28.414  1.00  0.00     0.010 A 
ATOM     30  C   UNL A   1      42.511  22.994  26.180  1.00  0.00     0.010 A 
ATOM     31  C   UNL A   1      42.343  23.337  27.530  1.00  0.00    -0.014 A 
BRANCH  31  32
ATOM     32  C   UNL A   1      42.700  24.688  28.040  1.00  0.00     0.031 A 
ATOM     33  C   UNL A   1      41.636  25.729  28.271  1.00  0.00     0.074 A 
ATOM     34  C   UNL A   1      43.985  24.962  28.338  1.00  0.00     0.049 A 
ATOM     35  N   UNL A   1      41.767  26.964  28.690  1.00  0.00    -0.248 NA
ATOM     36  C   UNL A   1      40.244  25.340  27.993  1.00  0.00     0.031 C 
ATOM     37  C   UNL A   1      45.105  24.033  28.171  1.00  0.00     0.029 A 
ATOM     38  N   UNL A   1      44.567  26.091  28.859  1.00  0.00    -0.354 N 
ATOM     39  C   UNL A   1      40.486  27.500  28.707  1.00  0.00     0.074 A 
ATOM     40  C   UNL A   1      39.591  26.470  28.228  1.00  0.00     0.031 C 
ATOM     41  C   UNL A   1      46.228  24.609  28.625  1.00  0.00     0.029 A 
ATOM     42  C   UNL A   1      45.925  25.973  29.044  1.00  0.00     0.049 A 
ATOM     43  H   UNL A   1      44.061  26.906  29.079  1.00  0.00     0.167 HD
ATOM     44  C   UNL A   1      40.092  28.735  29.099  1.00  0.00     0.037 A 
ATOM     45  C   UNL A   1      46.832  26.869  29.476  1.00  0.00     0.037 A 
ATOM     46  C   UNL A   1      40.985  29.748  29.601  1.00  0.00     0.049 A 
ATOM     47  C   UNL A   1      46.373  28.247  29.856  1.00  0.00     0.074 A 
ATOM     48  C   UNL A   1      40.675  31.021  30.049  1.00  0.00     0.029 A 
ATOM     49  N   UNL A   1      42.358  29.604  29.727  1.00  0.00    -0.354 N 
ATOM     50  N   UNL A   1      45.156  28.734  29.876  1.00  0.00    -0.248 NA
ATOM     51  C   UNL A   1      47.411  29.202  30.266  1.00  0.00     0.031 C 
ATOM     52  C   UNL A   1      41.865  31.665  30.396  1.00  0.00     0.029 A 
ATOM     53  C   UNL A   1      42.912  30.775  30.219  1.00  0.00     0.049 A 
ATOM     54  H   UNL A   1      42.865  28.791  29.499  1.00  0.00     0.167 HD
ATOM     55  C   UNL A   1      45.279  30.047  30.311  1.00  0.00     0.074 A 
ATOM     56  C   UNL A   1      46.686  30.270  30.570  1.00  0.00     0.031 C 
ATOM     57  C   UNL A   1      44.314  30.983  30.474  1.00  0.00     0.037 A 
BRANCH  44  58
ATOM     58  C   UNL A   1      38.634  29.078  29.003  1.00  0.00     0.057 A 
ATOM     59  C   UNL A   1      37.777  28.983  30.107  1.00  0.00     0.134 A 
ATOM     60  C   UNL A   1      38.100  29.600  27.816  1.00  0.00     0.134 A 
ATOM     61  F   UNL A   1      38.220  28.481  31.271  1.00  0.00    -0.206 F 
ATOM     62  C   UNL A   1      36.443  29.391  30.034  1.00  0.00     0.040 A 
ATOM     63  C   UNL A   1      36.776  30.034  27.739  1.00  0.00     0.040 A 
ATOM     64  F   UNL A   1      38.867  29.726  26.723  1.00  0.00    -0.206 F 
ATOM     65  C   UNL A   1      35.943  29.929  28.850  1.00  0.00     0.006 A 
ENDBRANCH  44  58
BRANCH  45  66
ATOM     66  C   UNL A   1      48.266  26.488  29.555  1.00  0.00     0.057 A 
ATOM     67  C   UNL A   1      49.146  26.752  28.500  1.00  0.00     0.134 A 
ATOM     68  C   UNL A   1      48.793  25.865  30.693  1.00  0.00     0.134 A 
ATOM     69  F   UNL A   1      48.698  27.329  27.375  1.00  0.00    -0.206 F 
ATOM     70  C   UNL A   1      50.496  26.403  28.569  1.00  0.00     0.040 A 
ATOM     71  C   UNL A   1      50.146  25.539  30.789  1.00  0.00     0.040 A 
ATOM     72  F   UNL A   1      48.004  25.589  31.743  1.00  0.00    -0.206 F 
ATOM     73  C   UNL A   1      51.001  25.802  29.722  1.00  0.00     0.006 A 
ENDBRANCH  45  66
BRANCH  57  74
ATOM     74  C   UNL A   1      44.739  32.334  30.972  1.00  0.00     0.057 A 
ATOM     75  C   UNL A   1      45.057  33.375  30.091  1.00  0.00     0.134 A 
ATOM     76  C   UNL A   1      44.764  32.615  32.344  1.00  0.00     0.134 A 
ATOM     77  F   UNL A   1      45.062  33.166  28.765  1.00  0.00    -0.206 F 
ATOM     78  C   UNL A   1      45.402  34.643  30.558  1.00  0.00     0.040 A 
ATOM     79  C   UNL A   1      45.079  33.887  32.821  1.00  0.00     0.040 A 
ATOM     80  F   UNL A   1      44.458  31.665  33.240  1.00  0.00    -0.206 F 
ATOM     81  C   UNL A   1      45.403  34.905  31.927  1.00  0.00     0.006 A 
ENDBRANCH  57  74
ENDBRANCH  31  32
ENDBRANCH  23  26
ENDBRANCH  21  22
ENDBRANCH   1  21
TORSDOF 12
ENDMDL
MODEL 3
REMARK VINA RESULT:     -11.2      2.237      7.585
REMARK SMILES Cc1nc(-c2ccco2)nc(S)c1C(=O)NCCCNC(=O)c1ccc(-c2c3nc(c(-c4c(F)cccc4F)c4ccc([nH]4)c(-c4c(F)cccc4F)c4nc(c(-c5c(F)cccc5F)c5ccc2[nH]5)C=C4)C=C3)cc1
REMARK SMILES IDX 18 1 17 2 16 3 14 4 15 5 13 7 1 8 2 9 3 10 4 11 11 12 10 13
REMARK SMILES IDX 5 14 6 15 9 16 7 17 8 18 12 19 19 21 20 22 21 23 22 25 23 26
REMARK SMILES IDX 24 27 76 28 25 29 75 30 26 31 27 32 28 33 69 34 29 35 74 36
REMARK SMILES IDX 68 37 70 38 30 39 73 40 67 41 66 42 31 44 57 45 40 46 56 47
REMARK SMILES IDX 41 48 44 49 55 50 71 51 42 52 43 53 54 55 72 56 45 57 32 58
REMARK SMILES IDX 33 59 38 60 34 61 35 62 37 63 39 64 36 65 58 66 59 67 64 68
REMARK SMILES IDX 60 69 61 70 63 71 65 72 62 73 46 74 47 75 52 76 48 77 49 78
REMARK SMILES IDX 51 79 53 80 50 81
REMARK H PARENT 16 6 12 20 20 24 70 43 44 54
REMARK Flexibility Score: inf
ROOT
ATOM      1  C   UNL A   1      32.227  28.109  26.867  1.00  0.00     0.042 C 
ENDROOT
BRANCH   1   2
ATOM      2  C   UNL A   1      31.939  28.242  25.369  1.00  0.00     0.118 C 
BRANCH   2   3
ATOM      3  N   UNL A   1      31.059  27.168  24.953  1.00  0.00    -0.352 N 
ATOM      4  C   UNL A   1      31.240  25.879  24.530  1.00  0.00     0.255 C 
ATOM      5  O   UNL A   1      30.245  25.366  24.011  1.00  0.00    -0.269 OA
ATOM      6  H   UNL A   1      30.109  27.427  24.979  1.00  0.00     0.163 HD
BRANCH   4   7
ATOM      7  C   UNL A   1      32.463  25.041  24.677  1.00  0.00     0.093 A 
ATOM      8  C   UNL A   1      32.025  23.987  26.995  1.00  0.00     0.068 C 
ATOM      9  C   UNL A   1      32.805  24.221  25.750  1.00  0.00     0.055 A 
ATOM     10  N   UNL A   1      33.999  23.591  25.832  1.00  0.00    -0.230 NA
ATOM     11  C   UNL A   1      34.919  23.851  24.904  1.00  0.00     0.196 A 
ATOM     12  C   UNL A   1      33.503  25.208  23.740  1.00  0.00     0.110 A 
ATOM     13  N   UNL A   1      34.738  24.656  23.862  1.00  0.00    -0.218 NA
BRANCH  11  14
ATOM     14  C   UNL A   1      36.253  23.392  25.221  1.00  0.00     0.171 A 
ATOM     15  C   UNL A   1      37.273  23.892  26.005  1.00  0.00     0.054 A 
ATOM     16  O   UNL A   1      36.589  22.149  24.760  1.00  0.00    -0.461 OA
ATOM     17  C   UNL A   1      38.274  22.891  26.045  1.00  0.00     0.043 A 
ATOM     18  C   UNL A   1      37.818  21.859  25.259  1.00  0.00     0.196 A 
ENDBRANCH  11  14
BRANCH  12  19
ATOM     19  S   UNL A   1      33.372  26.134  22.206  1.00  0.00    -0.123 SA
ATOM     20  H   UNL A   1      33.799  25.361  21.172  1.00  0.00     0.110 HD
ENDBRANCH  12  19
ENDBRANCH   4   7
ENDBRANCH   2   3
ENDBRANCH   1   2
BRANCH   1  21
ATOM     21  C   UNL A   1      33.611  28.581  27.284  1.00  0.00     0.118 C 
BRANCH  21  22
ATOM     22  N   UNL A   1      33.617  29.973  27.695  1.00  0.00    -0.352 N 
ATOM     23  C   UNL A   1      34.606  30.704  28.316  1.00  0.00     0.251 C 
ATOM     24  H   UNL A   1      32.790  30.470  27.501  1.00  0.00     0.163 HD
ATOM     25  O   UNL A   1      34.344  31.810  28.770  1.00  0.00    -0.269 OA
BRANCH  23  26
ATOM     26  C   UNL A   1      35.972  30.147  28.465  1.00  0.00     0.039 A 
ATOM     27  C   UNL A   1      36.387  29.555  29.658  1.00  0.00     0.014 A 
ATOM     28  C   UNL A   1      36.855  30.212  27.382  1.00  0.00     0.014 A 
ATOM     29  C   UNL A   1      37.720  29.201  29.831  1.00  0.00     0.010 A 
ATOM     30  C   UNL A   1      38.170  29.756  27.523  1.00  0.00     0.010 A 
ATOM     31  C   UNL A   1      38.629  29.292  28.765  1.00  0.00    -0.014 A 
BRANCH  31  32
ATOM     32  C   UNL A   1      40.047  28.891  28.970  1.00  0.00     0.031 A 
ATOM     33  C   UNL A   1      41.020  29.823  29.642  1.00  0.00     0.074 A 
ATOM     34  C   UNL A   1      40.446  27.661  28.589  1.00  0.00     0.049 A 
ATOM     35  N   UNL A   1      42.297  29.648  29.883  1.00  0.00    -0.248 NA
ATOM     36  C   UNL A   1      40.502  31.122  30.098  1.00  0.00     0.031 C 
ATOM     37  C   UNL A   1      39.593  26.662  27.941  1.00  0.00     0.029 A 
ATOM     38  N   UNL A   1      41.661  27.033  28.705  1.00  0.00    -0.354 N 
ATOM     39  C   UNL A   1      42.733  30.815  30.498  1.00  0.00     0.074 A 
ATOM     40  C   UNL A   1      41.596  31.706  30.567  1.00  0.00     0.031 C 
ATOM     41  C   UNL A   1      40.294  25.534  27.760  1.00  0.00     0.029 A 
ATOM     42  C   UNL A   1      41.666  25.751  28.208  1.00  0.00     0.049 A 
ATOM     43  H   UNL A   1      42.452  27.460  29.105  1.00  0.00     0.167 HD
ATOM     44  C   UNL A   1      43.966  31.110  30.973  1.00  0.00     0.037 A 
ATOM     45  C   UNL A   1      42.666  24.857  28.099  1.00  0.00     0.037 A 
ATOM     46  C   UNL A   1      45.088  30.208  30.926  1.00  0.00     0.049 A 
ATOM     47  C   UNL A   1      44.035  25.230  28.588  1.00  0.00     0.074 A 
ATOM     48  C   UNL A   1      46.371  30.408  31.406  1.00  0.00     0.029 A 
ATOM     49  N   UNL A   1      45.063  28.937  30.372  1.00  0.00    -0.354 N 
ATOM     50  N   UNL A   1      44.428  26.335  29.176  1.00  0.00    -0.248 NA
ATOM     51  C   UNL A   1      45.103  24.240  28.392  1.00  0.00     0.031 C 
ATOM     52  C   UNL A   1      47.136  29.279  31.096  1.00  0.00     0.029 A 
ATOM     53  C   UNL A   1      46.315  28.353  30.474  1.00  0.00     0.049 A 
ATOM     54  H   UNL A   1      44.272  28.514  29.964  1.00  0.00     0.167 HD
ATOM     55  C   UNL A   1      45.782  26.168  29.432  1.00  0.00     0.074 A 
ATOM     56  C   UNL A   1      46.137  24.846  28.960  1.00  0.00     0.031 C 
ATOM     57  C   UNL A   1      46.653  27.035  30.001  1.00  0.00     0.037 A 
BRANCH  44  58
ATOM     58  C   UNL A   1      44.186  32.463  31.586  1.00  0.00     0.057 A 
ATOM     59  C   UNL A   1      44.563  33.571  30.817  1.00  0.00     0.134 A 
ATOM     60  C   UNL A   1      43.926  32.680  32.946  1.00  0.00     0.134 A 
ATOM     61  F   UNL A   1      44.837  33.431  29.510  1.00  0.00    -0.206 F 
ATOM     62  C   UNL A   1      44.676  34.845  31.379  1.00  0.00     0.040 A 
ATOM     63  C   UNL A   1      44.012  33.953  33.513  1.00  0.00     0.040 A 
ATOM     64  F   UNL A   1      43.554  31.664  33.739  1.00  0.00    -0.206 F 
ATOM     65  C   UNL A   1      44.388  35.040  32.728  1.00  0.00     0.006 A 
ENDBRANCH  44  58
BRANCH  45  66
ATOM     66  C   UNL A   1      42.405  23.529  27.486  1.00  0.00     0.057 A 
ATOM     67  C   UNL A   1      42.094  22.415  28.273  1.00  0.00     0.134 A 
ATOM     68  C   UNL A   1      42.446  23.346  26.098  1.00  0.00     0.134 A 
ATOM     69  F   UNL A   1      42.058  22.522  29.610  1.00  0.00    -0.206 F 
ATOM     70  C   UNL A   1      41.842  21.166  27.704  1.00  0.00     0.040 A 
ATOM     71  C   UNL A   1      42.165  22.110  25.513  1.00  0.00     0.040 A 
ATOM     72  F   UNL A   1      42.732  24.375  25.286  1.00  0.00    -0.206 F 
ATOM     73  C   UNL A   1      41.869  21.013  26.318  1.00  0.00     0.006 A 
ENDBRANCH  45  66
BRANCH  57  74
ATOM     74  C   UNL A   1      48.075  26.581  30.163  1.00  0.00     0.057 A 
ATOM     75  C   UNL A   1      48.490  25.849  31.281  1.00  0.00     0.134 A 
ATOM     76  C   UNL A   1      49.020  26.822  29.158  1.00  0.00     0.134 A 
ATOM     77  F   UNL A   1      47.635  25.595  32.284  1.00  0.00    -0.206 F 
ATOM     78  C   UNL A   1      49.801  25.386  31.403  1.00  0.00     0.040 A 
ATOM     79  C   UNL A   1      50.325  26.339  29.254  1.00  0.00     0.040 A 
ATOM     80  F   UNL A   1      48.683  27.506  28.055  1.00  0.00    -0.206 F 
ATOM     81  C   UNL A   1      50.720  25.622  30.381  1.00  0.00     0.006 A 
ENDBRANCH  57  74
ENDBRANCH  31  32
ENDBRANCH  23  26
ENDBRANCH  21  22
ENDBRANCH   1  21
TORSDOF 12
ENDMDL
