MODEL 1
REMARK VINA RESULT:     -11.1      0.000      0.000
REMARK SMILES CC[C@H]([NH3+])C(=O)N(C)c1snc(C)c1C(=O)NCCCNC(=O)c1ccc(-c2c3nc(c(-c4c(F)cccc4F)c4ccc([nH]4)c(-c4c(F)cccc4F)c4nc(c(-c5c(F)cccc5F)c5ccc2[nH]5)C=C4)C=C3)cc1
REMARK SMILES IDX 18 1 17 2 15 3 16 4 14 6 9 7 10 8 11 9 12 10 13 11 7 12 8 13
REMARK SMILES IDX 5 14 6 15 3 16 2 17 1 18 4 19 19 23 20 24 21 25 22 26 23 28
REMARK SMILES IDX 24 29 25 30 77 31 26 32 76 33 27 34 28 35 29 36 70 37 30 38
REMARK SMILES IDX 75 39 69 40 71 41 31 42 74 43 68 44 67 45 32 47 58 48 41 49
REMARK SMILES IDX 57 50 42 51 45 52 56 53 72 54 43 55 44 56 55 58 73 59 46 60
REMARK SMILES IDX 33 61 34 62 39 63 35 64 36 65 38 66 40 67 37 68 59 69 60 70
REMARK SMILES IDX 65 71 61 72 62 73 64 74 66 75 63 76 47 77 48 78 53 79 49 80
REMARK SMILES IDX 50 81 52 82 54 83 51 84
REMARK H PARENT 17 5 4 20 4 21 4 22 21 27 71 46 45 57
REMARK Flexibility Score: inf
ROOT
ATOM      1  C   UNL A   1      32.171  29.611  26.118  1.00  0.00     0.118 C 
ENDROOT
BRANCH   1   2
ATOM      2  N   UNL A   1      31.521  28.487  26.732  1.00  0.00    -0.352 N 
ATOM      3  C   UNL A   1      31.345  27.237  26.175  1.00  0.00     0.256 C 
ATOM      4  O   UNL A   1      30.894  26.358  26.911  1.00  0.00    -0.269 OA
ATOM      5  H   UNL A   1      31.168  28.622  27.641  1.00  0.00     0.163 HD
BRANCH   3   6
ATOM      6  C   UNL A   1      31.500  27.021  24.733  1.00  0.00     0.097 A 
ATOM      7  C   UNL A   1      30.570  27.099  23.691  1.00  0.00     0.131 A 
ATOM      8  S   UNL A   1      31.361  26.636  22.230  1.00  0.00    -0.017 S 
ATOM      9  N   UNL A   1      32.825  26.320  22.883  1.00  0.00    -0.195 NA
ATOM     10  C   UNL A   1      32.777  26.549  24.193  1.00  0.00     0.066 A 
ATOM     11  C   UNL A   1      34.021  26.229  24.959  1.00  0.00     0.069 C 
BRANCH   7  12
ATOM     12  N   UNL A   1      29.194  27.429  23.547  1.00  0.00    -0.300 N 
ATOM     13  C   UNL A   1      28.193  26.444  23.962  1.00  0.00     0.154 C 
BRANCH  12  14
ATOM     14  C   UNL A   1      28.862  28.667  22.978  1.00  0.00     0.285 C 
ATOM     15  O   UNL A   1      27.778  28.854  22.411  1.00  0.00    -0.268 OA
BRANCH  14  16
ATOM     16  C   UNL A   1      29.881  29.874  23.040  1.00  0.00     0.271 C 
BRANCH  16  17
ATOM     17  C   UNL A   1      29.416  31.109  23.843  1.00  0.00     0.072 C 
ATOM     18  C   UNL A   1      28.581  32.192  23.180  1.00  0.00     0.011 C 
ENDBRANCH  16  17
BRANCH  16  19
ATOM     19  N   UNL A   1      30.458  30.173  21.725  1.00  0.00    -0.347 N 
ATOM     20  H   UNL A   1      29.884  30.870  21.252  1.00  0.00     0.345 HD
ATOM     21  H   UNL A   1      30.489  29.321  21.166  1.00  0.00     0.345 HD
ATOM     22  H   UNL A   1      31.404  30.536  21.845  1.00  0.00     0.345 HD
ENDBRANCH  16  19
ENDBRANCH  14  16
ENDBRANCH  12  14
ENDBRANCH   7  12
ENDBRANCH   3   6
ENDBRANCH   1   2
BRANCH   1  23
ATOM     23  C   UNL A   1      32.324  30.879  26.934  1.00  0.00     0.042 C 
BRANCH  23  24
ATOM     24  C   UNL A   1      33.757  31.205  27.332  1.00  0.00     0.118 C 
BRANCH  24  25
ATOM     25  N   UNL A   1      33.942  31.715  28.699  1.00  0.00    -0.352 N 
ATOM     26  C   UNL A   1      35.070  31.631  29.502  1.00  0.00     0.251 C 
ATOM     27  H   UNL A   1      33.167  32.175  29.093  1.00  0.00     0.163 HD
ATOM     28  O   UNL A   1      35.085  31.965  30.677  1.00  0.00    -0.269 OA
BRANCH  26  29
ATOM     29  C   UNL A   1      36.299  31.222  28.818  1.00  0.00     0.039 A 
ATOM     30  C   UNL A   1      37.469  31.972  28.934  1.00  0.00     0.014 A 
ATOM     31  C   UNL A   1      36.310  29.876  28.493  1.00  0.00     0.014 A 
ATOM     32  C   UNL A   1      38.685  31.291  28.917  1.00  0.00     0.010 A 
ATOM     33  C   UNL A   1      37.488  29.206  28.702  1.00  0.00     0.010 A 
ATOM     34  C   UNL A   1      38.694  29.886  28.904  1.00  0.00    -0.014 A 
BRANCH  34  35
ATOM     35  C   UNL A   1      39.909  29.131  29.247  1.00  0.00     0.031 A 
ATOM     36  C   UNL A   1      40.269  28.965  30.694  1.00  0.00     0.074 A 
ATOM     37  C   UNL A   1      40.621  28.389  28.369  1.00  0.00     0.049 A 
ATOM     38  N   UNL A   1      41.314  29.437  31.297  1.00  0.00    -0.248 NA
ATOM     39  C   UNL A   1      39.384  28.192  31.577  1.00  0.00     0.031 C 
ATOM     40  C   UNL A   1      40.384  28.117  26.945  1.00  0.00     0.029 A 
ATOM     41  N   UNL A   1      41.710  27.616  28.638  1.00  0.00    -0.354 N 
ATOM     42  C   UNL A   1      41.318  28.905  32.587  1.00  0.00     0.074 A 
ATOM     43  C   UNL A   1      40.057  28.220  32.733  1.00  0.00     0.031 C 
ATOM     44  C   UNL A   1      41.117  27.056  26.554  1.00  0.00     0.029 A 
ATOM     45  C   UNL A   1      42.046  26.748  27.618  1.00  0.00     0.049 A 
ATOM     46  H   UNL A   1      42.213  27.672  29.483  1.00  0.00     0.167 HD
ATOM     47  C   UNL A   1      42.430  28.939  33.381  1.00  0.00     0.037 A 
ATOM     48  C   UNL A   1      43.058  25.858  27.594  1.00  0.00     0.037 A 
ATOM     49  C   UNL A   1      43.420  29.851  32.869  1.00  0.00     0.049 A 
ATOM     50  C   UNL A   1      44.090  26.343  28.536  1.00  0.00     0.074 A 
ATOM     51  C   UNL A   1      43.441  31.197  32.554  1.00  0.00     0.029 A 
ATOM     52  N   UNL A   1      44.546  29.334  32.276  1.00  0.00    -0.354 N 
ATOM     53  N   UNL A   1      44.772  27.444  28.362  1.00  0.00    -0.248 NA
ATOM     54  C   UNL A   1      44.074  25.830  29.896  1.00  0.00     0.031 C 
ATOM     55  C   UNL A   1      44.228  31.277  31.364  1.00  0.00     0.029 A 
ATOM     56  C   UNL A   1      44.667  29.983  31.075  1.00  0.00     0.049 A 
ATOM     57  H   UNL A   1      45.143  28.641  32.639  1.00  0.00     0.167 HD
ATOM     58  C   UNL A   1      44.912  27.982  29.632  1.00  0.00     0.074 A 
ATOM     59  C   UNL A   1      44.569  26.889  30.541  1.00  0.00     0.031 C 
ATOM     60  C   UNL A   1      45.028  29.329  29.837  1.00  0.00     0.037 A 
BRANCH  47  61
ATOM     61  C   UNL A   1      42.772  27.954  34.473  1.00  0.00     0.057 A 
ATOM     62  C   UNL A   1      43.105  26.625  34.137  1.00  0.00     0.134 A 
ATOM     63  C   UNL A   1      42.516  28.178  35.838  1.00  0.00     0.134 A 
ATOM     64  F   UNL A   1      43.351  26.276  32.865  1.00  0.00    -0.206 F 
ATOM     65  C   UNL A   1      43.117  25.587  35.079  1.00  0.00     0.040 A 
ATOM     66  C   UNL A   1      42.575  27.157  36.795  1.00  0.00     0.040 A 
ATOM     67  F   UNL A   1      42.103  29.366  36.295  1.00  0.00    -0.206 F 
ATOM     68  C   UNL A   1      42.846  25.852  36.414  1.00  0.00     0.006 A 
ENDBRANCH  47  61
BRANCH  48  69
ATOM     69  C   UNL A   1      43.057  24.549  26.923  1.00  0.00     0.057 A 
ATOM     70  C   UNL A   1      42.442  23.432  27.489  1.00  0.00     0.134 A 
ATOM     71  C   UNL A   1      43.486  24.419  25.586  1.00  0.00     0.134 A 
ATOM     72  F   UNL A   1      41.967  23.480  28.742  1.00  0.00    -0.206 F 
ATOM     73  C   UNL A   1      42.255  22.247  26.766  1.00  0.00     0.040 A 
ATOM     74  C   UNL A   1      43.314  23.242  24.856  1.00  0.00     0.040 A 
ATOM     75  F   UNL A   1      44.019  25.457  24.925  1.00  0.00    -0.206 F 
ATOM     76  C   UNL A   1      42.686  22.153  25.444  1.00  0.00     0.006 A 
ENDBRANCH  48  69
BRANCH  60  77
ATOM     77  C   UNL A   1      45.248  30.230  28.649  1.00  0.00     0.057 A 
ATOM     78  C   UNL A   1      44.210  30.835  27.925  1.00  0.00     0.134 A 
ATOM     79  C   UNL A   1      46.548  30.652  28.348  1.00  0.00     0.134 A 
ATOM     80  F   UNL A   1      42.929  30.582  28.208  1.00  0.00    -0.206 F 
ATOM     81  C   UNL A   1      44.453  31.782  26.926  1.00  0.00     0.040 A 
ATOM     82  C   UNL A   1      46.804  31.622  27.372  1.00  0.00     0.040 A 
ATOM     83  F   UNL A   1      47.593  30.170  29.039  1.00  0.00    -0.206 F 
ATOM     84  C   UNL A   1      45.755  32.184  26.651  1.00  0.00     0.006 A 
ENDBRANCH  60  77
ENDBRANCH  34  35
ENDBRANCH  26  29
ENDBRANCH  24  25
ENDBRANCH  23  24
ENDBRANCH   1  23
TORSDOF 15
ENDMDL
MODEL 2
REMARK VINA RESULT:     -11.0      2.233      6.416
REMARK SMILES CC[C@H]([NH3+])C(=O)N(C)c1snc(C)c1C(=O)NCCCNC(=O)c1ccc(-c2c3nc(c(-c4c(F)cccc4F)c4ccc([nH]4)c(-c4c(F)cccc4F)c4nc(c(-c5c(F)cccc5F)c5ccc2[nH]5)C=C4)C=C3)cc1
REMARK SMILES IDX 18 1 17 2 15 3 16 4 14 6 9 7 10 8 11 9 12 10 13 11 7 12 8 13
REMARK SMILES IDX 5 14 6 15 3 16 2 17 1 18 4 19 19 23 20 24 21 25 22 26 23 28
REMARK SMILES IDX 24 29 25 30 77 31 26 32 76 33 27 34 28 35 29 36 70 37 30 38
REMARK SMILES IDX 75 39 69 40 71 41 31 42 74 43 68 44 67 45 32 47 58 48 41 49
REMARK SMILES IDX 57 50 42 51 45 52 56 53 72 54 43 55 44 56 55 58 73 59 46 60
REMARK SMILES IDX 33 61 34 62 39 63 35 64 36 65 38 66 40 67 37 68 59 69 60 70
REMARK SMILES IDX 65 71 61 72 62 73 64 74 66 75 63 76 47 77 48 78 53 79 49 80
REMARK SMILES IDX 50 81 52 82 54 83 51 84
REMARK H PARENT 17 5 4 20 4 21 4 22 21 27 71 46 45 57
REMARK Flexibility Score: inf
ROOT
ATOM      1  C   UNL A   1      33.657  29.045  25.975  1.00  0.00     0.118 C 
ENDROOT
BRANCH   1   2
ATOM      2  N   UNL A   1      34.238  28.963  24.664  1.00  0.00    -0.352 N 
ATOM      3  C   UNL A   1      33.602  28.553  23.510  1.00  0.00     0.256 C 
ATOM      4  O   UNL A   1      34.222  28.689  22.454  1.00  0.00    -0.269 OA
ATOM      5  H   UNL A   1      35.183  29.226  24.581  1.00  0.00     0.163 HD
BRANCH   3   6
ATOM      6  C   UNL A   1      32.337  27.814  23.562  1.00  0.00     0.097 A 
ATOM      7  C   UNL A   1      31.014  28.268  23.600  1.00  0.00     0.131 A 
ATOM      8  S   UNL A   1      29.981  26.895  23.752  1.00  0.00    -0.017 S 
ATOM      9  N   UNL A   1      31.155  25.760  23.797  1.00  0.00    -0.195 NA
ATOM     10  C   UNL A   1      32.341  26.355  23.696  1.00  0.00     0.066 A 
ATOM     11  C   UNL A   1      33.534  25.459  23.802  1.00  0.00     0.069 C 
BRANCH   7  12
ATOM     12  N   UNL A   1      30.342  29.521  23.566  1.00  0.00    -0.300 N 
ATOM     13  C   UNL A   1      30.492  30.423  24.710  1.00  0.00     0.154 C 
BRANCH  12  14
ATOM     14  C   UNL A   1      29.537  29.816  22.457  1.00  0.00     0.285 C 
ATOM     15  O   UNL A   1      29.988  29.809  21.304  1.00  0.00    -0.268 OA
BRANCH  14  16
ATOM     16  C   UNL A   1      28.010  30.177  22.651  1.00  0.00     0.271 C 
BRANCH  16  17
ATOM     17  C   UNL A   1      27.716  31.584  23.216  1.00  0.00     0.072 C 
ATOM     18  C   UNL A   1      28.540  32.782  22.770  1.00  0.00     0.011 C 
ENDBRANCH  16  17
BRANCH  16  19
ATOM     19  N   UNL A   1      27.265  29.087  23.290  1.00  0.00    -0.347 N 
ATOM     20  H   UNL A   1      27.793  28.218  23.204  1.00  0.00     0.345 HD
ATOM     21  H   UNL A   1      26.360  28.981  22.833  1.00  0.00     0.345 HD
ATOM     22  H   UNL A   1      27.126  29.303  24.277  1.00  0.00     0.345 HD
ENDBRANCH  16  19
ENDBRANCH  14  16
ENDBRANCH  12  14
ENDBRANCH   7  12
ENDBRANCH   3   6
ENDBRANCH   1   2
BRANCH   1  23
ATOM     23  C   UNL A   1      34.192  30.096  26.927  1.00  0.00     0.042 C 
BRANCH  23  24
ATOM     24  C   UNL A   1      34.722  29.544  28.243  1.00  0.00     0.118 C 
BRANCH  24  25
ATOM     25  N   UNL A   1      35.479  30.491  29.077  1.00  0.00    -0.352 N 
ATOM     26  C   UNL A   1      36.797  30.400  29.500  1.00  0.00     0.251 C 
ATOM     27  H   UNL A   1      34.987  31.291  29.371  1.00  0.00     0.163 HD
ATOM     28  O   UNL A   1      37.299  31.169  30.305  1.00  0.00    -0.269 OA
BRANCH  26  29
ATOM     29  C   UNL A   1      37.604  29.380  28.825  1.00  0.00     0.039 A 
ATOM     30  C   UNL A   1      38.236  29.652  27.613  1.00  0.00     0.014 A 
ATOM     31  C   UNL A   1      38.044  28.388  29.686  1.00  0.00     0.014 A 
ATOM     32  C   UNL A   1      39.462  29.038  27.363  1.00  0.00     0.010 A 
ATOM     33  C   UNL A   1      39.340  27.972  29.526  1.00  0.00     0.010 A 
ATOM     34  C   UNL A   1      40.071  28.270  28.371  1.00  0.00    -0.014 A 
BRANCH  34  35
ATOM     35  C   UNL A   1      41.495  27.910  28.294  1.00  0.00     0.031 A 
ATOM     36  C   UNL A   1      41.893  26.715  27.478  1.00  0.00     0.074 A 
ATOM     37  C   UNL A   1      42.507  28.695  28.728  1.00  0.00     0.049 A 
ATOM     38  N   UNL A   1      42.426  25.616  27.913  1.00  0.00    -0.248 NA
ATOM     39  C   UNL A   1      41.685  26.728  26.024  1.00  0.00     0.031 C 
ATOM     40  C   UNL A   1      42.476  30.039  29.321  1.00  0.00     0.029 A 
ATOM     41  N   UNL A   1      43.842  28.450  28.624  1.00  0.00    -0.354 N 
ATOM     42  C   UNL A   1      42.770  24.857  26.794  1.00  0.00     0.074 A 
ATOM     43  C   UNL A   1      42.206  25.551  25.661  1.00  0.00     0.031 C 
ATOM     44  C   UNL A   1      43.706  30.588  29.270  1.00  0.00     0.029 A 
ATOM     45  C   UNL A   1      44.635  29.550  28.883  1.00  0.00     0.049 A 
ATOM     46  H   UNL A   1      44.209  27.568  28.386  1.00  0.00     0.167 HD
ATOM     47  C   UNL A   1      43.628  23.797  26.874  1.00  0.00     0.037 A 
ATOM     48  C   UNL A   1      45.981  29.622  28.849  1.00  0.00     0.037 A 
ATOM     49  C   UNL A   1      43.835  23.383  28.238  1.00  0.00     0.049 A 
ATOM     50  C   UNL A   1      46.498  28.255  29.076  1.00  0.00     0.074 A 
ATOM     51  C   UNL A   1      43.014  22.968  29.270  1.00  0.00     0.029 A 
ATOM     52  N   UNL A   1      45.034  23.679  28.840  1.00  0.00    -0.354 N 
ATOM     53  N   UNL A   1      46.349  27.599  30.196  1.00  0.00    -0.248 NA
ATOM     54  C   UNL A   1      46.815  27.439  27.916  1.00  0.00     0.031 C 
ATOM     55  C   UNL A   1      43.573  23.571  30.439  1.00  0.00     0.029 A 
ATOM     56  C   UNL A   1      44.716  24.264  30.037  1.00  0.00     0.049 A 
ATOM     57  H   UNL A   1      45.935  23.506  28.484  1.00  0.00     0.167 HD
ATOM     58  C   UNL A   1      46.136  26.283  29.815  1.00  0.00     0.074 A 
ATOM     59  C   UNL A   1      46.553  26.229  28.414  1.00  0.00     0.031 C 
ATOM     60  C   UNL A   1      45.394  25.422  30.575  1.00  0.00     0.037 A 
BRANCH  47  61
ATOM     61  C   UNL A   1      44.516  23.287  25.765  1.00  0.00     0.057 A 
ATOM     62  C   UNL A   1      44.572  21.904  25.493  1.00  0.00     0.134 A 
ATOM     63  C   UNL A   1      45.520  24.056  25.148  1.00  0.00     0.134 A 
ATOM     64  F   UNL A   1      43.685  21.058  26.038  1.00  0.00    -0.206 F 
ATOM     65  C   UNL A   1      45.589  21.325  24.721  1.00  0.00     0.040 A 
ATOM     66  C   UNL A   1      46.511  23.494  24.334  1.00  0.00     0.040 A 
ATOM     67  F   UNL A   1      45.650  25.368  25.382  1.00  0.00    -0.206 F 
ATOM     68  C   UNL A   1      46.566  22.121  24.141  1.00  0.00     0.006 A 
ENDBRANCH  47  61
BRANCH  48  69
ATOM     69  C   UNL A   1      46.786  30.789  28.456  1.00  0.00     0.057 A 
ATOM     70  C   UNL A   1      47.586  31.473  29.371  1.00  0.00     0.134 A 
ATOM     71  C   UNL A   1      46.952  31.132  27.099  1.00  0.00     0.134 A 
ATOM     72  F   UNL A   1      47.523  31.183  30.679  1.00  0.00    -0.206 F 
ATOM     73  C   UNL A   1      48.509  32.444  28.962  1.00  0.00     0.040 A 
ATOM     74  C   UNL A   1      47.861  32.103  26.678  1.00  0.00     0.040 A 
ATOM     75  F   UNL A   1      46.286  30.480  26.133  1.00  0.00    -0.206 F 
ATOM     76  C   UNL A   1      48.653  32.756  27.612  1.00  0.00     0.006 A 
ENDBRANCH  48  69
BRANCH  60  77
ATOM     77  C   UNL A   1      44.998  25.838  31.968  1.00  0.00     0.057 A 
ATOM     78  C   UNL A   1      45.803  25.643  33.100  1.00  0.00     0.134 A 
ATOM     79  C   UNL A   1      43.857  26.630  32.142  1.00  0.00     0.134 A 
ATOM     80  F   UNL A   1      46.967  24.994  33.019  1.00  0.00    -0.206 F 
ATOM     81  C   UNL A   1      45.471  26.176  34.349  1.00  0.00     0.040 A 
ATOM     82  C   UNL A   1      43.529  27.195  33.379  1.00  0.00     0.040 A 
ATOM     83  F   UNL A   1      43.068  26.918  31.094  1.00  0.00    -0.206 F 
ATOM     84  C   UNL A   1      44.333  26.962  34.491  1.00  0.00     0.006 A 
ENDBRANCH  60  77
ENDBRANCH  34  35
ENDBRANCH  26  29
ENDBRANCH  24  25
ENDBRANCH  23  24
ENDBRANCH   1  23
TORSDOF 15
ENDMDL
MODEL 3
REMARK VINA RESULT:     -11.0      2.223      6.797
REMARK SMILES CC[C@H]([NH3+])C(=O)N(C)c1snc(C)c1C(=O)NCCCNC(=O)c1ccc(-c2c3nc(c(-c4c(F)cccc4F)c4ccc([nH]4)c(-c4c(F)cccc4F)c4nc(c(-c5c(F)cccc5F)c5ccc2[nH]5)C=C4)C=C3)cc1
REMARK SMILES IDX 18 1 17 2 15 3 16 4 14 6 9 7 10 8 11 9 12 10 13 11 7 12 8 13
REMARK SMILES IDX 5 14 6 15 3 16 2 17 1 18 4 19 19 23 20 24 21 25 22 26 23 28
REMARK SMILES IDX 24 29 25 30 77 31 26 32 76 33 27 34 28 35 29 36 70 37 30 38
REMARK SMILES IDX 75 39 69 40 71 41 31 42 74 43 68 44 67 45 32 47 58 48 41 49
REMARK SMILES IDX 57 50 42 51 45 52 56 53 72 54 43 55 44 56 55 58 73 59 46 60
REMARK SMILES IDX 33 61 34 62 39 63 35 64 36 65 38 66 40 67 37 68 59 69 60 70
REMARK SMILES IDX 65 71 61 72 62 73 64 74 66 75 63 76 47 77 48 78 53 79 49 80
REMARK SMILES IDX 50 81 52 82 54 83 51 84
REMARK H PARENT 17 5 4 20 4 21 4 22 21 27 71 46 45 57
REMARK Flexibility Score: inf
ROOT
ATOM      1  C   UNL A   1      32.798  29.711  26.162  1.00  0.00     0.118 C 
ENDROOT
BRANCH   1   2
ATOM      2  N   UNL A   1      33.398  29.671  24.859  1.00  0.00    -0.352 N 
ATOM      3  C   UNL A   1      32.899  29.025  23.745  1.00  0.00     0.256 C 
ATOM      4  O   UNL A   1      33.480  29.227  22.678  1.00  0.00    -0.269 OA
ATOM      5  H   UNL A   1      34.249  30.154  24.747  1.00  0.00     0.163 HD
BRANCH   3   6
ATOM      6  C   UNL A   1      31.858  28.001  23.867  1.00  0.00     0.097 A 
ATOM      7  C   UNL A   1      31.951  26.620  24.072  1.00  0.00     0.131 A 
ATOM      8  S   UNL A   1      30.358  25.962  24.025  1.00  0.00    -0.017 S 
ATOM      9  N   UNL A   1      29.568  27.361  23.731  1.00  0.00    -0.195 NA
ATOM     10  C   UNL A   1      30.450  28.354  23.663  1.00  0.00     0.066 A 
ATOM     11  C   UNL A   1      29.896  29.699  23.317  1.00  0.00     0.069 C 
BRANCH   7  12
ATOM     12  N   UNL A   1      32.986  25.666  24.277  1.00  0.00    -0.300 N 
ATOM     13  C   UNL A   1      33.801  25.771  25.490  1.00  0.00     0.154 C 
BRANCH  12  14
ATOM     14  C   UNL A   1      33.203  24.695  23.290  1.00  0.00     0.285 C 
ATOM     15  O   UNL A   1      33.693  24.981  22.190  1.00  0.00    -0.268 OA
BRANCH  14  16
ATOM     16  C   UNL A   1      32.814  23.185  23.556  1.00  0.00     0.271 C 
BRANCH  16  17
ATOM     17  C   UNL A   1      33.995  22.211  23.765  1.00  0.00     0.072 C 
ATOM     18  C   UNL A   1      35.163  22.595  24.660  1.00  0.00     0.011 C 
ENDBRANCH  16  17
BRANCH  16  19
ATOM     19  N   UNL A   1      31.780  22.713  22.629  1.00  0.00    -0.347 N 
ATOM     20  H   UNL A   1      30.956  23.309  22.705  1.00  0.00     0.345 HD
ATOM     21  H   UNL A   1      31.528  21.753  22.862  1.00  0.00     0.345 HD
ATOM     22  H   UNL A   1      32.138  22.748  21.674  1.00  0.00     0.345 HD
ENDBRANCH  16  19
ENDBRANCH  14  16
ENDBRANCH  12  14
ENDBRANCH   7  12
ENDBRANCH   3   6
ENDBRANCH   1   2
BRANCH   1  23
ATOM     23  C   UNL A   1      33.476  30.540  27.235  1.00  0.00     0.042 C 
BRANCH  23  24
ATOM     24  C   UNL A   1      34.742  29.916  27.807  1.00  0.00     0.118 C 
BRANCH  24  25
ATOM     25  N   UNL A   1      35.422  30.694  28.855  1.00  0.00    -0.352 N 
ATOM     26  C   UNL A   1      36.639  30.431  29.467  1.00  0.00     0.251 C 
ATOM     27  H   UNL A   1      34.953  31.503  29.161  1.00  0.00     0.163 HD
ATOM     28  O   UNL A   1      37.060  31.060  30.426  1.00  0.00    -0.269 OA
BRANCH  26  29
ATOM     29  C   UNL A   1      37.464  29.413  28.812  1.00  0.00     0.039 A 
ATOM     30  C   UNL A   1      38.087  29.670  27.592  1.00  0.00     0.014 A 
ATOM     31  C   UNL A   1      37.926  28.449  29.692  1.00  0.00     0.014 A 
ATOM     32  C   UNL A   1      39.324  29.074  27.351  1.00  0.00     0.010 A 
ATOM     33  C   UNL A   1      39.230  28.054  29.537  1.00  0.00     0.010 A 
ATOM     34  C   UNL A   1      39.951  28.341  28.373  1.00  0.00    -0.014 A 
BRANCH  34  35
ATOM     35  C   UNL A   1      41.382  28.007  28.300  1.00  0.00     0.031 A 
ATOM     36  C   UNL A   1      41.803  26.814  27.493  1.00  0.00     0.074 A 
ATOM     37  C   UNL A   1      42.378  28.815  28.729  1.00  0.00     0.049 A 
ATOM     38  N   UNL A   1      42.355  25.729  27.936  1.00  0.00    -0.248 NA
ATOM     39  C   UNL A   1      41.595  26.812  26.038  1.00  0.00     0.031 C 
ATOM     40  C   UNL A   1      42.322  30.162  29.311  1.00  0.00     0.029 A 
ATOM     41  N   UNL A   1      43.718  28.594  28.627  1.00  0.00    -0.354 N 
ATOM     42  C   UNL A   1      42.714  24.968  26.822  1.00  0.00     0.074 A 
ATOM     43  C   UNL A   1      42.138  25.643  25.684  1.00  0.00     0.031 C 
ATOM     44  C   UNL A   1      43.541  30.734  29.257  1.00  0.00     0.029 A 
ATOM     45  C   UNL A   1      44.490  29.711  28.877  1.00  0.00     0.049 A 
ATOM     46  H   UNL A   1      44.102  27.717  28.395  1.00  0.00     0.167 HD
ATOM     47  C   UNL A   1      43.592  23.925  26.911  1.00  0.00     0.037 A 
ATOM     48  C   UNL A   1      45.834  29.807  28.844  1.00  0.00     0.037 A 
ATOM     49  C   UNL A   1      43.806  23.524  28.278  1.00  0.00     0.049 A 
ATOM     50  C   UNL A   1      46.377  28.452  29.081  1.00  0.00     0.074 A 
ATOM     51  C   UNL A   1      42.992  23.102  29.313  1.00  0.00     0.029 A 
ATOM     52  N   UNL A   1      44.999  23.848  28.878  1.00  0.00    -0.354 N 
ATOM     53  N   UNL A   1      46.240  27.802  30.206  1.00  0.00    -0.248 NA
ATOM     54  C   UNL A   1      46.710  27.634  27.927  1.00  0.00     0.031 C 
ATOM     55  C   UNL A   1      43.539  23.723  30.477  1.00  0.00     0.029 A 
ATOM     56  C   UNL A   1      44.670  24.435  30.071  1.00  0.00     0.049 A 
ATOM     57  H   UNL A   1      45.904  23.689  28.524  1.00  0.00     0.167 HD
ATOM     58  C   UNL A   1      46.052  26.479  29.834  1.00  0.00     0.074 A 
ATOM     59  C   UNL A   1      46.470  26.423  28.434  1.00  0.00     0.031 C 
ATOM     60  C   UNL A   1      45.326  25.610  30.601  1.00  0.00     0.037 A 
BRANCH  47  61
ATOM     61  C   UNL A   1      44.491  23.423  25.805  1.00  0.00     0.057 A 
ATOM     62  C   UNL A   1      44.548  22.042  25.523  1.00  0.00     0.134 A 
ATOM     63  C   UNL A   1      45.500  24.197  25.205  1.00  0.00     0.134 A 
ATOM     64  F   UNL A   1      43.655  21.193  26.052  1.00  0.00    -0.206 F 
ATOM     65  C   UNL A   1      45.571  21.469  24.756  1.00  0.00     0.040 A 
ATOM     66  C   UNL A   1      46.498  23.641  24.395  1.00  0.00     0.040 A 
ATOM     67  F   UNL A   1      45.630  25.506  25.450  1.00  0.00    -0.206 F 
ATOM     68  C   UNL A   1      46.555  22.270  24.191  1.00  0.00     0.006 A 
ENDBRANCH  47  61
BRANCH  48  69
ATOM     69  C   UNL A   1      46.618  30.986  28.443  1.00  0.00     0.057 A 
ATOM     70  C   UNL A   1      47.512  31.607  29.314  1.00  0.00     0.134 A 
ATOM     71  C   UNL A   1      46.659  31.406  27.097  1.00  0.00     0.134 A 
ATOM     72  F   UNL A   1      47.569  31.243  30.603  1.00  0.00    -0.206 F 
ATOM     73  C   UNL A   1      48.408  32.590  28.875  1.00  0.00     0.040 A 
ATOM     74  C   UNL A   1      47.541  32.389  26.647  1.00  0.00     0.040 A 
ATOM     75  F   UNL A   1      45.895  30.818  26.164  1.00  0.00    -0.206 F 
ATOM     76  C   UNL A   1      48.428  32.979  27.537  1.00  0.00     0.006 A 
ENDBRANCH  48  69
BRANCH  60  77
ATOM     77  C   UNL A   1      44.921  26.028  31.990  1.00  0.00     0.057 A 
ATOM     78  C   UNL A   1      43.739  26.723  32.284  1.00  0.00     0.134 A 
ATOM     79  C   UNL A   1      45.650  25.545  33.084  1.00  0.00     0.134 A 
ATOM     80  F   UNL A   1      42.917  27.132  31.314  1.00  0.00    -0.206 F 
ATOM     81  C   UNL A   1      43.322  26.961  33.597  1.00  0.00     0.040 A 
ATOM     82  C   UNL A   1      45.229  25.749  34.403  1.00  0.00     0.040 A 
ATOM     83  F   UNL A   1      46.759  24.814  32.888  1.00  0.00    -0.206 F 
ATOM     84  C   UNL A   1      44.065  26.466  34.663  1.00  0.00     0.006 A 
ENDBRANCH  60  77
ENDBRANCH  34  35
ENDBRANCH  26  29
ENDBRANCH  24  25
ENDBRANCH  23  24
ENDBRANCH   1  23
TORSDOF 15
ENDMDL
