MODEL 1
REMARK VINA RESULT:     -12.3      0.000      0.000
REMARK SMILES COc1ccc2c(c1)[C@H]([NH2+][C@H]1CCC[C@H](C(=O)NCCCNC(=O)c3ccc(-c4c5nc(c(-c6c(F)cccc6F)c6ccc([nH]6)c(-c6c(F)cccc6F)c6nc(c(-c7c(F)cccc7F)c7ccc4[nH]7)C=C6)C=C5)cc3)C1)CC2
REMARK SMILES IDX 19 1 18 2 16 3 17 4 15 6 11 7 12 8 79 9 13 10 14 11 10 12
REMARK SMILES IDX 9 15 3 16 4 17 8 18 5 19 7 20 6 21 81 22 80 23 2 24 1 25
REMARK SMILES IDX 20 26 21 27 22 28 23 29 24 31 25 32 26 33 78 34 27 35 77 36
REMARK SMILES IDX 28 37 29 38 30 39 71 40 31 41 76 42 70 43 72 44 32 45 75 46
REMARK SMILES IDX 69 47 68 48 33 50 59 51 42 52 58 53 43 54 46 55 57 56 73 57
REMARK SMILES IDX 44 58 45 59 56 61 74 62 47 63 34 64 35 65 40 66 36 67 37 68
REMARK SMILES IDX 39 69 41 70 38 71 60 72 61 73 66 74 62 75 63 76 65 77 67 78
REMARK SMILES IDX 64 79 48 80 49 81 54 82 50 83 51 84 53 85 55 86 52 87
REMARK H PARENT 18 5 10 13 10 14 22 30 72 49 46 60
REMARK Flexibility Score: inf
ROOT
ATOM      1  C   UNL A   1      31.487  30.708  26.329  1.00  0.00     0.117 C 
ENDROOT
BRANCH   1   2
ATOM      2  N   UNL A   1      32.818  30.201  26.624  1.00  0.00    -0.356 N 
ATOM      3  C   UNL A   1      33.620  29.338  25.940  1.00  0.00     0.223 C 
ATOM      4  O   UNL A   1      34.703  29.040  26.448  1.00  0.00    -0.275 OA
ATOM      5  H   UNL A   1      33.206  30.540  27.462  1.00  0.00     0.163 HD
BRANCH   3   6
ATOM      6  C   UNL A   1      33.200  28.757  24.596  1.00  0.00     0.084 C 
ATOM      7  C   UNL A   1      32.694  26.524  23.406  1.00  0.00     0.183 C 
ATOM      8  C   UNL A   1      33.935  26.800  22.548  1.00  0.00     0.065 C 
ATOM      9  C   UNL A   1      32.828  27.269  24.740  1.00  0.00     0.078 C 
ATOM     10  C   UNL A   1      34.103  28.282  22.237  1.00  0.00     0.007 C 
ATOM     11  C   UNL A   1      34.224  29.109  23.506  1.00  0.00     0.014 C 
BRANCH   7  12
ATOM     12  N   UNL A   1      31.422  26.917  22.809  1.00  0.00    -0.338 N 
ATOM     13  H   UNL A   1      31.567  27.802  22.324  1.00  0.00     0.347 HD
ATOM     14  H   UNL A   1      31.155  26.143  22.203  1.00  0.00     0.347 HD
BRANCH  12  15
ATOM     15  C   UNL A   1      30.308  27.093  23.728  1.00  0.00     0.214 C 
ATOM     16  C   UNL A   1      28.801  30.406  22.502  1.00  0.00     0.119 A 
ATOM     17  C   UNL A   1      27.445  30.065  22.640  1.00  0.00     0.047 A 
ATOM     18  C   UNL A   1      29.798  29.483  22.816  1.00  0.00     0.056 A 
ATOM     19  C   UNL A   1      27.073  28.813  23.139  1.00  0.00     0.008 A 
ATOM     20  C   UNL A   1      29.422  28.236  23.297  1.00  0.00     0.016 A 
ATOM     21  C   UNL A   1      28.071  27.914  23.466  1.00  0.00    -0.038 A 
ATOM     22  C   UNL A   1      27.919  26.543  24.041  1.00  0.00     0.042 C 
ATOM     23  C   UNL A   1      29.282  25.937  23.694  1.00  0.00     0.075 C 
BRANCH  16  24
ATOM     24  O   UNL A   1      29.230  31.609  22.006  1.00  0.00    -0.497 OA
ATOM     25  C   UNL A   1      28.204  32.353  21.352  1.00  0.00     0.278 C 
ENDBRANCH  16  24
ENDBRANCH  12  15
ENDBRANCH   7  12
ENDBRANCH   3   6
ENDBRANCH   1   2
BRANCH   1  26
ATOM     26  C   UNL A   1      31.394  32.218  26.491  1.00  0.00     0.042 C 
BRANCH  26  27
ATOM     27  C   UNL A   1      32.576  32.821  27.230  1.00  0.00     0.118 C 
BRANCH  27  28
ATOM     28  N   UNL A   1      32.371  34.226  27.554  1.00  0.00    -0.352 N 
ATOM     29  C   UNL A   1      32.976  35.002  28.509  1.00  0.00     0.251 C 
ATOM     30  H   UNL A   1      31.697  34.687  27.006  1.00  0.00     0.163 HD
ATOM     31  O   UNL A   1      32.519  36.112  28.776  1.00  0.00    -0.269 OA
BRANCH  29  32
ATOM     32  C   UNL A   1      34.162  34.499  29.230  1.00  0.00     0.039 A 
ATOM     33  C   UNL A   1      33.996  33.892  30.478  1.00  0.00     0.014 A 
ATOM     34  C   UNL A   1      35.439  34.629  28.679  1.00  0.00     0.014 A 
ATOM     35  C   UNL A   1      35.103  33.359  31.140  1.00  0.00     0.010 A 
ATOM     36  C   UNL A   1      36.522  34.011  29.290  1.00  0.00     0.010 A 
ATOM     37  C   UNL A   1      36.369  33.381  30.534  1.00  0.00    -0.014 A 
BRANCH  37  38
ATOM     38  C   UNL A   1      37.560  32.784  31.186  1.00  0.00     0.031 A 
ATOM     39  C   UNL A   1      38.231  31.592  30.560  1.00  0.00     0.074 A 
ATOM     40  C   UNL A   1      37.985  33.255  32.373  1.00  0.00     0.049 A 
ATOM     41  N   UNL A   1      39.200  30.846  31.026  1.00  0.00    -0.248 NA
ATOM     42  C   UNL A   1      37.720  31.160  29.248  1.00  0.00     0.031 C 
ATOM     43  C   UNL A   1      37.395  34.381  33.100  1.00  0.00     0.029 A 
ATOM     44  N   UNL A   1      39.005  32.831  33.187  1.00  0.00    -0.354 N 
ATOM     45  C   UNL A   1      39.396  29.849  30.079  1.00  0.00     0.074 A 
ATOM     46  C   UNL A   1      38.409  30.049  29.041  1.00  0.00     0.031 C 
ATOM     47  C   UNL A   1      38.075  34.571  34.242  1.00  0.00     0.029 A 
ATOM     48  C   UNL A   1      39.117  33.554  34.351  1.00  0.00     0.049 A 
ATOM     49  H   UNL A   1      39.600  32.081  32.960  1.00  0.00     0.167 HD
ATOM     50  C   UNL A   1      40.331  28.869  30.062  1.00  0.00     0.037 A 
ATOM     51  C   UNL A   1      39.955  33.404  35.392  1.00  0.00     0.037 A 
ATOM     52  C   UNL A   1      41.327  28.691  31.084  1.00  0.00     0.049 A 
ATOM     53  C   UNL A   1      40.974  32.297  35.360  1.00  0.00     0.074 A 
ATOM     54  C   UNL A   1      42.353  27.763  31.137  1.00  0.00     0.029 A 
ATOM     55  N   UNL A   1      41.420  29.457  32.237  1.00  0.00    -0.354 N 
ATOM     56  N   UNL A   1      41.187  31.395  34.433  1.00  0.00    -0.248 NA
ATOM     57  C   UNL A   1      41.873  32.191  36.518  1.00  0.00     0.031 C 
ATOM     58  C   UNL A   1      43.036  27.936  32.344  1.00  0.00     0.029 A 
ATOM     59  C   UNL A   1      42.473  29.010  33.017  1.00  0.00     0.049 A 
ATOM     60  H   UNL A   1      40.826  30.207  32.466  1.00  0.00     0.167 HD
ATOM     61  C   UNL A   1      42.264  30.638  34.877  1.00  0.00     0.074 A 
ATOM     62  C   UNL A   1      42.665  31.193  36.154  1.00  0.00     0.031 C 
ATOM     63  C   UNL A   1      42.869  29.583  34.280  1.00  0.00     0.037 A 
BRANCH  50  64
ATOM     64  C   UNL A   1      40.314  27.917  28.900  1.00  0.00     0.057 A 
ATOM     65  C   UNL A   1      41.032  28.170  27.723  1.00  0.00     0.134 A 
ATOM     66  C   UNL A   1      39.584  26.723  28.966  1.00  0.00     0.134 A 
ATOM     67  F   UNL A   1      41.741  29.301  27.590  1.00  0.00    -0.206 F 
ATOM     68  C   UNL A   1      40.998  27.288  26.643  1.00  0.00     0.040 A 
ATOM     69  C   UNL A   1      39.569  25.819  27.903  1.00  0.00     0.040 A 
ATOM     70  F   UNL A   1      38.877  26.415  30.063  1.00  0.00    -0.206 F 
ATOM     71  C   UNL A   1      40.270  26.105  26.734  1.00  0.00     0.006 A 
ENDBRANCH  50  64
BRANCH  51  72
ATOM     72  C   UNL A   1      39.884  34.337  36.546  1.00  0.00     0.057 A 
ATOM     73  C   UNL A   1      39.139  34.016  37.686  1.00  0.00     0.134 A 
ATOM     74  C   UNL A   1      40.551  35.568  36.537  1.00  0.00     0.134 A 
ATOM     75  F   UNL A   1      38.463  32.859  37.747  1.00  0.00    -0.206 F 
ATOM     76  C   UNL A   1      39.041  34.892  38.768  1.00  0.00     0.040 A 
ATOM     77  C   UNL A   1      40.484  36.442  37.623  1.00  0.00     0.040 A 
ATOM     78  F   UNL A   1      41.290  35.931  35.479  1.00  0.00    -0.206 F 
ATOM     79  C   UNL A   1      39.721  36.109  38.740  1.00  0.00     0.006 A 
ENDBRANCH  51  72
BRANCH  63  80
ATOM     80  C   UNL A   1      44.060  28.988  34.972  1.00  0.00     0.057 A 
ATOM     81  C   UNL A   1      43.938  27.958  35.914  1.00  0.00     0.134 A 
ATOM     82  C   UNL A   1      45.354  29.421  34.651  1.00  0.00     0.134 A 
ATOM     83  F   UNL A   1      42.727  27.508  36.274  1.00  0.00    -0.206 F 
ATOM     84  C   UNL A   1      45.058  27.397  36.528  1.00  0.00     0.040 A 
ATOM     85  C   UNL A   1      46.483  28.847  35.238  1.00  0.00     0.040 A 
ATOM     86  F   UNL A   1      45.542  30.396  33.750  1.00  0.00    -0.206 F 
ATOM     87  C   UNL A   1      46.336  27.835  36.184  1.00  0.00     0.006 A 
ENDBRANCH  63  80
ENDBRANCH  37  38
ENDBRANCH  29  32
ENDBRANCH  27  28
ENDBRANCH  26  27
ENDBRANCH   1  26
TORSDOF 13
ENDMDL
MODEL 2
REMARK VINA RESULT:     -12.2      4.807      9.414
REMARK SMILES COc1ccc2c(c1)[C@H]([NH2+][C@H]1CCC[C@H](C(=O)NCCCNC(=O)c3ccc(-c4c5nc(c(-c6c(F)cccc6F)c6ccc([nH]6)c(-c6c(F)cccc6F)c6nc(c(-c7c(F)cccc7F)c7ccc4[nH]7)C=C6)C=C5)cc3)C1)CC2
REMARK SMILES IDX 19 1 18 2 16 3 17 4 15 6 11 7 12 8 79 9 13 10 14 11 10 12
REMARK SMILES IDX 9 15 3 16 4 17 8 18 5 19 7 20 6 21 81 22 80 23 2 24 1 25
REMARK SMILES IDX 20 26 21 27 22 28 23 29 24 31 25 32 26 33 78 34 27 35 77 36
REMARK SMILES IDX 28 37 29 38 30 39 71 40 31 41 76 42 70 43 72 44 32 45 75 46
REMARK SMILES IDX 69 47 68 48 33 50 59 51 42 52 58 53 43 54 46 55 57 56 73 57
REMARK SMILES IDX 44 58 45 59 56 61 74 62 47 63 34 64 35 65 40 66 36 67 37 68
REMARK SMILES IDX 39 69 41 70 38 71 60 72 61 73 66 74 62 75 63 76 65 77 67 78
REMARK SMILES IDX 64 79 48 80 49 81 54 82 50 83 51 84 53 85 55 86 52 87
REMARK H PARENT 18 5 10 13 10 14 22 30 72 49 46 60
REMARK Flexibility Score: inf
ROOT
ATOM      1  C   UNL A   1      36.335  20.990  24.968  1.00  0.00     0.117 C 
ENDROOT
BRANCH   1   2
ATOM      2  N   UNL A   1      35.121  20.272  25.321  1.00  0.00    -0.356 N 
ATOM      3  C   UNL A   1      33.808  20.594  25.150  1.00  0.00     0.223 C 
ATOM      4  O   UNL A   1      32.966  19.809  25.591  1.00  0.00    -0.275 OA
ATOM      5  H   UNL A   1      35.273  19.405  25.759  1.00  0.00     0.163 HD
BRANCH   3   6
ATOM      6  C   UNL A   1      33.388  21.876  24.443  1.00  0.00     0.084 C 
ATOM      7  C   UNL A   1      32.507  24.260  24.889  1.00  0.00     0.183 C 
ATOM      8  C   UNL A   1      31.215  23.819  24.190  1.00  0.00     0.065 C 
ATOM      9  C   UNL A   1      33.220  23.025  25.455  1.00  0.00     0.078 C 
ATOM     10  C   UNL A   1      31.481  22.866  23.032  1.00  0.00     0.007 C 
ATOM     11  C   UNL A   1      32.208  21.614  23.495  1.00  0.00     0.014 C 
BRANCH   7  12
ATOM     12  N   UNL A   1      33.462  24.970  24.045  1.00  0.00    -0.338 N 
ATOM     13  H   UNL A   1      34.307  24.403  23.988  1.00  0.00     0.347 HD
ATOM     14  H   UNL A   1      32.986  25.110  23.154  1.00  0.00     0.347 HD
BRANCH  12  15
ATOM     15  C   UNL A   1      33.850  26.299  24.491  1.00  0.00     0.214 C 
ATOM     16  C   UNL A   1      30.996  28.455  23.093  1.00  0.00     0.119 A 
ATOM     17  C   UNL A   1      30.847  29.316  24.193  1.00  0.00     0.047 A 
ATOM     18  C   UNL A   1      31.940  27.429  23.121  1.00  0.00     0.056 A 
ATOM     19  C   UNL A   1      31.674  29.190  25.313  1.00  0.00     0.008 A 
ATOM     20  C   UNL A   1      32.749  27.300  24.242  1.00  0.00     0.016 A 
ATOM     21  C   UNL A   1      32.620  28.182  25.320  1.00  0.00    -0.038 A 
ATOM     22  C   UNL A   1      33.628  27.876  26.380  1.00  0.00     0.042 C 
ATOM     23  C   UNL A   1      33.982  26.429  26.026  1.00  0.00     0.075 C 
BRANCH  16  24
ATOM     24  O   UNL A   1      30.207  28.517  21.974  1.00  0.00    -0.497 OA
ATOM     25  C   UNL A   1      29.413  29.698  21.902  1.00  0.00     0.278 C 
ENDBRANCH  16  24
ENDBRANCH  12  15
ENDBRANCH   7  12
ENDBRANCH   3   6
ENDBRANCH   1   2
BRANCH   1  26
ATOM     26  C   UNL A   1      37.538  20.067  24.848  1.00  0.00     0.042 C 
BRANCH  26  27
ATOM     27  C   UNL A   1      38.750  20.547  25.626  1.00  0.00     0.118 C 
BRANCH  27  28
ATOM     28  N   UNL A   1      39.796  19.537  25.706  1.00  0.00    -0.352 N 
ATOM     29  C   UNL A   1      41.121  19.672  26.035  1.00  0.00     0.251 C 
ATOM     30  H   UNL A   1      39.509  18.621  25.492  1.00  0.00     0.163 HD
ATOM     31  O   UNL A   1      41.898  18.739  25.841  1.00  0.00    -0.269 OA
BRANCH  29  32
ATOM     32  C   UNL A   1      41.617  20.941  26.604  1.00  0.00     0.039 A 
ATOM     33  C   UNL A   1      42.109  21.927  25.744  1.00  0.00     0.014 A 
ATOM     34  C   UNL A   1      41.603  21.157  27.984  1.00  0.00     0.014 A 
ATOM     35  C   UNL A   1      42.525  23.153  26.266  1.00  0.00     0.010 A 
ATOM     36  C   UNL A   1      41.921  22.410  28.490  1.00  0.00     0.010 A 
ATOM     37  C   UNL A   1      42.399  23.418  27.639  1.00  0.00    -0.014 A 
BRANCH  37  38
ATOM     38  C   UNL A   1      42.785  24.726  28.224  1.00  0.00     0.031 A 
ATOM     39  C   UNL A   1      41.739  25.784  28.436  1.00  0.00     0.074 A 
ATOM     40  C   UNL A   1      44.080  24.990  28.483  1.00  0.00     0.049 A 
ATOM     41  N   UNL A   1      41.883  27.029  28.814  1.00  0.00    -0.248 NA
ATOM     42  C   UNL A   1      40.345  25.401  28.154  1.00  0.00     0.031 C 
ATOM     43  C   UNL A   1      45.192  24.059  28.284  1.00  0.00     0.029 A 
ATOM     44  N   UNL A   1      44.680  26.130  28.955  1.00  0.00    -0.354 N 
ATOM     45  C   UNL A   1      40.608  27.579  28.791  1.00  0.00     0.074 A 
ATOM     46  C   UNL A   1      39.712  26.553  28.307  1.00  0.00     0.031 C 
ATOM     47  C   UNL A   1      46.337  24.659  28.650  1.00  0.00     0.029 A 
ATOM     48  C   UNL A   1      46.047  26.028  29.064  1.00  0.00     0.049 A 
ATOM     49  H   UNL A   1      44.180  26.943  29.194  1.00  0.00     0.167 HD
ATOM     50  C   UNL A   1      40.214  28.820  29.163  1.00  0.00     0.037 A 
ATOM     51  C   UNL A   1      46.960  26.941  29.441  1.00  0.00     0.037 A 
ATOM     52  C   UNL A   1      41.107  29.829  29.668  1.00  0.00     0.049 A 
ATOM     53  C   UNL A   1      46.502  28.319  29.833  1.00  0.00     0.074 A 
ATOM     54  C   UNL A   1      40.804  31.100  30.123  1.00  0.00     0.029 A 
ATOM     55  N   UNL A   1      42.482  29.680  29.783  1.00  0.00    -0.354 N 
ATOM     56  N   UNL A   1      45.287  28.811  29.861  1.00  0.00    -0.248 NA
ATOM     57  C   UNL A   1      47.544  29.268  30.251  1.00  0.00     0.031 C 
ATOM     58  C   UNL A   1      42.000  31.738  30.467  1.00  0.00     0.029 A 
ATOM     59  C   UNL A   1      43.043  30.844  30.282  1.00  0.00     0.049 A 
ATOM     60  H   UNL A   1      42.984  28.868  29.546  1.00  0.00     0.167 HD
ATOM     61  C   UNL A   1      45.412  30.111  30.332  1.00  0.00     0.074 A 
ATOM     62  C   UNL A   1      46.822  30.330  30.584  1.00  0.00     0.031 C 
ATOM     63  C   UNL A   1      44.447  31.040  30.541  1.00  0.00     0.037 A 
BRANCH  50  64
ATOM     64  C   UNL A   1      38.755  29.151  29.034  1.00  0.00     0.057 A 
ATOM     65  C   UNL A   1      38.189  29.547  27.814  1.00  0.00     0.134 A 
ATOM     66  C   UNL A   1      37.900  29.056  30.140  1.00  0.00     0.134 A 
ATOM     67  F   UNL A   1      38.954  29.671  26.719  1.00  0.00    -0.206 F 
ATOM     68  C   UNL A   1      36.836  29.868  27.706  1.00  0.00     0.040 A 
ATOM     69  C   UNL A   1      36.538  29.344  30.036  1.00  0.00     0.040 A 
ATOM     70  F   UNL A   1      38.373  28.679  31.337  1.00  0.00    -0.206 F 
ATOM     71  C   UNL A   1      36.005  29.760  28.818  1.00  0.00     0.006 A 
ENDBRANCH  50  64
BRANCH  51  72
ATOM     72  C   UNL A   1      48.400  26.577  29.488  1.00  0.00     0.057 A 
ATOM     73  C   UNL A   1      49.248  26.853  28.410  1.00  0.00     0.134 A 
ATOM     74  C   UNL A   1      48.961  25.943  30.604  1.00  0.00     0.134 A 
ATOM     75  F   UNL A   1      48.765  27.442  27.306  1.00  0.00    -0.206 F 
ATOM     76  C   UNL A   1      50.597  26.495  28.429  1.00  0.00     0.040 A 
ATOM     77  C   UNL A   1      50.314  25.604  30.647  1.00  0.00     0.040 A 
ATOM     78  F   UNL A   1      48.205  25.660  31.674  1.00  0.00    -0.206 F 
ATOM     79  C   UNL A   1      51.134  25.873  29.554  1.00  0.00     0.006 A 
ENDBRANCH  51  72
BRANCH  63  80
ATOM     80  C   UNL A   1      44.872  32.359  31.117  1.00  0.00     0.057 A 
ATOM     81  C   UNL A   1      44.960  32.576  32.497  1.00  0.00     0.134 A 
ATOM     82  C   UNL A   1      45.246  33.413  30.270  1.00  0.00     0.134 A 
ATOM     83  F   UNL A   1      44.604  31.613  33.360  1.00  0.00    -0.206 F 
ATOM     84  C   UNL A   1      45.384  33.801  33.016  1.00  0.00     0.040 A 
ATOM     85  C   UNL A   1      45.698  34.631  30.778  1.00  0.00     0.040 A 
ATOM     86  F   UNL A   1      45.194  33.268  28.938  1.00  0.00    -0.206 F 
ATOM     87  C   UNL A   1      45.762  34.830  32.155  1.00  0.00     0.006 A 
ENDBRANCH  63  80
ENDBRANCH  37  38
ENDBRANCH  29  32
ENDBRANCH  27  28
ENDBRANCH  26  27
ENDBRANCH   1  26
TORSDOF 13
ENDMDL
MODEL 3
REMARK VINA RESULT:     -12.1      5.647      9.981
REMARK SMILES COc1ccc2c(c1)[C@H]([NH2+][C@H]1CCC[C@H](C(=O)NCCCNC(=O)c3ccc(-c4c5nc(c(-c6c(F)cccc6F)c6ccc([nH]6)c(-c6c(F)cccc6F)c6nc(c(-c7c(F)cccc7F)c7ccc4[nH]7)C=C6)C=C5)cc3)C1)CC2
REMARK SMILES IDX 19 1 18 2 16 3 17 4 15 6 11 7 12 8 79 9 13 10 14 11 10 12
REMARK SMILES IDX 9 15 3 16 4 17 8 18 5 19 7 20 6 21 81 22 80 23 2 24 1 25
REMARK SMILES IDX 20 26 21 27 22 28 23 29 24 31 25 32 26 33 78 34 27 35 77 36
REMARK SMILES IDX 28 37 29 38 30 39 71 40 31 41 76 42 70 43 72 44 32 45 75 46
REMARK SMILES IDX 69 47 68 48 33 50 59 51 42 52 58 53 43 54 46 55 57 56 73 57
REMARK SMILES IDX 44 58 45 59 56 61 74 62 47 63 34 64 35 65 40 66 36 67 37 68
REMARK SMILES IDX 39 69 41 70 38 71 60 72 61 73 66 74 62 75 63 76 65 77 67 78
REMARK SMILES IDX 64 79 48 80 49 81 54 82 50 83 51 84 53 85 55 86 52 87
REMARK H PARENT 18 5 10 13 10 14 22 30 72 49 46 60
REMARK Flexibility Score: inf
ROOT
ATOM      1  C   UNL A   1      36.816  20.296  24.973  1.00  0.00     0.117 C 
ENDROOT
BRANCH   1   2
ATOM      2  N   UNL A   1      37.058  21.658  25.422  1.00  0.00    -0.356 N 
ATOM      3  C   UNL A   1      36.206  22.612  25.892  1.00  0.00     0.223 C 
ATOM      4  O   UNL A   1      36.680  23.717  26.165  1.00  0.00    -0.275 OA
ATOM      5  H   UNL A   1      38.000  21.940  25.379  1.00  0.00     0.163 HD
BRANCH   3   6
ATOM      6  C   UNL A   1      34.720  22.332  26.075  1.00  0.00     0.084 C 
ATOM      7  C   UNL A   1      32.384  23.339  25.643  1.00  0.00     0.183 C 
ATOM      8  C   UNL A   1      32.237  23.429  27.167  1.00  0.00     0.065 C 
ATOM      9  C   UNL A   1      33.875  23.344  25.280  1.00  0.00     0.078 C 
ATOM     10  C   UNL A   1      32.893  22.254  27.880  1.00  0.00     0.007 C 
ATOM     11  C   UNL A   1      34.376  22.164  27.563  1.00  0.00     0.014 C 
BRANCH   7  12
ATOM     12  N   UNL A   1      31.786  22.160  25.027  1.00  0.00    -0.338 N 
ATOM     13  H   UNL A   1      31.792  21.411  25.719  1.00  0.00     0.347 HD
ATOM     14  H   UNL A   1      30.855  22.451  24.729  1.00  0.00     0.347 HD
BRANCH  12  15
ATOM     15  C   UNL A   1      32.438  21.660  23.827  1.00  0.00     0.214 C 
ATOM     16  C   UNL A   1      32.922  17.949  24.688  1.00  0.00     0.119 A 
ATOM     17  C   UNL A   1      32.610  17.415  23.427  1.00  0.00     0.047 A 
ATOM     18  C   UNL A   1      32.868  19.326  24.906  1.00  0.00     0.056 A 
ATOM     19  C   UNL A   1      32.287  18.256  22.358  1.00  0.00     0.008 A 
ATOM     20  C   UNL A   1      32.533  20.155  23.845  1.00  0.00     0.016 A 
ATOM     21  C   UNL A   1      32.257  19.620  22.581  1.00  0.00    -0.038 A 
ATOM     22  C   UNL A   1      31.974  20.706  21.595  1.00  0.00     0.042 C 
ATOM     23  C   UNL A   1      31.608  21.857  22.537  1.00  0.00     0.075 C 
BRANCH  16  24
ATOM     24  O   UNL A   1      33.231  17.179  25.778  1.00  0.00    -0.497 OA
ATOM     25  C   UNL A   1      32.625  15.889  25.753  1.00  0.00     0.278 C 
ENDBRANCH  16  24
ENDBRANCH  12  15
ENDBRANCH   7  12
ENDBRANCH   3   6
ENDBRANCH   1   2
BRANCH   1  26
ATOM     26  C   UNL A   1      38.087  19.463  24.944  1.00  0.00     0.042 C 
BRANCH  26  27
ATOM     27  C   UNL A   1      39.226  20.066  25.747  1.00  0.00     0.118 C 
BRANCH  27  28
ATOM     28  N   UNL A   1      40.381  19.183  25.825  1.00  0.00    -0.352 N 
ATOM     29  C   UNL A   1      41.695  19.480  26.082  1.00  0.00     0.251 C 
ATOM     30  H   UNL A   1      40.190  18.230  25.669  1.00  0.00     0.163 HD
ATOM     31  O   UNL A   1      42.563  18.629  25.895  1.00  0.00    -0.269 OA
BRANCH  29  32
ATOM     32  C   UNL A   1      42.070  20.824  26.564  1.00  0.00     0.039 A 
ATOM     33  C   UNL A   1      42.483  21.789  25.641  1.00  0.00     0.014 A 
ATOM     34  C   UNL A   1      42.020  21.133  27.926  1.00  0.00     0.014 A 
ATOM     35  C   UNL A   1      42.782  23.080  26.079  1.00  0.00     0.010 A 
ATOM     36  C   UNL A   1      42.220  22.441  28.345  1.00  0.00     0.010 A 
ATOM     37  C   UNL A   1      42.616  23.426  27.429  1.00  0.00    -0.014 A 
BRANCH  37  38
ATOM     38  C   UNL A   1      42.878  24.800  27.924  1.00  0.00     0.031 A 
ATOM     39  C   UNL A   1      44.272  25.191  28.331  1.00  0.00     0.074 A 
ATOM     40  C   UNL A   1      41.857  25.663  28.086  1.00  0.00     0.049 A 
ATOM     41  N   UNL A   1      44.692  26.291  28.903  1.00  0.00    -0.248 NA
ATOM     42  C   UNL A   1      45.333  24.196  28.093  1.00  0.00     0.031 C 
ATOM     43  C   UNL A   1      40.456  25.390  27.763  1.00  0.00     0.029 A 
ATOM     44  N   UNL A   1      41.842  26.942  28.581  1.00  0.00    -0.354 N 
ATOM     45  C   UNL A   1      46.053  26.110  29.113  1.00  0.00     0.074 A 
ATOM     46  C   UNL A   1      46.378  24.775  28.662  1.00  0.00     0.031 C 
ATOM     47  C   UNL A   1      39.720  26.476  28.050  1.00  0.00     0.029 A 
ATOM     48  C   UNL A   1      40.587  27.503  28.620  1.00  0.00     0.049 A 
ATOM     49  H   UNL A   1      42.652  27.415  28.881  1.00  0.00     0.167 HD
ATOM     50  C   UNL A   1      46.956  26.986  29.614  1.00  0.00     0.037 A 
ATOM     51  C   UNL A   1      40.182  28.702  29.076  1.00  0.00     0.037 A 
ATOM     52  C   UNL A   1      46.630  28.322  30.037  1.00  0.00     0.049 A 
ATOM     53  C   UNL A   1      41.200  29.652  29.644  1.00  0.00     0.074 A 
ATOM     54  C   UNL A   1      47.479  29.307  30.510  1.00  0.00     0.029 A 
ATOM     55  N   UNL A   1      45.351  28.859  30.041  1.00  0.00    -0.354 N 
ATOM     56  N   UNL A   1      42.494  29.492  29.786  1.00  0.00    -0.248 NA
ATOM     57  C   UNL A   1      40.702  30.953  30.112  1.00  0.00     0.031 C 
ATOM     58  C   UNL A   1      46.707  30.424  30.845  1.00  0.00     0.029 A 
ATOM     59  C   UNL A   1      45.385  30.155  30.527  1.00  0.00     0.049 A 
ATOM     60  H   UNL A   1      44.540  28.388  29.742  1.00  0.00     0.167 HD
ATOM     61  C   UNL A   1      42.969  30.681  30.324  1.00  0.00     0.074 A 
ATOM     62  C   UNL A   1      41.825  31.556  30.477  1.00  0.00     0.031 C 
ATOM     63  C   UNL A   1      44.239  31.019  30.659  1.00  0.00     0.037 A 
BRANCH  50  64
ATOM     64  C   UNL A   1      48.379  26.521  29.730  1.00  0.00     0.057 A 
ATOM     65  C   UNL A   1      49.324  26.764  28.723  1.00  0.00     0.134 A 
ATOM     66  C   UNL A   1      48.816  25.836  30.872  1.00  0.00     0.134 A 
ATOM     67  F   UNL A   1      48.969  27.402  27.598  1.00  0.00    -0.206 F 
ATOM     68  C   UNL A   1      50.640  26.315  28.833  1.00  0.00     0.040 A 
ATOM     69  C   UNL A   1      50.139  25.410  31.005  1.00  0.00     0.040 A 
ATOM     70  F   UNL A   1      47.967  25.574  31.877  1.00  0.00    -0.206 F 
ATOM     71  C   UNL A   1      51.053  25.641  29.980  1.00  0.00     0.006 A 
ENDBRANCH  50  64
BRANCH  51  72
ATOM     72  C   UNL A   1      38.749  29.084  28.995  1.00  0.00     0.057 A 
ATOM     73  C   UNL A   1      38.198  29.563  27.801  1.00  0.00     0.134 A 
ATOM     74  C   UNL A   1      37.898  28.984  30.102  1.00  0.00     0.134 A 
ATOM     75  F   UNL A   1      38.967  29.699  26.710  1.00  0.00    -0.206 F 
ATOM     76  C   UNL A   1      36.859  29.950  27.715  1.00  0.00     0.040 A 
ATOM     77  C   UNL A   1      36.552  29.341  30.024  1.00  0.00     0.040 A 
ATOM     78  F   UNL A   1      38.362  28.522  31.273  1.00  0.00    -0.206 F 
ATOM     79  C   UNL A   1      36.031  29.834  28.829  1.00  0.00     0.006 A 
ENDBRANCH  51  72
BRANCH  63  80
ATOM     80  C   UNL A   1      44.470  32.409  31.174  1.00  0.00     0.057 A 
ATOM     81  C   UNL A   1      44.458  32.708  32.542  1.00  0.00     0.134 A 
ATOM     82  C   UNL A   1      44.757  33.454  30.285  1.00  0.00     0.134 A 
ATOM     83  F   UNL A   1      44.177  31.756  33.443  1.00  0.00    -0.206 F 
ATOM     84  C   UNL A   1      44.702  34.002  33.007  1.00  0.00     0.040 A 
ATOM     85  C   UNL A   1      45.031  34.745  30.740  1.00  0.00     0.040 A 
ATOM     86  F   UNL A   1      44.794  33.234  28.963  1.00  0.00    -0.206 F 
ATOM     87  C   UNL A   1      44.998  35.023  32.105  1.00  0.00     0.006 A 
ENDBRANCH  63  80
ENDBRANCH  37  38
ENDBRANCH  29  32
ENDBRANCH  27  28
ENDBRANCH  26  27
ENDBRANCH   1  26
TORSDOF 13
ENDMDL
