MODEL 1
REMARK VINA RESULT:     -12.5      0.000      0.000
REMARK SMILES C#Cc1cc(Cl)cc2c1O[C@H](C(F)(F)F)C(C(=O)NCCCNC(=O)c1ccc(-c3c4nc(c(-c5c(F)cccc5F)c5ccc([nH]5)c(-c5c(F)cccc5F)c5nc(c(-c6c(F)cccc6F)c6ccc3[nH]6)C=C5)C=C4)cc1)=C2
REMARK SMILES IDX 21 1 20 2 19 3 17 4 18 5 16 7 3 8 4 9 9 10 5 11 8 12 10 13
REMARK SMILES IDX 6 14 7 15 80 16 11 17 2 18 1 19 12 20 13 21 14 22 15 23
REMARK SMILES IDX 22 24 23 25 24 26 25 28 26 29 27 30 79 31 28 32 78 33 29 34
REMARK SMILES IDX 30 35 31 36 72 37 32 38 77 39 71 40 73 41 33 42 76 43 70 44
REMARK SMILES IDX 69 45 34 47 60 48 43 49 59 50 44 51 47 52 58 53 74 54 45 55
REMARK SMILES IDX 46 56 57 58 75 59 48 60 35 61 36 62 41 63 37 64 38 65 40 66
REMARK SMILES IDX 42 67 39 68 61 69 62 70 67 71 63 72 64 73 66 74 68 75 65 76
REMARK SMILES IDX 49 77 50 78 55 79 51 80 52 81 54 82 56 83 53 84
REMARK H PARENT 19 6 23 27 73 46 47 57
REMARK Flexibility Score: inf
ROOT
ATOM      1  C   UNL A   1      37.965  19.641  25.001  1.00  0.00     0.042 C 
ENDROOT
BRANCH   1   2
ATOM      2  C   UNL A   1      36.988  20.776  24.759  1.00  0.00     0.118 C 
BRANCH   2   3
ATOM      3  N   UNL A   1      35.888  20.757  25.713  1.00  0.00    -0.352 N 
ATOM      4  C   UNL A   1      34.749  21.455  25.929  1.00  0.00     0.251 C 
ATOM      5  O   UNL A   1      34.068  21.080  26.887  1.00  0.00    -0.270 OA
ATOM      6  H   UNL A   1      36.005  20.044  26.381  1.00  0.00     0.163 HD
BRANCH   4   7
ATOM      7  C   UNL A   1      34.295  22.611  25.104  1.00  0.00     0.067 C 
ATOM      8  C   UNL A   1      33.288  25.922  22.726  1.00  0.00     0.068 A 
ATOM      9  C   UNL A   1      33.268  27.198  23.285  1.00  0.00     0.041 A 
ATOM     10  C   UNL A   1      33.670  24.829  23.514  1.00  0.00     0.143 A 
ATOM     11  C   UNL A   1      33.635  27.368  24.621  1.00  0.00     0.043 A 
ATOM     12  C   UNL A   1      34.037  24.997  24.853  1.00  0.00     0.020 A 
ATOM     13  O   UNL A   1      33.718  23.608  22.902  1.00  0.00    -0.474 OA
ATOM     14  Cl  UNL A   1      33.623  28.946  25.307  1.00  0.00    -0.084 Cl
ATOM     15  C   UNL A   1      34.019  26.278  25.407  1.00  0.00     0.032 A 
ATOM     16  C   UNL A   1      34.470  23.838  25.628  1.00  0.00     0.025 C 
ATOM     17  C   UNL A   1      33.651  22.450  23.760  1.00  0.00     0.314 C 
BRANCH   8  18
ATOM     18  C   UNL A   1      32.909  25.728  21.357  1.00  0.00    -0.067 C 
ATOM     19  C   UNL A   1      32.527  25.577  20.227  1.00  0.00     0.010 C 
ENDBRANCH   8  18
BRANCH  17  20
ATOM     20  C   UNL A   1      32.193  21.960  23.857  1.00  0.00     0.429 C 
ATOM     21  F   UNL A   1      32.145  20.606  23.800  1.00  0.00    -0.167 F 
ATOM     22  F   UNL A   1      31.597  22.314  25.020  1.00  0.00    -0.167 F 
ATOM     23  F   UNL A   1      31.414  22.440  22.861  1.00  0.00    -0.167 F 
ENDBRANCH  17  20
ENDBRANCH   4   7
ENDBRANCH   2   3
ENDBRANCH   1   2
BRANCH   1  24
ATOM     24  C   UNL A   1      39.159  20.108  25.816  1.00  0.00     0.118 C 
BRANCH  24  25
ATOM     25  N   UNL A   1      40.205  19.086  25.878  1.00  0.00    -0.352 N 
ATOM     26  C   UNL A   1      41.566  19.222  25.984  1.00  0.00     0.251 C 
ATOM     27  H   UNL A   1      39.881  18.157  25.838  1.00  0.00     0.163 HD
ATOM     28  O   UNL A   1      42.306  18.272  25.754  1.00  0.00    -0.269 OA
BRANCH  26  29
ATOM     29  C   UNL A   1      42.125  20.531  26.363  1.00  0.00     0.039 A 
ATOM     30  C   UNL A   1      42.471  21.445  25.369  1.00  0.00     0.014 A 
ATOM     31  C   UNL A   1      42.263  20.857  27.713  1.00  0.00     0.014 A 
ATOM     32  C   UNL A   1      42.880  22.724  25.740  1.00  0.00     0.010 A 
ATOM     33  C   UNL A   1      42.540  22.164  28.075  1.00  0.00     0.010 A 
ATOM     34  C   UNL A   1      42.870  23.107  27.093  1.00  0.00    -0.014 A 
BRANCH  34  35
ATOM     35  C   UNL A   1      43.229  24.484  27.501  1.00  0.00     0.031 A 
ATOM     36  C   UNL A   1      44.668  24.914  27.488  1.00  0.00     0.074 A 
ATOM     37  C   UNL A   1      42.263  25.329  27.908  1.00  0.00     0.049 A 
ATOM     38  N   UNL A   1      45.181  26.075  27.798  1.00  0.00    -0.248 NA
ATOM     39  C   UNL A   1      45.669  23.903  27.100  1.00  0.00     0.031 C 
ATOM     40  C   UNL A   1      40.840  25.000  28.011  1.00  0.00     0.029 A 
ATOM     41  N   UNL A   1      42.328  26.642  28.298  1.00  0.00    -0.354 N 
ATOM     42  C   UNL A   1      46.553  25.934  27.636  1.00  0.00     0.074 A 
ATOM     43  C   UNL A   1      46.804  24.556  27.288  1.00  0.00     0.031 C 
ATOM     44  C   UNL A   1      40.161  26.097  28.379  1.00  0.00     0.029 A 
ATOM     45  C   UNL A   1      41.102  27.193  28.583  1.00  0.00     0.049 A 
ATOM     46  H   UNL A   1      43.173  27.142  28.367  1.00  0.00     0.167 HD
ATOM     47  C   UNL A   1      47.512  26.883  27.723  1.00  0.00     0.037 A 
ATOM     48  C   UNL A   1      40.776  28.445  28.961  1.00  0.00     0.037 A 
ATOM     49  C   UNL A   1      47.248  28.256  28.051  1.00  0.00     0.049 A 
ATOM     50  C   UNL A   1      41.868  29.470  29.097  1.00  0.00     0.074 A 
ATOM     51  C   UNL A   1      48.145  29.305  28.128  1.00  0.00     0.029 A 
ATOM     52  N   UNL A   1      45.997  28.769  28.357  1.00  0.00    -0.354 N 
ATOM     53  N   UNL A   1      43.152  29.342  28.865  1.00  0.00    -0.248 NA
ATOM     54  C   UNL A   1      41.469  30.812  29.544  1.00  0.00     0.031 C 
ATOM     55  C   UNL A   1      47.447  30.440  28.545  1.00  0.00     0.029 A 
ATOM     56  C   UNL A   1      46.105  30.116  28.659  1.00  0.00     0.049 A 
ATOM     57  H   UNL A   1      45.158  28.253  28.361  1.00  0.00     0.167 HD
ATOM     58  C   UNL A   1      43.711  30.591  29.111  1.00  0.00     0.074 A 
ATOM     59  C   UNL A   1      42.623  31.466  29.496  1.00  0.00     0.031 C 
ATOM     60  C   UNL A   1      45.007  30.975  29.027  1.00  0.00     0.037 A 
BRANCH  47  61
ATOM     61  C   UNL A   1      48.927  26.476  27.439  1.00  0.00     0.057 A 
ATOM     62  C   UNL A   1      49.782  26.028  28.456  1.00  0.00     0.134 A 
ATOM     63  C   UNL A   1      49.423  26.466  26.129  1.00  0.00     0.134 A 
ATOM     64  F   UNL A   1      49.376  26.027  29.735  1.00  0.00    -0.206 F 
ATOM     65  C   UNL A   1      51.082  25.600  28.182  1.00  0.00     0.040 A 
ATOM     66  C   UNL A   1      50.709  26.010  25.839  1.00  0.00     0.040 A 
ATOM     67  F   UNL A   1      48.658  26.880  25.108  1.00  0.00    -0.206 F 
ATOM     68  C   UNL A   1      51.543  25.578  26.868  1.00  0.00     0.006 A 
ENDBRANCH  47  61
BRANCH  48  69
ATOM     69  C   UNL A   1      39.352  28.800  29.193  1.00  0.00     0.057 A 
ATOM     70  C   UNL A   1      38.758  28.616  30.447  1.00  0.00     0.134 A 
ATOM     71  C   UNL A   1      38.556  29.351  28.181  1.00  0.00     0.134 A 
ATOM     72  F   UNL A   1      39.461  28.080  31.456  1.00  0.00    -0.206 F 
ATOM     73  C   UNL A   1      37.424  28.956  30.683  1.00  0.00     0.040 A 
ATOM     74  C   UNL A   1      37.231  29.722  28.410  1.00  0.00     0.040 A 
ATOM     75  F   UNL A   1      39.067  29.563  26.958  1.00  0.00    -0.206 F 
ATOM     76  C   UNL A   1      36.659  29.520  29.664  1.00  0.00     0.006 A 
ENDBRANCH  48  69
BRANCH  60  77
ATOM     77  C   UNL A   1      45.341  32.405  29.337  1.00  0.00     0.057 A 
ATOM     78  C   UNL A   1      45.799  32.794  30.601  1.00  0.00     0.134 A 
ATOM     79  C   UNL A   1      45.324  33.374  28.325  1.00  0.00     0.134 A 
ATOM     80  F   UNL A   1      45.831  31.915  31.614  1.00  0.00    -0.206 F 
ATOM     81  C   UNL A   1      46.230  34.099  30.848  1.00  0.00     0.040 A 
ATOM     82  C   UNL A   1      45.782  34.672  28.551  1.00  0.00     0.040 A 
ATOM     83  F   UNL A   1      44.910  33.062  27.088  1.00  0.00    -0.206 F 
ATOM     84  C   UNL A   1      46.237  35.037  29.817  1.00  0.00     0.006 A 
ENDBRANCH  60  77
ENDBRANCH  34  35
ENDBRANCH  26  29
ENDBRANCH  24  25
ENDBRANCH   1  24
TORSDOF 12
ENDMDL
MODEL 2
REMARK VINA RESULT:     -12.3      5.283      9.983
REMARK SMILES C#Cc1cc(Cl)cc2c1O[C@H](C(F)(F)F)C(C(=O)NCCCNC(=O)c1ccc(-c3c4nc(c(-c5c(F)cccc5F)c5ccc([nH]5)c(-c5c(F)cccc5F)c5nc(c(-c6c(F)cccc6F)c6ccc3[nH]6)C=C5)C=C4)cc1)=C2
REMARK SMILES IDX 21 1 20 2 19 3 17 4 18 5 16 7 3 8 4 9 9 10 5 11 8 12 10 13
REMARK SMILES IDX 6 14 7 15 80 16 11 17 2 18 1 19 12 20 13 21 14 22 15 23
REMARK SMILES IDX 22 24 23 25 24 26 25 28 26 29 27 30 79 31 28 32 78 33 29 34
REMARK SMILES IDX 30 35 31 36 72 37 32 38 77 39 71 40 73 41 33 42 76 43 70 44
REMARK SMILES IDX 69 45 34 47 60 48 43 49 59 50 44 51 47 52 58 53 74 54 45 55
REMARK SMILES IDX 46 56 57 58 75 59 48 60 35 61 36 62 41 63 37 64 38 65 40 66
REMARK SMILES IDX 42 67 39 68 61 69 62 70 67 71 63 72 64 73 66 74 68 75 65 76
REMARK SMILES IDX 49 77 50 78 55 79 51 80 52 81 54 82 56 83 53 84
REMARK H PARENT 19 6 23 27 73 46 47 57
REMARK Flexibility Score: inf
ROOT
ATOM      1  C   UNL A   1      31.414  31.889  26.501  1.00  0.00     0.042 C 
ENDROOT
BRANCH   1   2
ATOM      2  C   UNL A   1      31.580  30.395  26.296  1.00  0.00     0.118 C 
BRANCH   2   3
ATOM      3  N   UNL A   1      32.185  30.089  25.007  1.00  0.00    -0.352 N 
ATOM      4  C   UNL A   1      32.522  28.980  24.307  1.00  0.00     0.251 C 
ATOM      5  O   UNL A   1      33.022  29.183  23.197  1.00  0.00    -0.270 OA
ATOM      6  H   UNL A   1      32.409  30.909  24.511  1.00  0.00     0.163 HD
BRANCH   4   7
ATOM      7  C   UNL A   1      32.330  27.584  24.790  1.00  0.00     0.067 C 
ATOM      8  C   UNL A   1      31.876  23.734  26.405  1.00  0.00     0.068 A 
ATOM      9  C   UNL A   1      32.970  22.873  26.465  1.00  0.00     0.041 A 
ATOM     10  C   UNL A   1      32.046  25.032  25.907  1.00  0.00     0.143 A 
ATOM     11  C   UNL A   1      34.221  23.321  26.036  1.00  0.00     0.043 A 
ATOM     12  C   UNL A   1      33.298  25.482  25.475  1.00  0.00     0.020 A 
ATOM     13  O   UNL A   1      30.951  25.849  25.914  1.00  0.00    -0.474 OA
ATOM     14  Cl  UNL A   1      35.574  22.261  26.125  1.00  0.00    -0.084 Cl
ATOM     15  C   UNL A   1      34.392  24.617  25.543  1.00  0.00     0.032 A 
ATOM     16  C   UNL A   1      33.442  26.857  25.004  1.00  0.00     0.025 C 
ATOM     17  C   UNL A   1      30.978  26.977  25.015  1.00  0.00     0.314 C 
BRANCH   8  18
ATOM     18  C   UNL A   1      30.584  23.289  26.836  1.00  0.00    -0.067 C 
ATOM     19  C   UNL A   1      29.528  22.888  27.251  1.00  0.00     0.010 C 
ENDBRANCH   8  18
BRANCH  17  20
ATOM     20  C   UNL A   1      30.267  26.608  23.698  1.00  0.00     0.429 C 
ATOM     21  F   UNL A   1      29.896  27.730  23.031  1.00  0.00    -0.167 F 
ATOM     22  F   UNL A   1      31.060  25.907  22.853  1.00  0.00    -0.167 F 
ATOM     23  F   UNL A   1      29.157  25.863  23.896  1.00  0.00    -0.167 F 
ENDBRANCH  17  20
ENDBRANCH   4   7
ENDBRANCH   2   3
ENDBRANCH   1   2
BRANCH   1  24
ATOM     24  C   UNL A   1      32.595  32.475  27.254  1.00  0.00     0.118 C 
BRANCH  24  25
ATOM     25  N   UNL A   1      32.404  33.899  27.537  1.00  0.00    -0.352 N 
ATOM     26  C   UNL A   1      32.999  34.698  28.481  1.00  0.00     0.251 C 
ATOM     27  H   UNL A   1      31.748  34.353  26.960  1.00  0.00     0.163 HD
ATOM     28  O   UNL A   1      32.527  35.797  28.751  1.00  0.00    -0.269 OA
BRANCH  26  29
ATOM     29  C   UNL A   1      34.202  34.209  29.175  1.00  0.00     0.039 A 
ATOM     30  C   UNL A   1      34.065  33.439  30.330  1.00  0.00     0.014 A 
ATOM     31  C   UNL A   1      35.464  34.486  28.646  1.00  0.00     0.014 A 
ATOM     32  C   UNL A   1      35.202  32.878  30.905  1.00  0.00     0.010 A 
ATOM     33  C   UNL A   1      36.572  33.821  29.141  1.00  0.00     0.010 A 
ATOM     34  C   UNL A   1      36.457  33.025  30.287  1.00  0.00    -0.014 A 
BRANCH  34  35
ATOM     35  C   UNL A   1      37.664  32.374  30.843  1.00  0.00     0.031 A 
ATOM     36  C   UNL A   1      38.285  32.907  32.103  1.00  0.00     0.074 A 
ATOM     37  C   UNL A   1      38.211  31.327  30.197  1.00  0.00     0.049 A 
ATOM     38  N   UNL A   1      39.334  32.470  32.750  1.00  0.00    -0.248 NA
ATOM     39  C   UNL A   1      37.667  34.101  32.705  1.00  0.00     0.031 C 
ATOM     40  C   UNL A   1      37.722  30.761  28.938  1.00  0.00     0.029 A 
ATOM     41  N   UNL A   1      39.290  30.543  30.515  1.00  0.00    -0.354 N 
ATOM     42  C   UNL A   1      39.491  33.328  33.830  1.00  0.00     0.074 A 
ATOM     43  C   UNL A   1      38.491  34.361  33.707  1.00  0.00     0.031 C 
ATOM     44  C   UNL A   1      38.461  29.687  28.623  1.00  0.00     0.029 A 
ATOM     45  C   UNL A   1      39.504  29.515  29.629  1.00  0.00     0.049 A 
ATOM     46  H   UNL A   1      39.857  30.701  31.304  1.00  0.00     0.167 HD
ATOM     47  C   UNL A   1      40.363  33.233  34.859  1.00  0.00     0.037 A 
ATOM     48  C   UNL A   1      40.434  28.540  29.634  1.00  0.00     0.037 A 
ATOM     49  C   UNL A   1      41.341  32.189  34.982  1.00  0.00     0.049 A 
ATOM     50  C   UNL A   1      41.422  28.484  30.766  1.00  0.00     0.074 A 
ATOM     51  C   UNL A   1      42.247  31.981  36.005  1.00  0.00     0.029 A 
ATOM     52  N   UNL A   1      41.543  31.181  34.051  1.00  0.00    -0.354 N 
ATOM     53  N   UNL A   1      41.510  29.256  31.821  1.00  0.00    -0.248 NA
ATOM     54  C   UNL A   1      42.439  27.424  30.710  1.00  0.00     0.031 C 
ATOM     55  C   UNL A   1      43.041  30.885  35.664  1.00  0.00     0.029 A 
ATOM     56  C   UNL A   1      42.585  30.367  34.461  1.00  0.00     0.049 A 
ATOM     57  H   UNL A   1      41.024  31.063  33.223  1.00  0.00     0.167 HD
ATOM     58  C   UNL A   1      42.572  28.761  32.569  1.00  0.00     0.074 A 
ATOM     59  C   UNL A   1      43.087  27.613  31.853  1.00  0.00     0.031 C 
ATOM     60  C   UNL A   1      43.075  29.218  33.741  1.00  0.00     0.037 A 
BRANCH  47  61
ATOM     61  C   UNL A   1      40.284  34.269  35.941  1.00  0.00     0.057 A 
ATOM     62  C   UNL A   1      41.007  35.468  35.866  1.00  0.00     0.134 A 
ATOM     63  C   UNL A   1      39.427  34.100  37.036  1.00  0.00     0.134 A 
ATOM     64  F   UNL A   1      41.858  35.686  34.852  1.00  0.00    -0.206 F 
ATOM     65  C   UNL A   1      40.893  36.452  36.848  1.00  0.00     0.040 A 
ATOM     66  C   UNL A   1      39.279  35.092  38.006  1.00  0.00     0.040 A 
ATOM     67  F   UNL A   1      38.704  32.978  37.168  1.00  0.00    -0.206 F 
ATOM     68  C   UNL A   1      40.016  36.270  37.914  1.00  0.00     0.006 A 
ENDBRANCH  47  61
BRANCH  48  69
ATOM     69  C   UNL A   1      40.440  27.518  28.554  1.00  0.00     0.057 A 
ATOM     70  C   UNL A   1      39.666  26.356  28.656  1.00  0.00     0.134 A 
ATOM     71  C   UNL A   1      41.197  27.685  27.387  1.00  0.00     0.134 A 
ATOM     72  F   UNL A   1      38.929  26.129  29.753  1.00  0.00    -0.206 F 
ATOM     73  C   UNL A   1      39.653  25.393  27.644  1.00  0.00     0.040 A 
ATOM     74  C   UNL A   1      41.171  26.745  26.356  1.00  0.00     0.040 A 
ATOM     75  F   UNL A   1      41.953  28.781  27.221  1.00  0.00    -0.206 F 
ATOM     76  C   UNL A   1      40.401  25.591  26.486  1.00  0.00     0.006 A 
ENDBRANCH  48  69
BRANCH  60  77
ATOM     77  C   UNL A   1      44.231  28.480  34.349  1.00  0.00     0.057 A 
ATOM     78  C   UNL A   1      45.554  28.877  34.126  1.00  0.00     0.134 A 
ATOM     79  C   UNL A   1      44.009  27.444  35.267  1.00  0.00     0.134 A 
ATOM     80  F   UNL A   1      45.833  29.857  33.253  1.00  0.00    -0.206 F 
ATOM     81  C   UNL A   1      46.618  28.268  34.794  1.00  0.00     0.040 A 
ATOM     82  C   UNL A   1      45.061  26.850  35.964  1.00  0.00     0.040 A 
ATOM     83  F   UNL A   1      42.763  27.027  35.536  1.00  0.00    -0.206 F 
ATOM     84  C   UNL A   1      46.371  27.264  35.728  1.00  0.00     0.006 A 
ENDBRANCH  60  77
ENDBRANCH  34  35
ENDBRANCH  26  29
ENDBRANCH  24  25
ENDBRANCH   1  24
TORSDOF 12
ENDMDL
MODEL 3
REMARK VINA RESULT:     -12.3      1.447      2.078
REMARK SMILES C#Cc1cc(Cl)cc2c1O[C@H](C(F)(F)F)C(C(=O)NCCCNC(=O)c1ccc(-c3c4nc(c(-c5c(F)cccc5F)c5ccc([nH]5)c(-c5c(F)cccc5F)c5nc(c(-c6c(F)cccc6F)c6ccc3[nH]6)C=C5)C=C4)cc1)=C2
REMARK SMILES IDX 21 1 20 2 19 3 17 4 18 5 16 7 3 8 4 9 9 10 5 11 8 12 10 13
REMARK SMILES IDX 6 14 7 15 80 16 11 17 2 18 1 19 12 20 13 21 14 22 15 23
REMARK SMILES IDX 22 24 23 25 24 26 25 28 26 29 27 30 79 31 28 32 78 33 29 34
REMARK SMILES IDX 30 35 31 36 72 37 32 38 77 39 71 40 73 41 33 42 76 43 70 44
REMARK SMILES IDX 69 45 34 47 60 48 43 49 59 50 44 51 47 52 58 53 74 54 45 55
REMARK SMILES IDX 46 56 57 58 75 59 48 60 35 61 36 62 41 63 37 64 38 65 40 66
REMARK SMILES IDX 42 67 39 68 61 69 62 70 67 71 63 72 64 73 66 74 68 75 65 76
REMARK SMILES IDX 49 77 50 78 55 79 51 80 52 81 54 82 56 83 53 84
REMARK H PARENT 19 6 23 27 73 46 47 57
REMARK Flexibility Score: inf
ROOT
ATOM      1  C   UNL A   1      38.008  19.729  24.801  1.00  0.00     0.042 C 
ENDROOT
BRANCH   1   2
ATOM      2  C   UNL A   1      36.724  20.484  25.087  1.00  0.00     0.118 C 
BRANCH   2   3
ATOM      3  N   UNL A   1      35.556  19.619  25.001  1.00  0.00    -0.352 N 
ATOM      4  C   UNL A   1      34.220  19.769  24.842  1.00  0.00     0.251 C 
ATOM      5  O   UNL A   1      33.568  18.722  24.810  1.00  0.00    -0.270 OA
ATOM      6  H   UNL A   1      35.805  18.670  25.080  1.00  0.00     0.163 HD
BRANCH   4   7
ATOM      7  C   UNL A   1      33.525  21.080  24.712  1.00  0.00     0.067 C 
ATOM      8  C   UNL A   1      31.360  24.643  24.203  1.00  0.00     0.068 A 
ATOM      9  C   UNL A   1      31.514  25.388  23.035  1.00  0.00     0.041 A 
ATOM     10  C   UNL A   1      32.050  23.432  24.345  1.00  0.00     0.143 A 
ATOM     11  C   UNL A   1      32.349  24.913  22.023  1.00  0.00     0.043 A 
ATOM     12  C   UNL A   1      32.888  22.955  23.332  1.00  0.00     0.020 A 
ATOM     13  O   UNL A   1      31.826  22.719  25.489  1.00  0.00    -0.474 OA
ATOM     14  Cl  UNL A   1      32.528  25.827  20.576  1.00  0.00    -0.084 Cl
ATOM     15  C   UNL A   1      33.035  23.703  22.163  1.00  0.00     0.032 A 
ATOM     16  C   UNL A   1      33.556  21.668  23.501  1.00  0.00     0.025 C 
ATOM     17  C   UNL A   1      32.831  21.753  25.858  1.00  0.00     0.314 C 
BRANCH   8  18
ATOM     18  C   UNL A   1      30.511  25.118  25.255  1.00  0.00    -0.067 C 
ATOM     19  C   UNL A   1      29.801  25.578  26.110  1.00  0.00     0.010 C 
ENDBRANCH   8  18
BRANCH  17  20
ATOM     20  C   UNL A   1      33.818  22.388  26.857  1.00  0.00     0.429 C 
ATOM     21  F   UNL A   1      34.806  23.041  26.195  1.00  0.00    -0.167 F 
ATOM     22  F   UNL A   1      33.230  23.304  27.664  1.00  0.00    -0.167 F 
ATOM     23  F   UNL A   1      34.400  21.476  27.667  1.00  0.00    -0.167 F 
ENDBRANCH  17  20
ENDBRANCH   4   7
ENDBRANCH   2   3
ENDBRANCH   1   2
BRANCH   1  24
ATOM     24  C   UNL A   1      39.114  20.144  25.755  1.00  0.00     0.118 C 
BRANCH  24  25
ATOM     25  N   UNL A   1      40.142  19.108  25.877  1.00  0.00    -0.352 N 
ATOM     26  C   UNL A   1      41.501  19.226  26.021  1.00  0.00     0.251 C 
ATOM     27  H   UNL A   1      39.804  18.183  25.853  1.00  0.00     0.163 HD
ATOM     28  O   UNL A   1      42.232  18.258  25.839  1.00  0.00    -0.269 OA
BRANCH  26  29
ATOM     29  C   UNL A   1      42.069  20.536  26.381  1.00  0.00     0.039 A 
ATOM     30  C   UNL A   1      42.386  21.448  25.376  1.00  0.00     0.014 A 
ATOM     31  C   UNL A   1      42.245  20.865  27.726  1.00  0.00     0.014 A 
ATOM     32  C   UNL A   1      42.804  22.728  25.732  1.00  0.00     0.010 A 
ATOM     33  C   UNL A   1      42.531  22.173  28.077  1.00  0.00     0.010 A 
ATOM     34  C   UNL A   1      42.833  23.114  27.084  1.00  0.00    -0.014 A 
BRANCH  34  35
ATOM     35  C   UNL A   1      43.202  24.491  27.479  1.00  0.00     0.031 A 
ATOM     36  C   UNL A   1      44.642  24.916  27.445  1.00  0.00     0.074 A 
ATOM     37  C   UNL A   1      42.245  25.343  27.893  1.00  0.00     0.049 A 
ATOM     38  N   UNL A   1      45.164  26.078  27.741  1.00  0.00    -0.248 NA
ATOM     39  C   UNL A   1      45.635  23.900  27.050  1.00  0.00     0.031 C 
ATOM     40  C   UNL A   1      40.821  25.020  28.016  1.00  0.00     0.029 A 
ATOM     41  N   UNL A   1      42.320  26.658  28.274  1.00  0.00    -0.354 N 
ATOM     42  C   UNL A   1      46.533  25.930  27.562  1.00  0.00     0.074 A 
ATOM     43  C   UNL A   1      46.775  24.549  27.220  1.00  0.00     0.031 C 
ATOM     44  C   UNL A   1      40.152  26.122  28.386  1.00  0.00     0.029 A 
ATOM     45  C   UNL A   1      41.099  27.216  28.572  1.00  0.00     0.049 A 
ATOM     46  H   UNL A   1      43.167  27.155  28.329  1.00  0.00     0.167 HD
ATOM     47  C   UNL A   1      47.496  26.876  27.632  1.00  0.00     0.037 A 
ATOM     48  C   UNL A   1      40.783  28.471  28.946  1.00  0.00     0.037 A 
ATOM     49  C   UNL A   1      47.242  28.252  27.954  1.00  0.00     0.049 A 
ATOM     50  C   UNL A   1      41.880  29.493  29.061  1.00  0.00     0.074 A 
ATOM     51  C   UNL A   1      48.144  29.298  28.013  1.00  0.00     0.029 A 
ATOM     52  N   UNL A   1      45.997  28.772  28.274  1.00  0.00    -0.354 N 
ATOM     53  N   UNL A   1      43.161  29.359  28.813  1.00  0.00    -0.248 NA
ATOM     54  C   UNL A   1      41.492  30.839  29.505  1.00  0.00     0.031 C 
ATOM     55  C   UNL A   1      47.456  30.438  28.432  1.00  0.00     0.029 A 
ATOM     56  C   UNL A   1      46.113  30.120  28.566  1.00  0.00     0.049 A 
ATOM     57  H   UNL A   1      45.156  28.259  28.291  1.00  0.00     0.167 HD
ATOM     58  C   UNL A   1      43.727  30.607  29.044  1.00  0.00     0.074 A 
ATOM     59  C   UNL A   1      42.647  31.488  29.438  1.00  0.00     0.031 C 
ATOM     60  C   UNL A   1      45.023  30.985  28.942  1.00  0.00     0.037 A 
BRANCH  47  61
ATOM     61  C   UNL A   1      48.906  26.461  27.332  1.00  0.00     0.057 A 
ATOM     62  C   UNL A   1      49.771  26.013  28.340  1.00  0.00     0.134 A 
ATOM     63  C   UNL A   1      49.386  26.446  26.016  1.00  0.00     0.134 A 
ATOM     64  F   UNL A   1      49.380  26.017  29.624  1.00  0.00    -0.206 F 
ATOM     65  C   UNL A   1      51.065  25.579  28.053  1.00  0.00     0.040 A 
ATOM     66  C   UNL A   1      50.667  25.983  25.713  1.00  0.00     0.040 A 
ATOM     67  F   UNL A   1      48.611  26.859  25.003  1.00  0.00    -0.206 F 
ATOM     68  C   UNL A   1      51.511  25.550  26.733  1.00  0.00     0.006 A 
ENDBRANCH  47  61
BRANCH  48  69
ATOM     69  C   UNL A   1      39.363  28.833  29.193  1.00  0.00     0.057 A 
ATOM     70  C   UNL A   1      38.562  29.352  28.169  1.00  0.00     0.134 A 
ATOM     71  C   UNL A   1      38.764  28.650  30.446  1.00  0.00     0.134 A 
ATOM     72  F   UNL A   1      39.078  29.564  26.949  1.00  0.00    -0.206 F 
ATOM     73  C   UNL A   1      37.223  29.686  28.384  1.00  0.00     0.040 A 
ATOM     74  C   UNL A   1      37.420  28.953  30.668  1.00  0.00     0.040 A 
ATOM     75  F   UNL A   1      39.473  28.148  31.469  1.00  0.00    -0.206 F 
ATOM     76  C   UNL A   1      36.646  29.478  29.635  1.00  0.00     0.006 A 
ENDBRANCH  48  69
BRANCH  60  77
ATOM     77  C   UNL A   1      45.367  32.416  29.239  1.00  0.00     0.057 A 
ATOM     78  C   UNL A   1      45.819  32.815  30.502  1.00  0.00     0.134 A 
ATOM     79  C   UNL A   1      45.365  33.374  28.216  1.00  0.00     0.134 A 
ATOM     80  F   UNL A   1      45.836  31.947  31.525  1.00  0.00    -0.206 F 
ATOM     81  C   UNL A   1      46.258  34.119  30.738  1.00  0.00     0.040 A 
ATOM     82  C   UNL A   1      45.831  34.671  28.431  1.00  0.00     0.040 A 
ATOM     83  F   UNL A   1      44.957  33.051  26.980  1.00  0.00    -0.206 F 
ATOM     84  C   UNL A   1      46.280  35.046  29.697  1.00  0.00     0.006 A 
ENDBRANCH  60  77
ENDBRANCH  34  35
ENDBRANCH  26  29
ENDBRANCH  24  25
ENDBRANCH   1  24
TORSDOF 12
ENDMDL
