MODEL 1
REMARK VINA RESULT:     -12.7      0.000      0.000
REMARK SMILES CCOC(=O)c1c(NC(=O)c2ncccc2C(=O)NCCCNC(=O)c2ccc(-c3c4nc(c(-c5c(F)cccc5F)c5ccc([nH]5)c(-c5c(F)cccc5F)c5nc(c(-c6c(F)cccc6F)c6ccc3[nH]6)C=C5)C=C4)cc2)sc2c1CC[C@H](C)C2
REMARK SMILES IDX 17 1 18 2 19 3 16 5 11 6 12 7 13 8 15 9 14 10 9 11 8 12
REMARK SMILES IDX 10 14 7 15 6 16 82 17 80 18 81 19 83 20 87 21 84 22 85 23
REMARK SMILES IDX 86 24 4 25 5 26 3 27 2 28 1 29 20 30 21 31 22 32 23 33 24 34
REMARK SMILES IDX 25 36 26 37 27 38 79 39 28 40 78 41 29 42 30 43 31 44 72 45
REMARK SMILES IDX 32 46 77 47 71 48 73 49 33 50 76 51 70 52 69 53 34 55 60 56
REMARK SMILES IDX 43 57 59 58 44 59 47 60 58 61 74 62 45 63 46 64 57 66 75 67
REMARK SMILES IDX 48 68 35 69 36 70 41 71 37 72 38 73 40 74 42 75 39 76 61 77
REMARK SMILES IDX 62 78 67 79 63 80 64 81 66 82 68 83 65 84 49 85 50 86 55 87
REMARK SMILES IDX 51 88 52 89 54 90 56 91 53 92
REMARK H PARENT 19 4 8 13 23 35 73 54 47 65
REMARK Flexibility Score: inf
ROOT
ATOM      1  C   UNL A   1      36.315  23.060  25.844  1.00  0.00     0.253 C 
ATOM      2  O   UNL A   1      36.861  24.127  26.104  1.00  0.00    -0.269 OA
ATOM      3  N   UNL A   1      37.070  22.030  25.321  1.00  0.00    -0.352 N 
ATOM      4  H   UNL A   1      38.007  22.262  25.132  1.00  0.00     0.163 HD
ENDROOT
BRANCH   1   5
ATOM      5  C   UNL A   1      34.867  22.894  26.087  1.00  0.00     0.071 A 
ATOM      6  C   UNL A   1      33.913  23.082  25.094  1.00  0.00     0.141 A 
ATOM      7  N   UNL A   1      32.567  22.946  25.312  1.00  0.00    -0.250 NA
ATOM      8  C   UNL A   1      32.157  22.630  26.552  1.00  0.00     0.112 A 
ATOM      9  C   UNL A   1      34.390  22.611  27.375  1.00  0.00     0.018 A 
ATOM     10  C   UNL A   1      33.028  22.441  27.606  1.00  0.00     0.021 A 
BRANCH   6  11
ATOM     11  C   UNL A   1      34.202  23.656  23.768  1.00  0.00     0.275 C 
ATOM     12  N   UNL A   1      33.892  24.920  23.371  1.00  0.00    -0.311 N 
ATOM     13  H   UNL A   1      34.198  25.097  22.451  1.00  0.00     0.171 HD
ATOM     14  O   UNL A   1      34.756  22.923  22.939  1.00  0.00    -0.267 OA
BRANCH  12  15
ATOM     15  C   UNL A   1      33.269  26.011  23.913  1.00  0.00     0.110 A 
ATOM     16  C   UNL A   1      32.151  26.821  23.785  1.00  0.00     0.098 A 
ATOM     17  C   UNL A   1      32.308  28.000  24.658  1.00  0.00    -0.017 A 
ATOM     18  S   UNL A   1      34.321  26.524  25.173  1.00  0.00    -0.122 S 
ATOM     19  C   UNL A   1      33.473  27.953  25.397  1.00  0.00     0.011 A 
ATOM     20  C   UNL A   1      31.339  29.144  24.856  1.00  0.00     0.038 C 
ATOM     21  C   UNL A   1      33.974  29.006  26.331  1.00  0.00     0.050 C 
ATOM     22  C   UNL A   1      31.991  30.349  25.563  1.00  0.00     0.008 C 
ATOM     23  C   UNL A   1      32.808  29.896  26.788  1.00  0.00    -0.009 C 
ATOM     24  C   UNL A   1      33.340  31.068  27.602  1.00  0.00     0.008 C 
BRANCH  16  25
ATOM     25  C   UNL A   1      30.951  26.653  22.947  1.00  0.00     0.341 C 
ATOM     26  O   UNL A   1      30.810  27.265  21.913  1.00  0.00    -0.246 OA
BRANCH  25  27
ATOM     27  O   UNL A   1      30.000  25.819  23.452  1.00  0.00    -0.462 OA
BRANCH  27  28
ATOM     28  C   UNL A   1      29.327  26.141  24.699  1.00  0.00     0.230 C 
ATOM     29  C   UNL A   1      29.704  25.434  25.997  1.00  0.00     0.049 C 
ENDBRANCH  27  28
ENDBRANCH  25  27
ENDBRANCH  16  25
ENDBRANCH  12  15
ENDBRANCH   6  11
ENDBRANCH   1   5
BRANCH   3  30
ATOM     30  C   UNL A   1      36.704  20.650  25.003  1.00  0.00     0.118 C 
BRANCH  30  31
ATOM     31  C   UNL A   1      37.857  19.659  24.964  1.00  0.00     0.042 C 
BRANCH  31  32
ATOM     32  C   UNL A   1      39.111  20.112  25.658  1.00  0.00     0.118 C 
BRANCH  32  33
ATOM     33  N   UNL A   1      40.135  19.081  25.849  1.00  0.00    -0.352 N 
ATOM     34  C   UNL A   1      41.503  19.275  26.034  1.00  0.00     0.251 C 
ATOM     35  H   UNL A   1      39.821  18.147  25.846  1.00  0.00     0.163 HD
ATOM     36  O   UNL A   1      42.308  18.362  25.905  1.00  0.00    -0.269 OA
BRANCH  34  37
ATOM     37  C   UNL A   1      41.960  20.620  26.433  1.00  0.00     0.039 A 
ATOM     38  C   UNL A   1      42.414  21.625  25.572  1.00  0.00     0.014 A 
ATOM     39  C   UNL A   1      41.817  20.897  27.769  1.00  0.00     0.014 A 
ATOM     40  C   UNL A   1      42.688  22.883  26.125  1.00  0.00     0.010 A 
ATOM     41  C   UNL A   1      41.466  22.171  28.015  1.00  0.00     0.010 A 
ATOM     42  C   UNL A   1      42.245  23.121  27.422  1.00  0.00    -0.014 A 
BRANCH  42  43
ATOM     43  C   UNL A   1      42.399  24.324  28.213  1.00  0.00     0.031 A 
ATOM     44  C   UNL A   1      41.293  25.288  28.050  1.00  0.00     0.074 A 
ATOM     45  C   UNL A   1      43.302  24.373  29.229  1.00  0.00     0.049 A 
ATOM     46  N   UNL A   1      41.328  26.440  27.475  1.00  0.00    -0.248 NA
ATOM     47  C   UNL A   1      39.936  24.846  28.406  1.00  0.00     0.031 C 
ATOM     48  C   UNL A   1      44.221  23.325  29.714  1.00  0.00     0.029 A 
ATOM     49  N   UNL A   1      43.526  25.377  30.122  1.00  0.00    -0.354 N 
ATOM     50  C   UNL A   1      40.055  26.977  27.636  1.00  0.00     0.074 A 
ATOM     51  C   UNL A   1      39.200  25.884  28.006  1.00  0.00     0.031 C 
ATOM     52  C   UNL A   1      44.728  23.667  30.921  1.00  0.00     0.029 A 
ATOM     53  C   UNL A   1      44.317  25.022  31.218  1.00  0.00     0.049 A 
ATOM     54  H   UNL A   1      43.161  26.283  30.004  1.00  0.00     0.167 HD
ATOM     55  C   UNL A   1      39.883  28.323  27.733  1.00  0.00     0.037 A 
ATOM     56  C   UNL A   1      44.582  25.808  32.294  1.00  0.00     0.037 A 
ATOM     57  C   UNL A   1      41.071  29.019  27.294  1.00  0.00     0.049 A 
ATOM     58  C   UNL A   1      44.289  27.207  31.879  1.00  0.00     0.074 A 
ATOM     59  C   UNL A   1      41.791  29.052  26.115  1.00  0.00     0.029 A 
ATOM     60  N   UNL A   1      41.929  29.478  28.267  1.00  0.00    -0.354 N 
ATOM     61  N   UNL A   1      44.971  27.837  30.960  1.00  0.00    -0.248 NA
ATOM     62  C   UNL A   1      42.932  27.687  32.090  1.00  0.00     0.031 C 
ATOM     63  C   UNL A   1      43.159  29.037  26.522  1.00  0.00     0.029 A 
ATOM     64  C   UNL A   1      43.199  29.093  27.917  1.00  0.00     0.049 A 
ATOM     65  H   UNL A   1      41.676  29.989  29.069  1.00  0.00     0.167 HD
ATOM     66  C   UNL A   1      44.018  28.496  30.195  1.00  0.00     0.074 A 
ATOM     67  C   UNL A   1      42.779  28.404  30.971  1.00  0.00     0.031 C 
ATOM     68  C   UNL A   1      44.235  28.776  28.874  1.00  0.00     0.037 A 
BRANCH  55  69
ATOM     69  C   UNL A   1      38.844  28.994  28.597  1.00  0.00     0.057 A 
ATOM     70  C   UNL A   1      38.804  28.673  29.966  1.00  0.00     0.134 A 
ATOM     71  C   UNL A   1      37.712  29.680  28.111  1.00  0.00     0.134 A 
ATOM     72  F   UNL A   1      39.826  28.029  30.551  1.00  0.00    -0.206 F 
ATOM     73  C   UNL A   1      37.680  28.917  30.761  1.00  0.00     0.040 A 
ATOM     74  C   UNL A   1      36.604  29.973  28.909  1.00  0.00     0.040 A 
ATOM     75  F   UNL A   1      37.564  30.014  26.824  1.00  0.00    -0.206 F 
ATOM     76  C   UNL A   1      36.568  29.556  30.229  1.00  0.00     0.006 A 
ENDBRANCH  55  69
BRANCH  56  77
ATOM     77  C   UNL A   1      44.703  25.401  33.714  1.00  0.00     0.057 A 
ATOM     78  C   UNL A   1      43.576  25.163  34.513  1.00  0.00     0.134 A 
ATOM     79  C   UNL A   1      45.934  24.966  34.242  1.00  0.00     0.134 A 
ATOM     80  F   UNL A   1      42.352  25.498  34.078  1.00  0.00    -0.206 F 
ATOM     81  C   UNL A   1      43.663  24.516  35.756  1.00  0.00     0.040 A 
ATOM     82  C   UNL A   1      46.036  24.323  35.482  1.00  0.00     0.040 A 
ATOM     83  F   UNL A   1      47.064  25.067  33.529  1.00  0.00    -0.206 F 
ATOM     84  C   UNL A   1      44.896  24.084  36.239  1.00  0.00     0.006 A 
ENDBRANCH  56  77
BRANCH  68  85
ATOM     85  C   UNL A   1      45.614  28.529  28.315  1.00  0.00     0.057 A 
ATOM     86  C   UNL A   1      46.010  27.341  27.681  1.00  0.00     0.134 A 
ATOM     87  C   UNL A   1      46.516  29.594  28.262  1.00  0.00     0.134 A 
ATOM     88  F   UNL A   1      45.180  26.296  27.589  1.00  0.00    -0.206 F 
ATOM     89  C   UNL A   1      47.255  27.206  27.057  1.00  0.00     0.040 A 
ATOM     90  C   UNL A   1      47.752  29.485  27.617  1.00  0.00     0.040 A 
ATOM     91  F   UNL A   1      46.186  30.783  28.790  1.00  0.00    -0.206 F 
ATOM     92  C   UNL A   1      48.130  28.286  27.019  1.00  0.00     0.006 A 
ENDBRANCH  68  85
ENDBRANCH  42  43
ENDBRANCH  34  37
ENDBRANCH  32  33
ENDBRANCH  31  32
ENDBRANCH  30  31
ENDBRANCH   3  30
TORSDOF 15
ENDMDL
MODEL 2
REMARK VINA RESULT:     -12.6      4.138      9.168
REMARK SMILES CCOC(=O)c1c(NC(=O)c2ncccc2C(=O)NCCCNC(=O)c2ccc(-c3c4nc(c(-c5c(F)cccc5F)c5ccc([nH]5)c(-c5c(F)cccc5F)c5nc(c(-c6c(F)cccc6F)c6ccc3[nH]6)C=C5)C=C4)cc2)sc2c1CC[C@H](C)C2
REMARK SMILES IDX 17 1 18 2 19 3 16 5 11 6 12 7 13 8 15 9 14 10 9 11 8 12
REMARK SMILES IDX 10 14 7 15 6 16 82 17 80 18 81 19 83 20 87 21 84 22 85 23
REMARK SMILES IDX 86 24 4 25 5 26 3 27 2 28 1 29 20 30 21 31 22 32 23 33 24 34
REMARK SMILES IDX 25 36 26 37 27 38 79 39 28 40 78 41 29 42 30 43 31 44 72 45
REMARK SMILES IDX 32 46 77 47 71 48 73 49 33 50 76 51 70 52 69 53 34 55 60 56
REMARK SMILES IDX 43 57 59 58 44 59 47 60 58 61 74 62 45 63 46 64 57 66 75 67
REMARK SMILES IDX 48 68 35 69 36 70 41 71 37 72 38 73 40 74 42 75 39 76 61 77
REMARK SMILES IDX 62 78 67 79 63 80 64 81 66 82 68 83 65 84 49 85 50 86 55 87
REMARK SMILES IDX 51 88 52 89 54 90 56 91 53 92
REMARK H PARENT 19 4 8 13 23 35 73 54 47 65
REMARK Flexibility Score: inf
ROOT
ATOM      1  C   UNL A   1      32.740  29.096  25.050  1.00  0.00     0.253 C 
ATOM      2  O   UNL A   1      33.843  28.772  24.623  1.00  0.00    -0.269 OA
ATOM      3  N   UNL A   1      32.657  30.085  26.008  1.00  0.00    -0.352 N 
ATOM      4  H   UNL A   1      33.524  30.419  26.331  1.00  0.00     0.163 HD
ENDROOT
BRANCH   1   5
ATOM      5  C   UNL A   1      31.526  28.427  24.541  1.00  0.00     0.071 A 
ATOM      6  C   UNL A   1      30.901  27.388  25.222  1.00  0.00     0.141 A 
ATOM      7  N   UNL A   1      29.783  26.749  24.752  1.00  0.00    -0.250 NA
ATOM      8  C   UNL A   1      29.283  27.142  23.568  1.00  0.00     0.112 A 
ATOM      9  C   UNL A   1      30.995  28.770  23.289  1.00  0.00     0.018 A 
ATOM     10  C   UNL A   1      29.844  28.150  22.812  1.00  0.00     0.021 A 
BRANCH   6  11
ATOM     11  C   UNL A   1      31.472  26.707  26.396  1.00  0.00     0.275 C 
ATOM     12  N   UNL A   1      32.048  25.474  26.390  1.00  0.00    -0.311 N 
ATOM     13  H   UNL A   1      32.382  25.225  27.284  1.00  0.00     0.171 HD
ATOM     14  O   UNL A   1      31.408  27.296  27.482  1.00  0.00    -0.267 OA
BRANCH  12  15
ATOM     15  C   UNL A   1      32.287  24.489  25.471  1.00  0.00     0.110 A 
ATOM     16  C   UNL A   1      32.511  24.271  24.120  1.00  0.00     0.098 A 
ATOM     17  C   UNL A   1      32.458  22.821  23.852  1.00  0.00    -0.017 A 
ATOM     18  S   UNL A   1      32.251  23.033  26.383  1.00  0.00    -0.122 S 
ATOM     19  C   UNL A   1      32.263  22.083  25.002  1.00  0.00     0.011 A 
ATOM     20  C   UNL A   1      32.654  22.114  22.530  1.00  0.00     0.038 C 
ATOM     21  C   UNL A   1      32.100  20.600  25.087  1.00  0.00     0.050 C 
ATOM     22  C   UNL A   1      32.182  20.646  22.574  1.00  0.00     0.008 C 
ATOM     23  C   UNL A   1      32.701  19.936  23.839  1.00  0.00    -0.009 C 
ATOM     24  C   UNL A   1      32.386  18.446  23.843  1.00  0.00     0.008 C 
BRANCH  16  25
ATOM     25  C   UNL A   1      32.758  25.234  23.033  1.00  0.00     0.341 C 
ATOM     26  O   UNL A   1      33.735  25.949  23.030  1.00  0.00    -0.246 OA
BRANCH  25  27
ATOM     27  O   UNL A   1      31.786  25.302  22.083  1.00  0.00    -0.462 OA
BRANCH  27  28
ATOM     28  C   UNL A   1      32.016  26.025  20.844  1.00  0.00     0.230 C 
ATOM     29  C   UNL A   1      32.565  25.312  19.613  1.00  0.00     0.049 C 
ENDBRANCH  27  28
ENDBRANCH  25  27
ENDBRANCH  16  25
ENDBRANCH  12  15
ENDBRANCH   6  11
ENDBRANCH   1   5
BRANCH   3  30
ATOM     30  C   UNL A   1      31.489  30.718  26.622  1.00  0.00     0.118 C 
BRANCH  30  31
ATOM     31  C   UNL A   1      31.496  32.239  26.628  1.00  0.00     0.042 C 
BRANCH  31  32
ATOM     32  C   UNL A   1      32.694  32.869  27.281  1.00  0.00     0.118 C 
BRANCH  32  33
ATOM     33  N   UNL A   1      32.512  34.252  27.733  1.00  0.00    -0.352 N 
ATOM     34  C   UNL A   1      33.124  34.870  28.823  1.00  0.00     0.251 C 
ATOM     35  H   UNL A   1      31.889  34.805  27.209  1.00  0.00     0.163 HD
ATOM     36  O   UNL A   1      32.706  35.923  29.285  1.00  0.00    -0.269 OA
BRANCH  34  37
ATOM     37  C   UNL A   1      34.328  34.233  29.389  1.00  0.00     0.039 A 
ATOM     38  C   UNL A   1      34.364  33.372  30.491  1.00  0.00     0.014 A 
ATOM     39  C   UNL A   1      35.479  34.459  28.678  1.00  0.00     0.014 A 
ATOM     40  C   UNL A   1      35.587  32.766  30.806  1.00  0.00     0.010 A 
ATOM     41  C   UNL A   1      36.304  33.398  28.647  1.00  0.00     0.010 A 
ATOM     42  C   UNL A   1      36.604  32.850  29.859  1.00  0.00    -0.014 A 
BRANCH  42  43
ATOM     43  C   UNL A   1      37.948  32.315  29.940  1.00  0.00     0.031 A 
ATOM     44  C   UNL A   1      38.063  30.926  29.452  1.00  0.00     0.074 A 
ATOM     45  C   UNL A   1      39.010  33.140  30.132  1.00  0.00     0.049 A 
ATOM     46  N   UNL A   1      38.296  29.864  30.143  1.00  0.00    -0.248 NA
ATOM     47  C   UNL A   1      37.696  30.654  28.055  1.00  0.00     0.031 C 
ATOM     48  C   UNL A   1      39.040  34.609  30.276  1.00  0.00     0.029 A 
ATOM     49  N   UNL A   1      40.337  32.830  30.152  1.00  0.00    -0.354 N 
ATOM     50  C   UNL A   1      38.367  28.825  29.220  1.00  0.00     0.074 A 
ATOM     51  C   UNL A   1      37.778  29.323  28.007  1.00  0.00     0.031 C 
ATOM     52  C   UNL A   1      40.307  35.068  30.147  1.00  0.00     0.029 A 
ATOM     53  C   UNL A   1      41.198  33.930  30.088  1.00  0.00     0.049 A 
ATOM     54  H   UNL A   1      40.665  31.904  30.209  1.00  0.00     0.167 HD
ATOM     55  C   UNL A   1      39.167  27.752  29.453  1.00  0.00     0.037 A 
ATOM     56  C   UNL A   1      42.550  33.874  29.976  1.00  0.00     0.037 A 
ATOM     57  C   UNL A   1      39.569  27.710  30.840  1.00  0.00     0.049 A 
ATOM     58  C   UNL A   1      42.955  32.506  30.399  1.00  0.00     0.074 A 
ATOM     59  C   UNL A   1      38.889  27.643  32.041  1.00  0.00     0.029 A 
ATOM     60  N   UNL A   1      40.823  28.185  31.149  1.00  0.00    -0.354 N 
ATOM     61  N   UNL A   1      42.807  32.063  31.620  1.00  0.00    -0.248 NA
ATOM     62  C   UNL A   1      43.008  31.483  29.365  1.00  0.00     0.031 C 
ATOM     63  C   UNL A   1      39.581  28.546  32.903  1.00  0.00     0.029 A 
ATOM     64  C   UNL A   1      40.694  29.036  32.216  1.00  0.00     0.049 A 
ATOM     65  H   UNL A   1      41.661  27.955  30.685  1.00  0.00     0.167 HD
ATOM     66  C   UNL A   1      42.329  30.767  31.476  1.00  0.00     0.074 A 
ATOM     67  C   UNL A   1      42.519  30.449  30.058  1.00  0.00     0.031 C 
ATOM     68  C   UNL A   1      41.540  30.190  32.432  1.00  0.00     0.037 A 
BRANCH  55  69
ATOM     69  C   UNL A   1      39.921  26.997  28.385  1.00  0.00     0.057 A 
ATOM     70  C   UNL A   1      40.741  27.724  27.506  1.00  0.00     0.134 A 
ATOM     71  C   UNL A   1      39.647  25.672  27.989  1.00  0.00     0.134 A 
ATOM     72  F   UNL A   1      41.083  28.994  27.775  1.00  0.00    -0.206 F 
ATOM     73  C   UNL A   1      41.163  27.210  26.275  1.00  0.00     0.040 A 
ATOM     74  C   UNL A   1      40.105  25.131  26.785  1.00  0.00     0.040 A 
ATOM     75  F   UNL A   1      38.842  24.859  28.683  1.00  0.00    -0.206 F 
ATOM     76  C   UNL A   1      40.833  25.914  25.904  1.00  0.00     0.006 A 
ENDBRANCH  55  69
BRANCH  56  77
ATOM     77  C   UNL A   1      43.439  34.768  29.195  1.00  0.00     0.057 A 
ATOM     78  C   UNL A   1      43.661  34.575  27.825  1.00  0.00     0.134 A 
ATOM     79  C   UNL A   1      43.873  36.000  29.721  1.00  0.00     0.134 A 
ATOM     80  F   UNL A   1      43.243  33.453  27.220  1.00  0.00    -0.206 F 
ATOM     81  C   UNL A   1      44.264  35.555  27.019  1.00  0.00     0.040 A 
ATOM     82  C   UNL A   1      44.478  36.984  28.931  1.00  0.00     0.040 A 
ATOM     83  F   UNL A   1      43.637  36.324  31.000  1.00  0.00    -0.206 F 
ATOM     84  C   UNL A   1      44.665  36.769  27.571  1.00  0.00     0.006 A 
ENDBRANCH  56  77
BRANCH  68  85
ATOM     85  C   UNL A   1      41.361  30.920  33.739  1.00  0.00     0.057 A 
ATOM     86  C   UNL A   1      40.294  31.788  34.021  1.00  0.00     0.134 A 
ATOM     87  C   UNL A   1      42.201  30.598  34.807  1.00  0.00     0.134 A 
ATOM     88  F   UNL A   1      39.376  32.081  33.094  1.00  0.00    -0.206 F 
ATOM     89  C   UNL A   1      40.094  32.337  35.293  1.00  0.00     0.040 A 
ATOM     90  C   UNL A   1      41.998  31.115  36.090  1.00  0.00     0.040 A 
ATOM     91  F   UNL A   1      43.207  29.726  34.634  1.00  0.00    -0.206 F 
ATOM     92  C   UNL A   1      40.947  31.995  36.335  1.00  0.00     0.006 A 
ENDBRANCH  68  85
ENDBRANCH  42  43
ENDBRANCH  34  37
ENDBRANCH  32  33
ENDBRANCH  31  32
ENDBRANCH  30  31
ENDBRANCH   3  30
TORSDOF 15
ENDMDL
MODEL 3
REMARK VINA RESULT:     -12.1      1.140      2.279
REMARK SMILES CCOC(=O)c1c(NC(=O)c2ncccc2C(=O)NCCCNC(=O)c2ccc(-c3c4nc(c(-c5c(F)cccc5F)c5ccc([nH]5)c(-c5c(F)cccc5F)c5nc(c(-c6c(F)cccc6F)c6ccc3[nH]6)C=C5)C=C4)cc2)sc2c1CC[C@H](C)C2
REMARK SMILES IDX 17 1 18 2 19 3 16 5 11 6 12 7 13 8 15 9 14 10 9 11 8 12
REMARK SMILES IDX 10 14 7 15 6 16 82 17 80 18 81 19 83 20 87 21 84 22 85 23
REMARK SMILES IDX 86 24 4 25 5 26 3 27 2 28 1 29 20 30 21 31 22 32 23 33 24 34
REMARK SMILES IDX 25 36 26 37 27 38 79 39 28 40 78 41 29 42 30 43 31 44 72 45
REMARK SMILES IDX 32 46 77 47 71 48 73 49 33 50 76 51 70 52 69 53 34 55 60 56
REMARK SMILES IDX 43 57 59 58 44 59 47 60 58 61 74 62 45 63 46 64 57 66 75 67
REMARK SMILES IDX 48 68 35 69 36 70 41 71 37 72 38 73 40 74 42 75 39 76 61 77
REMARK SMILES IDX 62 78 67 79 63 80 64 81 66 82 68 83 65 84 49 85 50 86 55 87
REMARK SMILES IDX 51 88 52 89 54 90 56 91 53 92
REMARK H PARENT 19 4 8 13 23 35 73 54 47 65
REMARK Flexibility Score: inf
ROOT
ATOM      1  C   UNL A   1      36.293  23.122  25.771  1.00  0.00     0.253 C 
ATOM      2  O   UNL A   1      36.858  24.162  26.092  1.00  0.00    -0.269 OA
ATOM      3  N   UNL A   1      37.052  22.046  25.360  1.00  0.00    -0.352 N 
ATOM      4  H   UNL A   1      38.018  22.225  25.293  1.00  0.00     0.163 HD
ENDROOT
BRANCH   1   5
ATOM      5  C   UNL A   1      34.819  23.036  25.825  1.00  0.00     0.071 A 
ATOM      6  C   UNL A   1      34.015  23.231  24.707  1.00  0.00     0.141 A 
ATOM      7  N   UNL A   1      32.647  23.169  24.747  1.00  0.00    -0.250 NA
ATOM      8  C   UNL A   1      32.061  22.922  25.932  1.00  0.00     0.112 A 
ATOM      9  C   UNL A   1      34.162  22.828  27.046  1.00  0.00     0.018 A 
ATOM     10  C   UNL A   1      32.774  22.734  27.098  1.00  0.00     0.021 A 
BRANCH   6  11
ATOM     11  C   UNL A   1      34.506  23.737  23.414  1.00  0.00     0.275 C 
ATOM     12  N   UNL A   1      34.208  24.951  22.877  1.00  0.00    -0.311 N 
ATOM     13  H   UNL A   1      34.663  25.088  22.014  1.00  0.00     0.171 HD
ATOM     14  O   UNL A   1      35.237  22.990  22.751  1.00  0.00    -0.267 OA
BRANCH  12  15
ATOM     15  C   UNL A   1      33.442  26.032  23.220  1.00  0.00     0.110 A 
ATOM     16  C   UNL A   1      33.119  26.863  24.282  1.00  0.00     0.098 A 
ATOM     17  C   UNL A   1      31.978  27.716  23.895  1.00  0.00    -0.017 A 
ATOM     18  S   UNL A   1      32.583  26.423  21.783  1.00  0.00    -0.122 S 
ATOM     19  C   UNL A   1      31.587  27.505  22.588  1.00  0.00     0.011 A 
ATOM     20  C   UNL A   1      31.292  28.779  24.722  1.00  0.00     0.038 C 
ATOM     21  C   UNL A   1      30.433  28.151  21.892  1.00  0.00     0.050 C 
ATOM     22  C   UNL A   1      29.937  29.206  24.121  1.00  0.00     0.008 C 
ATOM     23  C   UNL A   1      30.059  29.459  22.606  1.00  0.00    -0.009 C 
ATOM     24  C   UNL A   1      28.782  30.031  22.004  1.00  0.00     0.008 C 
BRANCH  16  25
ATOM     25  C   UNL A   1      33.721  26.966  25.623  1.00  0.00     0.341 C 
ATOM     26  O   UNL A   1      33.532  26.121  26.468  1.00  0.00    -0.246 OA
BRANCH  25  27
ATOM     27  O   UNL A   1      34.439  28.099  25.852  1.00  0.00    -0.462 OA
BRANCH  27  28
ATOM     28  C   UNL A   1      34.287  28.826  27.100  1.00  0.00     0.230 C 
ATOM     29  C   UNL A   1      33.758  30.256  27.114  1.00  0.00     0.049 C 
ENDBRANCH  27  28
ENDBRANCH  25  27
ENDBRANCH  16  25
ENDBRANCH  12  15
ENDBRANCH   6  11
ENDBRANCH   1   5
BRANCH   3  30
ATOM     30  C   UNL A   1      36.657  20.682  25.008  1.00  0.00     0.118 C 
BRANCH  30  31
ATOM     31  C   UNL A   1      37.774  19.651  25.026  1.00  0.00     0.042 C 
BRANCH  31  32
ATOM     32  C   UNL A   1      39.070  20.125  25.620  1.00  0.00     0.118 C 
BRANCH  32  33
ATOM     33  N   UNL A   1      40.090  19.090  25.820  1.00  0.00    -0.352 N 
ATOM     34  C   UNL A   1      41.456  19.281  26.023  1.00  0.00     0.251 C 
ATOM     35  H   UNL A   1      39.774  18.158  25.810  1.00  0.00     0.163 HD
ATOM     36  O   UNL A   1      42.260  18.366  25.900  1.00  0.00    -0.269 OA
BRANCH  34  37
ATOM     37  C   UNL A   1      41.911  20.623  26.432  1.00  0.00     0.039 A 
ATOM     38  C   UNL A   1      42.426  21.612  25.586  1.00  0.00     0.014 A 
ATOM     39  C   UNL A   1      41.701  20.917  27.755  1.00  0.00     0.014 A 
ATOM     40  C   UNL A   1      42.689  22.872  26.140  1.00  0.00     0.010 A 
ATOM     41  C   UNL A   1      41.356  22.199  27.968  1.00  0.00     0.010 A 
ATOM     42  C   UNL A   1      42.180  23.131  27.408  1.00  0.00    -0.014 A 
BRANCH  42  43
ATOM     43  C   UNL A   1      42.310  24.341  28.194  1.00  0.00     0.031 A 
ATOM     44  C   UNL A   1      41.144  25.241  28.095  1.00  0.00     0.074 A 
ATOM     45  C   UNL A   1      43.262  24.439  29.160  1.00  0.00     0.049 A 
ATOM     46  N   UNL A   1      41.083  26.394  27.523  1.00  0.00    -0.248 NA
ATOM     47  C   UNL A   1      39.836  24.724  28.523  1.00  0.00     0.031 C 
ATOM     48  C   UNL A   1      44.264  23.444  29.591  1.00  0.00     0.029 A 
ATOM     49  N   UNL A   1      43.478  25.453  30.043  1.00  0.00    -0.354 N 
ATOM     50  C   UNL A   1      39.793  26.859  27.755  1.00  0.00     0.074 A 
ATOM     51  C   UNL A   1      39.022  25.719  28.167  1.00  0.00     0.031 C 
ATOM     52  C   UNL A   1      44.815  23.813  30.770  1.00  0.00     0.029 A 
ATOM     53  C   UNL A   1      44.346  25.143  31.094  1.00  0.00     0.049 A 
ATOM     54  H   UNL A   1      43.057  26.338  29.948  1.00  0.00     0.167 HD
ATOM     55  C   UNL A   1      39.552  28.192  27.866  1.00  0.00     0.037 A 
ATOM     56  C   UNL A   1      44.625  25.942  32.156  1.00  0.00     0.037 A 
ATOM     57  C   UNL A   1      40.674  28.954  27.366  1.00  0.00     0.049 A 
ATOM     58  C   UNL A   1      44.232  27.322  31.763  1.00  0.00     0.074 A 
ATOM     59  C   UNL A   1      41.325  29.028  26.150  1.00  0.00     0.029 A 
ATOM     60  N   UNL A   1      41.557  29.459  28.292  1.00  0.00    -0.354 N 
ATOM     61  N   UNL A   1      44.827  27.990  30.811  1.00  0.00    -0.248 NA
ATOM     62  C   UNL A   1      42.863  27.725  32.049  1.00  0.00     0.031 C 
ATOM     63  C   UNL A   1      42.712  29.089  26.482  1.00  0.00     0.029 A 
ATOM     64  C   UNL A   1      42.824  29.147  27.873  1.00  0.00     0.049 A 
ATOM     65  H   UNL A   1      41.319  29.956  29.109  1.00  0.00     0.167 HD
ATOM     66  C   UNL A   1      43.798  28.595  30.100  1.00  0.00     0.074 A 
ATOM     67  C   UNL A   1      42.610  28.433  30.943  1.00  0.00     0.031 C 
ATOM     68  C   UNL A   1      43.928  28.888  28.772  1.00  0.00     0.037 A 
BRANCH  55  69
ATOM     69  C   UNL A   1      38.526  28.803  28.788  1.00  0.00     0.057 A 
ATOM     70  C   UNL A   1      37.676  29.799  28.275  1.00  0.00     0.134 A 
ATOM     71  C   UNL A   1      38.536  28.692  30.193  1.00  0.00     0.134 A 
ATOM     72  F   UNL A   1      37.569  29.998  26.952  1.00  0.00    -0.206 F 
ATOM     73  C   UNL A   1      36.978  30.688  29.100  1.00  0.00     0.040 A 
ATOM     74  C   UNL A   1      37.804  29.542  31.026  1.00  0.00     0.040 A 
ATOM     75  F   UNL A   1      39.326  27.833  30.847  1.00  0.00    -0.206 F 
ATOM     76  C   UNL A   1      37.052  30.570  30.481  1.00  0.00     0.006 A 
ENDBRANCH  55  69
BRANCH  56  77
ATOM     77  C   UNL A   1      44.846  25.541  33.567  1.00  0.00     0.057 A 
ATOM     78  C   UNL A   1      46.134  25.432  34.110  1.00  0.00     0.134 A 
ATOM     79  C   UNL A   1      43.785  25.525  34.492  1.00  0.00     0.134 A 
ATOM     80  F   UNL A   1      47.212  25.483  33.315  1.00  0.00    -0.206 F 
ATOM     81  C   UNL A   1      46.356  25.330  35.492  1.00  0.00     0.040 A 
ATOM     82  C   UNL A   1      43.992  25.420  35.873  1.00  0.00     0.040 A 
ATOM     83  F   UNL A   1      42.519  25.706  34.091  1.00  0.00    -0.206 F 
ATOM     84  C   UNL A   1      45.283  25.335  36.379  1.00  0.00     0.006 A 
ENDBRANCH  56  77
BRANCH  68  85
ATOM     85  C   UNL A   1      45.285  28.719  28.138  1.00  0.00     0.057 A 
ATOM     86  C   UNL A   1      45.705  27.561  27.462  1.00  0.00     0.134 A 
ATOM     87  C   UNL A   1      46.131  29.827  28.058  1.00  0.00     0.134 A 
ATOM     88  F   UNL A   1      44.924  26.479  27.394  1.00  0.00    -0.206 F 
ATOM     89  C   UNL A   1      46.921  27.499  26.772  1.00  0.00     0.040 A 
ATOM     90  C   UNL A   1      47.335  29.790  27.349  1.00  0.00     0.040 A 
ATOM     91  F   UNL A   1      45.771  30.990  28.624  1.00  0.00    -0.206 F 
ATOM     92  C   UNL A   1      47.739  28.621  26.710  1.00  0.00     0.006 A 
ENDBRANCH  68  85
ENDBRANCH  42  43
ENDBRANCH  34  37
ENDBRANCH  32  33
ENDBRANCH  31  32
ENDBRANCH  30  31
ENDBRANCH   3  30
TORSDOF 15
ENDMDL
