MODEL 1
REMARK VINA RESULT:     -11.3      0.000      0.000
REMARK SMILES O=C(C[C@@H]1C(=O)NC(=S)N1c1ccccc1)NCCCNC(=O)c1ccc(-c2c3nc(c(-c4c(F)cccc4F)c4ccc([nH]4)c(-c4c(F)cccc4F)c4nc(c(-c5c(F)cccc5F)c5ccc2[nH]5)C=C4)C=C3)cc1
REMARK SMILES IDX 19 1 18 2 17 3 1 4 2 5 3 7 4 8 5 9 10 10 6 11 7 12 8 13 9 15
REMARK SMILES IDX 11 16 12 17 16 18 13 19 15 20 14 21 20 22 21 23 22 24 23 26
REMARK SMILES IDX 24 27 25 28 77 29 26 30 76 31 27 32 28 33 29 34 70 35 30 36
REMARK SMILES IDX 75 37 69 38 71 39 31 40 74 41 68 42 67 43 32 45 58 46 41 47
REMARK SMILES IDX 57 48 42 49 45 50 56 51 72 52 43 53 44 54 55 56 73 57 46 58
REMARK SMILES IDX 33 59 34 60 39 61 35 62 36 63 38 64 40 65 37 66 59 67 60 68
REMARK SMILES IDX 65 69 61 70 62 71 64 72 66 73 63 74 47 75 48 76 53 77 49 78
REMARK SMILES IDX 50 79 52 80 54 81 51 82
REMARK H PARENT 17 6 7 14 21 25 71 44 45 55
REMARK Flexibility Score: inf
ROOT
ATOM      1  C   UNL A   1      31.405  31.283  26.495  1.00  0.00     0.042 C 
ENDROOT
BRANCH   1   2
ATOM      2  C   UNL A   1      31.652  30.221  25.430  1.00  0.00     0.117 C 
BRANCH   2   3
ATOM      3  N   UNL A   1      32.269  29.034  25.988  1.00  0.00    -0.356 N 
ATOM      4  O   UNL A   1      33.657  28.550  24.223  1.00  0.00    -0.275 OA
ATOM      5  C   UNL A   1      33.211  28.279  25.332  1.00  0.00     0.222 C 
ATOM      6  H   UNL A   1      31.996  28.752  26.891  1.00  0.00     0.163 HD
BRANCH   5   7
ATOM      7  C   UNL A   1      33.629  27.030  26.081  1.00  0.00     0.135 C 
BRANCH   7   8
ATOM      8  C   UNL A   1      32.938  25.729  25.685  1.00  0.00     0.188 C 
ATOM      9  C   UNL A   1      31.611  25.509  26.412  1.00  0.00     0.249 C 
ATOM     10  N   UNL A   1      33.623  24.474  26.011  1.00  0.00    -0.306 N 
ATOM     11  O   UNL A   1      30.655  26.268  26.377  1.00  0.00    -0.272 OA
ATOM     12  N   UNL A   1      31.665  24.338  27.095  1.00  0.00    -0.301 N 
ATOM     13  C   UNL A   1      32.828  23.675  26.848  1.00  0.00     0.180 C 
ATOM     14  H   UNL A   1      30.954  24.009  27.691  1.00  0.00     0.172 HD
ATOM     15  S   UNL A   1      33.138  22.181  27.504  1.00  0.00    -0.040 S 
BRANCH  10  16
ATOM     16  C   UNL A   1      34.651  23.990  25.160  1.00  0.00     0.044 A 
ATOM     17  C   UNL A   1      35.979  23.933  25.603  1.00  0.00     0.026 A 
ATOM     18  C   UNL A   1      34.350  23.528  23.877  1.00  0.00     0.026 A 
ATOM     19  C   UNL A   1      36.986  23.431  24.774  1.00  0.00     0.002 A 
ATOM     20  C   UNL A   1      35.357  23.030  23.045  1.00  0.00     0.002 A 
ATOM     21  C   UNL A   1      36.675  22.981  23.493  1.00  0.00     0.000 A 
ENDBRANCH  10  16
ENDBRANCH   7   8
ENDBRANCH   5   7
ENDBRANCH   2   3
ENDBRANCH   1   2
BRANCH   1  22
ATOM     22  C   UNL A   1      32.650  32.047  26.942  1.00  0.00     0.118 C 
BRANCH  22  23
ATOM     23  N   UNL A   1      32.372  33.406  27.379  1.00  0.00    -0.352 N 
ATOM     24  C   UNL A   1      33.054  34.206  28.265  1.00  0.00     0.251 C 
ATOM     25  H   UNL A   1      31.572  33.816  26.978  1.00  0.00     0.163 HD
ATOM     26  O   UNL A   1      32.573  35.281  28.611  1.00  0.00    -0.269 OA
BRANCH  24  27
ATOM     27  C   UNL A   1      34.351  33.771  28.828  1.00  0.00     0.039 A 
ATOM     28  C   UNL A   1      34.352  32.990  29.989  1.00  0.00     0.014 A 
ATOM     29  C   UNL A   1      35.563  34.140  28.239  1.00  0.00     0.014 A 
ATOM     30  C   UNL A   1      35.560  32.521  30.511  1.00  0.00     0.010 A 
ATOM     31  C   UNL A   1      36.760  33.605  28.713  1.00  0.00     0.010 A 
ATOM     32  C   UNL A   1      36.772  32.789  29.855  1.00  0.00    -0.014 A 
BRANCH  32  33
ATOM     33  C   UNL A   1      38.055  32.216  30.344  1.00  0.00     0.031 A 
ATOM     34  C   UNL A   1      38.576  30.921  29.781  1.00  0.00     0.074 A 
ATOM     35  C   UNL A   1      38.726  32.833  31.336  1.00  0.00     0.049 A 
ATOM     36  N   UNL A   1      39.645  30.243  30.120  1.00  0.00    -0.248 NA
ATOM     37  C   UNL A   1      37.780  30.291  28.717  1.00  0.00     0.031 C 
ATOM     38  C   UNL A   1      38.306  34.068  32.001  1.00  0.00     0.029 A 
ATOM     39  N   UNL A   1      39.899  32.501  31.967  1.00  0.00    -0.354 N 
ATOM     40  C   UNL A   1      39.643  29.107  29.320  1.00  0.00     0.074 A 
ATOM     41  C   UNL A   1      38.437  29.157  28.521  1.00  0.00     0.031 C 
ATOM     42  C   UNL A   1      39.220  34.404  32.925  1.00  0.00     0.029 A 
ATOM     43  C   UNL A   1      40.267  33.388  32.950  1.00  0.00     0.049 A 
ATOM     44  H   UNL A   1      40.427  31.703  31.737  1.00  0.00     0.167 HD
ATOM     45  C   UNL A   1      40.571  28.124  29.239  1.00  0.00     0.037 A 
ATOM     46  C   UNL A   1      41.325  33.381  33.784  1.00  0.00     0.037 A 
ATOM     47  C   UNL A   1      41.778  28.081  30.023  1.00  0.00     0.049 A 
ATOM     48  C   UNL A   1      42.330  32.267  33.688  1.00  0.00     0.074 A 
ATOM     49  C   UNL A   1      42.805  27.154  29.975  1.00  0.00     0.029 A 
ATOM     50  N   UNL A   1      42.119  29.003  31.002  1.00  0.00    -0.354 N 
ATOM     51  N   UNL A   1      42.350  31.236  32.878  1.00  0.00    -0.248 NA
ATOM     52  C   UNL A   1      43.468  32.321  34.617  1.00  0.00     0.031 C 
ATOM     53  C   UNL A   1      43.740  27.485  30.961  1.00  0.00     0.029 A 
ATOM     54  C   UNL A   1      43.327  28.652  31.583  1.00  0.00     0.049 A 
ATOM     55  H   UNL A   1      41.582  29.790  31.248  1.00  0.00     0.167 HD
ATOM     56  C   UNL A   1      43.513  30.538  33.178  1.00  0.00     0.074 A 
ATOM     57  C   UNL A   1      44.180  31.272  34.233  1.00  0.00     0.031 C 
ATOM     58  C   UNL A   1      43.987  29.393  32.628  1.00  0.00     0.037 A 
BRANCH  45  59
ATOM     59  C   UNL A   1      40.316  27.007  28.266  1.00  0.00     0.057 A 
ATOM     60  C   UNL A   1      40.907  26.982  26.995  1.00  0.00     0.134 A 
ATOM     61  C   UNL A   1      39.498  25.924  28.616  1.00  0.00     0.134 A 
ATOM     62  F   UNL A   1      41.694  27.991  26.591  1.00  0.00    -0.206 F 
ATOM     63  C   UNL A   1      40.673  25.937  26.100  1.00  0.00     0.040 A 
ATOM     64  C   UNL A   1      39.281  24.859  27.740  1.00  0.00     0.040 A 
ATOM     65  F   UNL A   1      38.905  25.879  29.818  1.00  0.00    -0.206 F 
ATOM     66  C   UNL A   1      39.862  24.867  26.474  1.00  0.00     0.006 A 
ENDBRANCH  45  59
BRANCH  46  67
ATOM     67  C   UNL A   1      41.499  34.474  34.775  1.00  0.00     0.057 A 
ATOM     68  C   UNL A   1      42.184  35.650  34.441  1.00  0.00     0.134 A 
ATOM     69  C   UNL A   1      41.004  34.367  36.080  1.00  0.00     0.134 A 
ATOM     70  F   UNL A   1      42.701  35.805  33.214  1.00  0.00    -0.206 F 
ATOM     71  C   UNL A   1      42.391  36.667  35.375  1.00  0.00     0.040 A 
ATOM     72  C   UNL A   1      41.177  35.389  37.015  1.00  0.00     0.040 A 
ATOM     73  F   UNL A   1      40.332  33.271  36.461  1.00  0.00    -0.206 F 
ATOM     74  C   UNL A   1      41.881  36.539  36.666  1.00  0.00     0.006 A 
ENDBRANCH  46  67
BRANCH  58  75
ATOM     75  C   UNL A   1      45.310  28.886  33.126  1.00  0.00     0.057 A 
ATOM     76  C   UNL A   1      45.408  27.971  34.181  1.00  0.00     0.134 A 
ATOM     77  C   UNL A   1      46.503  29.301  32.519  1.00  0.00     0.134 A 
ATOM     78  F   UNL A   1      44.306  27.542  34.815  1.00  0.00    -0.206 F 
ATOM     79  C   UNL A   1      46.645  27.509  34.635  1.00  0.00     0.040 A 
ATOM     80  C   UNL A   1      47.744  28.822  32.942  1.00  0.00     0.040 A 
ATOM     81  F   UNL A   1      46.483  30.168  31.496  1.00  0.00    -0.206 F 
ATOM     82  C   UNL A   1      47.817  27.930  34.010  1.00  0.00     0.006 A 
ENDBRANCH  58  75
ENDBRANCH  32  33
ENDBRANCH  24  27
ENDBRANCH  22  23
ENDBRANCH   1  22
TORSDOF 12
ENDMDL
MODEL 2
REMARK VINA RESULT:     -11.3      3.779      8.790
REMARK SMILES O=C(C[C@@H]1C(=O)NC(=S)N1c1ccccc1)NCCCNC(=O)c1ccc(-c2c3nc(c(-c4c(F)cccc4F)c4ccc([nH]4)c(-c4c(F)cccc4F)c4nc(c(-c5c(F)cccc5F)c5ccc2[nH]5)C=C4)C=C3)cc1
REMARK SMILES IDX 19 1 18 2 17 3 1 4 2 5 3 7 4 8 5 9 10 10 6 11 7 12 8 13 9 15
REMARK SMILES IDX 11 16 12 17 16 18 13 19 15 20 14 21 20 22 21 23 22 24 23 26
REMARK SMILES IDX 24 27 25 28 77 29 26 30 76 31 27 32 28 33 29 34 70 35 30 36
REMARK SMILES IDX 75 37 69 38 71 39 31 40 74 41 68 42 67 43 32 45 58 46 41 47
REMARK SMILES IDX 57 48 42 49 45 50 56 51 72 52 43 53 44 54 55 56 73 57 46 58
REMARK SMILES IDX 33 59 34 60 39 61 35 62 36 63 38 64 40 65 37 66 59 67 60 68
REMARK SMILES IDX 65 69 61 70 62 71 64 72 66 73 63 74 47 75 48 76 53 77 49 78
REMARK SMILES IDX 50 79 52 80 54 81 51 82
REMARK H PARENT 17 6 7 14 21 25 71 44 45 55
REMARK Flexibility Score: inf
ROOT
ATOM      1  C   UNL A   1      37.463  20.178  24.698  1.00  0.00     0.042 C 
ENDROOT
BRANCH   1   2
ATOM      2  C   UNL A   1      36.094  20.711  25.107  1.00  0.00     0.117 C 
BRANCH   2   3
ATOM      3  N   UNL A   1      35.982  22.137  24.874  1.00  0.00    -0.356 N 
ATOM      4  O   UNL A   1      34.824  22.671  26.784  1.00  0.00    -0.275 OA
ATOM      5  C   UNL A   1      35.338  23.004  25.723  1.00  0.00     0.222 C 
ATOM      6  H   UNL A   1      36.392  22.506  24.058  1.00  0.00     0.163 HD
BRANCH   5   7
ATOM      7  C   UNL A   1      35.267  24.429  25.209  1.00  0.00     0.135 C 
BRANCH   7   8
ATOM      8  C   UNL A   1      33.989  24.832  24.479  1.00  0.00     0.188 C 
ATOM      9  C   UNL A   1      34.015  24.488  22.990  1.00  0.00     0.249 C 
ATOM     10  N   UNL A   1      33.674  26.262  24.410  1.00  0.00    -0.306 N 
ATOM     11  O   UNL A   1      34.171  23.369  22.528  1.00  0.00    -0.272 OA
ATOM     12  N   UNL A   1      33.834  25.622  22.267  1.00  0.00    -0.301 N 
ATOM     13  C   UNL A   1      33.587  26.688  23.076  1.00  0.00     0.180 C 
ATOM     14  H   UNL A   1      33.875  25.667  21.285  1.00  0.00     0.172 HD
ATOM     15  S   UNL A   1      33.265  28.196  22.458  1.00  0.00    -0.040 S 
BRANCH  10  16
ATOM     16  C   UNL A   1      33.045  26.900  25.512  1.00  0.00     0.044 A 
ATOM     17  C   UNL A   1      33.731  27.858  26.270  1.00  0.00     0.026 A 
ATOM     18  C   UNL A   1      31.719  26.608  25.837  1.00  0.00     0.026 A 
ATOM     19  C   UNL A   1      33.102  28.505  27.337  1.00  0.00     0.002 A 
ATOM     20  C   UNL A   1      31.090  27.251  26.908  1.00  0.00     0.002 A 
ATOM     21  C   UNL A   1      31.781  28.200  27.657  1.00  0.00     0.000 A 
ENDBRANCH  10  16
ENDBRANCH   7   8
ENDBRANCH   5   7
ENDBRANCH   2   3
ENDBRANCH   1   2
BRANCH   1  22
ATOM     22  C   UNL A   1      38.596  20.507  25.667  1.00  0.00     0.118 C 
BRANCH  22  23
ATOM     23  N   UNL A   1      39.648  19.502  25.695  1.00  0.00    -0.352 N 
ATOM     24  C   UNL A   1      40.973  19.619  26.041  1.00  0.00     0.251 C 
ATOM     25  H   UNL A   1      39.367  18.599  25.422  1.00  0.00     0.163 HD
ATOM     26  O   UNL A   1      41.737  18.676  25.859  1.00  0.00    -0.269 OA
BRANCH  24  27
ATOM     27  C   UNL A   1      41.495  20.882  26.609  1.00  0.00     0.039 A 
ATOM     28  C   UNL A   1      42.021  21.843  25.739  1.00  0.00     0.014 A 
ATOM     29  C   UNL A   1      41.488  21.122  27.985  1.00  0.00     0.014 A 
ATOM     30  C   UNL A   1      42.471  23.066  26.243  1.00  0.00     0.010 A 
ATOM     31  C   UNL A   1      41.860  22.372  28.477  1.00  0.00     0.010 A 
ATOM     32  C   UNL A   1      42.356  23.358  27.611  1.00  0.00    -0.014 A 
BRANCH  32  33
ATOM     33  C   UNL A   1      42.740  24.692  28.148  1.00  0.00     0.031 A 
ATOM     34  C   UNL A   1      41.699  25.758  28.359  1.00  0.00     0.074 A 
ATOM     35  C   UNL A   1      44.037  24.964  28.393  1.00  0.00     0.049 A 
ATOM     36  N   UNL A   1      41.852  26.994  28.767  1.00  0.00    -0.248 NA
ATOM     37  C   UNL A   1      40.308  25.398  28.048  1.00  0.00     0.031 C 
ATOM     38  C   UNL A   1      45.150  24.036  28.186  1.00  0.00     0.029 A 
ATOM     39  N   UNL A   1      44.641  26.104  28.862  1.00  0.00    -0.354 N 
ATOM     40  C   UNL A   1      40.582  27.559  28.751  1.00  0.00     0.074 A 
ATOM     41  C   UNL A   1      39.680  26.550  28.238  1.00  0.00     0.031 C 
ATOM     42  C   UNL A   1      46.296  24.633  28.552  1.00  0.00     0.029 A 
ATOM     43  C   UNL A   1      46.006  25.999  28.977  1.00  0.00     0.049 A 
ATOM     44  H   UNL A   1      44.142  26.921  29.094  1.00  0.00     0.167 HD
ATOM     45  C   UNL A   1      40.198  28.794  29.150  1.00  0.00     0.037 A 
ATOM     46  C   UNL A   1      46.924  26.902  29.373  1.00  0.00     0.037 A 
ATOM     47  C   UNL A   1      41.094  29.792  29.674  1.00  0.00     0.049 A 
ATOM     48  C   UNL A   1      46.474  28.274  29.791  1.00  0.00     0.074 A 
ATOM     49  C   UNL A   1      40.792  31.056  30.154  1.00  0.00     0.029 A 
ATOM     50  N   UNL A   1      42.469  29.644  29.783  1.00  0.00    -0.354 N 
ATOM     51  N   UNL A   1      45.260  28.770  29.835  1.00  0.00    -0.248 NA
ATOM     52  C   UNL A   1      47.521  29.210  30.222  1.00  0.00     0.031 C 
ATOM     53  C   UNL A   1      41.989  31.690  30.502  1.00  0.00     0.029 A 
ATOM     54  C   UNL A   1      43.031  30.802  30.297  1.00  0.00     0.049 A 
ATOM     55  H   UNL A   1      42.971  28.836  29.532  1.00  0.00     0.167 HD
ATOM     56  C   UNL A   1      45.395  30.061  30.329  1.00  0.00     0.074 A 
ATOM     57  C   UNL A   1      46.806  30.266  30.584  1.00  0.00     0.031 C 
ATOM     58  C   UNL A   1      44.436  30.993  30.553  1.00  0.00     0.037 A 
BRANCH  45  59
ATOM     59  C   UNL A   1      38.740  29.140  29.033  1.00  0.00     0.057 A 
ATOM     60  C   UNL A   1      37.870  29.063  30.129  1.00  0.00     0.134 A 
ATOM     61  C   UNL A   1      38.205  29.588  27.818  1.00  0.00     0.134 A 
ATOM     62  F   UNL A   1      38.313  28.632  31.320  1.00  0.00    -0.206 F 
ATOM     63  C   UNL A   1      36.519  29.393  30.016  1.00  0.00     0.040 A 
ATOM     64  C   UNL A   1      36.862  29.950  27.700  1.00  0.00     0.040 A 
ATOM     65  F   UNL A   1      38.981  29.693  26.729  1.00  0.00    -0.206 F 
ATOM     66  C   UNL A   1      36.012  29.845  28.799  1.00  0.00     0.006 A 
ENDBRANCH  45  59
BRANCH  46  67
ATOM     67  C   UNL A   1      48.363  26.534  29.409  1.00  0.00     0.057 A 
ATOM     68  C   UNL A   1      49.203  26.795  28.319  1.00  0.00     0.134 A 
ATOM     69  C   UNL A   1      48.930  25.899  30.521  1.00  0.00     0.134 A 
ATOM     70  F   UNL A   1      48.716  27.381  27.216  1.00  0.00    -0.206 F 
ATOM     71  C   UNL A   1      50.547  26.417  28.324  1.00  0.00     0.040 A 
ATOM     72  C   UNL A   1      50.279  25.543  30.551  1.00  0.00     0.040 A 
ATOM     73  F   UNL A   1      48.182  25.628  31.600  1.00  0.00    -0.206 F 
ATOM     74  C   UNL A   1      51.090  25.793  29.446  1.00  0.00     0.006 A 
ENDBRANCH  46  67
BRANCH  58  75
ATOM     75  C   UNL A   1      44.875  32.305  31.141  1.00  0.00     0.057 A 
ATOM     76  C   UNL A   1      44.960  32.510  32.523  1.00  0.00     0.134 A 
ATOM     77  C   UNL A   1      45.244  33.369  30.306  1.00  0.00     0.134 A 
ATOM     78  F   UNL A   1      44.610  31.537  33.378  1.00  0.00    -0.206 F 
ATOM     79  C   UNL A   1      45.367  33.734  33.056  1.00  0.00     0.040 A 
ATOM     80  C   UNL A   1      45.684  34.586  30.827  1.00  0.00     0.040 A 
ATOM     81  F   UNL A   1      45.197  33.238  28.972  1.00  0.00    -0.206 F 
ATOM     82  C   UNL A   1      45.737  34.775  32.206  1.00  0.00     0.006 A 
ENDBRANCH  58  75
ENDBRANCH  32  33
ENDBRANCH  24  27
ENDBRANCH  22  23
ENDBRANCH   1  22
TORSDOF 12
ENDMDL
MODEL 3
REMARK VINA RESULT:     -11.2      0.476      6.399
REMARK SMILES O=C(C[C@@H]1C(=O)NC(=S)N1c1ccccc1)NCCCNC(=O)c1ccc(-c2c3nc(c(-c4c(F)cccc4F)c4ccc([nH]4)c(-c4c(F)cccc4F)c4nc(c(-c5c(F)cccc5F)c5ccc2[nH]5)C=C4)C=C3)cc1
REMARK SMILES IDX 19 1 18 2 17 3 1 4 2 5 3 7 4 8 5 9 10 10 6 11 7 12 8 13 9 15
REMARK SMILES IDX 11 16 12 17 16 18 13 19 15 20 14 21 20 22 21 23 22 24 23 26
REMARK SMILES IDX 24 27 25 28 77 29 26 30 76 31 27 32 28 33 29 34 70 35 30 36
REMARK SMILES IDX 75 37 69 38 71 39 31 40 74 41 68 42 67 43 32 45 58 46 41 47
REMARK SMILES IDX 57 48 42 49 45 50 56 51 72 52 43 53 44 54 55 56 73 57 46 58
REMARK SMILES IDX 33 59 34 60 39 61 35 62 36 63 38 64 40 65 37 66 59 67 60 68
REMARK SMILES IDX 65 69 61 70 62 71 64 72 66 73 63 74 47 75 48 76 53 77 49 78
REMARK SMILES IDX 50 79 52 80 54 81 51 82
REMARK H PARENT 17 6 7 14 21 25 71 44 45 55
REMARK Flexibility Score: inf
ROOT
ATOM      1  C   UNL A   1      31.298  31.429  26.488  1.00  0.00     0.042 C 
ENDROOT
BRANCH   1   2
ATOM      2  C   UNL A   1      31.457  30.360  25.413  1.00  0.00     0.117 C 
BRANCH   2   3
ATOM      3  N   UNL A   1      32.134  29.184  25.920  1.00  0.00    -0.356 N 
ATOM      4  O   UNL A   1      33.373  28.710  24.046  1.00  0.00    -0.275 OA
ATOM      5  C   UNL A   1      33.027  28.438  25.189  1.00  0.00     0.222 C 
ATOM      6  H   UNL A   1      31.942  28.903  26.844  1.00  0.00     0.163 HD
BRANCH   5   7
ATOM      7  C   UNL A   1      33.523  27.198  25.905  1.00  0.00     0.135 C 
BRANCH   7   8
ATOM      8  C   UNL A   1      32.855  25.878  25.533  1.00  0.00     0.188 C 
ATOM      9  C   UNL A   1      31.503  25.675  26.218  1.00  0.00     0.249 C 
ATOM     10  N   UNL A   1      33.535  24.641  25.932  1.00  0.00    -0.306 N 
ATOM     11  O   UNL A   1      30.545  26.426  26.119  1.00  0.00    -0.272 OA
ATOM     12  N   UNL A   1      31.538  24.531  26.946  1.00  0.00    -0.301 N 
ATOM     13  C   UNL A   1      32.713  23.869  26.767  1.00  0.00     0.180 C 
ATOM     14  H   UNL A   1      30.807  24.220  27.528  1.00  0.00     0.172 HD
ATOM     15  S   UNL A   1      33.008  22.403  27.491  1.00  0.00    -0.040 S 
BRANCH  10  16
ATOM     16  C   UNL A   1      34.597  24.133  25.138  1.00  0.00     0.044 A 
ATOM     17  C   UNL A   1      35.909  24.114  25.627  1.00  0.00     0.026 A 
ATOM     18  C   UNL A   1      34.345  23.610  23.868  1.00  0.00     0.026 A 
ATOM     19  C   UNL A   1      36.950  23.589  24.856  1.00  0.00     0.002 A 
ATOM     20  C   UNL A   1      35.385  23.087  23.093  1.00  0.00     0.002 A 
ATOM     21  C   UNL A   1      36.687  23.077  23.587  1.00  0.00     0.000 A 
ENDBRANCH  10  16
ENDBRANCH   7   8
ENDBRANCH   5   7
ENDBRANCH   2   3
ENDBRANCH   1   2
BRANCH   1  22
ATOM     22  C   UNL A   1      32.577  32.188  26.834  1.00  0.00     0.118 C 
BRANCH  22  23
ATOM     23  N   UNL A   1      32.337  33.526  27.353  1.00  0.00    -0.352 N 
ATOM     24  C   UNL A   1      33.054  34.261  28.267  1.00  0.00     0.251 C 
ATOM     25  H   UNL A   1      31.536  33.973  26.995  1.00  0.00     0.163 HD
ATOM     26  O   UNL A   1      32.603  35.324  28.684  1.00  0.00    -0.269 OA
BRANCH  24  27
ATOM     27  C   UNL A   1      34.356  33.771  28.773  1.00  0.00     0.039 A 
ATOM     28  C   UNL A   1      34.379  33.029  29.958  1.00  0.00     0.014 A 
ATOM     29  C   UNL A   1      35.551  34.049  28.105  1.00  0.00     0.014 A 
ATOM     30  C   UNL A   1      35.586  32.507  30.430  1.00  0.00     0.010 A 
ATOM     31  C   UNL A   1      36.741  33.462  28.532  1.00  0.00     0.010 A 
ATOM     32  C   UNL A   1      36.772  32.684  29.700  1.00  0.00    -0.014 A 
BRANCH  32  33
ATOM     33  C   UNL A   1      38.047  32.054  30.138  1.00  0.00     0.031 A 
ATOM     34  C   UNL A   1      38.949  32.756  31.117  1.00  0.00     0.074 A 
ATOM     35  C   UNL A   1      38.422  30.872  29.610  1.00  0.00     0.049 A 
ATOM     36  N   UNL A   1      40.120  32.387  31.573  1.00  0.00    -0.248 NA
ATOM     37  C   UNL A   1      38.486  34.053  31.633  1.00  0.00     0.031 C 
ATOM     38  C   UNL A   1      37.663  30.110  28.617  1.00  0.00     0.029 A 
ATOM     39  N   UNL A   1      39.541  30.108  29.828  1.00  0.00    -0.354 N 
ATOM     40  C   UNL A   1      40.537  33.409  32.418  1.00  0.00     0.074 A 
ATOM     41  C   UNL A   1      39.520  34.438  32.366  1.00  0.00     0.031 C 
ATOM     42  C   UNL A   1      38.324  28.976  28.332  1.00  0.00     0.029 A 
ATOM     43  C   UNL A   1      39.571  28.950  29.089  1.00  0.00     0.049 A 
ATOM     44  H   UNL A   1      40.255  30.364  30.456  1.00  0.00     0.167 HD
ATOM     45  C   UNL A   1      41.651  33.474  33.185  1.00  0.00     0.037 A 
ATOM     46  C   UNL A   1      40.503  27.979  29.019  1.00  0.00     0.037 A 
ATOM     47  C   UNL A   1      42.654  32.443  33.247  1.00  0.00     0.049 A 
ATOM     48  C   UNL A   1      41.740  28.085  29.866  1.00  0.00     0.074 A 
ATOM     49  C   UNL A   1      43.793  32.394  34.035  1.00  0.00     0.029 A 
ATOM     50  N   UNL A   1      42.645  31.282  32.489  1.00  0.00    -0.354 N 
ATOM     51  N   UNL A   1      42.087  29.025  30.713  1.00  0.00    -0.248 NA
ATOM     52  C   UNL A   1      42.714  26.990  29.755  1.00  0.00     0.031 C 
ATOM     53  C   UNL A   1      44.498  31.230  33.714  1.00  0.00     0.029 A 
ATOM     54  C   UNL A   1      43.770  30.523  32.771  1.00  0.00     0.049 A 
ATOM     55  H   UNL A   1      41.943  31.033  31.846  1.00  0.00     0.167 HD
ATOM     56  C   UNL A   1      43.299  28.620  31.256  1.00  0.00     0.074 A 
ATOM     57  C   UNL A   1      43.619  27.341  30.656  1.00  0.00     0.031 C 
ATOM     58  C   UNL A   1      44.076  29.248  32.172  1.00  0.00     0.037 A 
BRANCH  45  59
ATOM     59  C   UNL A   1      41.846  34.707  34.022  1.00  0.00     0.057 A 
ATOM     60  C   UNL A   1      41.434  34.766  35.361  1.00  0.00     0.134 A 
ATOM     61  C   UNL A   1      42.485  35.837  33.496  1.00  0.00     0.134 A 
ATOM     62  F   UNL A   1      40.807  33.723  35.927  1.00  0.00    -0.206 F 
ATOM     63  C   UNL A   1      41.625  35.912  36.135  1.00  0.00     0.040 A 
ATOM     64  C   UNL A   1      42.709  36.977  34.270  1.00  0.00     0.040 A 
ATOM     65  F   UNL A   1      42.911  35.848  32.224  1.00  0.00    -0.206 F 
ATOM     66  C   UNL A   1      42.272  37.020  35.592  1.00  0.00     0.006 A 
ENDBRANCH  45  59
BRANCH  46  67
ATOM     67  C   UNL A   1      40.295  26.810  28.126  1.00  0.00     0.057 A 
ATOM     68  C   UNL A   1      39.527  25.713  28.538  1.00  0.00     0.134 A 
ATOM     69  C   UNL A   1      40.870  26.751  26.851  1.00  0.00     0.134 A 
ATOM     70  F   UNL A   1      38.967  25.701  29.756  1.00  0.00    -0.206 F 
ATOM     71  C   UNL A   1      39.359  24.591  27.725  1.00  0.00     0.040 A 
ATOM     72  C   UNL A   1      40.685  25.647  26.015  1.00  0.00     0.040 A 
ATOM     73  F   UNL A   1      41.610  27.771  26.393  1.00  0.00    -0.206 F 
ATOM     74  C   UNL A   1      39.936  24.559  26.456  1.00  0.00     0.006 A 
ENDBRANCH  46  67
BRANCH  58  75
ATOM     75  C   UNL A   1      45.328  28.544  32.614  1.00  0.00     0.057 A 
ATOM     76  C   UNL A   1      45.340  27.654  33.695  1.00  0.00     0.134 A 
ATOM     77  C   UNL A   1      46.533  28.739  31.925  1.00  0.00     0.134 A 
ATOM     78  F   UNL A   1      44.224  27.431  34.405  1.00  0.00    -0.206 F 
ATOM     79  C   UNL A   1      46.511  27.008  34.096  1.00  0.00     0.040 A 
ATOM     80  C   UNL A   1      47.702  28.073  32.295  1.00  0.00     0.040 A 
ATOM     81  F   UNL A   1      46.591  29.569  30.873  1.00  0.00    -0.206 F 
ATOM     82  C   UNL A   1      47.695  27.212  33.390  1.00  0.00     0.006 A 
ENDBRANCH  58  75
ENDBRANCH  32  33
ENDBRANCH  24  27
ENDBRANCH  22  23
ENDBRANCH   1  22
TORSDOF 12
ENDMDL
