MODEL 1
REMARK VINA RESULT:     -14.2      0.000      0.000
REMARK SMILES C[C@]12CC[C@H]3[C@@H](CCC4=CC(=O)C=C[C@@]43C)[C@@H]1CC[C@H]2O[C@@H]1O[C@H](C(=O)NCCCNC(=O)c2ccc(-c3c4nc(c(-c5c(F)cccc5F)c5ccc([nH]5)c(-c5c(F)cccc5F)c5nc(c(-c6c(F)cccc6F)c6ccc3[nH]6)C=C5)C=C4)cc2)[C@@H](O)[C@H](O)[C@H]1O
REMARK SMILES IDX 29 1 28 2 27 3 25 4 26 5 24 7 22 8 23 9 92 10 90 11 88 12
REMARK SMILES IDX 21 13 20 14 1 15 2 16 3 17 17 18 4 19 6 20 18 21 19 22 5 23
REMARK SMILES IDX 7 24 15 25 8 26 9 27 14 28 16 29 10 30 13 31 11 32 12 33
REMARK SMILES IDX 93 34 91 36 89 38 30 40 31 41 32 42 33 44 34 45 35 46 87 47
REMARK SMILES IDX 36 48 86 49 37 50 38 51 39 52 80 53 40 54 85 55 79 56 81 57
REMARK SMILES IDX 41 58 84 59 78 60 77 61 42 63 68 64 51 65 67 66 52 67 55 68
REMARK SMILES IDX 66 69 82 70 53 71 54 72 65 74 83 75 56 76 43 77 44 78 49 79
REMARK SMILES IDX 45 80 46 81 48 82 50 83 47 84 69 85 70 86 75 87 71 88 72 89
REMARK SMILES IDX 74 90 76 91 73 92 57 93 58 94 63 95 59 96 60 97 62 98 64 99
REMARK SMILES IDX 61 100
REMARK H PARENT 27 6 93 35 91 37 89 39 31 43 81 62 55 73
REMARK Flexibility Score: inf
ROOT
ATOM      1  C   UNL A   1      44.781  22.243  25.777  1.00  0.00     0.042 C 
ENDROOT
BRANCH   1   2
ATOM      2  C   UNL A   1      43.849  20.417  25.300  1.00  0.00     0.117 C 
BRANCH   2   3
ATOM      3  N   UNL A   1      42.549  19.678  25.588  1.00  0.00    -0.354 N 
ATOM      4  C   UNL A   1      41.280  20.089  25.934  1.00  0.00     0.252 C 
ATOM      5  O   UNL A   1      40.425  19.194  26.003  1.00  0.00    -0.272 OA
ATOM      6  H   UNL A   1      42.633  18.701  25.512  1.00  0.00     0.163 HD
BRANCH   4   7
ATOM      7  C   UNL A   1      40.856  21.561  26.236  1.00  0.00     0.241 C 
ATOM      8  C   UNL A   1      39.041  23.185  26.263  1.00  0.00     0.282 C 
ATOM      9  O   UNL A   1      39.472  21.837  26.034  1.00  0.00    -0.334 OA
ATOM     10  C   UNL A   1      39.640  23.870  27.525  1.00  0.00     0.202 C 
ATOM     11  C   UNL A   1      41.115  23.518  27.756  1.00  0.00     0.180 C 
ATOM     12  C   UNL A   1      41.343  22.009  27.617  1.00  0.00     0.184 C 
BRANCH   8  13
ATOM     13  O   UNL A   1      37.605  23.334  26.149  1.00  0.00    -0.346 OA
BRANCH  13  14
ATOM     14  C   UNL A   1      36.681  22.460  25.471  1.00  0.00     0.127 C 
ATOM     15  C   UNL A   1      34.276  21.659  25.095  1.00  0.00     0.014 C 
ATOM     16  C   UNL A   1      35.189  22.884  25.441  1.00  0.00    -0.003 C 
ATOM     17  C   UNL A   1      34.616  23.440  26.777  1.00  0.00     0.010 C 
ATOM     18  C   UNL A   1      35.301  23.852  24.236  1.00  0.00     0.001 C 
ATOM     19  C   UNL A   1      33.251  24.176  26.663  1.00  0.00     0.006 C 
ATOM     20  C   UNL A   1      34.033  24.589  23.964  1.00  0.00    -0.003 C 
ATOM     21  C   UNL A   1      36.002  23.046  23.152  1.00  0.00     0.007 C 
ATOM     22  C   UNL A   1      36.988  22.172  23.973  1.00  0.00     0.033 C 
ATOM     23  C   UNL A   1      33.437  25.336  25.689  1.00  0.00     0.006 C 
ATOM     24  C   UNL A   1      33.978  25.749  22.381  1.00  0.00     0.009 C 
ATOM     25  C   UNL A   1      32.148  26.808  25.711  1.00  0.00     0.010 C 
ATOM     26  C   UNL A   1      32.704  27.251  22.438  1.00  0.00     0.032 C 
ATOM     27  C   UNL A   1      31.983  27.846  24.118  1.00  0.00    -0.056 C 
ATOM     28  C   UNL A   1      32.377  27.799  26.872  1.00  0.00    -0.012 C 
ATOM     29  C   UNL A   1      30.719  26.385  26.231  1.00  0.00     0.021 C 
ATOM     30  C   UNL A   1      31.706  29.155  24.270  1.00  0.00     0.052 C 
ATOM     31  C   UNL A   1      32.039  29.101  26.822  1.00  0.00     0.048 C 
ATOM     32  C   UNL A   1      31.546  29.800  25.604  1.00  0.00     0.178 C 
ATOM     33  O   UNL A   1      31.117  30.948  25.685  1.00  0.00    -0.290 OA
ENDBRANCH  13  14
ENDBRANCH   8  13
BRANCH  10  34
ATOM     34  O   UNL A   1      39.461  25.294  27.505  1.00  0.00    -0.385 OA
ATOM     35  H   UNL A   1      38.893  25.559  28.246  1.00  0.00     0.211 HD
ENDBRANCH  10  34
BRANCH  11  36
ATOM     36  O   UNL A   1      41.543  23.926  29.068  1.00  0.00    -0.387 OA
ATOM     37  H   UNL A   1      40.796  24.322  29.543  1.00  0.00     0.211 HD
ENDBRANCH  11  36
BRANCH  12  38
ATOM     38  O   UNL A   1      42.714  21.669  27.829  1.00  0.00    -0.387 OA
ATOM     39  H   UNL A   1      42.776  20.746  28.124  1.00  0.00     0.211 HD
ENDBRANCH  12  38
ENDBRANCH   4   7
ENDBRANCH   2   3
ENDBRANCH   1   2
BRANCH   1  40
ATOM     40  C   UNL A   1      44.949  23.850  25.635  1.00  0.00     0.118 C 
BRANCH  40  41
ATOM     41  N   UNL A   1      45.937  24.651  24.974  1.00  0.00    -0.352 N 
ATOM     42  C   UNL A   1      45.901  26.041  25.043  1.00  0.00     0.251 C 
ATOM     43  H   UNL A   1      46.655  24.210  24.464  1.00  0.00     0.163 HD
ATOM     44  O   UNL A   1      46.473  26.737  24.209  1.00  0.00    -0.269 OA
BRANCH  42  45
ATOM     45  C   UNL A   1      45.117  26.673  26.142  1.00  0.00     0.039 A 
ATOM     46  C   UNL A   1      45.041  28.060  26.271  1.00  0.00     0.014 A 
ATOM     47  C   UNL A   1      44.392  25.852  27.014  1.00  0.00     0.014 A 
ATOM     48  C   UNL A   1      44.247  28.614  27.285  1.00  0.00     0.010 A 
ATOM     49  C   UNL A   1      43.501  26.406  27.925  1.00  0.00     0.010 A 
ATOM     50  C   UNL A   1      43.472  27.790  28.123  1.00  0.00    -0.014 A 
BRANCH  50  51
ATOM     51  C   UNL A   1      42.740  28.345  29.293  1.00  0.00     0.031 A 
ATOM     52  C   UNL A   1      43.394  28.305  30.655  1.00  0.00     0.074 A 
ATOM     53  C   UNL A   1      41.510  28.871  29.144  1.00  0.00     0.049 A 
ATOM     54  N   UNL A   1      42.947  28.743  31.805  1.00  0.00    -0.248 NA
ATOM     55  C   UNL A   1      44.712  27.652  30.746  1.00  0.00     0.031 C 
ATOM     56  C   UNL A   1      40.750  28.908  27.893  1.00  0.00     0.029 A 
ATOM     57  N   UNL A   1      40.683  29.486  30.051  1.00  0.00    -0.354 N 
ATOM     58  C   UNL A   1      43.919  28.402  32.742  1.00  0.00     0.074 A 
ATOM     59  C   UNL A   1      44.931  27.643  32.050  1.00  0.00     0.031 C 
ATOM     60  C   UNL A   1      39.594  29.561  28.098  1.00  0.00     0.029 A 
ATOM     61  C   UNL A   1      39.514  29.959  29.500  1.00  0.00     0.049 A 
ATOM     62  H   UNL A   1      40.905  29.582  31.005  1.00  0.00     0.167 HD
ATOM     63  C   UNL A   1      43.989  28.729  34.054  1.00  0.00     0.037 A 
ATOM     64  C   UNL A   1      38.503  30.647  30.065  1.00  0.00     0.037 A 
ATOM     65  C   UNL A   1      42.997  29.521  34.724  1.00  0.00     0.049 A 
ATOM     66  C   UNL A   1      38.605  31.012  31.522  1.00  0.00     0.074 A 
ATOM     67  C   UNL A   1      42.985  29.968  36.032  1.00  0.00     0.029 A 
ATOM     68  N   UNL A   1      41.834  29.990  34.127  1.00  0.00    -0.354 N 
ATOM     69  N   UNL A   1      39.567  30.749  32.376  1.00  0.00    -0.248 NA
ATOM     70  C   UNL A   1      37.489  31.778  32.094  1.00  0.00     0.031 C 
ATOM     71  C   UNL A   1      41.789  30.663  36.242  1.00  0.00     0.029 A 
ATOM     72  C   UNL A   1      41.086  30.701  35.048  1.00  0.00     0.049 A 
ATOM     73  H   UNL A   1      41.580  29.838  33.188  1.00  0.00     0.167 HD
ATOM     74  C   UNL A   1      39.187  31.340  33.574  1.00  0.00     0.074 A 
ATOM     75  C   UNL A   1      37.914  31.990  33.330  1.00  0.00     0.031 C 
ATOM     76  C   UNL A   1      39.826  31.343  34.771  1.00  0.00     0.037 A 
BRANCH  63  77
ATOM     77  C   UNL A   1      45.178  28.238  34.833  1.00  0.00     0.057 A 
ATOM     78  C   UNL A   1      46.364  28.980  34.928  1.00  0.00     0.134 A 
ATOM     79  C   UNL A   1      45.137  27.008  35.503  1.00  0.00     0.134 A 
ATOM     80  F   UNL A   1      46.481  30.159  34.299  1.00  0.00    -0.206 F 
ATOM     81  C   UNL A   1      47.474  28.502  35.628  1.00  0.00     0.040 A 
ATOM     82  C   UNL A   1      46.229  26.536  36.234  1.00  0.00     0.040 A 
ATOM     83  F   UNL A   1      44.034  26.245  35.460  1.00  0.00    -0.206 F 
ATOM     84  C   UNL A   1      47.406  27.279  36.289  1.00  0.00     0.006 A 
ENDBRANCH  63  77
BRANCH  64  85
ATOM     85  C   UNL A   1      37.334  31.067  29.248  1.00  0.00     0.057 A 
ATOM     86  C   UNL A   1      37.233  32.367  28.736  1.00  0.00     0.134 A 
ATOM     87  C   UNL A   1      36.288  30.183  28.956  1.00  0.00     0.134 A 
ATOM     88  F   UNL A   1      38.194  33.269  28.990  1.00  0.00    -0.206 F 
ATOM     89  C   UNL A   1      36.130  32.778  27.985  1.00  0.00     0.040 A 
ATOM     90  C   UNL A   1      35.192  30.572  28.183  1.00  0.00     0.040 A 
ATOM     91  F   UNL A   1      36.325  28.920  29.404  1.00  0.00    -0.206 F 
ATOM     92  C   UNL A   1      35.106  31.877  27.702  1.00  0.00     0.006 A 
ENDBRANCH  64  85
BRANCH  76  93
ATOM     93  C   UNL A   1      39.176  32.099  35.891  1.00  0.00     0.057 A 
ATOM     94  C   UNL A   1      38.275  31.488  36.772  1.00  0.00     0.134 A 
ATOM     95  C   UNL A   1      39.498  33.443  36.121  1.00  0.00     0.134 A 
ATOM     96  F   UNL A   1      37.919  30.206  36.600  1.00  0.00    -0.206 F 
ATOM     97  C   UNL A   1      37.695  32.196  37.825  1.00  0.00     0.040 A 
ATOM     98  C   UNL A   1      38.950  34.151  37.190  1.00  0.00     0.040 A 
ATOM     99  F   UNL A   1      40.366  34.082  35.322  1.00  0.00    -0.206 F 
ATOM    100  C   UNL A   1      38.039  33.529  38.041  1.00  0.00     0.006 A 
ENDBRANCH  76  93
ENDBRANCH  50  51
ENDBRANCH  42  45
ENDBRANCH  40  41
ENDBRANCH   1  40
TORSDOF 15
ENDMDL
MODEL 2
REMARK VINA RESULT:     -14.2      5.561     12.580
REMARK SMILES C[C@]12CC[C@H]3[C@@H](CCC4=CC(=O)C=C[C@@]43C)[C@@H]1CC[C@H]2O[C@@H]1O[C@H](C(=O)NCCCNC(=O)c2ccc(-c3c4nc(c(-c5c(F)cccc5F)c5ccc([nH]5)c(-c5c(F)cccc5F)c5nc(c(-c6c(F)cccc6F)c6ccc3[nH]6)C=C5)C=C4)cc2)[C@@H](O)[C@H](O)[C@H]1O
REMARK SMILES IDX 29 1 28 2 27 3 25 4 26 5 24 7 22 8 23 9 92 10 90 11 88 12
REMARK SMILES IDX 21 13 20 14 1 15 2 16 3 17 17 18 4 19 6 20 18 21 19 22 5 23
REMARK SMILES IDX 7 24 15 25 8 26 9 27 14 28 16 29 10 30 13 31 11 32 12 33
REMARK SMILES IDX 93 34 91 36 89 38 30 40 31 41 32 42 33 44 34 45 35 46 87 47
REMARK SMILES IDX 36 48 86 49 37 50 38 51 39 52 80 53 40 54 85 55 79 56 81 57
REMARK SMILES IDX 41 58 84 59 78 60 77 61 42 63 68 64 51 65 67 66 52 67 55 68
REMARK SMILES IDX 66 69 82 70 53 71 54 72 65 74 83 75 56 76 43 77 44 78 49 79
REMARK SMILES IDX 45 80 46 81 48 82 50 83 47 84 69 85 70 86 75 87 71 88 72 89
REMARK SMILES IDX 74 90 76 91 73 92 57 93 58 94 63 95 59 96 60 97 62 98 64 99
REMARK SMILES IDX 61 100
REMARK H PARENT 27 6 93 35 91 37 89 39 31 43 81 62 55 73
REMARK Flexibility Score: inf
ROOT
ATOM      1  C   UNL A   1      35.565  31.894  28.241  1.00  0.00     0.042 C 
ENDROOT
BRANCH   1   2
ATOM      2  C   UNL A   1      35.146  33.923  27.870  1.00  0.00     0.117 C 
BRANCH   2   3
ATOM      3  N   UNL A   1      33.984  34.900  27.995  1.00  0.00    -0.354 N 
ATOM      4  C   UNL A   1      33.371  35.515  29.064  1.00  0.00     0.252 C 
ATOM      5  O   UNL A   1      32.490  36.339  28.779  1.00  0.00    -0.272 OA
ATOM      6  H   UNL A   1      33.587  35.142  27.128  1.00  0.00     0.163 HD
BRANCH   4   7
ATOM      7  C   UNL A   1      33.698  35.253  30.568  1.00  0.00     0.241 C 
ATOM      8  C   UNL A   1      35.434  34.827  32.224  1.00  0.00     0.282 C 
ATOM      9  O   UNL A   1      35.085  35.106  30.860  1.00  0.00    -0.334 OA
ATOM     10  C   UNL A   1      34.649  35.644  33.291  1.00  0.00     0.202 C 
ATOM     11  C   UNL A   1      33.171  35.838  32.932  1.00  0.00     0.180 C 
ATOM     12  C   UNL A   1      33.018  36.284  31.474  1.00  0.00     0.184 C 
BRANCH   8  13
ATOM     13  O   UNL A   1      36.865  34.817  32.438  1.00  0.00    -0.346 OA
BRANCH  13  14
ATOM     14  C   UNL A   1      37.684  33.710  32.865  1.00  0.00     0.127 C 
ATOM     15  C   UNL A   1      39.491  31.972  32.336  1.00  0.00     0.014 C 
ATOM     16  C   UNL A   1      38.977  33.425  32.056  1.00  0.00    -0.003 C 
ATOM     17  C   UNL A   1      38.838  33.504  30.508  1.00  0.00     0.010 C 
ATOM     18  C   UNL A   1      39.868  34.476  32.765  1.00  0.00     0.001 C 
ATOM     19  C   UNL A   1      40.178  33.562  29.720  1.00  0.00     0.006 C 
ATOM     20  C   UNL A   1      41.221  34.597  32.151  1.00  0.00    -0.003 C 
ATOM     21  C   UNL A   1      39.688  34.202  34.251  1.00  0.00     0.007 C 
ATOM     22  C   UNL A   1      38.199  33.769  34.331  1.00  0.00     0.033 C 
ATOM     23  C   UNL A   1      40.942  34.789  30.207  1.00  0.00     0.006 C 
ATOM     24  C   UNL A   1      42.513  35.789  33.026  1.00  0.00     0.009 C 
ATOM     25  C   UNL A   1      42.376  35.518  29.092  1.00  0.00     0.010 C 
ATOM     26  C   UNL A   1      43.924  36.548  31.878  1.00  0.00     0.032 C 
ATOM     27  C   UNL A   1      43.719  36.554  29.967  1.00  0.00    -0.056 C 
ATOM     28  C   UNL A   1      41.856  36.362  27.909  1.00  0.00    -0.012 C 
ATOM     29  C   UNL A   1      43.049  34.444  28.152  1.00  0.00     0.021 C 
ATOM     30  C   UNL A   1      44.252  37.574  29.268  1.00  0.00     0.052 C 
ATOM     31  C   UNL A   1      42.547  37.372  27.350  1.00  0.00     0.048 C 
ATOM     32  C   UNL A   1      43.827  37.917  27.882  1.00  0.00     0.178 C 
ATOM     33  O   UNL A   1      44.465  38.735  27.225  1.00  0.00    -0.290 OA
ENDBRANCH  13  14
ENDBRANCH   8  13
BRANCH  10  34
ATOM     34  O   UNL A   1      34.778  35.081  34.605  1.00  0.00    -0.385 OA
ATOM     35  H   UNL A   1      34.673  34.117  34.555  1.00  0.00     0.211 HD
ENDBRANCH  10  34
BRANCH  11  36
ATOM     36  O   UNL A   1      32.560  36.828  33.780  1.00  0.00    -0.387 OA
ATOM     37  H   UNL A   1      33.251  37.328  34.241  1.00  0.00     0.211 HD
ENDBRANCH  11  36
BRANCH  12  38
ATOM     38  O   UNL A   1      31.645  36.467  31.127  1.00  0.00    -0.387 OA
ATOM     39  H   UNL A   1      31.259  35.613  30.874  1.00  0.00     0.211 HD
ENDBRANCH  12  38
ENDBRANCH   4   7
ENDBRANCH   2   3
ENDBRANCH   1   2
BRANCH   1  40
ATOM     40  C   UNL A   1      35.808  30.635  29.234  1.00  0.00     0.118 C 
BRANCH  40  41
ATOM     41  N   UNL A   1      35.730  30.517  30.660  1.00  0.00    -0.352 N 
ATOM     42  C   UNL A   1      36.662  29.769  31.373  1.00  0.00     0.251 C 
ATOM     43  H   UNL A   1      35.004  30.974  31.144  1.00  0.00     0.163 HD
ATOM     44  O   UNL A   1      36.415  29.344  32.498  1.00  0.00    -0.269 OA
BRANCH  42  45
ATOM     45  C   UNL A   1      37.969  29.465  30.723  1.00  0.00     0.039 A 
ATOM     46  C   UNL A   1      38.298  30.000  29.477  1.00  0.00     0.014 A 
ATOM     47  C   UNL A   1      38.902  28.684  31.415  1.00  0.00     0.014 A 
ATOM     48  C   UNL A   1      39.559  29.734  28.927  1.00  0.00     0.010 A 
ATOM     49  C   UNL A   1      40.196  28.540  30.930  1.00  0.00     0.010 A 
ATOM     50  C   UNL A   1      40.519  28.999  29.648  1.00  0.00    -0.014 A 
BRANCH  50  51
ATOM     51  C   UNL A   1      41.805  28.583  29.027  1.00  0.00     0.031 A 
ATOM     52  C   UNL A   1      42.935  29.583  28.939  1.00  0.00     0.074 A 
ATOM     53  C   UNL A   1      41.961  27.336  28.543  1.00  0.00     0.049 A 
ATOM     54  N   UNL A   1      44.142  29.434  28.453  1.00  0.00    -0.248 NA
ATOM     55  C   UNL A   1      42.662  30.946  29.428  1.00  0.00     0.031 C 
ATOM     56  C   UNL A   1      40.923  26.304  28.514  1.00  0.00     0.029 A 
ATOM     57  N   UNL A   1      43.057  26.719  27.993  1.00  0.00    -0.354 N 
ATOM     58  C   UNL A   1      44.751  30.681  28.567  1.00  0.00     0.074 A 
ATOM     59  C   UNL A   1      43.760  31.595  29.078  1.00  0.00     0.031 C 
ATOM     60  C   UNL A   1      41.446  25.167  28.024  1.00  0.00     0.029 A 
ATOM     61  C   UNL A   1      42.844  25.398  27.675  1.00  0.00     0.049 A 
ATOM     62  H   UNL A   1      43.914  27.178  27.841  1.00  0.00     0.167 HD
ATOM     63  C   UNL A   1      46.035  31.027  28.313  1.00  0.00     0.037 A 
ATOM     64  C   UNL A   1      43.689  24.479  27.170  1.00  0.00     0.037 A 
ATOM     65  C   UNL A   1      47.026  30.099  27.845  1.00  0.00     0.049 A 
ATOM     66  C   UNL A   1      45.117  24.880  26.906  1.00  0.00     0.074 A 
ATOM     67  C   UNL A   1      48.370  30.315  27.608  1.00  0.00     0.029 A 
ATOM     68  N   UNL A   1      46.772  28.767  27.545  1.00  0.00    -0.354 N 
ATOM     69  N   UNL A   1      45.698  26.043  27.092  1.00  0.00    -0.248 NA
ATOM     70  C   UNL A   1      46.010  23.842  26.372  1.00  0.00     0.031 C 
ATOM     71  C   UNL A   1      48.919  29.127  27.115  1.00  0.00     0.029 A 
ATOM     72  C   UNL A   1      47.930  28.155  27.103  1.00  0.00     0.049 A 
ATOM     73  H   UNL A   1      45.897  28.324  27.635  1.00  0.00     0.167 HD
ATOM     74  C   UNL A   1      47.027  25.869  26.727  1.00  0.00     0.074 A 
ATOM     75  C   UNL A   1      47.169  24.483  26.326  1.00  0.00     0.031 C 
ATOM     76  C   UNL A   1      48.040  26.771  26.718  1.00  0.00     0.037 A 
BRANCH  63  77
ATOM     77  C   UNL A   1      46.430  32.459  28.548  1.00  0.00     0.057 A 
ATOM     78  C   UNL A   1      46.823  32.926  29.811  1.00  0.00     0.134 A 
ATOM     79  C   UNL A   1      46.425  33.385  27.497  1.00  0.00     0.134 A 
ATOM     80  F   UNL A   1      46.837  32.099  30.867  1.00  0.00    -0.206 F 
ATOM     81  C   UNL A   1      47.159  34.264  30.027  1.00  0.00     0.040 A 
ATOM     82  C   UNL A   1      46.792  34.719  27.693  1.00  0.00     0.040 A 
ATOM     83  F   UNL A   1      46.065  33.011  26.260  1.00  0.00    -0.206 F 
ATOM     84  C   UNL A   1      47.151  35.163  28.964  1.00  0.00     0.006 A 
ENDBRANCH  63  77
BRANCH  64  85
ATOM     85  C   UNL A   1      43.224  23.089  26.921  1.00  0.00     0.057 A 
ATOM     86  C   UNL A   1      43.013  22.614  25.620  1.00  0.00     0.134 A 
ATOM     87  C   UNL A   1      42.980  22.198  27.974  1.00  0.00     0.134 A 
ATOM     88  F   UNL A   1      43.214  23.419  24.566  1.00  0.00    -0.206 F 
ATOM     89  C   UNL A   1      42.557  21.316  25.376  1.00  0.00     0.040 A 
ATOM     90  C   UNL A   1      42.551  20.890  27.744  1.00  0.00     0.040 A 
ATOM     91  F   UNL A   1      43.173  22.583  29.244  1.00  0.00    -0.206 F 
ATOM     92  C   UNL A   1      42.329  20.448  26.441  1.00  0.00     0.006 A 
ENDBRANCH  64  85
BRANCH  76  93
ATOM     93  C   UNL A   1      49.391  26.277  26.295  1.00  0.00     0.057 A 
ATOM     94  C   UNL A   1      49.888  26.496  25.004  1.00  0.00     0.134 A 
ATOM     95  C   UNL A   1      50.225  25.621  27.209  1.00  0.00     0.134 A 
ATOM     96  F   UNL A   1      49.135  27.111  24.080  1.00  0.00    -0.206 F 
ATOM     97  C   UNL A   1      51.158  26.053  24.629  1.00  0.00     0.040 A 
ATOM     98  C   UNL A   1      51.508  25.203  26.856  1.00  0.00     0.040 A 
ATOM     99  F   UNL A   1      49.814  25.393  28.466  1.00  0.00    -0.206 F 
ATOM    100  C   UNL A   1      51.974  25.412  25.560  1.00  0.00     0.006 A 
ENDBRANCH  76  93
ENDBRANCH  50  51
ENDBRANCH  42  45
ENDBRANCH  40  41
ENDBRANCH   1  40
TORSDOF 15
ENDMDL
MODEL 3
REMARK VINA RESULT:     -14.2      3.821     10.218
REMARK SMILES C[C@]12CC[C@H]3[C@@H](CCC4=CC(=O)C=C[C@@]43C)[C@@H]1CC[C@H]2O[C@@H]1O[C@H](C(=O)NCCCNC(=O)c2ccc(-c3c4nc(c(-c5c(F)cccc5F)c5ccc([nH]5)c(-c5c(F)cccc5F)c5nc(c(-c6c(F)cccc6F)c6ccc3[nH]6)C=C5)C=C4)cc2)[C@@H](O)[C@H](O)[C@H]1O
REMARK SMILES IDX 29 1 28 2 27 3 25 4 26 5 24 7 22 8 23 9 92 10 90 11 88 12
REMARK SMILES IDX 21 13 20 14 1 15 2 16 3 17 17 18 4 19 6 20 18 21 19 22 5 23
REMARK SMILES IDX 7 24 15 25 8 26 9 27 14 28 16 29 10 30 13 31 11 32 12 33
REMARK SMILES IDX 93 34 91 36 89 38 30 40 31 41 32 42 33 44 34 45 35 46 87 47
REMARK SMILES IDX 36 48 86 49 37 50 38 51 39 52 80 53 40 54 85 55 79 56 81 57
REMARK SMILES IDX 41 58 84 59 78 60 77 61 42 63 68 64 51 65 67 66 52 67 55 68
REMARK SMILES IDX 66 69 82 70 53 71 54 72 65 74 83 75 56 76 43 77 44 78 49 79
REMARK SMILES IDX 45 80 46 81 48 82 50 83 47 84 69 85 70 86 75 87 71 88 72 89
REMARK SMILES IDX 74 90 76 91 73 92 57 93 58 94 63 95 59 96 60 97 62 98 64 99
REMARK SMILES IDX 61 100
REMARK H PARENT 27 6 93 35 91 37 89 39 31 43 81 62 55 73
REMARK Flexibility Score: inf
ROOT
ATOM      1  C   UNL A   1      35.465  34.498  32.180  1.00  0.00     0.042 C 
ENDROOT
BRANCH   1   2
ATOM      2  C   UNL A   1      33.721  35.055  31.139  1.00  0.00     0.117 C 
BRANCH   2   3
ATOM      3  N   UNL A   1      33.127  34.933  29.742  1.00  0.00    -0.354 N 
ATOM      4  C   UNL A   1      33.278  34.021  28.722  1.00  0.00     0.252 C 
ATOM      5  O   UNL A   1      32.550  34.193  27.733  1.00  0.00    -0.272 OA
ATOM      6  H   UNL A   1      32.503  35.662  29.522  1.00  0.00     0.163 HD
BRANCH   4   7
ATOM      7  C   UNL A   1      34.274  32.819  28.723  1.00  0.00     0.241 C 
ATOM      8  C   UNL A   1      34.748  30.574  27.902  1.00  0.00     0.282 C 
ATOM      9  O   UNL A   1      33.883  31.719  27.905  1.00  0.00    -0.334 OA
ATOM     10  C   UNL A   1      36.271  30.892  27.842  1.00  0.00     0.202 C 
ATOM     11  C   UNL A   1      36.663  32.112  28.684  1.00  0.00     0.180 C 
ATOM     12  C   UNL A   1      35.705  33.280  28.431  1.00  0.00     0.184 C 
BRANCH   8  13
ATOM     13  O   UNL A   1      34.328  29.566  26.952  1.00  0.00    -0.346 OA
BRANCH  13  14
ATOM     14  C   UNL A   1      33.045  29.445  26.306  1.00  0.00     0.127 C 
ATOM     15  C   UNL A   1      31.619  28.507  24.396  1.00  0.00     0.014 C 
ATOM     16  C   UNL A   1      32.844  28.250  25.338  1.00  0.00    -0.003 C 
ATOM     17  C   UNL A   1      34.028  27.952  24.375  1.00  0.00     0.010 C 
ATOM     18  C   UNL A   1      32.500  27.196  26.421  1.00  0.00     0.001 C 
ATOM     19  C   UNL A   1      33.976  26.572  23.659  1.00  0.00     0.006 C 
ATOM     20  C   UNL A   1      32.354  25.820  25.866  1.00  0.00    -0.003 C 
ATOM     21  C   UNL A   1      31.402  27.839  27.257  1.00  0.00     0.007 C 
ATOM     22  C   UNL A   1      31.813  29.336  27.251  1.00  0.00     0.033 C 
ATOM     23  C   UNL A   1      33.942  25.497  24.741  1.00  0.00     0.006 C 
ATOM     24  C   UNL A   1      31.782  24.400  27.095  1.00  0.00     0.009 C 
ATOM     25  C   UNL A   1      34.437  23.663  24.271  1.00  0.00     0.010 C 
ATOM     26  C   UNL A   1      32.326  22.564  26.628  1.00  0.00     0.032 C 
ATOM     27  C   UNL A   1      33.756  22.266  25.379  1.00  0.00    -0.056 C 
ATOM     28  C   UNL A   1      35.962  23.452  24.168  1.00  0.00    -0.012 C 
ATOM     29  C   UNL A   1      34.192  23.315  22.751  1.00  0.00     0.021 C 
ATOM     30  C   UNL A   1      34.544  21.187  25.551  1.00  0.00     0.052 C 
ATOM     31  C   UNL A   1      36.572  22.276  24.400  1.00  0.00     0.048 C 
ATOM     32  C   UNL A   1      35.895  21.063  24.935  1.00  0.00     0.178 C 
ATOM     33  O   UNL A   1      36.493  19.991  24.972  1.00  0.00    -0.290 OA
ENDBRANCH  13  14
ENDBRANCH   8  13
BRANCH  10  34
ATOM     34  O   UNL A   1      37.074  29.756  28.196  1.00  0.00    -0.385 OA
ATOM     35  H   UNL A   1      37.522  29.928  29.039  1.00  0.00     0.211 HD
ENDBRANCH  10  34
BRANCH  11  36
ATOM     36  O   UNL A   1      38.001  32.542  28.376  1.00  0.00    -0.387 OA
ATOM     37  H   UNL A   1      38.548  32.493  29.176  1.00  0.00     0.211 HD
ENDBRANCH  11  36
BRANCH  12  38
ATOM     38  O   UNL A   1      36.060  34.422  29.211  1.00  0.00    -0.387 OA
ATOM     39  H   UNL A   1      36.343  34.136  30.094  1.00  0.00     0.211 HD
ENDBRANCH  12  38
ENDBRANCH   4   7
ENDBRANCH   2   3
ENDBRANCH   1   2
BRANCH   1  40
ATOM     40  C   UNL A   1      36.427  33.400  32.886  1.00  0.00     0.118 C 
BRANCH  40  41
ATOM     41  N   UNL A   1      36.663  33.083  34.263  1.00  0.00    -0.352 N 
ATOM     42  C   UNL A   1      37.484  32.020  34.627  1.00  0.00     0.251 C 
ATOM     43  H   UNL A   1      36.239  33.629  34.964  1.00  0.00     0.163 HD
ATOM     44  O   UNL A   1      37.403  31.501  35.738  1.00  0.00    -0.269 OA
BRANCH  42  45
ATOM     45  C   UNL A   1      38.450  31.497  33.620  1.00  0.00     0.039 A 
ATOM     46  C   UNL A   1      39.479  30.628  33.987  1.00  0.00     0.014 A 
ATOM     47  C   UNL A   1      38.272  31.835  32.274  1.00  0.00     0.014 A 
ATOM     48  C   UNL A   1      40.331  30.115  33.000  1.00  0.00     0.010 A 
ATOM     49  C   UNL A   1      39.030  31.217  31.286  1.00  0.00     0.010 A 
ATOM     50  C   UNL A   1      40.115  30.408  31.640  1.00  0.00    -0.014 A 
BRANCH  50  51
ATOM     51  C   UNL A   1      41.089  29.995  30.594  1.00  0.00     0.031 A 
ATOM     52  C   UNL A   1      42.217  30.933  30.230  1.00  0.00     0.074 A 
ATOM     53  C   UNL A   1      40.966  28.806  29.976  1.00  0.00     0.049 A 
ATOM     54  N   UNL A   1      43.184  30.773  29.362  1.00  0.00    -0.248 NA
ATOM     55  C   UNL A   1      42.242  32.243  30.903  1.00  0.00     0.031 C 
ATOM     56  C   UNL A   1      39.885  27.844  30.197  1.00  0.00     0.029 A 
ATOM     57  N   UNL A   1      41.765  28.195  29.041  1.00  0.00    -0.354 N 
ATOM     58  C   UNL A   1      43.909  31.961  29.381  1.00  0.00     0.074 A 
ATOM     59  C   UNL A   1      43.223  32.865  30.271  1.00  0.00     0.031 C 
ATOM     60  C   UNL A   1      40.116  26.744  29.461  1.00  0.00     0.029 A 
ATOM     61  C   UNL A   1      41.342  26.934  28.693  1.00  0.00     0.049 A 
ATOM     62  H   UNL A   1      42.566  28.619  28.658  1.00  0.00     0.167 HD
ATOM     63  C   UNL A   1      45.069  32.261  28.750  1.00  0.00     0.037 A 
ATOM     64  C   UNL A   1      41.892  26.033  27.856  1.00  0.00     0.037 A 
ATOM     65  C   UNL A   1      45.767  31.338  27.899  1.00  0.00     0.049 A 
ATOM     66  C   UNL A   1      43.188  26.380  27.174  1.00  0.00     0.074 A 
ATOM     67  C   UNL A   1      46.977  31.504  27.253  1.00  0.00     0.029 A 
ATOM     68  N   UNL A   1      45.310  30.067  27.581  1.00  0.00    -0.354 N 
ATOM     69  N   UNL A   1      43.902  27.478  27.263  1.00  0.00    -0.248 NA
ATOM     70  C   UNL A   1      43.763  25.362  26.284  1.00  0.00     0.031 C 
ATOM     71  C   UNL A   1      47.227  30.351  26.501  1.00  0.00     0.029 A 
ATOM     72  C   UNL A   1      46.203  29.445  26.727  1.00  0.00     0.049 A 
ATOM     73  H   UNL A   1      44.473  29.667  27.914  1.00  0.00     0.167 HD
ATOM     74  C   UNL A   1      45.021  27.273  26.465  1.00  0.00     0.074 A 
ATOM     75  C   UNL A   1      44.899  25.937  25.916  1.00  0.00     0.031 C 
ATOM     76  C   UNL A   1      46.055  28.111  26.205  1.00  0.00     0.037 A 
BRANCH  63  77
ATOM     77  C   UNL A   1      45.648  33.632  28.971  1.00  0.00     0.057 A 
ATOM     78  C   UNL A   1      45.341  34.714  28.134  1.00  0.00     0.134 A 
ATOM     79  C   UNL A   1      46.521  33.876  30.039  1.00  0.00     0.134 A 
ATOM     80  F   UNL A   1      44.523  34.550  27.083  1.00  0.00    -0.206 F 
ATOM     81  C   UNL A   1      45.907  35.976  28.328  1.00  0.00     0.040 A 
ATOM     82  C   UNL A   1      47.067  35.142  30.263  1.00  0.00     0.040 A 
ATOM     83  F   UNL A   1      46.858  32.890  30.884  1.00  0.00    -0.206 F 
ATOM     84  C   UNL A   1      46.768  36.193  29.400  1.00  0.00     0.006 A 
ENDBRANCH  63  77
BRANCH  64  85
ATOM     85  C   UNL A   1      41.246  24.710  27.649  1.00  0.00     0.057 A 
ATOM     86  C   UNL A   1      41.706  23.564  28.311  1.00  0.00     0.134 A 
ATOM     87  C   UNL A   1      40.153  24.554  26.787  1.00  0.00     0.134 A 
ATOM     88  F   UNL A   1      42.757  23.639  29.141  1.00  0.00    -0.206 F 
ATOM     89  C   UNL A   1      41.119  22.312  28.108  1.00  0.00     0.040 A 
ATOM     90  C   UNL A   1      39.539  23.315  26.596  1.00  0.00     0.040 A 
ATOM     91  F   UNL A   1      39.654  25.612  26.130  1.00  0.00    -0.206 F 
ATOM     92  C   UNL A   1      40.028  22.187  27.251  1.00  0.00     0.006 A 
ENDBRANCH  64  85
BRANCH  76  93
ATOM     93  C   UNL A   1      47.147  27.594  25.316  1.00  0.00     0.057 A 
ATOM     94  C   UNL A   1      47.154  27.831  23.936  1.00  0.00     0.134 A 
ATOM     95  C   UNL A   1      48.233  26.894  25.860  1.00  0.00     0.134 A 
ATOM     96  F   UNL A   1      46.139  28.487  23.354  1.00  0.00    -0.206 F 
ATOM     97  C   UNL A   1      48.188  27.365  23.124  1.00  0.00     0.040 A 
ATOM     98  C   UNL A   1      49.288  26.452  25.062  1.00  0.00     0.040 A 
ATOM     99  F   UNL A   1      48.294  26.647  27.177  1.00  0.00    -0.206 F 
ATOM    100  C   UNL A   1      49.263  26.681  23.689  1.00  0.00     0.006 A 
ENDBRANCH  76  93
ENDBRANCH  50  51
ENDBRANCH  42  45
ENDBRANCH  40  41
ENDBRANCH   1  40
TORSDOF 15
ENDMDL
