MODEL 1
REMARK VINA RESULT:     -11.4      0.000      0.000
REMARK SMILES O=C(NCCCNC(=O)[C@@H]1CCc2[nH]ncc2C1)c1ccc(-c2c3nc(c(-c4c(F)cccc4F)c4ccc([nH]4)c(-c4c(F)cccc4F)c4nc(c(-c5c(F)cccc5F)c5ccc2[nH]5)C=C4)C=C3)cc1
REMARK SMILES IDX 4 1 3 2 1 3 2 4 19 6 20 7 72 8 21 9 71 10 22 11 23 12 24 13
REMARK SMILES IDX 65 14 25 15 70 16 64 17 66 18 26 19 69 20 63 21 62 22 27 24
REMARK SMILES IDX 53 25 36 26 52 27 37 28 40 29 51 30 67 31 38 32 39 33 50 35
REMARK SMILES IDX 68 36 41 37 28 38 29 39 34 40 30 41 31 42 33 43 35 44 32 45
REMARK SMILES IDX 54 46 55 47 60 48 56 49 57 50 59 51 61 52 58 53 42 54 43 55
REMARK SMILES IDX 48 56 44 57 45 58 47 59 49 60 46 61 5 62 6 63 7 64 8 65 9 67
REMARK SMILES IDX 10 68 11 69 18 70 12 71 17 72 13 73 16 74 14 75 15 76
REMARK H PARENT 3 5 66 23 40 34 7 66 14 77
REMARK Flexibility Score: inf
ROOT
ATOM      1  C   UNL A   1      39.094  20.035  26.076  1.00  0.00     0.118 C 
ENDROOT
BRANCH   1   2
ATOM      2  N   UNL A   1      40.293  19.225  25.919  1.00  0.00    -0.352 N 
ATOM      3  O   UNL A   1      42.487  18.803  25.637  1.00  0.00    -0.269 OA
ATOM      4  C   UNL A   1      41.614  19.584  26.009  1.00  0.00     0.251 C 
ATOM      5  H   UNL A   1      40.132  18.274  25.716  1.00  0.00     0.163 HD
BRANCH   4   6
ATOM      6  C   UNL A   1      41.988  20.915  26.531  1.00  0.00     0.039 A 
ATOM      7  C   UNL A   1      42.059  21.151  27.906  1.00  0.00     0.014 A 
ATOM      8  C   UNL A   1      42.298  21.937  25.630  1.00  0.00     0.014 A 
ATOM      9  C   UNL A   1      42.285  22.437  28.377  1.00  0.00     0.010 A 
ATOM     10  C   UNL A   1      42.626  23.207  26.108  1.00  0.00     0.010 A 
ATOM     11  C   UNL A   1      42.592  23.475  27.486  1.00  0.00    -0.014 A 
BRANCH  11  12
ATOM     12  C   UNL A   1      42.938  24.816  28.014  1.00  0.00     0.031 A 
ATOM     13  C   UNL A   1      41.875  25.840  28.290  1.00  0.00     0.074 A 
ATOM     14  C   UNL A   1      44.233  25.106  28.248  1.00  0.00     0.049 A 
ATOM     15  N   UNL A   1      42.006  27.069  28.722  1.00  0.00    -0.248 NA
ATOM     16  C   UNL A   1      40.483  25.437  28.040  1.00  0.00     0.031 C 
ATOM     17  C   UNL A   1      45.356  24.192  28.015  1.00  0.00     0.029 A 
ATOM     18  N   UNL A   1      44.825  26.241  28.737  1.00  0.00    -0.354 N 
ATOM     19  C   UNL A   1      40.721  27.592  28.778  1.00  0.00     0.074 A 
ATOM     20  C   UNL A   1      39.825  26.557  28.306  1.00  0.00     0.031 C 
ATOM     21  C   UNL A   1      46.495  24.791  28.389  1.00  0.00     0.029 A 
ATOM     22  C   UNL A   1      46.194  26.150  28.821  1.00  0.00     0.049 A 
ATOM     23  H   UNL A   1      44.320  27.043  29.000  1.00  0.00     0.167 HD
ATOM     24  C   UNL A   1      40.326  28.821  29.191  1.00  0.00     0.037 A 
ATOM     25  C   UNL A   1      47.110  27.067  29.180  1.00  0.00     0.037 A 
ATOM     26  C   UNL A   1      41.227  29.845  29.662  1.00  0.00     0.049 A 
ATOM     27  C   UNL A   1      46.650  28.435  29.588  1.00  0.00     0.074 A 
ATOM     28  C   UNL A   1      40.923  31.110  30.132  1.00  0.00     0.029 A 
ATOM     29  N   UNL A   1      42.608  29.724  29.710  1.00  0.00    -0.354 N 
ATOM     30  N   UNL A   1      45.428  28.906  29.670  1.00  0.00    -0.248 NA
ATOM     31  C   UNL A   1      47.694  29.401  29.953  1.00  0.00     0.031 C 
ATOM     32  C   UNL A   1      42.122  31.774  30.410  1.00  0.00     0.029 A 
ATOM     33  C   UNL A   1      43.171  30.901  30.175  1.00  0.00     0.049 A 
ATOM     34  H   UNL A   1      43.114  28.919  29.451  1.00  0.00     0.167 HD
ATOM     35  C   UNL A   1      45.555  30.213  30.120  1.00  0.00     0.074 A 
ATOM     36  C   UNL A   1      46.972  30.455  30.306  1.00  0.00     0.031 C 
ATOM     37  C   UNL A   1      44.584  31.127  30.360  1.00  0.00     0.037 A 
BRANCH  24  38
ATOM     38  C   UNL A   1      38.858  29.138  29.127  1.00  0.00     0.057 A 
ATOM     39  C   UNL A   1      38.025  29.044  30.250  1.00  0.00     0.134 A 
ATOM     40  C   UNL A   1      38.275  29.574  27.929  1.00  0.00     0.134 A 
ATOM     41  F   UNL A   1      38.514  28.624  31.427  1.00  0.00    -0.206 F 
ATOM     42  C   UNL A   1      36.663  29.344  30.177  1.00  0.00     0.040 A 
ATOM     43  C   UNL A   1      36.921  29.904  27.851  1.00  0.00     0.040 A 
ATOM     44  F   UNL A   1      39.014  29.696  26.816  1.00  0.00    -0.206 F 
ATOM     45  C   UNL A   1      36.108  29.780  28.976  1.00  0.00     0.006 A 
ENDBRANCH  24  38
BRANCH  25  46
ATOM     46  C   UNL A   1      48.551  26.714  29.157  1.00  0.00     0.057 A 
ATOM     47  C   UNL A   1      49.163  26.098  30.253  1.00  0.00     0.134 A 
ATOM     48  C   UNL A   1      49.345  26.967  28.031  1.00  0.00     0.134 A 
ATOM     49  F   UNL A   1      48.459  25.843  31.365  1.00  0.00    -0.206 F 
ATOM     50  C   UNL A   1      50.517  25.758  30.236  1.00  0.00     0.040 A 
ATOM     51  C   UNL A   1      50.691  26.605  27.989  1.00  0.00     0.040 A 
ATOM     52  F   UNL A   1      48.813  27.544  26.943  1.00  0.00    -0.206 F 
ATOM     53  C   UNL A   1      51.282  26.005  29.099  1.00  0.00     0.006 A 
ENDBRANCH  25  46
BRANCH  37  54
ATOM     54  C   UNL A   1      45.017  32.463  30.893  1.00  0.00     0.057 A 
ATOM     55  C   UNL A   1      45.318  33.539  30.049  1.00  0.00     0.134 A 
ATOM     56  C   UNL A   1      45.102  32.681  32.274  1.00  0.00     0.134 A 
ATOM     57  F   UNL A   1      45.271  33.392  28.716  1.00  0.00    -0.206 F 
ATOM     58  C   UNL A   1      45.710  34.778  30.559  1.00  0.00     0.040 A 
ATOM     59  C   UNL A   1      45.464  33.923  32.797  1.00  0.00     0.040 A 
ATOM     60  F   UNL A   1      44.822  31.695  33.138  1.00  0.00    -0.206 F 
ATOM     61  C   UNL A   1      45.775  34.974  31.937  1.00  0.00     0.006 A 
ENDBRANCH  37  54
ENDBRANCH  11  12
ENDBRANCH   4   6
ENDBRANCH   1   2
BRANCH   1  62
ATOM     62  C   UNL A   1      38.137  19.882  24.905  1.00  0.00     0.042 C 
BRANCH  62  63
ATOM     63  C   UNL A   1      37.267  21.110  24.676  1.00  0.00     0.117 C 
BRANCH  63  64
ATOM     64  N   UNL A   1      36.452  21.421  25.840  1.00  0.00    -0.356 N 
ATOM     65  C   UNL A   1      35.101  21.296  26.009  1.00  0.00     0.223 C 
ATOM     66  H   UNL A   1      36.943  21.771  26.618  1.00  0.00     0.163 HD
ATOM     67  O   UNL A   1      34.602  21.628  27.082  1.00  0.00    -0.275 OA
BRANCH  65  68
ATOM     68  C   UNL A   1      34.288  20.740  24.860  1.00  0.00     0.083 C 
ATOM     69  C   UNL A   1      32.925  21.462  24.710  1.00  0.00     0.020 C 
ATOM     70  C   UNL A   1      34.057  19.216  24.980  1.00  0.00     0.052 C 
ATOM     71  C   UNL A   1      32.264  21.110  23.362  1.00  0.00     0.057 C 
ATOM     72  C   UNL A   1      33.243  18.787  23.808  1.00  0.00    -0.006 A 
ATOM     73  C   UNL A   1      32.440  19.659  23.102  1.00  0.00     0.038 A 
ATOM     74  C   UNL A   1      33.108  17.564  23.133  1.00  0.00     0.138 A 
ATOM     75  N   UNL A   1      31.910  18.949  22.070  1.00  0.00    -0.282 N 
ATOM     76  N   UNL A   1      32.300  17.660  22.072  1.00  0.00    -0.184 NA
ATOM     77  H   UNL A   1      31.307  19.336  21.395  1.00  0.00     0.190 HD
ENDBRANCH  65  68
ENDBRANCH  63  64
ENDBRANCH  62  63
ENDBRANCH   1  62
TORSDOF 10
ENDMDL
MODEL 2
REMARK VINA RESULT:     -11.3      0.523      6.484
REMARK SMILES O=C(NCCCNC(=O)[C@@H]1CCc2[nH]ncc2C1)c1ccc(-c2c3nc(c(-c4c(F)cccc4F)c4ccc([nH]4)c(-c4c(F)cccc4F)c4nc(c(-c5c(F)cccc5F)c5ccc2[nH]5)C=C4)C=C3)cc1
REMARK SMILES IDX 4 1 3 2 1 3 2 4 19 6 20 7 72 8 21 9 71 10 22 11 23 12 24 13
REMARK SMILES IDX 65 14 25 15 70 16 64 17 66 18 26 19 69 20 63 21 62 22 27 24
REMARK SMILES IDX 53 25 36 26 52 27 37 28 40 29 51 30 67 31 38 32 39 33 50 35
REMARK SMILES IDX 68 36 41 37 28 38 29 39 34 40 30 41 31 42 33 43 35 44 32 45
REMARK SMILES IDX 54 46 55 47 60 48 56 49 57 50 59 51 61 52 58 53 42 54 43 55
REMARK SMILES IDX 48 56 44 57 45 58 47 59 49 60 46 61 5 62 6 63 7 64 8 65 9 67
REMARK SMILES IDX 10 68 11 69 18 70 12 71 17 72 13 73 16 74 14 75 15 76
REMARK H PARENT 3 5 66 23 40 34 7 66 14 77
REMARK Flexibility Score: inf
ROOT
ATOM      1  C   UNL A   1      38.963  19.964  26.052  1.00  0.00     0.118 C 
ENDROOT
BRANCH   1   2
ATOM      2  N   UNL A   1      40.182  19.189  25.869  1.00  0.00    -0.352 N 
ATOM      3  O   UNL A   1      42.384  18.831  25.568  1.00  0.00    -0.269 OA
ATOM      4  C   UNL A   1      41.493  19.579  25.963  1.00  0.00     0.251 C 
ATOM      5  H   UNL A   1      40.044  18.241  25.643  1.00  0.00     0.163 HD
BRANCH   4   6
ATOM      6  C   UNL A   1      41.836  20.905  26.518  1.00  0.00     0.039 A 
ATOM      7  C   UNL A   1      41.833  21.127  27.897  1.00  0.00     0.014 A 
ATOM      8  C   UNL A   1      42.192  21.937  25.646  1.00  0.00     0.014 A 
ATOM      9  C   UNL A   1      42.031  22.408  28.394  1.00  0.00     0.010 A 
ATOM     10  C   UNL A   1      42.491  23.203  26.154  1.00  0.00     0.010 A 
ATOM     11  C   UNL A   1      42.383  23.456  27.531  1.00  0.00    -0.014 A 
BRANCH  11  12
ATOM     12  C   UNL A   1      42.697  24.793  28.091  1.00  0.00     0.031 A 
ATOM     13  C   UNL A   1      44.097  25.155  28.496  1.00  0.00     0.074 A 
ATOM     14  C   UNL A   1      41.699  25.687  28.231  1.00  0.00     0.049 A 
ATOM     15  N   UNL A   1      44.539  26.265  29.031  1.00  0.00    -0.248 NA
ATOM     16  C   UNL A   1      45.136  24.136  28.282  1.00  0.00     0.031 C 
ATOM     17  C   UNL A   1      40.297  25.447  27.875  1.00  0.00     0.029 A 
ATOM     18  N   UNL A   1      41.707  26.974  28.701  1.00  0.00    -0.354 N 
ATOM     19  C   UNL A   1      45.899  26.074  29.235  1.00  0.00     0.074 A 
ATOM     20  C   UNL A   1      46.206  24.728  28.795  1.00  0.00     0.031 C 
ATOM     21  C   UNL A   1      39.588  26.560  28.111  1.00  0.00     0.029 A 
ATOM     22  C   UNL A   1      40.466  27.565  28.697  1.00  0.00     0.049 A 
ATOM     23  H   UNL A   1      42.521  27.431  29.013  1.00  0.00     0.167 HD
ATOM     24  C   UNL A   1      46.809  26.944  29.739  1.00  0.00     0.037 A 
ATOM     25  C   UNL A   1      40.071  28.771  29.140  1.00  0.00     0.037 A 
ATOM     26  C   UNL A   1      46.494  28.283  30.172  1.00  0.00     0.049 A 
ATOM     27  C   UNL A   1      41.089  29.698  29.736  1.00  0.00     0.074 A 
ATOM     28  C   UNL A   1      47.350  29.252  30.666  1.00  0.00     0.029 A 
ATOM     29  N   UNL A   1      45.222  28.836  30.175  1.00  0.00    -0.354 N 
ATOM     30  N   UNL A   1      42.379  29.518  29.892  1.00  0.00    -0.248 NA
ATOM     31  C   UNL A   1      40.599  30.994  30.220  1.00  0.00     0.031 C 
ATOM     32  C   UNL A   1      46.587  30.369  31.021  1.00  0.00     0.029 A 
ATOM     33  C   UNL A   1      45.265  30.122  30.688  1.00  0.00     0.049 A 
ATOM     34  H   UNL A   1      44.407  28.382  29.858  1.00  0.00     0.167 HD
ATOM     35  C   UNL A   1      42.859  30.687  30.466  1.00  0.00     0.074 A 
ATOM     36  C   UNL A   1      41.723  31.573  30.619  1.00  0.00     0.031 C 
ATOM     37  C   UNL A   1      44.126  30.997  30.831  1.00  0.00     0.037 A 
BRANCH  24  38
ATOM     38  C   UNL A   1      48.227  26.466  29.874  1.00  0.00     0.057 A 
ATOM     39  C   UNL A   1      48.682  25.791  31.014  1.00  0.00     0.134 A 
ATOM     40  C   UNL A   1      49.146  26.659  28.832  1.00  0.00     0.134 A 
ATOM     41  F   UNL A   1      47.861  25.582  32.054  1.00  0.00    -0.206 F 
ATOM     42  C   UNL A   1      50.003  25.351  31.125  1.00  0.00     0.040 A 
ATOM     43  C   UNL A   1      50.460  26.198  28.920  1.00  0.00     0.040 A 
ATOM     44  F   UNL A   1      48.778  27.290  27.706  1.00  0.00    -0.206 F 
ATOM     45  C   UNL A   1      50.896  25.549  30.074  1.00  0.00     0.006 A 
ENDBRANCH  24  38
BRANCH  25  46
ATOM     46  C   UNL A   1      38.642  29.158  29.042  1.00  0.00     0.057 A 
ATOM     47  C   UNL A   1      37.796  29.093  30.154  1.00  0.00     0.134 A 
ATOM     48  C   UNL A   1      38.093  29.622  27.840  1.00  0.00     0.134 A 
ATOM     49  F   UNL A   1      38.260  28.644  31.330  1.00  0.00    -0.206 F 
ATOM     50  C   UNL A   1      36.452  29.460  30.071  1.00  0.00     0.040 A 
ATOM     51  C   UNL A   1      36.760  30.020  27.750  1.00  0.00     0.040 A 
ATOM     52  F   UNL A   1      38.856  29.719  26.741  1.00  0.00    -0.206 F 
ATOM     53  C   UNL A   1      35.933  29.932  28.868  1.00  0.00     0.006 A 
ENDBRANCH  25  46
BRANCH  37  54
ATOM     54  C   UNL A   1      44.362  32.370  31.391  1.00  0.00     0.057 A 
ATOM     55  C   UNL A   1      44.650  33.468  30.572  1.00  0.00     0.134 A 
ATOM     56  C   UNL A   1      44.264  32.600  32.770  1.00  0.00     0.134 A 
ATOM     57  F   UNL A   1      44.774  33.314  29.245  1.00  0.00    -0.206 F 
ATOM     58  C   UNL A   1      44.857  34.742  31.107  1.00  0.00     0.040 A 
ATOM     59  C   UNL A   1      44.438  33.873  33.313  1.00  0.00     0.040 A 
ATOM     60  F   UNL A   1      43.983  31.592  33.610  1.00  0.00    -0.206 F 
ATOM     61  C   UNL A   1      44.742  34.947  32.480  1.00  0.00     0.006 A 
ENDBRANCH  37  54
ENDBRANCH  11  12
ENDBRANCH   4   6
ENDBRANCH   1   2
BRANCH   1  62
ATOM     62  C   UNL A   1      38.085  19.959  24.812  1.00  0.00     0.042 C 
BRANCH  62  63
ATOM     63  C   UNL A   1      37.284  21.242  24.638  1.00  0.00     0.117 C 
BRANCH  63  64
ATOM     64  N   UNL A   1      36.467  21.534  25.806  1.00  0.00    -0.356 N 
ATOM     65  C   UNL A   1      35.120  21.382  25.979  1.00  0.00     0.223 C 
ATOM     66  H   UNL A   1      36.954  21.893  26.583  1.00  0.00     0.163 HD
ATOM     67  O   UNL A   1      34.618  21.701  27.055  1.00  0.00    -0.275 OA
BRANCH  65  68
ATOM     68  C   UNL A   1      34.314  20.812  24.832  1.00  0.00     0.083 C 
ATOM     69  C   UNL A   1      32.966  21.553  24.646  1.00  0.00     0.020 C 
ATOM     70  C   UNL A   1      34.054  19.295  24.985  1.00  0.00     0.052 C 
ATOM     71  C   UNL A   1      32.318  21.180  23.296  1.00  0.00     0.057 C 
ATOM     72  C   UNL A   1      33.250  18.852  23.812  1.00  0.00    -0.006 A 
ATOM     73  C   UNL A   1      32.473  19.721  23.073  1.00  0.00     0.038 A 
ATOM     74  C   UNL A   1      33.104  17.616  23.165  1.00  0.00     0.138 A 
ATOM     75  N   UNL A   1      31.946  18.995  22.051  1.00  0.00    -0.282 N 
ATOM     76  N   UNL A   1      32.313  17.700  22.090  1.00  0.00    -0.184 NA
ATOM     77  H   UNL A   1      31.359  19.375  21.359  1.00  0.00     0.190 HD
ENDBRANCH  65  68
ENDBRANCH  63  64
ENDBRANCH  62  63
ENDBRANCH   1  62
TORSDOF 10
ENDMDL
MODEL 3
REMARK VINA RESULT:     -11.3      0.185      1.390
REMARK SMILES O=C(NCCCNC(=O)[C@@H]1CCc2[nH]ncc2C1)c1ccc(-c2c3nc(c(-c4c(F)cccc4F)c4ccc([nH]4)c(-c4c(F)cccc4F)c4nc(c(-c5c(F)cccc5F)c5ccc2[nH]5)C=C4)C=C3)cc1
REMARK SMILES IDX 4 1 3 2 1 3 2 4 19 6 20 7 72 8 21 9 71 10 22 11 23 12 24 13
REMARK SMILES IDX 65 14 25 15 70 16 64 17 66 18 26 19 69 20 63 21 62 22 27 24
REMARK SMILES IDX 53 25 36 26 52 27 37 28 40 29 51 30 67 31 38 32 39 33 50 35
REMARK SMILES IDX 68 36 41 37 28 38 29 39 34 40 30 41 31 42 33 43 35 44 32 45
REMARK SMILES IDX 54 46 55 47 60 48 56 49 57 50 59 51 61 52 58 53 42 54 43 55
REMARK SMILES IDX 48 56 44 57 45 58 47 59 49 60 46 61 5 62 6 63 7 64 8 65 9 67
REMARK SMILES IDX 10 68 11 69 18 70 12 71 17 72 13 73 16 74 14 75 15 76
REMARK H PARENT 3 5 66 23 40 34 7 66 14 77
REMARK Flexibility Score: inf
ROOT
ATOM      1  C   UNL A   1      38.983  19.997  26.069  1.00  0.00     0.118 C 
ENDROOT
BRANCH   1   2
ATOM      2  N   UNL A   1      40.166  19.159  25.947  1.00  0.00    -0.352 N 
ATOM      3  O   UNL A   1      42.354  18.683  25.707  1.00  0.00    -0.269 OA
ATOM      4  C   UNL A   1      41.493  19.491  26.048  1.00  0.00     0.251 C 
ATOM      5  H   UNL A   1      39.987  18.207  25.765  1.00  0.00     0.163 HD
BRANCH   4   6
ATOM      6  C   UNL A   1      41.889  20.826  26.544  1.00  0.00     0.039 A 
ATOM      7  C   UNL A   1      41.937  21.095  27.913  1.00  0.00     0.014 A 
ATOM      8  C   UNL A   1      42.242  21.816  25.624  1.00  0.00     0.014 A 
ATOM      9  C   UNL A   1      42.185  22.387  28.357  1.00  0.00     0.010 A 
ATOM     10  C   UNL A   1      42.591  23.090  26.077  1.00  0.00     0.010 A 
ATOM     11  C   UNL A   1      42.536  23.394  27.447  1.00  0.00    -0.014 A 
BRANCH  11  12
ATOM     12  C   UNL A   1      42.904  24.741  27.948  1.00  0.00     0.031 A 
ATOM     13  C   UNL A   1      41.856  25.781  28.220  1.00  0.00     0.074 A 
ATOM     14  C   UNL A   1      44.205  25.019  28.161  1.00  0.00     0.049 A 
ATOM     15  N   UNL A   1      42.006  27.015  28.630  1.00  0.00    -0.248 NA
ATOM     16  C   UNL A   1      40.456  25.390  27.995  1.00  0.00     0.031 C 
ATOM     17  C   UNL A   1      45.314  24.089  27.929  1.00  0.00     0.029 A 
ATOM     18  N   UNL A   1      44.816  26.155  28.623  1.00  0.00    -0.354 N 
ATOM     19  C   UNL A   1      40.728  27.554  28.693  1.00  0.00     0.074 A 
ATOM     20  C   UNL A   1      39.814  26.522  28.250  1.00  0.00     0.031 C 
ATOM     21  C   UNL A   1      46.464  24.681  28.278  1.00  0.00     0.029 A 
ATOM     22  C   UNL A   1      46.184  26.050  28.692  1.00  0.00     0.049 A 
ATOM     23  H   UNL A   1      44.323  26.967  28.879  1.00  0.00     0.167 HD
ATOM     24  C   UNL A   1      40.352  28.794  29.091  1.00  0.00     0.037 A 
ATOM     25  C   UNL A   1      47.115  26.962  29.024  1.00  0.00     0.037 A 
ATOM     26  C   UNL A   1      41.270  29.815  29.533  1.00  0.00     0.049 A 
ATOM     27  C   UNL A   1      46.676  28.342  29.415  1.00  0.00     0.074 A 
ATOM     28  C   UNL A   1      40.986  31.091  29.986  1.00  0.00     0.029 A 
ATOM     29  N   UNL A   1      42.650  29.678  29.566  1.00  0.00    -0.354 N 
ATOM     30  N   UNL A   1      45.461  28.828  29.504  1.00  0.00    -0.248 NA
ATOM     31  C   UNL A   1      47.736  29.302  29.750  1.00  0.00     0.031 C 
ATOM     32  C   UNL A   1      42.196  31.746  30.238  1.00  0.00     0.029 A 
ATOM     33  C   UNL A   1      43.233  30.857  30.004  1.00  0.00     0.049 A 
ATOM     34  H   UNL A   1      43.144  28.864  29.314  1.00  0.00     0.167 HD
ATOM     35  C   UNL A   1      45.608  30.141  29.931  1.00  0.00     0.074 A 
ATOM     36  C   UNL A   1      47.029  30.369  30.095  1.00  0.00     0.031 C 
ATOM     37  C   UNL A   1      44.650  31.070  30.167  1.00  0.00     0.037 A 
BRANCH  24  38
ATOM     38  C   UNL A   1      38.887  29.127  29.040  1.00  0.00     0.057 A 
ATOM     39  C   UNL A   1      38.262  29.565  27.866  1.00  0.00     0.134 A 
ATOM     40  C   UNL A   1      38.083  28.977  30.179  1.00  0.00     0.134 A 
ATOM     41  F   UNL A   1      38.972  29.741  26.741  1.00  0.00    -0.206 F 
ATOM     42  C   UNL A   1      36.899  29.869  27.832  1.00  0.00     0.040 A 
ATOM     43  C   UNL A   1      36.715  29.250  30.150  1.00  0.00     0.040 A 
ATOM     44  F   UNL A   1      38.612  28.553  31.336  1.00  0.00    -0.206 F 
ATOM     45  C   UNL A   1      36.120  29.707  28.976  1.00  0.00     0.006 A 
ENDBRANCH  24  38
BRANCH  25  46
ATOM     46  C   UNL A   1      48.552  26.592  28.988  1.00  0.00     0.057 A 
ATOM     47  C   UNL A   1      49.200  26.098  30.124  1.00  0.00     0.134 A 
ATOM     48  C   UNL A   1      49.304  26.705  27.812  1.00  0.00     0.134 A 
ATOM     49  F   UNL A   1      48.537  25.980  31.283  1.00  0.00    -0.206 F 
ATOM     50  C   UNL A   1      50.550  25.744  30.097  1.00  0.00     0.040 A 
ATOM     51  C   UNL A   1      50.645  26.326  27.763  1.00  0.00     0.040 A 
ATOM     52  F   UNL A   1      48.735  27.161  26.685  1.00  0.00    -0.206 F 
ATOM     53  C   UNL A   1      51.273  25.850  28.912  1.00  0.00     0.006 A 
ENDBRANCH  25  46
BRANCH  37  54
ATOM     54  C   UNL A   1      45.106  32.409  30.672  1.00  0.00     0.057 A 
ATOM     55  C   UNL A   1      45.276  32.670  32.037  1.00  0.00     0.134 A 
ATOM     56  C   UNL A   1      45.409  33.440  29.774  1.00  0.00     0.134 A 
ATOM     57  F   UNL A   1      44.988  31.731  32.951  1.00  0.00    -0.206 F 
ATOM     58  C   UNL A   1      45.709  33.918  32.492  1.00  0.00     0.040 A 
ATOM     59  C   UNL A   1      45.871  34.681  30.214  1.00  0.00     0.040 A 
ATOM     60  F   UNL A   1      45.273  33.254  28.452  1.00  0.00    -0.206 F 
ATOM     61  C   UNL A   1      46.016  34.923  31.578  1.00  0.00     0.006 A 
ENDBRANCH  37  54
ENDBRANCH  11  12
ENDBRANCH   4   6
ENDBRANCH   1   2
BRANCH   1  62
ATOM     62  C   UNL A   1      38.100  19.932  24.833  1.00  0.00     0.042 C 
BRANCH  62  63
ATOM     63  C   UNL A   1      37.266  21.187  24.623  1.00  0.00     0.117 C 
BRANCH  63  64
ATOM     64  N   UNL A   1      36.459  21.504  25.792  1.00  0.00    -0.356 N 
ATOM     65  C   UNL A   1      35.111  21.368  25.976  1.00  0.00     0.223 C 
ATOM     66  H   UNL A   1      36.954  21.868  26.561  1.00  0.00     0.163 HD
ATOM     67  O   UNL A   1      34.620  21.707  27.050  1.00  0.00    -0.275 OA
BRANCH  65  68
ATOM     68  C   UNL A   1      34.292  20.790  24.842  1.00  0.00     0.083 C 
ATOM     69  C   UNL A   1      32.915  21.488  24.706  1.00  0.00     0.020 C 
ATOM     70  C   UNL A   1      34.088  19.263  24.975  1.00  0.00     0.052 C 
ATOM     71  C   UNL A   1      32.242  21.116  23.369  1.00  0.00     0.057 C 
ATOM     72  C   UNL A   1      33.266  18.813  23.817  1.00  0.00    -0.006 A 
ATOM     73  C   UNL A   1      32.440  19.667  23.116  1.00  0.00     0.038 A 
ATOM     74  C   UNL A   1      33.143  17.583  23.153  1.00  0.00     0.138 A 
ATOM     75  N   UNL A   1      31.907  18.941  22.097  1.00  0.00    -0.282 N 
ATOM     76  N   UNL A   1      32.319  17.658  22.102  1.00  0.00    -0.184 NA
ATOM     77  H   UNL A   1      31.289  19.313  21.428  1.00  0.00     0.190 HD
ENDBRANCH  65  68
ENDBRANCH  63  64
ENDBRANCH  62  63
ENDBRANCH   1  62
TORSDOF 10
ENDMDL
