MODEL 1
REMARK VINA RESULT:     -11.5      0.000      0.000
REMARK SMILES C[NH2+][C@]1(C(=O)NCCCNC(=O)c2ccc(-c3c4nc(c(-c5c(F)cccc5F)c5ccc([nH]5)c(-c5c(F)cccc5F)c5nc(c(-c6c(F)cccc6F)c6ccc3[nH]6)C=C5)C=C4)cc2)CC[C@H](Oc2cc(C(C)C)ccc2C)C1
REMARK SMILES IDX 7 1 6 2 4 3 5 4 3 6 67 7 81 8 68 9 69 10 2 11 1 12 70 15
REMARK SMILES IDX 71 16 72 17 79 18 73 19 78 20 80 21 77 22 74 23 75 24 76 25
REMARK SMILES IDX 8 26 9 27 10 28 11 29 12 31 13 32 14 33 66 34 15 35 65 36
REMARK SMILES IDX 16 37 17 38 18 39 59 40 19 41 64 42 58 43 60 44 20 45 63 46
REMARK SMILES IDX 57 47 56 48 21 50 47 51 30 52 46 53 31 54 34 55 45 56 61 57
REMARK SMILES IDX 32 58 33 59 44 61 62 62 35 63 22 64 23 65 28 66 24 67 25 68
REMARK SMILES IDX 27 69 29 70 26 71 48 72 49 73 54 74 50 75 51 76 53 77 55 78
REMARK SMILES IDX 52 79 36 80 37 81 42 82 38 83 39 84 41 85 43 86 40 87
REMARK H PARENT 6 5 2 13 2 14 10 30 60 49 34 60
REMARK Flexibility Score: inf
ROOT
ATOM      1  C   UNL A   1      36.413  20.573  24.708  1.00  0.00     0.118 C 
ENDROOT
BRANCH   1   2
ATOM      2  N   UNL A   1      35.124  20.033  25.106  1.00  0.00    -0.351 N 
ATOM      3  C   UNL A   1      33.885  20.576  25.288  1.00  0.00     0.281 C 
ATOM      4  O   UNL A   1      33.069  19.793  25.788  1.00  0.00    -0.268 OA
ATOM      5  H   UNL A   1      35.150  19.066  25.285  1.00  0.00     0.163 HD
BRANCH   3   6
ATOM      6  C   UNL A   1      33.512  22.038  24.859  1.00  0.00     0.179 C 
ATOM      7  C   UNL A   1      32.148  22.469  25.421  1.00  0.00     0.083 C 
ATOM      8  C   UNL A   1      34.474  23.088  25.447  1.00  0.00     0.124 C 
ATOM      9  C   UNL A   1      32.187  23.986  25.454  1.00  0.00     0.052 C 
ATOM     10  C   UNL A   1      33.665  24.385  25.604  1.00  0.00     0.180 C 
BRANCH   6  11
ATOM     11  N   UNL A   1      33.357  22.165  23.378  1.00  0.00    -0.336 N 
ATOM     12  C   UNL A   1      32.208  21.494  22.786  1.00  0.00     0.331 C 
ATOM     13  H   UNL A   1      33.283  23.158  23.157  1.00  0.00     0.346 HD
ATOM     14  H   UNL A   1      34.174  21.703  22.979  1.00  0.00     0.346 HD
ENDBRANCH   6  11
BRANCH  10  15
ATOM     15  O   UNL A   1      34.100  25.300  24.593  1.00  0.00    -0.490 OA
BRANCH  15  16
ATOM     16  C   UNL A   1      33.461  26.507  24.477  1.00  0.00     0.122 A 
ATOM     17  C   UNL A   1      33.183  27.350  25.559  1.00  0.00     0.050 A 
ATOM     18  C   UNL A   1      33.016  26.863  23.196  1.00  0.00    -0.009 A 
ATOM     19  C   UNL A   1      32.367  28.481  25.418  1.00  0.00    -0.042 A 
ATOM     20  C   UNL A   1      32.256  28.034  23.039  1.00  0.00     0.007 A 
ATOM     21  C   UNL A   1      33.296  26.024  21.980  1.00  0.00     0.048 C 
ATOM     22  C   UNL A   1      31.918  28.823  24.140  1.00  0.00     0.004 A 
BRANCH  19  23
ATOM     23  C   UNL A   1      31.901  29.262  26.635  1.00  0.00     0.013 C 
ATOM     24  C   UNL A   1      31.474  28.298  27.750  1.00  0.00     0.012 C 
ATOM     25  C   UNL A   1      32.962  30.240  27.147  1.00  0.00     0.012 C 
ENDBRANCH  19  23
ENDBRANCH  15  16
ENDBRANCH  10  15
ENDBRANCH   3   6
ENDBRANCH   1   2
BRANCH   1  26
ATOM     26  C   UNL A   1      37.551  19.591  24.986  1.00  0.00     0.042 C 
BRANCH  26  27
ATOM     27  C   UNL A   1      38.756  20.213  25.680  1.00  0.00     0.118 C 
BRANCH  27  28
ATOM     28  N   UNL A   1      39.878  19.292  25.765  1.00  0.00    -0.352 N 
ATOM     29  C   UNL A   1      41.196  19.533  26.063  1.00  0.00     0.251 C 
ATOM     30  H   UNL A   1      39.659  18.351  25.580  1.00  0.00     0.163 HD
ATOM     31  O   UNL A   1      42.028  18.650  25.874  1.00  0.00    -0.269 OA
BRANCH  29  32
ATOM     32  C   UNL A   1      41.628  20.844  26.597  1.00  0.00     0.039 A 
ATOM     33  C   UNL A   1      42.061  21.824  25.696  1.00  0.00     0.014 A 
ATOM     34  C   UNL A   1      41.664  21.100  27.971  1.00  0.00     0.014 A 
ATOM     35  C   UNL A   1      42.482  23.069  26.169  1.00  0.00     0.010 A 
ATOM     36  C   UNL A   1      42.019  22.365  28.437  1.00  0.00     0.010 A 
ATOM     37  C   UNL A   1      42.440  23.358  27.542  1.00  0.00    -0.014 A 
BRANCH  37  38
ATOM     38  C   UNL A   1      42.846  24.690  28.059  1.00  0.00     0.031 A 
ATOM     39  C   UNL A   1      41.809  25.745  28.328  1.00  0.00     0.074 A 
ATOM     40  C   UNL A   1      44.152  24.969  28.228  1.00  0.00     0.049 A 
ATOM     41  N   UNL A   1      41.972  26.985  28.715  1.00  0.00    -0.248 NA
ATOM     42  C   UNL A   1      40.404  25.363  28.113  1.00  0.00     0.031 C 
ATOM     43  C   UNL A   1      45.256  24.045  27.961  1.00  0.00     0.029 A 
ATOM     44  N   UNL A   1      44.773  26.116  28.652  1.00  0.00    -0.354 N 
ATOM     45  C   UNL A   1      40.697  27.535  28.771  1.00  0.00     0.074 A 
ATOM     46  C   UNL A   1      39.776  26.507  28.337  1.00  0.00     0.031 C 
ATOM     47  C   UNL A   1      46.417  24.656  28.247  1.00  0.00     0.029 A 
ATOM     48  C   UNL A   1      46.143  26.023  28.681  1.00  0.00     0.049 A 
ATOM     49  H   UNL A   1      44.283  26.929  28.913  1.00  0.00     0.167 HD
ATOM     50  C   UNL A   1      40.326  28.776  29.166  1.00  0.00     0.037 A 
ATOM     51  C   UNL A   1      47.073  26.938  29.012  1.00  0.00     0.037 A 
ATOM     52  C   UNL A   1      41.242  29.788  29.624  1.00  0.00     0.049 A 
ATOM     53  C   UNL A   1      46.637  28.308  29.447  1.00  0.00     0.074 A 
ATOM     54  C   UNL A   1      40.959  31.054  30.106  1.00  0.00     0.029 A 
ATOM     55  N   UNL A   1      42.622  29.649  29.653  1.00  0.00    -0.354 N 
ATOM     56  N   UNL A   1      45.424  28.792  29.556  1.00  0.00    -0.248 NA
ATOM     57  C   UNL A   1      47.699  29.257  29.809  1.00  0.00     0.031 C 
ATOM     58  C   UNL A   1      42.169  31.695  30.391  1.00  0.00     0.029 A 
ATOM     59  C   UNL A   1      43.204  30.813  30.126  1.00  0.00     0.049 A 
ATOM     60  H   UNL A   1      43.114  28.841  29.378  1.00  0.00     0.167 HD
ATOM     61  C   UNL A   1      45.574  30.092  30.022  1.00  0.00     0.074 A 
ATOM     62  C   UNL A   1      46.996  30.315  30.186  1.00  0.00     0.031 C 
ATOM     63  C   UNL A   1      44.621  31.018  30.288  1.00  0.00     0.037 A 
BRANCH  50  64
ATOM     64  C   UNL A   1      38.863  29.106  29.123  1.00  0.00     0.057 A 
ATOM     65  C   UNL A   1      38.049  29.006  30.259  1.00  0.00     0.134 A 
ATOM     66  C   UNL A   1      38.266  29.558  27.939  1.00  0.00     0.134 A 
ATOM     67  F   UNL A   1      38.557  28.569  31.421  1.00  0.00    -0.206 F 
ATOM     68  C   UNL A   1      36.689  29.317  30.213  1.00  0.00     0.040 A 
ATOM     69  C   UNL A   1      36.913  29.896  27.887  1.00  0.00     0.040 A 
ATOM     70  F   UNL A   1      38.989  29.683  26.816  1.00  0.00    -0.206 F 
ATOM     71  C   UNL A   1      36.119  29.769  29.024  1.00  0.00     0.006 A 
ENDBRANCH  50  64
BRANCH  51  72
ATOM     72  C   UNL A   1      48.512  26.578  28.967  1.00  0.00     0.057 A 
ATOM     73  C   UNL A   1      49.266  26.774  27.805  1.00  0.00     0.134 A 
ATOM     74  C   UNL A   1      49.166  26.033  30.078  1.00  0.00     0.134 A 
ATOM     75  F   UNL A   1      48.690  27.275  26.703  1.00  0.00    -0.206 F 
ATOM     76  C   UNL A   1      50.617  26.428  27.743  1.00  0.00     0.040 A 
ATOM     77  C   UNL A   1      50.521  25.703  30.039  1.00  0.00     0.040 A 
ATOM     78  F   UNL A   1      48.499  25.827  31.223  1.00  0.00    -0.206 F 
ATOM     79  C   UNL A   1      51.249  25.894  28.865  1.00  0.00     0.006 A 
ENDBRANCH  51  72
BRANCH  63  80
ATOM     80  C   UNL A   1      45.083  32.344  30.813  1.00  0.00     0.057 A 
ATOM     81  C   UNL A   1      45.345  33.424  29.961  1.00  0.00     0.134 A 
ATOM     82  C   UNL A   1      45.231  32.554  32.190  1.00  0.00     0.134 A 
ATOM     83  F   UNL A   1      45.236  33.283  28.632  1.00  0.00    -0.206 F 
ATOM     84  C   UNL A   1      45.760  34.660  30.459  1.00  0.00     0.040 A 
ATOM     85  C   UNL A   1      45.620  33.792  32.701  1.00  0.00     0.040 A 
ATOM     86  F   UNL A   1      44.987  31.561  33.060  1.00  0.00    -0.206 F 
ATOM     87  C   UNL A   1      45.891  34.848  31.834  1.00  0.00     0.006 A 
ENDBRANCH  63  80
ENDBRANCH  37  38
ENDBRANCH  29  32
ENDBRANCH  27  28
ENDBRANCH  26  27
ENDBRANCH   1  26
TORSDOF 14
ENDMDL
MODEL 2
REMARK VINA RESULT:     -11.4      5.157      9.842
REMARK SMILES C[NH2+][C@]1(C(=O)NCCCNC(=O)c2ccc(-c3c4nc(c(-c5c(F)cccc5F)c5ccc([nH]5)c(-c5c(F)cccc5F)c5nc(c(-c6c(F)cccc6F)c6ccc3[nH]6)C=C5)C=C4)cc2)CC[C@H](Oc2cc(C(C)C)ccc2C)C1
REMARK SMILES IDX 7 1 6 2 4 3 5 4 3 6 67 7 81 8 68 9 69 10 2 11 1 12 70 15
REMARK SMILES IDX 71 16 72 17 79 18 73 19 78 20 80 21 77 22 74 23 75 24 76 25
REMARK SMILES IDX 8 26 9 27 10 28 11 29 12 31 13 32 14 33 66 34 15 35 65 36
REMARK SMILES IDX 16 37 17 38 18 39 59 40 19 41 64 42 58 43 60 44 20 45 63 46
REMARK SMILES IDX 57 47 56 48 21 50 47 51 30 52 46 53 31 54 34 55 45 56 61 57
REMARK SMILES IDX 32 58 33 59 44 61 62 62 35 63 22 64 23 65 28 66 24 67 25 68
REMARK SMILES IDX 27 69 29 70 26 71 48 72 49 73 54 74 50 75 51 76 53 77 55 78
REMARK SMILES IDX 52 79 36 80 37 81 42 82 38 83 39 84 41 85 43 86 40 87
REMARK H PARENT 6 5 2 13 2 14 10 30 60 49 34 60
REMARK Flexibility Score: inf
ROOT
ATOM      1  C   UNL A   1      31.408  31.139  26.127  1.00  0.00     0.118 C 
ENDROOT
BRANCH   1   2
ATOM      2  N   UNL A   1      32.683  30.518  26.439  1.00  0.00    -0.351 N 
ATOM      3  C   UNL A   1      33.340  29.416  25.973  1.00  0.00     0.281 C 
ATOM      4  O   UNL A   1      34.357  29.135  26.618  1.00  0.00    -0.268 OA
ATOM      5  H   UNL A   1      33.182  30.995  27.140  1.00  0.00     0.163 HD
BRANCH   3   6
ATOM      6  C   UNL A   1      32.881  28.608  24.709  1.00  0.00     0.179 C 
ATOM      7  C   UNL A   1      33.543  27.223  24.644  1.00  0.00     0.083 C 
ATOM      8  C   UNL A   1      31.378  28.270  24.740  1.00  0.00     0.124 C 
ATOM      9  C   UNL A   1      32.618  26.375  23.789  1.00  0.00     0.052 C 
ATOM     10  C   UNL A   1      31.206  26.962  23.953  1.00  0.00     0.180 C 
BRANCH   6  11
ATOM     11  N   UNL A   1      33.294  29.276  23.437  1.00  0.00    -0.336 N 
ATOM     12  C   UNL A   1      34.380  28.646  22.698  1.00  0.00     0.331 C 
ATOM     13  H   UNL A   1      32.480  29.306  22.824  1.00  0.00     0.346 HD
ATOM     14  H   UNL A   1      33.650  30.190  23.714  1.00  0.00     0.346 HD
ENDBRANCH   6  11
BRANCH  10  15
ATOM     15  O   UNL A   1      30.587  27.279  22.702  1.00  0.00    -0.490 OA
BRANCH  15  16
ATOM     16  C   UNL A   1      29.576  28.203  22.682  1.00  0.00     0.122 A 
ATOM     17  C   UNL A   1      29.703  29.487  22.140  1.00  0.00     0.050 A 
ATOM     18  C   UNL A   1      28.373  27.835  23.301  1.00  0.00    -0.009 A 
ATOM     19  C   UNL A   1      28.705  30.457  22.307  1.00  0.00    -0.042 A 
ATOM     20  C   UNL A   1      27.343  28.783  23.410  1.00  0.00     0.007 A 
ATOM     21  C   UNL A   1      28.149  26.466  23.884  1.00  0.00     0.048 C 
ATOM     22  C   UNL A   1      27.515  30.086  22.937  1.00  0.00     0.004 A 
BRANCH  19  23
ATOM     23  C   UNL A   1      28.947  31.902  21.904  1.00  0.00     0.013 C 
ATOM     24  C   UNL A   1      28.030  32.286  20.735  1.00  0.00     0.012 C 
ATOM     25  C   UNL A   1      28.765  32.875  23.071  1.00  0.00     0.012 C 
ENDBRANCH  19  23
ENDBRANCH  15  16
ENDBRANCH  10  15
ENDBRANCH   3   6
ENDBRANCH   1   2
BRANCH   1  26
ATOM     26  C   UNL A   1      31.309  32.553  26.698  1.00  0.00     0.042 C 
BRANCH  26  27
ATOM     27  C   UNL A   1      32.620  33.094  27.255  1.00  0.00     0.118 C 
BRANCH  27  28
ATOM     28  N   UNL A   1      32.495  34.464  27.725  1.00  0.00    -0.352 N 
ATOM     29  C   UNL A   1      33.127  35.101  28.764  1.00  0.00     0.251 C 
ATOM     30  H   UNL A   1      31.860  35.022  27.220  1.00  0.00     0.163 HD
ATOM     31  O   UNL A   1      32.724  36.202  29.129  1.00  0.00    -0.269 OA
BRANCH  29  32
ATOM     32  C   UNL A   1      34.275  34.474  29.456  1.00  0.00     0.039 A 
ATOM     33  C   UNL A   1      34.046  33.813  30.668  1.00  0.00     0.014 A 
ATOM     34  C   UNL A   1      35.576  34.578  28.956  1.00  0.00     0.014 A 
ATOM     35  C   UNL A   1      35.110  33.218  31.349  1.00  0.00     0.010 A 
ATOM     36  C   UNL A   1      36.626  33.925  29.600  1.00  0.00     0.010 A 
ATOM     37  C   UNL A   1      36.405  33.247  30.807  1.00  0.00    -0.014 A 
BRANCH  37  38
ATOM     38  C   UNL A   1      37.541  32.585  31.498  1.00  0.00     0.031 A 
ATOM     39  C   UNL A   1      38.249  31.427  30.850  1.00  0.00     0.074 A 
ATOM     40  C   UNL A   1      37.895  32.987  32.733  1.00  0.00     0.049 A 
ATOM     41  N   UNL A   1      39.214  30.679  31.322  1.00  0.00    -0.248 NA
ATOM     42  C   UNL A   1      37.798  31.046  29.502  1.00  0.00     0.031 C 
ATOM     43  C   UNL A   1      37.260  34.070  33.485  1.00  0.00     0.029 A 
ATOM     44  N   UNL A   1      38.871  32.522  33.578  1.00  0.00    -0.354 N 
ATOM     45  C   UNL A   1      39.472  29.730  30.341  1.00  0.00     0.074 A 
ATOM     46  C   UNL A   1      38.533  29.969  29.266  1.00  0.00     0.031 C 
ATOM     47  C   UNL A   1      37.874  34.198  34.673  1.00  0.00     0.029 A 
ATOM     48  C   UNL A   1      38.920  33.186  34.779  1.00  0.00     0.049 A 
ATOM     49  H   UNL A   1      39.478  31.784  33.346  1.00  0.00     0.167 HD
ATOM     50  C   UNL A   1      40.417  28.760  30.328  1.00  0.00     0.037 A 
ATOM     51  C   UNL A   1      39.714  32.995  35.850  1.00  0.00     0.037 A 
ATOM     52  C   UNL A   1      41.368  28.540  31.386  1.00  0.00     0.049 A 
ATOM     53  C   UNL A   1      40.754  31.912  35.812  1.00  0.00     0.074 A 
ATOM     54  C   UNL A   1      42.405  27.625  31.439  1.00  0.00     0.029 A 
ATOM     55  N   UNL A   1      41.395  29.245  32.581  1.00  0.00    -0.354 N 
ATOM     56  N   UNL A   1      41.029  31.064  34.851  1.00  0.00    -0.248 NA
ATOM     57  C   UNL A   1      41.599  31.764  37.005  1.00  0.00     0.031 C 
ATOM     58  C   UNL A   1      43.036  27.750  32.682  1.00  0.00     0.029 A 
ATOM     59  C   UNL A   1      42.418  28.772  33.385  1.00  0.00     0.049 A 
ATOM     60  H   UNL A   1      40.779  29.975  32.821  1.00  0.00     0.167 HD
ATOM     61  C   UNL A   1      42.091  30.297  35.312  1.00  0.00     0.074 A 
ATOM     62  C   UNL A   1      42.419  30.791  36.634  1.00  0.00     0.031 C 
ATOM     63  C   UNL A   1      42.735  29.276  34.697  1.00  0.00     0.037 A 
BRANCH  50  64
ATOM     64  C   UNL A   1      40.469  27.862  29.126  1.00  0.00     0.057 A 
ATOM     65  C   UNL A   1      39.694  26.698  29.039  1.00  0.00     0.134 A 
ATOM     66  C   UNL A   1      41.281  28.180  28.031  1.00  0.00     0.134 A 
ATOM     67  F   UNL A   1      38.903  26.331  30.059  1.00  0.00    -0.206 F 
ATOM     68  C   UNL A   1      39.746  25.868  27.918  1.00  0.00     0.040 A 
ATOM     69  C   UNL A   1      41.322  27.372  26.894  1.00  0.00     0.040 A 
ATOM     70  F   UNL A   1      42.044  29.284  28.045  1.00  0.00    -0.206 F 
ATOM     71  C   UNL A   1      40.558  26.208  26.838  1.00  0.00     0.006 A 
ENDBRANCH  50  64
BRANCH  51  72
ATOM     72  C   UNL A   1      39.570  33.868  37.042  1.00  0.00     0.057 A 
ATOM     73  C   UNL A   1      38.728  33.506  38.099  1.00  0.00     0.134 A 
ATOM     74  C   UNL A   1      40.266  35.076  37.153  1.00  0.00     0.134 A 
ATOM     75  F   UNL A   1      38.021  32.369  38.041  1.00  0.00    -0.206 F 
ATOM     76  C   UNL A   1      38.571  34.323  39.220  1.00  0.00     0.040 A 
ATOM     77  C   UNL A   1      40.137  35.892  38.278  1.00  0.00     0.040 A 
ATOM     78  F   UNL A   1      41.094  35.474  36.176  1.00  0.00    -0.206 F 
ATOM     79  C   UNL A   1      39.282  35.519  39.313  1.00  0.00     0.006 A 
ENDBRANCH  51  72
BRANCH  63  80
ATOM     80  C   UNL A   1      43.879  28.646  35.434  1.00  0.00     0.057 A 
ATOM     81  C   UNL A   1      45.198  29.086  35.263  1.00  0.00     0.134 A 
ATOM     82  C   UNL A   1      43.654  27.612  36.351  1.00  0.00     0.134 A 
ATOM     83  F   UNL A   1      45.481  30.063  34.389  1.00  0.00    -0.206 F 
ATOM     84  C   UNL A   1      46.255  28.505  35.965  1.00  0.00     0.040 A 
ATOM     85  C   UNL A   1      44.700  27.041  37.076  1.00  0.00     0.040 A 
ATOM     86  F   UNL A   1      42.412  27.151  36.566  1.00  0.00    -0.206 F 
ATOM     87  C   UNL A   1      46.006  27.483  36.880  1.00  0.00     0.006 A 
ENDBRANCH  63  80
ENDBRANCH  37  38
ENDBRANCH  29  32
ENDBRANCH  27  28
ENDBRANCH  26  27
ENDBRANCH   1  26
TORSDOF 14
ENDMDL
MODEL 3
REMARK VINA RESULT:     -11.4      1.142      6.438
REMARK SMILES C[NH2+][C@]1(C(=O)NCCCNC(=O)c2ccc(-c3c4nc(c(-c5c(F)cccc5F)c5ccc([nH]5)c(-c5c(F)cccc5F)c5nc(c(-c6c(F)cccc6F)c6ccc3[nH]6)C=C5)C=C4)cc2)CC[C@H](Oc2cc(C(C)C)ccc2C)C1
REMARK SMILES IDX 7 1 6 2 4 3 5 4 3 6 67 7 81 8 68 9 69 10 2 11 1 12 70 15
REMARK SMILES IDX 71 16 72 17 79 18 73 19 78 20 80 21 77 22 74 23 75 24 76 25
REMARK SMILES IDX 8 26 9 27 10 28 11 29 12 31 13 32 14 33 66 34 15 35 65 36
REMARK SMILES IDX 16 37 17 38 18 39 59 40 19 41 64 42 58 43 60 44 20 45 63 46
REMARK SMILES IDX 57 47 56 48 21 50 47 51 30 52 46 53 31 54 34 55 45 56 61 57
REMARK SMILES IDX 32 58 33 59 44 61 62 62 35 63 22 64 23 65 28 66 24 67 25 68
REMARK SMILES IDX 27 69 29 70 26 71 48 72 49 73 54 74 50 75 51 76 53 77 55 78
REMARK SMILES IDX 52 79 36 80 37 81 42 82 38 83 39 84 41 85 43 86 40 87
REMARK H PARENT 6 5 2 13 2 14 10 30 60 49 34 60
REMARK Flexibility Score: inf
ROOT
ATOM      1  C   UNL A   1      36.975  20.402  24.960  1.00  0.00     0.118 C 
ENDROOT
BRANCH   1   2
ATOM      2  N   UNL A   1      37.199  21.759  25.427  1.00  0.00    -0.351 N 
ATOM      3  C   UNL A   1      36.377  22.807  25.721  1.00  0.00     0.281 C 
ATOM      4  O   UNL A   1      36.980  23.863  25.948  1.00  0.00    -0.268 OA
ATOM      5  H   UNL A   1      38.152  21.968  25.559  1.00  0.00     0.163 HD
BRANCH   3   6
ATOM      6  C   UNL A   1      34.816  22.680  25.815  1.00  0.00     0.179 C 
ATOM      7  C   UNL A   1      34.384  21.782  26.985  1.00  0.00     0.083 C 
ATOM      8  C   UNL A   1      34.134  24.023  26.143  1.00  0.00     0.124 C 
ATOM      9  C   UNL A   1      32.966  22.209  27.319  1.00  0.00     0.052 C 
ATOM     10  C   UNL A   1      32.843  23.685  26.902  1.00  0.00     0.180 C 
BRANCH   6  11
ATOM     11  N   UNL A   1      34.234  22.019  24.607  1.00  0.00    -0.336 N 
ATOM     12  C   UNL A   1      34.146  22.833  23.402  1.00  0.00     0.331 C 
ATOM     13  H   UNL A   1      34.810  21.206  24.390  1.00  0.00     0.346 HD
ATOM     14  H   UNL A   1      33.270  21.801  24.856  1.00  0.00     0.346 HD
ENDBRANCH   6  11
BRANCH  10  15
ATOM     15  O   UNL A   1      31.739  23.923  26.023  1.00  0.00    -0.490 OA
BRANCH  15  16
ATOM     16  C   UNL A   1      31.564  25.182  25.510  1.00  0.00     0.122 A 
ATOM     17  C   UNL A   1      31.897  26.357  26.193  1.00  0.00     0.050 A 
ATOM     18  C   UNL A   1      30.957  25.269  24.249  1.00  0.00    -0.009 A 
ATOM     19  C   UNL A   1      31.530  27.619  25.706  1.00  0.00    -0.042 A 
ATOM     20  C   UNL A   1      30.649  26.535  23.726  1.00  0.00     0.007 A 
ATOM     21  C   UNL A   1      30.591  24.054  23.441  1.00  0.00     0.048 C 
ATOM     22  C   UNL A   1      30.913  27.697  24.455  1.00  0.00     0.004 A 
BRANCH  19  23
ATOM     23  C   UNL A   1      31.707  28.864  26.559  1.00  0.00     0.013 C 
ATOM     24  C   UNL A   1      33.039  28.802  27.317  1.00  0.00     0.012 C 
ATOM     25  C   UNL A   1      31.616  30.154  25.739  1.00  0.00     0.012 C 
ENDBRANCH  19  23
ENDBRANCH  15  16
ENDBRANCH  10  15
ENDBRANCH   3   6
ENDBRANCH   1   2
BRANCH   1  26
ATOM     26  C   UNL A   1      38.279  19.610  24.868  1.00  0.00     0.042 C 
BRANCH  26  27
ATOM     27  C   UNL A   1      39.216  19.811  26.053  1.00  0.00     0.118 C 
BRANCH  27  28
ATOM     28  N   UNL A   1      40.464  19.081  25.898  1.00  0.00    -0.352 N 
ATOM     29  C   UNL A   1      41.761  19.522  25.988  1.00  0.00     0.251 C 
ATOM     30  H   UNL A   1      40.364  18.122  25.700  1.00  0.00     0.163 HD
ATOM     31  O   UNL A   1      42.673  18.790  25.614  1.00  0.00    -0.269 OA
BRANCH  29  32
ATOM     32  C   UNL A   1      42.072  20.869  26.515  1.00  0.00     0.039 A 
ATOM     33  C   UNL A   1      42.399  21.884  25.609  1.00  0.00     0.014 A 
ATOM     34  C   UNL A   1      42.100  21.129  27.888  1.00  0.00     0.014 A 
ATOM     35  C   UNL A   1      42.705  23.164  26.075  1.00  0.00     0.010 A 
ATOM     36  C   UNL A   1      42.337  22.423  28.349  1.00  0.00     0.010 A 
ATOM     37  C   UNL A   1      42.652  23.451  27.448  1.00  0.00    -0.014 A 
BRANCH  37  38
ATOM     38  C   UNL A   1      42.934  24.816  27.959  1.00  0.00     0.031 A 
ATOM     39  C   UNL A   1      44.341  25.219  28.304  1.00  0.00     0.074 A 
ATOM     40  C   UNL A   1      41.917  25.673  28.168  1.00  0.00     0.049 A 
ATOM     41  N   UNL A   1      44.776  26.339  28.825  1.00  0.00    -0.248 NA
ATOM     42  C   UNL A   1      45.395  24.224  28.053  1.00  0.00     0.031 C 
ATOM     43  C   UNL A   1      40.504  25.386  27.912  1.00  0.00     0.029 A 
ATOM     44  N   UNL A   1      41.914  26.955  28.656  1.00  0.00    -0.354 N 
ATOM     45  C   UNL A   1      46.147  26.176  28.981  1.00  0.00     0.074 A 
ATOM     46  C   UNL A   1      46.465  24.835  28.540  1.00  0.00     0.031 C 
ATOM     47  C   UNL A   1      39.773  26.469  28.227  1.00  0.00     0.029 A 
ATOM     48  C   UNL A   1      40.660  27.509  28.740  1.00  0.00     0.049 A 
ATOM     49  H   UNL A   1      42.732  27.433  28.919  1.00  0.00     0.167 HD
ATOM     50  C   UNL A   1      47.061  27.069  29.431  1.00  0.00     0.037 A 
ATOM     51  C   UNL A   1      40.268  28.717  29.187  1.00  0.00     0.037 A 
ATOM     52  C   UNL A   1      46.747  28.412  29.843  1.00  0.00     0.049 A 
ATOM     53  C   UNL A   1      41.299  29.689  29.682  1.00  0.00     0.074 A 
ATOM     54  C   UNL A   1      47.610  29.413  30.254  1.00  0.00     0.029 A 
ATOM     55  N   UNL A   1      45.466  28.941  29.899  1.00  0.00    -0.354 N 
ATOM     56  N   UNL A   1      42.600  29.544  29.763  1.00  0.00    -0.248 NA
ATOM     57  C   UNL A   1      40.810  30.996  30.144  1.00  0.00     0.031 C 
ATOM     58  C   UNL A   1      46.848  30.535  30.594  1.00  0.00     0.029 A 
ATOM     59  C   UNL A   1      45.513  30.247  30.356  1.00  0.00     0.049 A 
ATOM     60  H   UNL A   1      44.644  28.459  29.649  1.00  0.00     0.167 HD
ATOM     61  C   UNL A   1      43.087  30.746  30.260  1.00  0.00     0.074 A 
ATOM     62  C   UNL A   1      41.942  31.614  30.450  1.00  0.00     0.031 C 
ATOM     63  C   UNL A   1      44.366  31.099  30.536  1.00  0.00     0.037 A 
BRANCH  50  64
ATOM     64  C   UNL A   1      48.492  26.619  29.498  1.00  0.00     0.057 A 
ATOM     65  C   UNL A   1      49.390  26.855  28.449  1.00  0.00     0.134 A 
ATOM     66  C   UNL A   1      48.984  25.969  30.636  1.00  0.00     0.134 A 
ATOM     67  F   UNL A   1      48.979  27.464  27.327  1.00  0.00    -0.206 F 
ATOM     68  C   UNL A   1      50.720  26.437  28.518  1.00  0.00     0.040 A 
ATOM     69  C   UNL A   1      50.318  25.568  30.727  1.00  0.00     0.040 A 
ATOM     70  F   UNL A   1      48.179  25.717  31.679  1.00  0.00    -0.206 F 
ATOM     71  C   UNL A   1      51.188  25.795  29.663  1.00  0.00     0.006 A 
ENDBRANCH  50  64
BRANCH  51  72
ATOM     72  C   UNL A   1      38.829  29.082  29.165  1.00  0.00     0.057 A 
ATOM     73  C   UNL A   1      38.034  28.941  30.308  1.00  0.00     0.134 A 
ATOM     74  C   UNL A   1      38.218  29.578  28.009  1.00  0.00     0.134 A 
ATOM     75  F   UNL A   1      38.561  28.454  31.440  1.00  0.00    -0.206 F 
ATOM     76  C   UNL A   1      36.677  29.267  30.299  1.00  0.00     0.040 A 
ATOM     77  C   UNL A   1      36.867  29.929  27.990  1.00  0.00     0.040 A 
ATOM     78  F   UNL A   1      38.928  29.742  26.883  1.00  0.00    -0.206 F 
ATOM     79  C   UNL A   1      36.091  29.768  29.137  1.00  0.00     0.006 A 
ENDBRANCH  51  72
BRANCH  63  80
ATOM     80  C   UNL A   1      44.598  32.491  31.042  1.00  0.00     0.057 A 
ATOM     81  C   UNL A   1      44.646  32.778  32.413  1.00  0.00     0.134 A 
ATOM     82  C   UNL A   1      44.811  33.549  30.150  1.00  0.00     0.134 A 
ATOM     83  F   UNL A   1      44.436  31.811  33.318  1.00  0.00    -0.206 F 
ATOM     84  C   UNL A   1      44.879  34.074  32.876  1.00  0.00     0.040 A 
ATOM     85  C   UNL A   1      45.068  34.843  30.602  1.00  0.00     0.040 A 
ATOM     86  F   UNL A   1      44.784  33.338  28.825  1.00  0.00    -0.206 F 
ATOM     87  C   UNL A   1      45.097  35.110  31.969  1.00  0.00     0.006 A 
ENDBRANCH  63  80
ENDBRANCH  37  38
ENDBRANCH  29  32
ENDBRANCH  27  28
ENDBRANCH  26  27
ENDBRANCH   1  26
TORSDOF 14
ENDMDL
