MODEL 1
REMARK VINA RESULT:     -13.5      0.000      0.000
REMARK SMILES O=C(NCCCNC(=O)c1ccc(-c2c3nc(c(-c4c(F)cccc4F)c4ccc([nH]4)c(-c4c(F)cccc4F)c4nc(c(-c5c(F)cccc5F)c5ccc2[nH]5)C=C4)C=C3)cc1)c1ccc(C(=O)Nc2ccc(-c3nc4ccccc4[nH]3)cc2)cc1
REMARK SMILES IDX 4 1 3 2 1 3 2 4 64 6 65 7 87 8 66 9 86 10 67 11 68 12 69 13
REMARK SMILES IDX 70 14 71 16 72 17 85 18 73 19 84 20 74 21 75 22 76 23 83 24
REMARK SMILES IDX 77 25 82 26 78 28 81 29 79 30 80 31 5 32 6 33 7 34 8 35 9 37
REMARK SMILES IDX 10 38 11 39 63 40 12 41 62 42 13 43 14 44 15 45 56 46 16 47
REMARK SMILES IDX 61 48 55 49 57 50 17 51 60 52 54 53 53 54 18 56 44 57 27 58
REMARK SMILES IDX 43 59 28 60 31 61 42 62 58 63 29 64 30 65 41 67 59 68 32 69
REMARK SMILES IDX 19 70 20 71 25 72 21 73 22 74 24 75 26 76 23 77 45 78 46 79
REMARK SMILES IDX 51 80 47 81 48 82 50 83 52 84 49 85 33 86 34 87 39 88 35 89
REMARK SMILES IDX 36 90 38 91 40 92 37 93
REMARK H PARENT 3 5 70 15 83 27 7 36 57 55 31 66
REMARK Flexibility Score: inf
ROOT
ATOM      1  C   UNL A   1      31.873  30.582  26.773  1.00  0.00     0.118 C 
ENDROOT
BRANCH   1   2
ATOM      2  N   UNL A   1      33.222  30.239  27.193  1.00  0.00    -0.352 N 
ATOM      3  O   UNL A   1      35.058  29.003  27.549  1.00  0.00    -0.269 OA
ATOM      4  C   UNL A   1      33.976  29.113  26.977  1.00  0.00     0.251 C 
ATOM      5  H   UNL A   1      33.671  30.935  27.725  1.00  0.00     0.163 HD
BRANCH   4   6
ATOM      6  C   UNL A   1      33.491  28.014  26.111  1.00  0.00     0.039 A 
ATOM      7  C   UNL A   1      32.687  26.973  26.577  1.00  0.00     0.014 A 
ATOM      8  C   UNL A   1      33.823  28.056  24.758  1.00  0.00     0.014 A 
ATOM      9  C   UNL A   1      32.392  25.884  25.748  1.00  0.00     0.014 A 
ATOM     10  C   UNL A   1      33.435  27.016  23.909  1.00  0.00     0.014 A 
ATOM     11  C   UNL A   1      32.810  25.867  24.410  1.00  0.00     0.040 A 
BRANCH  11  12
ATOM     12  C   UNL A   1      32.464  24.656  23.587  1.00  0.00     0.255 C 
ATOM     13  O   UNL A   1      31.399  24.650  22.967  1.00  0.00    -0.269 OA
ATOM     14  N   UNL A   1      33.334  23.596  23.411  1.00  0.00    -0.322 N 
ATOM     15  H   UNL A   1      33.150  23.027  22.628  1.00  0.00     0.170 HD
BRANCH  14  16
ATOM     16  C   UNL A   1      34.436  23.215  24.181  1.00  0.00     0.041 A 
ATOM     17  C   UNL A   1      34.625  21.855  24.437  1.00  0.00     0.027 A 
ATOM     18  C   UNL A   1      35.380  24.143  24.613  1.00  0.00     0.027 A 
ATOM     19  C   UNL A   1      35.845  21.407  24.964  1.00  0.00     0.014 A 
ATOM     20  C   UNL A   1      36.577  23.695  25.168  1.00  0.00     0.014 A 
ATOM     21  C   UNL A   1      36.849  22.325  25.298  1.00  0.00     0.017 A 
BRANCH  21  22
ATOM     22  C   UNL A   1      38.192  21.941  25.737  1.00  0.00     0.138 A 
ATOM     23  N   UNL A   1      38.765  20.786  25.449  1.00  0.00    -0.229 NA
ATOM     24  N   UNL A   1      38.992  22.661  26.598  1.00  0.00    -0.338 N 
ATOM     25  C   UNL A   1      39.925  20.740  26.169  1.00  0.00     0.089 A 
ATOM     26  C   UNL A   1      40.096  21.903  26.908  1.00  0.00     0.066 A 
ATOM     27  H   UNL A   1      38.804  23.566  26.936  1.00  0.00     0.168 HD
ATOM     28  C   UNL A   1      40.875  19.716  26.253  1.00  0.00     0.030 A 
ATOM     29  C   UNL A   1      41.189  22.110  27.754  1.00  0.00     0.028 A 
ATOM     30  C   UNL A   1      41.979  19.895  27.091  1.00  0.00     0.002 A 
ATOM     31  C   UNL A   1      42.131  21.073  27.827  1.00  0.00     0.002 A 
ENDBRANCH  21  22
ENDBRANCH  14  16
ENDBRANCH  11  12
ENDBRANCH   4   6
ENDBRANCH   1   2
BRANCH   1  32
ATOM     32  C   UNL A   1      31.586  32.074  26.832  1.00  0.00     0.042 C 
BRANCH  32  33
ATOM     33  C   UNL A   1      32.796  32.943  27.136  1.00  0.00     0.118 C 
BRANCH  33  34
ATOM     34  N   UNL A   1      32.439  34.278  27.595  1.00  0.00    -0.352 N 
ATOM     35  C   UNL A   1      32.941  35.042  28.621  1.00  0.00     0.251 C 
ATOM     36  H   UNL A   1      31.715  34.707  27.083  1.00  0.00     0.163 HD
ATOM     37  O   UNL A   1      32.367  36.075  28.944  1.00  0.00    -0.269 OA
BRANCH  35  38
ATOM     38  C   UNL A   1      34.149  34.610  29.360  1.00  0.00     0.039 A 
ATOM     39  C   UNL A   1      34.003  34.145  30.670  1.00  0.00     0.014 A 
ATOM     40  C   UNL A   1      35.417  34.667  28.780  1.00  0.00     0.014 A 
ATOM     41  C   UNL A   1      35.112  33.651  31.359  1.00  0.00     0.010 A 
ATOM     42  C   UNL A   1      36.505  34.091  29.431  1.00  0.00     0.010 A 
ATOM     43  C   UNL A   1      36.362  33.567  30.723  1.00  0.00    -0.014 A 
BRANCH  43  44
ATOM     44  C   UNL A   1      37.514  32.898  31.378  1.00  0.00     0.031 A 
ATOM     45  C   UNL A   1      38.142  31.677  30.767  1.00  0.00     0.074 A 
ATOM     46  C   UNL A   1      37.948  33.354  32.571  1.00  0.00     0.049 A 
ATOM     47  N   UNL A   1      39.108  30.925  31.232  1.00  0.00    -0.248 NA
ATOM     48  C   UNL A   1      37.599  31.227  29.476  1.00  0.00     0.031 C 
ATOM     49  C   UNL A   1      37.390  34.499  33.293  1.00  0.00     0.029 A 
ATOM     50  N   UNL A   1      38.951  32.903  33.393  1.00  0.00    -0.354 N 
ATOM     51  C   UNL A   1      39.282  29.912  30.297  1.00  0.00     0.074 A 
ATOM     52  C   UNL A   1      38.285  30.113  29.267  1.00  0.00     0.031 C 
ATOM     53  C   UNL A   1      38.072  34.676  34.435  1.00  0.00     0.029 A 
ATOM     54  C   UNL A   1      39.083  33.630  34.551  1.00  0.00     0.049 A 
ATOM     55  H   UNL A   1      39.521  32.131  33.173  1.00  0.00     0.167 HD
ATOM     56  C   UNL A   1      40.200  28.917  30.289  1.00  0.00     0.037 A 
ATOM     57  C   UNL A   1      39.915  33.467  35.597  1.00  0.00     0.037 A 
ATOM     58  C   UNL A   1      41.195  28.725  31.312  1.00  0.00     0.049 A 
ATOM     59  C   UNL A   1      40.905  32.336  35.575  1.00  0.00     0.074 A 
ATOM     60  C   UNL A   1      42.207  27.782  31.363  1.00  0.00     0.029 A 
ATOM     61  N   UNL A   1      41.299  29.484  32.469  1.00  0.00    -0.354 N 
ATOM     62  N   UNL A   1      41.108  31.431  34.650  1.00  0.00    -0.248 NA
ATOM     63  C   UNL A   1      41.786  32.207  36.745  1.00  0.00     0.031 C 
ATOM     64  C   UNL A   1      42.885  27.932  32.577  1.00  0.00     0.029 A 
ATOM     65  C   UNL A   1      42.336  29.008  33.255  1.00  0.00     0.049 A 
ATOM     66  H   UNL A   1      40.720  30.247  32.697  1.00  0.00     0.167 HD
ATOM     67  C   UNL A   1      42.152  30.642  35.111  1.00  0.00     0.074 A 
ATOM     68  C   UNL A   1      42.555  31.188  36.390  1.00  0.00     0.031 C 
ATOM     69  C   UNL A   1      42.726  29.560  34.528  1.00  0.00     0.037 A 
BRANCH  56  70
ATOM     70  C   UNL A   1      40.171  27.954  29.135  1.00  0.00     0.057 A 
ATOM     71  C   UNL A   1      40.886  28.192  27.953  1.00  0.00     0.134 A 
ATOM     72  C   UNL A   1      39.457  26.753  29.224  1.00  0.00     0.134 A 
ATOM     73  F   UNL A   1      41.584  29.328  27.798  1.00  0.00    -0.206 F 
ATOM     74  C   UNL A   1      40.869  27.285  26.892  1.00  0.00     0.040 A 
ATOM     75  C   UNL A   1      39.457  25.823  28.182  1.00  0.00     0.040 A 
ATOM     76  F   UNL A   1      38.757  26.455  30.329  1.00  0.00    -0.206 F 
ATOM     77  C   UNL A   1      40.158  26.092  27.009  1.00  0.00     0.006 A 
ENDBRANCH  56  70
BRANCH  57  78
ATOM     78  C   UNL A   1      39.853  34.401  36.750  1.00  0.00     0.057 A 
ATOM     79  C   UNL A   1      40.555  35.612  36.738  1.00  0.00     0.134 A 
ATOM     80  C   UNL A   1      39.102  34.104  37.894  1.00  0.00     0.134 A 
ATOM     81  F   UNL A   1      41.308  35.945  35.679  1.00  0.00    -0.206 F 
ATOM     82  C   UNL A   1      40.531  36.482  37.829  1.00  0.00     0.040 A 
ATOM     83  C   UNL A   1      39.045  34.979  38.980  1.00  0.00     0.040 A 
ATOM     84  F   UNL A   1      38.399  32.964  37.965  1.00  0.00    -0.206 F 
ATOM     85  C   UNL A   1      39.770  36.169  38.952  1.00  0.00     0.006 A 
ENDBRANCH  57  78
BRANCH  69  86
ATOM     86  C   UNL A   1      43.870  28.914  35.256  1.00  0.00     0.057 A 
ATOM     87  C   UNL A   1      45.201  29.296  35.033  1.00  0.00     0.134 A 
ATOM     88  C   UNL A   1      43.636  27.919  36.213  1.00  0.00     0.134 A 
ATOM     89  F   UNL A   1      45.495  30.234  34.120  1.00  0.00    -0.206 F 
ATOM     90  C   UNL A   1      46.257  28.693  35.718  1.00  0.00     0.040 A 
ATOM     91  C   UNL A   1      44.682  27.331  36.926  1.00  0.00     0.040 A 
ATOM     92  F   UNL A   1      42.386  27.513  36.482  1.00  0.00    -0.206 F 
ATOM     93  C   UNL A   1      45.997  27.713  36.673  1.00  0.00     0.006 A 
ENDBRANCH  69  86
ENDBRANCH  43  44
ENDBRANCH  35  38
ENDBRANCH  33  34
ENDBRANCH  32  33
ENDBRANCH   1  32
TORSDOF 13
ENDMDL
MODEL 2
REMARK VINA RESULT:     -13.5      1.216      6.065
REMARK SMILES O=C(NCCCNC(=O)c1ccc(-c2c3nc(c(-c4c(F)cccc4F)c4ccc([nH]4)c(-c4c(F)cccc4F)c4nc(c(-c5c(F)cccc5F)c5ccc2[nH]5)C=C4)C=C3)cc1)c1ccc(C(=O)Nc2ccc(-c3nc4ccccc4[nH]3)cc2)cc1
REMARK SMILES IDX 4 1 3 2 1 3 2 4 64 6 65 7 87 8 66 9 86 10 67 11 68 12 69 13
REMARK SMILES IDX 70 14 71 16 72 17 85 18 73 19 84 20 74 21 75 22 76 23 83 24
REMARK SMILES IDX 77 25 82 26 78 28 81 29 79 30 80 31 5 32 6 33 7 34 8 35 9 37
REMARK SMILES IDX 10 38 11 39 63 40 12 41 62 42 13 43 14 44 15 45 56 46 16 47
REMARK SMILES IDX 61 48 55 49 57 50 17 51 60 52 54 53 53 54 18 56 44 57 27 58
REMARK SMILES IDX 43 59 28 60 31 61 42 62 58 63 29 64 30 65 41 67 59 68 32 69
REMARK SMILES IDX 19 70 20 71 25 72 21 73 22 74 24 75 26 76 23 77 45 78 46 79
REMARK SMILES IDX 51 80 47 81 48 82 50 83 52 84 49 85 33 86 34 87 39 88 35 89
REMARK SMILES IDX 36 90 38 91 40 92 37 93
REMARK H PARENT 3 5 70 15 83 27 7 36 57 55 31 66
REMARK Flexibility Score: inf
ROOT
ATOM      1  C   UNL A   1      31.764  30.610  26.674  1.00  0.00     0.118 C 
ENDROOT
BRANCH   1   2
ATOM      2  N   UNL A   1      33.155  30.341  27.003  1.00  0.00    -0.352 N 
ATOM      3  O   UNL A   1      35.068  29.200  27.254  1.00  0.00    -0.269 OA
ATOM      4  C   UNL A   1      33.943  29.245  26.759  1.00  0.00     0.251 C 
ATOM      5  H   UNL A   1      33.607  31.070  27.484  1.00  0.00     0.163 HD
BRANCH   4   6
ATOM      6  C   UNL A   1      33.452  28.101  25.957  1.00  0.00     0.039 A 
ATOM      7  C   UNL A   1      32.680  27.069  26.493  1.00  0.00     0.014 A 
ATOM      8  C   UNL A   1      33.740  28.090  24.593  1.00  0.00     0.014 A 
ATOM      9  C   UNL A   1      32.378  25.941  25.721  1.00  0.00     0.014 A 
ATOM     10  C   UNL A   1      33.344  27.007  23.803  1.00  0.00     0.014 A 
ATOM     11  C   UNL A   1      32.754  25.872  24.373  1.00  0.00     0.040 A 
BRANCH  11  12
ATOM     12  C   UNL A   1      32.404  24.621  23.614  1.00  0.00     0.255 C 
ATOM     13  O   UNL A   1      31.330  24.579  23.011  1.00  0.00    -0.269 OA
ATOM     14  N   UNL A   1      33.277  23.559  23.475  1.00  0.00    -0.322 N 
ATOM     15  H   UNL A   1      33.086  22.952  22.723  1.00  0.00     0.170 HD
BRANCH  14  16
ATOM     16  C   UNL A   1      34.394  23.221  24.245  1.00  0.00     0.041 A 
ATOM     17  C   UNL A   1      34.598  21.875  24.560  1.00  0.00     0.027 A 
ATOM     18  C   UNL A   1      35.336  24.175  24.622  1.00  0.00     0.027 A 
ATOM     19  C   UNL A   1      35.828  21.461  25.089  1.00  0.00     0.014 A 
ATOM     20  C   UNL A   1      36.544  23.762  25.179  1.00  0.00     0.014 A 
ATOM     21  C   UNL A   1      36.830  22.401  25.367  1.00  0.00     0.017 A 
BRANCH  21  22
ATOM     22  C   UNL A   1      38.182  22.047  25.802  1.00  0.00     0.138 A 
ATOM     23  N   UNL A   1      38.776  20.903  25.521  1.00  0.00    -0.229 NA
ATOM     24  N   UNL A   1      38.970  22.790  26.656  1.00  0.00    -0.338 N 
ATOM     25  C   UNL A   1      39.940  20.885  26.237  1.00  0.00     0.089 A 
ATOM     26  C   UNL A   1      40.091  22.056  26.967  1.00  0.00     0.066 A 
ATOM     27  H   UNL A   1      38.765  23.693  26.988  1.00  0.00     0.168 HD
ATOM     28  C   UNL A   1      40.911  19.881  26.324  1.00  0.00     0.030 A 
ATOM     29  C   UNL A   1      41.182  22.291  27.807  1.00  0.00     0.028 A 
ATOM     30  C   UNL A   1      42.015  20.088  27.156  1.00  0.00     0.002 A 
ATOM     31  C   UNL A   1      42.145  21.274  27.883  1.00  0.00     0.002 A 
ENDBRANCH  21  22
ENDBRANCH  14  16
ENDBRANCH  11  12
ENDBRANCH   4   6
ENDBRANCH   1   2
BRANCH   1  32
ATOM     32  C   UNL A   1      31.368  32.063  26.882  1.00  0.00     0.042 C 
BRANCH  32  33
ATOM     33  C   UNL A   1      32.481  33.067  26.630  1.00  0.00     0.118 C 
BRANCH  33  34
ATOM     34  N   UNL A   1      32.427  34.215  27.526  1.00  0.00    -0.352 N 
ATOM     35  C   UNL A   1      33.158  34.513  28.651  1.00  0.00     0.251 C 
ATOM     36  H   UNL A   1      31.753  34.891  27.286  1.00  0.00     0.163 HD
ATOM     37  O   UNL A   1      32.823  35.455  29.358  1.00  0.00    -0.269 OA
BRANCH  35  38
ATOM     38  C   UNL A   1      34.326  33.687  29.031  1.00  0.00     0.039 A 
ATOM     39  C   UNL A   1      35.602  34.251  28.951  1.00  0.00     0.014 A 
ATOM     40  C   UNL A   1      34.176  32.366  29.457  1.00  0.00     0.014 A 
ATOM     41  C   UNL A   1      36.712  33.524  29.386  1.00  0.00     0.010 A 
ATOM     42  C   UNL A   1      35.269  31.676  29.976  1.00  0.00     0.010 A 
ATOM     43  C   UNL A   1      36.547  32.252  29.956  1.00  0.00    -0.014 A 
BRANCH  43  44
ATOM     44  C   UNL A   1      37.689  31.530  30.571  1.00  0.00     0.031 A 
ATOM     45  C   UNL A   1      38.102  31.813  31.989  1.00  0.00     0.074 A 
ATOM     46  C   UNL A   1      38.405  30.669  29.819  1.00  0.00     0.049 A 
ATOM     47  N   UNL A   1      39.113  31.330  32.665  1.00  0.00    -0.248 NA
ATOM     48  C   UNL A   1      37.286  32.781  32.737  1.00  0.00     0.031 C 
ATOM     49  C   UNL A   1      38.137  30.347  28.416  1.00  0.00     0.029 A 
ATOM     50  N   UNL A   1      39.510  29.916  30.126  1.00  0.00    -0.354 N 
ATOM     51  C   UNL A   1      39.060  31.941  33.912  1.00  0.00     0.074 A 
ATOM     52  C   UNL A   1      37.951  32.869  33.880  1.00  0.00     0.031 C 
ATOM     53  C   UNL A   1      39.035  29.445  27.992  1.00  0.00     0.029 A 
ATOM     54  C   UNL A   1      39.971  29.161  29.075  1.00  0.00     0.049 A 
ATOM     55  H   UNL A   1      39.933  29.916  31.015  1.00  0.00     0.167 HD
ATOM     56  C   UNL A   1      39.851  31.731  34.991  1.00  0.00     0.037 A 
ATOM     57  C   UNL A   1      41.036  28.342  28.986  1.00  0.00     0.037 A 
ATOM     58  C   UNL A   1      40.949  30.800  35.022  1.00  0.00     0.049 A 
ATOM     59  C   UNL A   1      41.915  28.150  30.190  1.00  0.00     0.074 A 
ATOM     60  C   UNL A   1      41.773  30.474  36.086  1.00  0.00     0.029 A 
ATOM     61  N   UNL A   1      41.384  30.052  33.937  1.00  0.00    -0.354 N 
ATOM     62  N   UNL A   1      41.808  28.677  31.385  1.00  0.00    -0.248 NA
ATOM     63  C   UNL A   1      43.063  27.246  30.033  1.00  0.00     0.031 C 
ATOM     64  C   UNL A   1      42.742  29.574  35.630  1.00  0.00     0.029 A 
ATOM     65  C   UNL A   1      42.485  29.291  34.298  1.00  0.00     0.049 A 
ATOM     66  H   UNL A   1      40.972  30.061  33.043  1.00  0.00     0.167 HD
ATOM     67  C   UNL A   1      42.856  28.151  32.128  1.00  0.00     0.074 A 
ATOM     68  C   UNL A   1      43.575  27.248  31.255  1.00  0.00     0.031 C 
ATOM     69  C   UNL A   1      43.194  28.396  33.419  1.00  0.00     0.037 A 
BRANCH  56  70
ATOM     70  C   UNL A   1      39.560  32.528  36.232  1.00  0.00     0.057 A 
ATOM     71  C   UNL A   1      40.225  33.729  36.514  1.00  0.00     0.134 A 
ATOM     72  C   UNL A   1      38.572  32.113  37.133  1.00  0.00     0.134 A 
ATOM     73  F   UNL A   1      41.190  34.180  35.698  1.00  0.00    -0.206 F 
ATOM     74  C   UNL A   1      39.937  34.474  37.659  1.00  0.00     0.040 A 
ATOM     75  C   UNL A   1      38.253  32.864  38.266  1.00  0.00     0.040 A 
ATOM     76  F   UNL A   1      37.890  30.977  36.922  1.00  0.00    -0.206 F 
ATOM     77  C   UNL A   1      38.942  34.045  38.536  1.00  0.00     0.006 A 
ENDBRANCH  56  70
BRANCH  57  78
ATOM     78  C   UNL A   1      41.327  27.634  27.713  1.00  0.00     0.057 A 
ATOM     79  C   UNL A   1      40.846  26.340  27.478  1.00  0.00     0.134 A 
ATOM     80  C   UNL A   1      42.099  28.226  26.705  1.00  0.00     0.134 A 
ATOM     81  F   UNL A   1      40.117  25.712  28.411  1.00  0.00    -0.206 F 
ATOM     82  C   UNL A   1      41.140  25.653  26.299  1.00  0.00     0.040 A 
ATOM     83  C   UNL A   1      42.376  27.562  25.509  1.00  0.00     0.040 A 
ATOM     84  F   UNL A   1      42.582  29.467  26.864  1.00  0.00    -0.206 F 
ATOM     85  C   UNL A   1      41.903  26.267  25.308  1.00  0.00     0.006 A 
ENDBRANCH  57  78
BRANCH  69  86
ATOM     86  C   UNL A   1      44.375  27.653  33.972  1.00  0.00     0.057 A 
ATOM     87  C   UNL A   1      45.669  28.193  33.946  1.00  0.00     0.134 A 
ATOM     88  C   UNL A   1      44.213  26.395  34.565  1.00  0.00     0.134 A 
ATOM     89  F   UNL A   1      45.896  29.387  33.379  1.00  0.00    -0.206 F 
ATOM     90  C   UNL A   1      46.761  27.496  34.466  1.00  0.00     0.040 A 
ATOM     91  C   UNL A   1      45.292  25.702  35.117  1.00  0.00     0.040 A 
ATOM     92  F   UNL A   1      43.001  25.824  34.632  1.00  0.00    -0.206 F 
ATOM     93  C   UNL A   1      46.572  26.250  35.060  1.00  0.00     0.006 A 
ENDBRANCH  69  86
ENDBRANCH  43  44
ENDBRANCH  35  38
ENDBRANCH  33  34
ENDBRANCH  32  33
ENDBRANCH   1  32
TORSDOF 13
ENDMDL
MODEL 3
REMARK VINA RESULT:     -13.4      0.611      6.045
REMARK SMILES O=C(NCCCNC(=O)c1ccc(-c2c3nc(c(-c4c(F)cccc4F)c4ccc([nH]4)c(-c4c(F)cccc4F)c4nc(c(-c5c(F)cccc5F)c5ccc2[nH]5)C=C4)C=C3)cc1)c1ccc(C(=O)Nc2ccc(-c3nc4ccccc4[nH]3)cc2)cc1
REMARK SMILES IDX 4 1 3 2 1 3 2 4 64 6 65 7 87 8 66 9 86 10 67 11 68 12 69 13
REMARK SMILES IDX 70 14 71 16 72 17 85 18 73 19 84 20 74 21 75 22 76 23 83 24
REMARK SMILES IDX 77 25 82 26 78 28 81 29 79 30 80 31 5 32 6 33 7 34 8 35 9 37
REMARK SMILES IDX 10 38 11 39 63 40 12 41 62 42 13 43 14 44 15 45 56 46 16 47
REMARK SMILES IDX 61 48 55 49 57 50 17 51 60 52 54 53 53 54 18 56 44 57 27 58
REMARK SMILES IDX 43 59 28 60 31 61 42 62 58 63 29 64 30 65 41 67 59 68 32 69
REMARK SMILES IDX 19 70 20 71 25 72 21 73 22 74 24 75 26 76 23 77 45 78 46 79
REMARK SMILES IDX 51 80 47 81 48 82 50 83 52 84 49 85 33 86 34 87 39 88 35 89
REMARK SMILES IDX 36 90 38 91 40 92 37 93
REMARK H PARENT 3 5 70 15 83 27 7 36 57 55 31 66
REMARK Flexibility Score: inf
ROOT
ATOM      1  C   UNL A   1      31.782  30.602  26.879  1.00  0.00     0.118 C 
ENDROOT
BRANCH   1   2
ATOM      2  N   UNL A   1      33.125  30.252  27.312  1.00  0.00    -0.352 N 
ATOM      3  O   UNL A   1      34.957  29.011  27.670  1.00  0.00    -0.269 OA
ATOM      4  C   UNL A   1      33.883  29.131  27.084  1.00  0.00     0.251 C 
ATOM      5  H   UNL A   1      33.566  30.938  27.863  1.00  0.00     0.163 HD
BRANCH   4   6
ATOM      6  C   UNL A   1      33.412  28.048  26.191  1.00  0.00     0.039 A 
ATOM      7  C   UNL A   1      32.589  27.006  26.623  1.00  0.00     0.014 A 
ATOM      8  C   UNL A   1      33.775  28.107  24.847  1.00  0.00     0.014 A 
ATOM      9  C   UNL A   1      32.306  25.932  25.772  1.00  0.00     0.014 A 
ATOM     10  C   UNL A   1      33.401  27.082  23.974  1.00  0.00     0.014 A 
ATOM     11  C   UNL A   1      32.756  25.930  24.444  1.00  0.00     0.040 A 
BRANCH  11  12
ATOM     12  C   UNL A   1      32.422  24.734  23.595  1.00  0.00     0.255 C 
ATOM     13  O   UNL A   1      31.359  24.732  22.972  1.00  0.00    -0.269 OA
ATOM     14  N   UNL A   1      33.300  23.685  23.400  1.00  0.00    -0.322 N 
ATOM     15  H   UNL A   1      33.123  23.131  22.606  1.00  0.00     0.170 HD
BRANCH  14  16
ATOM     16  C   UNL A   1      34.403  23.296  24.165  1.00  0.00     0.041 A 
ATOM     17  C   UNL A   1      34.533  21.946  24.501  1.00  0.00     0.027 A 
ATOM     18  C   UNL A   1      35.402  24.200  24.516  1.00  0.00     0.027 A 
ATOM     19  C   UNL A   1      35.743  21.470  25.025  1.00  0.00     0.014 A 
ATOM     20  C   UNL A   1      36.590  23.728  25.069  1.00  0.00     0.014 A 
ATOM     21  C   UNL A   1      36.799  22.355  25.278  1.00  0.00     0.017 A 
BRANCH  21  22
ATOM     22  C   UNL A   1      38.134  21.932  25.706  1.00  0.00     0.138 A 
ATOM     23  N   UNL A   1      38.684  20.776  25.384  1.00  0.00    -0.229 NA
ATOM     24  N   UNL A   1      38.945  22.610  26.592  1.00  0.00    -0.338 N 
ATOM     25  C   UNL A   1      39.841  20.685  26.105  1.00  0.00     0.089 A 
ATOM     26  C   UNL A   1      40.033  21.821  26.880  1.00  0.00     0.066 A 
ATOM     27  H   UNL A   1      38.773  23.507  26.957  1.00  0.00     0.168 HD
ATOM     28  C   UNL A   1      40.771  19.640  26.158  1.00  0.00     0.030 A 
ATOM     29  C   UNL A   1      41.127  21.979  27.734  1.00  0.00     0.028 A 
ATOM     30  C   UNL A   1      41.877  19.771  27.004  1.00  0.00     0.002 A 
ATOM     31  C   UNL A   1      42.049  20.923  27.776  1.00  0.00     0.002 A 
ENDBRANCH  21  22
ENDBRANCH  14  16
ENDBRANCH  11  12
ENDBRANCH   4   6
ENDBRANCH   1   2
BRANCH   1  32
ATOM     32  C   UNL A   1      31.533  32.101  26.842  1.00  0.00     0.042 C 
BRANCH  32  33
ATOM     33  C   UNL A   1      32.766  32.956  27.086  1.00  0.00     0.118 C 
BRANCH  33  34
ATOM     34  N   UNL A   1      32.450  34.277  27.612  1.00  0.00    -0.352 N 
ATOM     35  C   UNL A   1      32.998  34.985  28.654  1.00  0.00     0.251 C 
ATOM     36  H   UNL A   1      31.721  34.742  27.141  1.00  0.00     0.163 HD
ATOM     37  O   UNL A   1      32.454  36.014  29.038  1.00  0.00    -0.269 OA
BRANCH  35  38
ATOM     38  C   UNL A   1      34.218  34.499  29.338  1.00  0.00     0.039 A 
ATOM     39  C   UNL A   1      34.092  33.927  30.606  1.00  0.00     0.014 A 
ATOM     40  C   UNL A   1      35.477  34.609  28.746  1.00  0.00     0.014 A 
ATOM     41  C   UNL A   1      35.213  33.382  31.236  1.00  0.00     0.010 A 
ATOM     42  C   UNL A   1      36.576  33.985  29.331  1.00  0.00     0.010 A 
ATOM     43  C   UNL A   1      36.453  33.355  30.578  1.00  0.00    -0.014 A 
BRANCH  43  44
ATOM     44  C   UNL A   1      37.617  32.640  31.158  1.00  0.00     0.031 A 
ATOM     45  C   UNL A   1      38.279  33.141  32.411  1.00  0.00     0.074 A 
ATOM     46  C   UNL A   1      38.125  31.573  30.508  1.00  0.00     0.049 A 
ATOM     47  N   UNL A   1      39.344  32.685  33.021  1.00  0.00    -0.248 NA
ATOM     48  C   UNL A   1      37.681  34.323  33.051  1.00  0.00     0.031 C 
ATOM     49  C   UNL A   1      37.605  31.019  29.256  1.00  0.00     0.029 A 
ATOM     50  N   UNL A   1      39.199  30.771  30.802  1.00  0.00    -0.354 N 
ATOM     51  C   UNL A   1      39.548  33.527  34.108  1.00  0.00     0.074 A 
ATOM     52  C   UNL A   1      38.530  34.553  34.042  1.00  0.00     0.031 C 
ATOM     53  C   UNL A   1      38.343  29.955  28.905  1.00  0.00     0.029 A 
ATOM     54  C   UNL A   1      39.416  29.780  29.876  1.00  0.00     0.049 A 
ATOM     55  H   UNL A   1      39.761  30.895  31.602  1.00  0.00     0.167 HD
ATOM     56  C   UNL A   1      40.485  33.440  35.081  1.00  0.00     0.037 A 
ATOM     57  C   UNL A   1      40.381  28.842  29.807  1.00  0.00     0.037 A 
ATOM     58  C   UNL A   1      41.492  32.413  35.146  1.00  0.00     0.049 A 
ATOM     59  C   UNL A   1      41.427  28.787  30.886  1.00  0.00     0.074 A 
ATOM     60  C   UNL A   1      42.449  32.206  36.125  1.00  0.00     0.029 A 
ATOM     61  N   UNL A   1      41.679  31.424  34.191  1.00  0.00    -0.354 N 
ATOM     62  N   UNL A   1      41.562  29.544  31.947  1.00  0.00    -0.248 NA
ATOM     63  C   UNL A   1      42.454  27.744  30.757  1.00  0.00     0.031 C 
ATOM     64  C   UNL A   1      43.252  31.130  35.732  1.00  0.00     0.029 A 
ATOM     65  C   UNL A   1      42.757  30.626  34.540  1.00  0.00     0.049 A 
ATOM     66  H   UNL A   1      41.127  31.308  33.383  1.00  0.00     0.167 HD
ATOM     67  C   UNL A   1      42.670  29.054  32.625  1.00  0.00     0.074 A 
ATOM     68  C   UNL A   1      43.158  27.922  31.865  1.00  0.00     0.031 C 
ATOM     69  C   UNL A   1      43.234  29.503  33.774  1.00  0.00     0.037 A 
BRANCH  56  70
ATOM     70  C   UNL A   1      40.469  34.490  36.157  1.00  0.00     0.057 A 
ATOM     71  C   UNL A   1      39.682  34.357  37.309  1.00  0.00     0.134 A 
ATOM     72  C   UNL A   1      41.283  35.625  36.061  1.00  0.00     0.134 A 
ATOM     73  F   UNL A   1      38.872  33.298  37.461  1.00  0.00    -0.206 F 
ATOM     74  C   UNL A   1      39.685  35.326  38.313  1.00  0.00     0.040 A 
ATOM     75  C   UNL A   1      41.318  36.587  37.072  1.00  0.00     0.040 A 
ATOM     76  F   UNL A   1      42.068  35.813  34.990  1.00  0.00    -0.206 F 
ATOM     77  C   UNL A   1      40.512  36.443  38.199  1.00  0.00     0.006 A 
ENDBRANCH  56  70
BRANCH  57  78
ATOM     78  C   UNL A   1      40.398  27.874  28.682  1.00  0.00     0.057 A 
ATOM     79  C   UNL A   1      41.123  28.136  27.513  1.00  0.00     0.134 A 
ATOM     80  C   UNL A   1      39.686  26.670  28.740  1.00  0.00     0.134 A 
ATOM     81  F   UNL A   1      41.810  29.281  27.388  1.00  0.00    -0.206 F 
ATOM     82  C   UNL A   1      41.120  27.248  26.436  1.00  0.00     0.040 A 
ATOM     83  C   UNL A   1      39.698  25.759  27.683  1.00  0.00     0.040 A 
ATOM     84  F   UNL A   1      38.979  26.354  29.836  1.00  0.00    -0.206 F 
ATOM     85  C   UNL A   1      40.411  26.053  26.521  1.00  0.00     0.006 A 
ENDBRANCH  57  78
BRANCH  69  86
ATOM     86  C   UNL A   1      44.425  28.750  34.293  1.00  0.00     0.057 A 
ATOM     87  C   UNL A   1      44.289  27.639  35.138  1.00  0.00     0.134 A 
ATOM     88  C   UNL A   1      45.723  29.122  33.920  1.00  0.00     0.134 A 
ATOM     89  F   UNL A   1      43.075  27.239  35.545  1.00  0.00    -0.206 F 
ATOM     90  C   UNL A   1      45.403  26.943  35.611  1.00  0.00     0.040 A 
ATOM     91  C   UNL A   1      46.841  28.414  34.362  1.00  0.00     0.040 A 
ATOM     92  F   UNL A   1      45.924  30.170  33.107  1.00  0.00    -0.206 F 
ATOM     93  C   UNL A   1      46.683  27.326  35.218  1.00  0.00     0.006 A 
ENDBRANCH  69  86
ENDBRANCH  43  44
ENDBRANCH  35  38
ENDBRANCH  33  34
ENDBRANCH  32  33
ENDBRANCH   1  32
TORSDOF 13
ENDMDL
