MODEL 1
REMARK VINA RESULT:     -11.6      0.000      0.000
REMARK SMILES O=CN[C@H](C(=O)NCCCNC(=O)c1ccc(-c2c3nc(c(-c4c(F)cccc4F)c4ccc([nH]4)c(-c4c(F)cccc4F)c4nc(c(-c5c(F)cccc5F)c5ccc2[nH]5)C=C4)C=C3)cc1)[C@@H]1CCO[C@@]2(CCOC2)C1
REMARK SMILES IDX 9 1 8 2 7 3 5 4 6 5 4 7 3 8 1 9 2 10 68 12 69 13 77 14 70 15
REMARK SMILES IDX 72 16 71 17 73 18 76 19 74 20 75 21 10 22 11 23 12 24 13 26
REMARK SMILES IDX 14 27 15 28 67 29 16 30 66 31 17 32 18 33 19 34 60 35 20 36
REMARK SMILES IDX 65 37 59 38 61 39 21 40 64 41 58 42 57 43 22 45 48 46 31 47
REMARK SMILES IDX 47 48 32 49 35 50 46 51 62 52 33 53 34 54 45 56 63 57 36 58
REMARK SMILES IDX 23 59 24 60 29 61 25 62 26 63 28 64 30 65 27 66 49 67 50 68
REMARK SMILES IDX 55 69 51 70 52 71 54 72 56 73 53 74 37 75 38 76 43 77 39 78
REMARK SMILES IDX 40 79 42 80 44 81 41 82
REMARK H PARENT 7 6 3 11 11 25 61 44 35 55
REMARK Flexibility Score: inf
ROOT
ATOM      1  C   UNL A   1      37.423  19.888  24.977  1.00  0.00     0.042 C 
ENDROOT
BRANCH   1   2
ATOM      2  C   UNL A   1      36.267  20.876  24.763  1.00  0.00     0.117 C 
BRANCH   2   3
ATOM      3  N   UNL A   1      35.503  21.181  25.968  1.00  0.00    -0.354 N 
ATOM      4  C   UNL A   1      34.227  20.888  26.363  1.00  0.00     0.242 C 
ATOM      5  O   UNL A   1      33.872  21.335  27.457  1.00  0.00    -0.273 OA
ATOM      6  H   UNL A   1      36.009  21.704  26.632  1.00  0.00     0.163 HD
BRANCH   4   7
ATOM      7  C   UNL A   1      33.263  20.074  25.461  1.00  0.00     0.174 C 
BRANCH   7   8
ATOM      8  N   UNL A   1      32.898  18.770  26.017  1.00  0.00    -0.347 N 
ATOM      9  O   UNL A   1      32.545  16.541  25.960  1.00  0.00    -0.279 OA
ATOM     10  C   UNL A   1      32.714  17.592  25.357  1.00  0.00     0.337 C 
ATOM     11  H   UNL A   1      32.770  18.739  26.992  1.00  0.00     0.164 HD
ENDBRANCH   7   8
BRANCH   7  12
ATOM     12  C   UNL A   1      32.103  20.867  24.777  1.00  0.00     0.026 C 
ATOM     13  C   UNL A   1      32.201  20.986  23.252  1.00  0.00     0.035 C 
ATOM     14  C   UNL A   1      31.651  22.218  25.380  1.00  0.00     0.044 C 
ATOM     15  C   UNL A   1      32.914  22.243  22.809  1.00  0.00     0.161 C 
ATOM     16  C   UNL A   1      32.126  23.506  24.656  1.00  0.00     0.094 C 
ATOM     17  O   UNL A   1      32.152  23.356  23.240  1.00  0.00    -0.372 OA
ATOM     18  C   UNL A   1      31.198  24.672  24.976  1.00  0.00     0.066 C 
ATOM     19  C   UNL A   1      33.428  24.079  25.209  1.00  0.00     0.195 C 
ATOM     20  C   UNL A   1      31.694  25.145  26.324  1.00  0.00     0.163 C 
ATOM     21  O   UNL A   1      33.086  24.808  26.397  1.00  0.00    -0.378 OA
ENDBRANCH   7  12
ENDBRANCH   4   7
ENDBRANCH   2   3
ENDBRANCH   1   2
BRANCH   1  22
ATOM     22  C   UNL A   1      38.678  20.465  25.634  1.00  0.00     0.118 C 
BRANCH  22  23
ATOM     23  N   UNL A   1      39.717  19.462  25.774  1.00  0.00    -0.352 N 
ATOM     24  C   UNL A   1      41.052  19.639  26.047  1.00  0.00     0.251 C 
ATOM     25  H   UNL A   1      39.427  18.529  25.658  1.00  0.00     0.163 HD
ATOM     26  O   UNL A   1      41.838  18.716  25.853  1.00  0.00    -0.269 OA
BRANCH  24  27
ATOM     27  C   UNL A   1      41.557  20.930  26.574  1.00  0.00     0.039 A 
ATOM     28  C   UNL A   1      41.477  21.171  27.950  1.00  0.00     0.014 A 
ATOM     29  C   UNL A   1      42.022  21.935  25.720  1.00  0.00     0.014 A 
ATOM     30  C   UNL A   1      41.876  22.406  28.471  1.00  0.00     0.010 A 
ATOM     31  C   UNL A   1      42.465  23.152  26.246  1.00  0.00     0.010 A 
ATOM     32  C   UNL A   1      42.378  23.407  27.624  1.00  0.00    -0.014 A 
BRANCH  32  33
ATOM     33  C   UNL A   1      42.765  24.739  28.162  1.00  0.00     0.031 A 
ATOM     34  C   UNL A   1      41.719  25.799  28.389  1.00  0.00     0.074 A 
ATOM     35  C   UNL A   1      44.058  25.014  28.420  1.00  0.00     0.049 A 
ATOM     36  N   UNL A   1      41.866  27.031  28.810  1.00  0.00    -0.248 NA
ATOM     37  C   UNL A   1      40.328  25.430  28.085  1.00  0.00     0.031 C 
ATOM     38  C   UNL A   1      45.175  24.093  28.219  1.00  0.00     0.029 A 
ATOM     39  N   UNL A   1      44.648  26.156  28.903  1.00  0.00    -0.354 N 
ATOM     40  C   UNL A   1      40.592  27.588  28.802  1.00  0.00     0.074 A 
ATOM     41  C   UNL A   1      39.691  26.572  28.301  1.00  0.00     0.031 C 
ATOM     42  C   UNL A   1      46.316  24.701  28.586  1.00  0.00     0.029 A 
ATOM     43  C   UNL A   1      46.013  26.061  29.025  1.00  0.00     0.049 A 
ATOM     44  H   UNL A   1      44.142  26.967  29.140  1.00  0.00     0.167 HD
ATOM     45  C   UNL A   1      40.204  28.825  29.194  1.00  0.00     0.037 A 
ATOM     46  C   UNL A   1      46.920  26.967  29.438  1.00  0.00     0.037 A 
ATOM     47  C   UNL A   1      41.089  29.827  29.727  1.00  0.00     0.049 A 
ATOM     48  C   UNL A   1      46.464  28.330  29.876  1.00  0.00     0.074 A 
ATOM     49  C   UNL A   1      40.774  31.086  30.211  1.00  0.00     0.029 A 
ATOM     50  N   UNL A   1      42.462  29.684  29.850  1.00  0.00    -0.354 N 
ATOM     51  N   UNL A   1      45.250  28.822  29.917  1.00  0.00    -0.248 NA
ATOM     52  C   UNL A   1      47.505  29.264  30.332  1.00  0.00     0.031 C 
ATOM     53  C   UNL A   1      41.962  31.718  30.596  1.00  0.00     0.029 A 
ATOM     54  C   UNL A   1      43.011  30.838  30.385  1.00  0.00     0.049 A 
ATOM     55  H   UNL A   1      42.971  28.883  29.594  1.00  0.00     0.167 HD
ATOM     56  C   UNL A   1      45.377  30.110  30.423  1.00  0.00     0.074 A 
ATOM     57  C   UNL A   1      46.785  30.320  30.685  1.00  0.00     0.031 C 
ATOM     58  C   UNL A   1      44.413  31.033  30.648  1.00  0.00     0.037 A 
BRANCH  45  59
ATOM     59  C   UNL A   1      38.749  29.165  29.064  1.00  0.00     0.057 A 
ATOM     60  C   UNL A   1      37.880  29.118  30.161  1.00  0.00     0.134 A 
ATOM     61  C   UNL A   1      38.219  29.582  27.836  1.00  0.00     0.134 A 
ATOM     62  F   UNL A   1      38.323  28.717  31.362  1.00  0.00    -0.206 F 
ATOM     63  C   UNL A   1      36.530  29.450  30.037  1.00  0.00     0.040 A 
ATOM     64  C   UNL A   1      36.876  29.938  27.705  1.00  0.00     0.040 A 
ATOM     65  F   UNL A   1      39.000  29.655  26.748  1.00  0.00    -0.206 F 
ATOM     66  C   UNL A   1      36.027  29.868  28.807  1.00  0.00     0.006 A 
ENDBRANCH  45  59
BRANCH  46  67
ATOM     67  C   UNL A   1      48.358  26.607  29.478  1.00  0.00     0.057 A 
ATOM     68  C   UNL A   1      48.907  25.954  30.586  1.00  0.00     0.134 A 
ATOM     69  C   UNL A   1      49.216  26.912  28.415  1.00  0.00     0.134 A 
ATOM     70  F   UNL A   1      48.137  25.655  31.643  1.00  0.00    -0.206 F 
ATOM     71  C   UNL A   1      50.262  25.627  30.644  1.00  0.00     0.040 A 
ATOM     72  C   UNL A   1      50.570  26.574  28.450  1.00  0.00     0.040 A 
ATOM     73  F   UNL A   1      48.749  27.533  27.323  1.00  0.00    -0.206 F 
ATOM     74  C   UNL A   1      51.097  25.934  29.570  1.00  0.00     0.006 A 
ENDBRANCH  46  67
BRANCH  58  75
ATOM     75  C   UNL A   1      44.842  32.346  31.233  1.00  0.00     0.057 A 
ATOM     76  C   UNL A   1      44.918  32.545  32.617  1.00  0.00     0.134 A 
ATOM     77  C   UNL A   1      45.218  33.409  30.403  1.00  0.00     0.134 A 
ATOM     78  F   UNL A   1      44.558  31.569  33.464  1.00  0.00    -0.206 F 
ATOM     79  C   UNL A   1      45.338  33.762  33.156  1.00  0.00     0.040 A 
ATOM     80  C   UNL A   1      45.659  34.624  30.930  1.00  0.00     0.040 A 
ATOM     81  F   UNL A   1      45.174  33.279  29.068  1.00  0.00    -0.206 F 
ATOM     82  C   UNL A   1      45.716  34.803  32.310  1.00  0.00     0.006 A 
ENDBRANCH  58  75
ENDBRANCH  32  33
ENDBRANCH  24  27
ENDBRANCH  22  23
ENDBRANCH   1  22
TORSDOF 12
ENDMDL
MODEL 2
REMARK VINA RESULT:     -11.6      0.740      6.428
REMARK SMILES O=CN[C@H](C(=O)NCCCNC(=O)c1ccc(-c2c3nc(c(-c4c(F)cccc4F)c4ccc([nH]4)c(-c4c(F)cccc4F)c4nc(c(-c5c(F)cccc5F)c5ccc2[nH]5)C=C4)C=C3)cc1)[C@@H]1CCO[C@@]2(CCOC2)C1
REMARK SMILES IDX 9 1 8 2 7 3 5 4 6 5 4 7 3 8 1 9 2 10 68 12 69 13 77 14 70 15
REMARK SMILES IDX 72 16 71 17 73 18 76 19 74 20 75 21 10 22 11 23 12 24 13 26
REMARK SMILES IDX 14 27 15 28 67 29 16 30 66 31 17 32 18 33 19 34 60 35 20 36
REMARK SMILES IDX 65 37 59 38 61 39 21 40 64 41 58 42 57 43 22 45 48 46 31 47
REMARK SMILES IDX 47 48 32 49 35 50 46 51 62 52 33 53 34 54 45 56 63 57 36 58
REMARK SMILES IDX 23 59 24 60 29 61 25 62 26 63 28 64 30 65 27 66 49 67 50 68
REMARK SMILES IDX 55 69 51 70 52 71 54 72 56 73 53 74 37 75 38 76 43 77 39 78
REMARK SMILES IDX 40 79 42 80 44 81 41 82
REMARK H PARENT 7 6 3 11 11 25 61 44 35 55
REMARK Flexibility Score: inf
ROOT
ATOM      1  C   UNL A   1      38.246  19.747  24.895  1.00  0.00     0.042 C 
ENDROOT
BRANCH   1   2
ATOM      2  C   UNL A   1      37.290  20.904  24.573  1.00  0.00     0.117 C 
BRANCH   2   3
ATOM      3  N   UNL A   1      36.494  21.364  25.706  1.00  0.00    -0.354 N 
ATOM      4  C   UNL A   1      35.156  21.327  25.983  1.00  0.00     0.242 C 
ATOM      5  O   UNL A   1      34.797  21.845  27.044  1.00  0.00    -0.273 OA
ATOM      6  H   UNL A   1      37.030  21.787  26.416  1.00  0.00     0.163 HD
BRANCH   4   7
ATOM      7  C   UNL A   1      34.138  20.704  24.993  1.00  0.00     0.174 C 
BRANCH   7   8
ATOM      8  N   UNL A   1      33.361  19.603  25.563  1.00  0.00    -0.347 N 
ATOM      9  O   UNL A   1      32.132  17.710  25.500  1.00  0.00    -0.279 OA
ATOM     10  C   UNL A   1      32.623  18.661  24.909  1.00  0.00     0.337 C 
ATOM     11  H   UNL A   1      33.372  19.532  26.545  1.00  0.00     0.164 HD
ENDBRANCH   7   8
BRANCH   7  12
ATOM     12  C   UNL A   1      33.340  21.698  24.088  1.00  0.00     0.026 C 
ATOM     13  C   UNL A   1      34.192  22.723  23.330  1.00  0.00     0.035 C 
ATOM     14  C   UNL A   1      32.073  22.385  24.652  1.00  0.00     0.044 C 
ATOM     15  C   UNL A   1      34.356  24.020  24.089  1.00  0.00     0.161 C 
ATOM     16  C   UNL A   1      32.211  23.866  25.090  1.00  0.00     0.094 C 
ATOM     17  O   UNL A   1      33.076  24.608  24.236  1.00  0.00    -0.372 OA
ATOM     18  C   UNL A   1      30.852  24.558  25.077  1.00  0.00     0.066 C 
ATOM     19  C   UNL A   1      32.554  24.042  26.567  1.00  0.00     0.195 C 
ATOM     20  C   UNL A   1      30.241  24.136  26.394  1.00  0.00     0.163 C 
ATOM     21  O   UNL A   1      31.328  23.885  27.296  1.00  0.00    -0.378 OA
ENDBRANCH   7  12
ENDBRANCH   4   7
ENDBRANCH   2   3
ENDBRANCH   1   2
BRANCH   1  22
ATOM     22  C   UNL A   1      39.219  19.991  26.049  1.00  0.00     0.118 C 
BRANCH  22  23
ATOM     23  N   UNL A   1      40.423  19.193  25.911  1.00  0.00    -0.352 N 
ATOM     24  C   UNL A   1      41.735  19.602  25.943  1.00  0.00     0.251 C 
ATOM     25  H   UNL A   1      40.282  18.228  25.777  1.00  0.00     0.163 HD
ATOM     26  O   UNL A   1      42.614  18.850  25.531  1.00  0.00    -0.269 OA
BRANCH  24  27
ATOM     27  C   UNL A   1      42.103  20.938  26.469  1.00  0.00     0.039 A 
ATOM     28  C   UNL A   1      42.061  21.152  27.851  1.00  0.00     0.014 A 
ATOM     29  C   UNL A   1      42.400  22.003  25.611  1.00  0.00     0.014 A 
ATOM     30  C   UNL A   1      42.332  22.421  28.373  1.00  0.00     0.010 A 
ATOM     31  C   UNL A   1      42.716  23.258  26.137  1.00  0.00     0.010 A 
ATOM     32  C   UNL A   1      42.665  23.485  27.521  1.00  0.00    -0.014 A 
BRANCH  32  33
ATOM     33  C   UNL A   1      42.913  24.848  28.064  1.00  0.00     0.031 A 
ATOM     34  C   UNL A   1      44.303  25.264  28.466  1.00  0.00     0.074 A 
ATOM     35  C   UNL A   1      41.888  25.707  28.229  1.00  0.00     0.049 A 
ATOM     36  N   UNL A   1      44.710  26.389  28.998  1.00  0.00    -0.248 NA
ATOM     37  C   UNL A   1      45.373  24.275  28.261  1.00  0.00     0.031 C 
ATOM     38  C   UNL A   1      40.489  25.426  27.910  1.00  0.00     0.029 A 
ATOM     39  N   UNL A   1      41.869  26.992  28.713  1.00  0.00    -0.354 N 
ATOM     40  C   UNL A   1      46.076  26.238  29.207  1.00  0.00     0.074 A 
ATOM     41  C   UNL A   1      46.421  24.899  28.779  1.00  0.00     0.031 C 
ATOM     42  C   UNL A   1      39.748  26.510  28.196  1.00  0.00     0.029 A 
ATOM     43  C   UNL A   1      40.615  27.552  28.740  1.00  0.00     0.049 A 
ATOM     44  H   UNL A   1      42.677  27.467  29.013  1.00  0.00     0.167 HD
ATOM     45  C   UNL A   1      46.966  27.136  29.693  1.00  0.00     0.037 A 
ATOM     46  C   UNL A   1      40.208  28.764  29.161  1.00  0.00     0.037 A 
ATOM     47  C   UNL A   1      46.636  28.481  30.087  1.00  0.00     0.049 A 
ATOM     48  C   UNL A   1      41.215  29.747  29.687  1.00  0.00     0.074 A 
ATOM     49  C   UNL A   1      47.484  29.482  30.529  1.00  0.00     0.029 A 
ATOM     50  N   UNL A   1      45.357  29.013  30.082  1.00  0.00    -0.354 N 
ATOM     51  N   UNL A   1      42.511  29.609  29.825  1.00  0.00    -0.248 NA
ATOM     52  C   UNL A   1      40.704  31.059  30.112  1.00  0.00     0.031 C 
ATOM     53  C   UNL A   1      46.712  30.612  30.824  1.00  0.00     0.029 A 
ATOM     54  C   UNL A   1      45.390  30.324  30.531  1.00  0.00     0.049 A 
ATOM     55  H   UNL A   1      44.546  28.532  29.803  1.00  0.00     0.167 HD
ATOM     56  C   UNL A   1      42.972  30.819  30.329  1.00  0.00     0.074 A 
ATOM     57  C   UNL A   1      41.819  31.684  30.462  1.00  0.00     0.031 C 
ATOM     58  C   UNL A   1      44.237  31.178  30.652  1.00  0.00     0.037 A 
BRANCH  45  59
ATOM     59  C   UNL A   1      48.393  26.693  29.824  1.00  0.00     0.057 A 
ATOM     60  C   UNL A   1      49.324  26.893  28.798  1.00  0.00     0.134 A 
ATOM     61  C   UNL A   1      48.850  26.092  31.005  1.00  0.00     0.134 A 
ATOM     62  F   UNL A   1      48.948  27.453  27.639  1.00  0.00    -0.206 F 
ATOM     63  C   UNL A   1      50.655  26.492  28.931  1.00  0.00     0.040 A 
ATOM     64  C   UNL A   1      50.183  25.707  31.158  1.00  0.00     0.040 A 
ATOM     65  F   UNL A   1      48.010  25.878  32.028  1.00  0.00    -0.206 F 
ATOM     66  C   UNL A   1      51.088  25.903  30.117  1.00  0.00     0.006 A 
ENDBRANCH  45  59
BRANCH  46  67
ATOM     67  C   UNL A   1      38.772  29.129  29.081  1.00  0.00     0.057 A 
ATOM     68  C   UNL A   1      38.211  29.590  27.885  1.00  0.00     0.134 A 
ATOM     69  C   UNL A   1      37.931  29.033  30.195  1.00  0.00     0.134 A 
ATOM     70  F   UNL A   1      38.973  29.723  26.789  1.00  0.00    -0.206 F 
ATOM     71  C   UNL A   1      36.867  29.955  27.801  1.00  0.00     0.040 A 
ATOM     72  C   UNL A   1      36.581  29.375  30.122  1.00  0.00     0.040 A 
ATOM     73  F   UNL A   1      38.410  28.594  31.368  1.00  0.00    -0.206 F 
ATOM     74  C   UNL A   1      36.046  29.843  28.923  1.00  0.00     0.006 A 
ENDBRANCH  46  67
BRANCH  58  75
ATOM     75  C   UNL A   1      44.447  32.575  31.155  1.00  0.00     0.057 A 
ATOM     76  C   UNL A   1      44.428  32.875  32.523  1.00  0.00     0.134 A 
ATOM     77  C   UNL A   1      44.708  33.623  30.264  1.00  0.00     0.134 A 
ATOM     78  F   UNL A   1      44.170  31.917  33.425  1.00  0.00    -0.206 F 
ATOM     79  C   UNL A   1      44.645  34.174  32.986  1.00  0.00     0.040 A 
ATOM     80  C   UNL A   1      44.947  34.921  30.716  1.00  0.00     0.040 A 
ATOM     81  F   UNL A   1      44.747  33.399  28.942  1.00  0.00    -0.206 F 
ATOM     82  C   UNL A   1      44.911  35.200  32.081  1.00  0.00     0.006 A 
ENDBRANCH  58  75
ENDBRANCH  32  33
ENDBRANCH  24  27
ENDBRANCH  22  23
ENDBRANCH   1  22
TORSDOF 12
ENDMDL
MODEL 3
REMARK VINA RESULT:     -11.5      0.971      1.699
REMARK SMILES O=CN[C@H](C(=O)NCCCNC(=O)c1ccc(-c2c3nc(c(-c4c(F)cccc4F)c4ccc([nH]4)c(-c4c(F)cccc4F)c4nc(c(-c5c(F)cccc5F)c5ccc2[nH]5)C=C4)C=C3)cc1)[C@@H]1CCO[C@@]2(CCOC2)C1
REMARK SMILES IDX 9 1 8 2 7 3 5 4 6 5 4 7 3 8 1 9 2 10 68 12 69 13 77 14 70 15
REMARK SMILES IDX 72 16 71 17 73 18 76 19 74 20 75 21 10 22 11 23 12 24 13 26
REMARK SMILES IDX 14 27 15 28 67 29 16 30 66 31 17 32 18 33 19 34 60 35 20 36
REMARK SMILES IDX 65 37 59 38 61 39 21 40 64 41 58 42 57 43 22 45 48 46 31 47
REMARK SMILES IDX 47 48 32 49 35 50 46 51 62 52 33 53 34 54 45 56 63 57 36 58
REMARK SMILES IDX 23 59 24 60 29 61 25 62 26 63 28 64 30 65 27 66 49 67 50 68
REMARK SMILES IDX 55 69 51 70 52 71 54 72 56 73 53 74 37 75 38 76 43 77 39 78
REMARK SMILES IDX 40 79 42 80 44 81 41 82
REMARK H PARENT 7 6 3 11 11 25 61 44 35 55
REMARK Flexibility Score: inf
ROOT
ATOM      1  C   UNL A   1      38.240  19.925  24.941  1.00  0.00     0.042 C 
ENDROOT
BRANCH   1   2
ATOM      2  C   UNL A   1      37.278  21.086  24.653  1.00  0.00     0.117 C 
BRANCH   2   3
ATOM      3  N   UNL A   1      36.459  21.489  25.792  1.00  0.00    -0.354 N 
ATOM      4  C   UNL A   1      35.124  21.383  26.066  1.00  0.00     0.242 C 
ATOM      5  O   UNL A   1      34.738  21.866  27.133  1.00  0.00    -0.273 OA
ATOM      6  H   UNL A   1      36.972  21.926  26.510  1.00  0.00     0.163 HD
BRANCH   4   7
ATOM      7  C   UNL A   1      34.138  20.728  25.063  1.00  0.00     0.174 C 
BRANCH   7   8
ATOM      8  N   UNL A   1      33.376  19.614  25.630  1.00  0.00    -0.347 N 
ATOM      9  O   UNL A   1      32.164  17.711  25.560  1.00  0.00    -0.279 OA
ATOM     10  C   UNL A   1      32.641  18.672  24.974  1.00  0.00     0.337 C 
ATOM     11  H   UNL A   1      33.396  19.535  26.611  1.00  0.00     0.164 HD
ENDBRANCH   7   8
BRANCH   7  12
ATOM     12  C   UNL A   1      33.334  21.694  24.134  1.00  0.00     0.026 C 
ATOM     13  C   UNL A   1      34.181  22.702  23.348  1.00  0.00     0.035 C 
ATOM     14  C   UNL A   1      32.066  22.390  24.682  1.00  0.00     0.044 C 
ATOM     15  C   UNL A   1      34.341  24.020  24.072  1.00  0.00     0.161 C 
ATOM     16  C   UNL A   1      32.198  23.883  25.081  1.00  0.00     0.094 C 
ATOM     17  O   UNL A   1      33.059  24.606  24.207  1.00  0.00    -0.372 OA
ATOM     18  C   UNL A   1      30.837  24.569  25.053  1.00  0.00     0.066 C 
ATOM     19  C   UNL A   1      32.543  24.099  26.553  1.00  0.00     0.195 C 
ATOM     20  C   UNL A   1      30.229  24.179  26.381  1.00  0.00     0.163 C 
ATOM     21  O   UNL A   1      31.319  23.956  27.288  1.00  0.00    -0.378 OA
ENDBRANCH   7  12
ENDBRANCH   4   7
ENDBRANCH   2   3
ENDBRANCH   1   2
BRANCH   1  22
ATOM     22  C   UNL A   1      39.251  20.163  26.064  1.00  0.00     0.118 C 
BRANCH  22  23
ATOM     23  N   UNL A   1      40.368  19.241  25.982  1.00  0.00    -0.352 N 
ATOM     24  C   UNL A   1      41.714  19.515  26.003  1.00  0.00     0.251 C 
ATOM     25  H   UNL A   1      40.129  18.289  25.901  1.00  0.00     0.163 HD
ATOM     26  O   UNL A   1      42.513  18.656  25.642  1.00  0.00    -0.269 OA
BRANCH  24  27
ATOM     27  C   UNL A   1      42.215  20.835  26.457  1.00  0.00     0.039 A 
ATOM     28  C   UNL A   1      42.183  21.132  27.824  1.00  0.00     0.014 A 
ATOM     29  C   UNL A   1      42.628  21.812  25.545  1.00  0.00     0.014 A 
ATOM     30  C   UNL A   1      42.579  22.395  28.277  1.00  0.00     0.010 A 
ATOM     31  C   UNL A   1      43.068  23.057  26.002  1.00  0.00     0.010 A 
ATOM     32  C   UNL A   1      43.029  23.368  27.370  1.00  0.00    -0.014 A 
BRANCH  32  33
ATOM     33  C   UNL A   1      43.412  24.727  27.838  1.00  0.00     0.031 A 
ATOM     34  C   UNL A   1      42.351  25.754  28.135  1.00  0.00     0.074 A 
ATOM     35  C   UNL A   1      44.711  25.056  27.970  1.00  0.00     0.049 A 
ATOM     36  N   UNL A   1      42.488  27.002  28.510  1.00  0.00    -0.248 NA
ATOM     37  C   UNL A   1      40.953  25.327  27.969  1.00  0.00     0.031 C 
ATOM     38  C   UNL A   1      45.841  24.171  27.689  1.00  0.00     0.029 A 
ATOM     39  N   UNL A   1      45.299  26.232  28.368  1.00  0.00    -0.354 N 
ATOM     40  C   UNL A   1      41.198  27.512  28.605  1.00  0.00     0.074 A 
ATOM     41  C   UNL A   1      40.295  26.451  28.215  1.00  0.00     0.031 C 
ATOM     42  C   UNL A   1      46.986  24.830  27.934  1.00  0.00     0.029 A 
ATOM     43  C   UNL A   1      46.672  26.190  28.365  1.00  0.00     0.049 A 
ATOM     44  H   UNL A   1      44.786  27.030  28.630  1.00  0.00     0.167 HD
ATOM     45  C   UNL A   1      40.800  28.745  29.001  1.00  0.00     0.037 A 
ATOM     46  C   UNL A   1      47.577  27.139  28.671  1.00  0.00     0.037 A 
ATOM     47  C   UNL A   1      41.690  29.794  29.426  1.00  0.00     0.049 A 
ATOM     48  C   UNL A   1      47.110  28.497  29.116  1.00  0.00     0.074 A 
ATOM     49  C   UNL A   1      41.372  31.053  29.905  1.00  0.00     0.029 A 
ATOM     50  N   UNL A   1      43.073  29.703  29.425  1.00  0.00    -0.354 N 
ATOM     51  N   UNL A   1      45.887  28.945  29.256  1.00  0.00    -0.248 NA
ATOM     52  C   UNL A   1      48.151  29.480  29.451  1.00  0.00     0.031 C 
ATOM     53  C   UNL A   1      42.565  31.738  30.164  1.00  0.00     0.029 A 
ATOM     54  C   UNL A   1      43.624  30.891  29.879  1.00  0.00     0.049 A 
ATOM     55  H   UNL A   1      43.587  28.914  29.143  1.00  0.00     0.167 HD
ATOM     56  C   UNL A   1      46.010  30.250  29.716  1.00  0.00     0.074 A 
ATOM     57  C   UNL A   1      47.427  30.519  29.843  1.00  0.00     0.031 C 
ATOM     58  C   UNL A   1      45.035  31.144  30.006  1.00  0.00     0.037 A 
BRANCH  45  59
ATOM     59  C   UNL A   1      39.327  29.029  28.997  1.00  0.00     0.057 A 
ATOM     60  C   UNL A   1      38.655  29.421  27.834  1.00  0.00     0.134 A 
ATOM     61  C   UNL A   1      38.566  28.871  30.163  1.00  0.00     0.134 A 
ATOM     62  F   UNL A   1      39.328  29.600  26.687  1.00  0.00    -0.206 F 
ATOM     63  C   UNL A   1      37.281  29.669  27.832  1.00  0.00     0.040 A 
ATOM     64  C   UNL A   1      37.188  29.094  30.169  1.00  0.00     0.040 A 
ATOM     65  F   UNL A   1      39.148  28.491  31.310  1.00  0.00    -0.206 F 
ATOM     66  C   UNL A   1      36.543  29.499  29.002  1.00  0.00     0.006 A 
ENDBRANCH  45  59
BRANCH  46  67
ATOM     67  C   UNL A   1      49.026  26.833  28.587  1.00  0.00     0.057 A 
ATOM     68  C   UNL A   1      49.732  27.010  27.393  1.00  0.00     0.134 A 
ATOM     69  C   UNL A   1      49.734  26.350  29.693  1.00  0.00     0.134 A 
ATOM     70  F   UNL A   1      49.101  27.451  26.295  1.00  0.00    -0.206 F 
ATOM     71  C   UNL A   1      51.090  26.708  27.295  1.00  0.00     0.040 A 
ATOM     72  C   UNL A   1      51.097  26.061  29.616  1.00  0.00     0.040 A 
ATOM     73  F   UNL A   1      49.113  26.163  30.866  1.00  0.00    -0.206 F 
ATOM     74  C   UNL A   1      51.778  26.235  28.413  1.00  0.00     0.006 A 
ENDBRANCH  46  67
BRANCH  58  75
ATOM     75  C   UNL A   1      45.465  32.488  30.517  1.00  0.00     0.057 A 
ATOM     76  C   UNL A   1      45.672  32.724  31.882  1.00  0.00     0.134 A 
ATOM     77  C   UNL A   1      45.709  33.544  29.631  1.00  0.00     0.134 A 
ATOM     78  F   UNL A   1      45.442  31.756  32.781  1.00  0.00    -0.206 F 
ATOM     79  C   UNL A   1      46.092  33.970  32.349  1.00  0.00     0.040 A 
ATOM     80  C   UNL A   1      46.149  34.788  30.084  1.00  0.00     0.040 A 
ATOM     81  F   UNL A   1      45.536  33.379  28.311  1.00  0.00    -0.206 F 
ATOM     82  C   UNL A   1      46.337  35.004  31.448  1.00  0.00     0.006 A 
ENDBRANCH  58  75
ENDBRANCH  32  33
ENDBRANCH  24  27
ENDBRANCH  22  23
ENDBRANCH   1  22
TORSDOF 12
ENDMDL
