MODEL 1
REMARK VINA RESULT:     -12.3      0.000      0.000
REMARK SMILES Cc1cccc(CS[C@@H]2CC[C@]([NH3+])(C(=O)NCCCNC(=O)c3ccc(-c4c5nc(c(-c6c(F)cccc6F)c6ccc([nH]6)c(-c6c(F)cccc6F)c6nc(c(-c7c(F)cccc7F)c7ccc4[nH]7)C=C6)C=C5)cc3)C2)c1
REMARK SMILES IDX 17 1 16 2 14 3 15 4 12 6 9 7 10 8 77 9 11 10 8 11 7 12 6 13
REMARK SMILES IDX 1 14 2 15 3 16 78 17 4 18 5 19 13 20 18 24 19 25 20 26 21 27
REMARK SMILES IDX 22 29 23 30 24 31 76 32 25 33 75 34 26 35 27 36 28 37 69 38
REMARK SMILES IDX 29 39 74 40 68 41 70 42 30 43 73 44 67 45 66 46 31 48 57 49
REMARK SMILES IDX 40 50 56 51 41 52 44 53 55 54 71 55 42 56 43 57 54 59 72 60
REMARK SMILES IDX 45 61 32 62 33 63 38 64 34 65 35 66 37 67 39 68 36 69 58 70
REMARK SMILES IDX 59 71 64 72 60 73 61 74 63 75 65 76 62 77 46 78 47 79 52 80
REMARK SMILES IDX 48 81 49 82 51 83 53 84 50 85
REMARK H PARENT 16 5 13 21 13 22 13 23 20 28 70 47 44 58
REMARK Flexibility Score: inf
ROOT
ATOM      1  C   UNL A   1      37.552  21.581  24.879  1.00  0.00     0.118 C 
ENDROOT
BRANCH   1   2
ATOM      2  N   UNL A   1      36.850  20.315  24.755  1.00  0.00    -0.351 N 
ATOM      3  C   UNL A   1      35.560  19.962  25.006  1.00  0.00     0.281 C 
ATOM      4  O   UNL A   1      35.276  18.774  24.801  1.00  0.00    -0.268 OA
ATOM      5  H   UNL A   1      37.412  19.575  24.431  1.00  0.00     0.163 HD
BRANCH   3   6
ATOM      6  C   UNL A   1      34.504  20.922  25.630  1.00  0.00     0.175 C 
ATOM      7  C   UNL A   1      33.317  23.019  25.153  1.00  0.00     0.054 C 
ATOM      8  C   UNL A   1      34.023  23.158  26.500  1.00  0.00     0.022 C 
ATOM      9  C   UNL A   1      33.875  21.762  24.490  1.00  0.00     0.093 C 
ATOM     10  C   UNL A   1      35.024  22.010  26.567  1.00  0.00     0.080 C 
BRANCH   7  11
ATOM     11  S   UNL A   1      33.278  24.559  24.161  1.00  0.00    -0.154 SA
BRANCH  11  12
ATOM     12  C   UNL A   1      34.208  25.774  25.158  1.00  0.00     0.105 C 
BRANCH  12  13
ATOM     13  C   UNL A   1      33.384  26.767  25.937  1.00  0.00    -0.038 A 
ATOM     14  C   UNL A   1      33.715  30.325  27.291  1.00  0.00     0.044 C 
ATOM     15  C   UNL A   1      33.148  28.979  26.952  1.00  0.00    -0.051 A 
ATOM     16  C   UNL A   1      31.851  28.646  27.355  1.00  0.00     0.003 A 
ATOM     17  C   UNL A   1      33.904  28.037  26.237  1.00  0.00     0.008 A 
ATOM     18  C   UNL A   1      31.312  27.400  27.039  1.00  0.00     0.001 A 
ATOM     19  C   UNL A   1      32.069  26.470  26.325  1.00  0.00     0.004 A 
ENDBRANCH  12  13
ENDBRANCH  11  12
ENDBRANCH   7  11
BRANCH   6  20
ATOM     20  N   UNL A   1      33.473  20.106  26.311  1.00  0.00    -0.345 N 
ATOM     21  H   UNL A   1      32.994  20.675  27.009  1.00  0.00     0.345 HD
ATOM     22  H   UNL A   1      33.917  19.310  26.769  1.00  0.00     0.345 HD
ATOM     23  H   UNL A   1      32.798  19.769  25.625  1.00  0.00     0.345 HD
ENDBRANCH   6  20
ENDBRANCH   3   6
ENDBRANCH   1   2
BRANCH   1  24
ATOM     24  C   UNL A   1      38.742  21.506  25.831  1.00  0.00     0.042 C 
BRANCH  24  25
ATOM     25  C   UNL A   1      39.091  22.864  26.422  1.00  0.00     0.118 C 
BRANCH  25  26
ATOM     26  N   UNL A   1      40.522  23.090  26.631  1.00  0.00    -0.352 N 
ATOM     27  C   UNL A   1      41.178  24.288  26.884  1.00  0.00     0.251 C 
ATOM     28  H   UNL A   1      41.094  22.289  26.586  1.00  0.00     0.163 HD
ATOM     29  O   UNL A   1      42.382  24.324  27.067  1.00  0.00    -0.269 OA
BRANCH  27  30
ATOM     30  C   UNL A   1      40.353  25.508  27.056  1.00  0.00     0.039 A 
ATOM     31  C   UNL A   1      40.736  26.654  26.353  1.00  0.00     0.014 A 
ATOM     32  C   UNL A   1      39.447  25.585  28.110  1.00  0.00     0.014 A 
ATOM     33  C   UNL A   1      40.439  27.900  26.894  1.00  0.00     0.010 A 
ATOM     34  C   UNL A   1      39.240  26.816  28.702  1.00  0.00     0.010 A 
ATOM     35  C   UNL A   1      39.816  27.964  28.141  1.00  0.00    -0.014 A 
BRANCH  35  36
ATOM     36  C   UNL A   1      39.885  29.147  28.996  1.00  0.00     0.031 A 
ATOM     37  C   UNL A   1      38.855  30.201  28.919  1.00  0.00     0.074 A 
ATOM     38  C   UNL A   1      40.868  29.242  29.920  1.00  0.00     0.049 A 
ATOM     39  N   UNL A   1      39.002  31.406  29.360  1.00  0.00    -0.248 NA
ATOM     40  C   UNL A   1      37.575  29.980  28.267  1.00  0.00     0.031 C 
ATOM     41  C   UNL A   1      40.964  30.193  31.025  1.00  0.00     0.029 A 
ATOM     42  N   UNL A   1      42.125  28.617  29.890  1.00  0.00    -0.354 N 
ATOM     43  C   UNL A   1      37.776  32.031  29.305  1.00  0.00     0.074 A 
ATOM     44  C   UNL A   1      36.950  31.128  28.538  1.00  0.00     0.031 C 
ATOM     45  C   UNL A   1      42.256  30.328  31.362  1.00  0.00     0.029 A 
ATOM     46  C   UNL A   1      43.037  29.572  30.399  1.00  0.00     0.049 A 
ATOM     47  H   UNL A   1      42.329  27.705  29.580  1.00  0.00     0.167 HD
ATOM     48  C   UNL A   1      37.582  33.178  30.022  1.00  0.00     0.037 A 
ATOM     49  C   UNL A   1      44.024  30.082  29.607  1.00  0.00     0.037 A 
ATOM     50  C   UNL A   1      38.850  33.688  30.559  1.00  0.00     0.049 A 
ATOM     51  C   UNL A   1      43.938  31.578  29.371  1.00  0.00     0.074 A 
ATOM     52  C   UNL A   1      39.469  33.659  31.798  1.00  0.00     0.029 A 
ATOM     53  N   UNL A   1      39.816  34.123  29.665  1.00  0.00    -0.354 N 
ATOM     54  N   UNL A   1      42.988  32.346  29.828  1.00  0.00    -0.248 NA
ATOM     55  C   UNL A   1      44.871  32.303  28.504  1.00  0.00     0.031 C 
ATOM     56  C   UNL A   1      40.835  34.027  31.623  1.00  0.00     0.029 A 
ATOM     57  C   UNL A   1      41.043  34.284  30.280  1.00  0.00     0.049 A 
ATOM     58  H   UNL A   1      39.649  34.296  28.710  1.00  0.00     0.167 HD
ATOM     59  C   UNL A   1      43.116  33.592  29.278  1.00  0.00     0.074 A 
ATOM     60  C   UNL A   1      44.318  33.526  28.469  1.00  0.00     0.031 C 
ATOM     61  C   UNL A   1      42.206  34.588  29.467  1.00  0.00     0.037 A 
BRANCH  48  62
ATOM     62  C   UNL A   1      36.222  33.709  30.448  1.00  0.00     0.057 A 
ATOM     63  C   UNL A   1      35.314  34.206  29.488  1.00  0.00     0.134 A 
ATOM     64  C   UNL A   1      35.765  33.845  31.772  1.00  0.00     0.134 A 
ATOM     65  F   UNL A   1      35.530  34.061  28.174  1.00  0.00    -0.206 F 
ATOM     66  C   UNL A   1      34.130  34.879  29.823  1.00  0.00     0.040 A 
ATOM     67  C   UNL A   1      34.608  34.556  32.125  1.00  0.00     0.040 A 
ATOM     68  F   UNL A   1      36.366  33.242  32.799  1.00  0.00    -0.206 F 
ATOM     69  C   UNL A   1      33.790  35.093  31.148  1.00  0.00     0.006 A 
ENDBRANCH  48  62
BRANCH  49  70
ATOM     70  C   UNL A   1      44.547  29.099  28.623  1.00  0.00     0.057 A 
ATOM     71  C   UNL A   1      45.434  28.101  29.068  1.00  0.00     0.134 A 
ATOM     72  C   UNL A   1      43.952  28.911  27.374  1.00  0.00     0.134 A 
ATOM     73  F   UNL A   1      46.041  28.217  30.260  1.00  0.00    -0.206 F 
ATOM     74  C   UNL A   1      45.630  26.917  28.354  1.00  0.00     0.040 A 
ATOM     75  C   UNL A   1      44.155  27.736  26.642  1.00  0.00     0.040 A 
ATOM     76  F   UNL A   1      43.074  29.802  26.892  1.00  0.00    -0.206 F 
ATOM     77  C   UNL A   1      44.964  26.721  27.149  1.00  0.00     0.006 A 
ENDBRANCH  49  70
BRANCH  61  78
ATOM     78  C   UNL A   1      42.378  35.943  28.863  1.00  0.00     0.057 A 
ATOM     79  C   UNL A   1      41.847  36.262  27.606  1.00  0.00     0.134 A 
ATOM     80  C   UNL A   1      43.174  36.926  29.473  1.00  0.00     0.134 A 
ATOM     81  F   UNL A   1      41.090  35.378  26.937  1.00  0.00    -0.206 F 
ATOM     82  C   UNL A   1      42.086  37.495  26.993  1.00  0.00     0.040 A 
ATOM     83  C   UNL A   1      43.452  38.147  28.855  1.00  0.00     0.040 A 
ATOM     84  F   UNL A   1      43.694  36.740  30.696  1.00  0.00    -0.206 F 
ATOM     85  C   UNL A   1      42.904  38.436  27.611  1.00  0.00     0.006 A 
ENDBRANCH  61  78
ENDBRANCH  35  36
ENDBRANCH  27  30
ENDBRANCH  25  26
ENDBRANCH  24  25
ENDBRANCH   1  24
TORSDOF 14
ENDMDL
MODEL 2
REMARK VINA RESULT:     -12.2      4.067      9.526
REMARK SMILES Cc1cccc(CS[C@@H]2CC[C@]([NH3+])(C(=O)NCCCNC(=O)c3ccc(-c4c5nc(c(-c6c(F)cccc6F)c6ccc([nH]6)c(-c6c(F)cccc6F)c6nc(c(-c7c(F)cccc7F)c7ccc4[nH]7)C=C6)C=C5)cc3)C2)c1
REMARK SMILES IDX 17 1 16 2 14 3 15 4 12 6 9 7 10 8 77 9 11 10 8 11 7 12 6 13
REMARK SMILES IDX 1 14 2 15 3 16 78 17 4 18 5 19 13 20 18 24 19 25 20 26 21 27
REMARK SMILES IDX 22 29 23 30 24 31 76 32 25 33 75 34 26 35 27 36 28 37 69 38
REMARK SMILES IDX 29 39 74 40 68 41 70 42 30 43 73 44 67 45 66 46 31 48 57 49
REMARK SMILES IDX 40 50 56 51 41 52 44 53 55 54 71 55 42 56 43 57 54 59 72 60
REMARK SMILES IDX 45 61 32 62 33 63 38 64 34 65 35 66 37 67 39 68 36 69 58 70
REMARK SMILES IDX 59 71 64 72 60 73 61 74 63 75 65 76 62 77 46 78 47 79 52 80
REMARK SMILES IDX 48 81 49 82 51 83 53 84 50 85
REMARK H PARENT 16 5 13 21 13 22 13 23 20 28 70 47 44 58
REMARK Flexibility Score: inf
ROOT
ATOM      1  C   UNL A   1      34.235  29.397  27.500  1.00  0.00     0.118 C 
ENDROOT
BRANCH   1   2
ATOM      2  N   UNL A   1      33.012  28.670  27.794  1.00  0.00    -0.351 N 
ATOM      3  C   UNL A   1      32.108  28.047  26.990  1.00  0.00     0.281 C 
ATOM      4  O   UNL A   1      31.149  27.516  27.567  1.00  0.00    -0.268 OA
ATOM      5  H   UNL A   1      32.797  28.620  28.753  1.00  0.00     0.163 HD
BRANCH   3   6
ATOM      6  C   UNL A   1      32.164  28.081  25.433  1.00  0.00     0.175 C 
ATOM      7  C   UNL A   1      31.732  26.657  23.479  1.00  0.00     0.054 C 
ATOM      8  C   UNL A   1      33.168  27.171  23.395  1.00  0.00     0.022 C 
ATOM      9  C   UNL A   1      31.233  26.969  24.889  1.00  0.00     0.093 C 
ATOM     10  C   UNL A   1      33.496  27.719  24.780  1.00  0.00     0.080 C 
BRANCH   7  11
ATOM     11  S   UNL A   1      31.506  24.948  22.856  1.00  0.00    -0.154 SA
BRANCH  11  12
ATOM     12  C   UNL A   1      33.187  24.235  22.847  1.00  0.00     0.105 C 
BRANCH  12  13
ATOM     13  C   UNL A   1      33.766  23.875  24.190  1.00  0.00    -0.038 A 
ATOM     14  C   UNL A   1      37.180  23.784  25.906  1.00  0.00     0.044 C 
ATOM     15  C   UNL A   1      35.703  23.677  25.670  1.00  0.00    -0.051 A 
ATOM     16  C   UNL A   1      34.861  23.246  26.700  1.00  0.00     0.003 A 
ATOM     17  C   UNL A   1      35.146  23.997  24.422  1.00  0.00     0.008 A 
ATOM     18  C   UNL A   1      33.486  23.149  26.493  1.00  0.00     0.001 A 
ATOM     19  C   UNL A   1      32.940  23.472  25.250  1.00  0.00     0.004 A 
ENDBRANCH  12  13
ENDBRANCH  11  12
ENDBRANCH   7  11
BRANCH   6  20
ATOM     20  N   UNL A   1      31.712  29.416  24.977  1.00  0.00    -0.345 N 
ATOM     21  H   UNL A   1      31.998  30.122  25.655  1.00  0.00     0.345 HD
ATOM     22  H   UNL A   1      30.696  29.419  24.889  1.00  0.00     0.345 HD
ATOM     23  H   UNL A   1      32.132  29.625  24.071  1.00  0.00     0.345 HD
ENDBRANCH   6  20
ENDBRANCH   3   6
ENDBRANCH   1   2
BRANCH   1  24
ATOM     24  C   UNL A   1      34.084  30.904  27.677  1.00  0.00     0.042 C 
BRANCH  24  25
ATOM     25  C   UNL A   1      35.424  31.624  27.645  1.00  0.00     0.118 C 
BRANCH  25  26
ATOM     26  N   UNL A   1      35.927  32.038  28.956  1.00  0.00    -0.352 N 
ATOM     27  C   UNL A   1      36.773  31.346  29.812  1.00  0.00     0.251 C 
ATOM     28  H   UNL A   1      35.625  32.921  29.272  1.00  0.00     0.163 HD
ATOM     29  O   UNL A   1      37.135  31.828  30.870  1.00  0.00    -0.269 OA
BRANCH  27  30
ATOM     30  C   UNL A   1      37.331  30.054  29.343  1.00  0.00     0.039 A 
ATOM     31  C   UNL A   1      37.457  29.024  30.278  1.00  0.00     0.014 A 
ATOM     32  C   UNL A   1      37.990  29.993  28.117  1.00  0.00     0.014 A 
ATOM     33  C   UNL A   1      38.468  28.084  30.105  1.00  0.00     0.010 A 
ATOM     34  C   UNL A   1      39.057  29.124  27.996  1.00  0.00     0.010 A 
ATOM     35  C   UNL A   1      39.350  28.231  29.034  1.00  0.00    -0.014 A 
BRANCH  35  36
ATOM     36  C   UNL A   1      40.679  27.622  29.021  1.00  0.00     0.031 A 
ATOM     37  C   UNL A   1      40.860  26.201  28.666  1.00  0.00     0.074 A 
ATOM     38  C   UNL A   1      41.764  28.391  29.267  1.00  0.00     0.049 A 
ATOM     39  N   UNL A   1      41.905  25.499  28.951  1.00  0.00    -0.248 NA
ATOM     40  C   UNL A   1      39.818  25.435  28.000  1.00  0.00     0.031 C 
ATOM     41  C   UNL A   1      43.167  28.047  29.050  1.00  0.00     0.029 A 
ATOM     42  N   UNL A   1      41.809  29.586  30.001  1.00  0.00    -0.354 N 
ATOM     43  C   UNL A   1      41.805  24.297  28.287  1.00  0.00     0.074 A 
ATOM     44  C   UNL A   1      40.451  24.280  27.785  1.00  0.00     0.031 C 
ATOM     45  C   UNL A   1      43.922  28.793  29.872  1.00  0.00     0.029 A 
ATOM     46  C   UNL A   1      43.020  29.538  30.732  1.00  0.00     0.049 A 
ATOM     47  H   UNL A   1      41.138  30.307  30.008  1.00  0.00     0.167 HD
ATOM     48  C   UNL A   1      42.922  23.523  28.141  1.00  0.00     0.037 A 
ATOM     49  C   UNL A   1      43.009  29.491  32.096  1.00  0.00     0.037 A 
ATOM     50  C   UNL A   1      44.027  24.028  28.965  1.00  0.00     0.049 A 
ATOM     51  C   UNL A   1      43.615  28.235  32.692  1.00  0.00     0.074 A 
ATOM     52  C   UNL A   1      45.170  24.772  28.718  1.00  0.00     0.029 A 
ATOM     53  N   UNL A   1      43.890  23.996  30.344  1.00  0.00    -0.354 N 
ATOM     54  N   UNL A   1      44.078  27.234  31.995  1.00  0.00    -0.248 NA
ATOM     55  C   UNL A   1      43.645  27.971  34.133  1.00  0.00     0.031 C 
ATOM     56  C   UNL A   1      45.680  25.233  29.967  1.00  0.00     0.029 A 
ATOM     57  C   UNL A   1      44.851  24.766  30.970  1.00  0.00     0.049 A 
ATOM     58  H   UNL A   1      43.193  23.488  30.819  1.00  0.00     0.167 HD
ATOM     59  C   UNL A   1      44.376  26.200  32.840  1.00  0.00     0.074 A 
ATOM     60  C   UNL A   1      44.106  26.710  34.170  1.00  0.00     0.031 C 
ATOM     61  C   UNL A   1      44.769  24.971  32.405  1.00  0.00     0.037 A 
BRANCH  48  62
ATOM     62  C   UNL A   1      43.098  22.456  27.073  1.00  0.00     0.057 A 
ATOM     63  C   UNL A   1      42.342  21.265  27.119  1.00  0.00     0.134 A 
ATOM     64  C   UNL A   1      44.037  22.480  26.026  1.00  0.00     0.134 A 
ATOM     65  F   UNL A   1      41.326  21.108  27.977  1.00  0.00    -0.206 F 
ATOM     66  C   UNL A   1      42.584  20.165  26.282  1.00  0.00     0.040 A 
ATOM     67  C   UNL A   1      44.324  21.373  25.213  1.00  0.00     0.040 A 
ATOM     68  F   UNL A   1      44.686  23.592  25.676  1.00  0.00    -0.206 F 
ATOM     69  C   UNL A   1      43.606  20.200  25.349  1.00  0.00     0.006 A 
ENDBRANCH  48  62
BRANCH  49  70
ATOM     70  C   UNL A   1      41.882  30.253  32.696  1.00  0.00     0.057 A 
ATOM     71  C   UNL A   1      41.979  31.655  32.775  1.00  0.00     0.134 A 
ATOM     72  C   UNL A   1      40.616  29.692  32.869  1.00  0.00     0.134 A 
ATOM     73  F   UNL A   1      43.167  32.261  32.616  1.00  0.00    -0.206 F 
ATOM     74  C   UNL A   1      40.850  32.466  32.908  1.00  0.00     0.040 A 
ATOM     75  C   UNL A   1      39.480  30.494  33.020  1.00  0.00     0.040 A 
ATOM     76  F   UNL A   1      40.436  28.366  32.779  1.00  0.00    -0.206 F 
ATOM     77  C   UNL A   1      39.591  31.883  33.001  1.00  0.00     0.006 A 
ENDBRANCH  49  70
BRANCH  61  78
ATOM     78  C   UNL A   1      45.099  23.863  33.351  1.00  0.00     0.057 A 
ATOM     79  C   UNL A   1      44.142  22.915  33.738  1.00  0.00     0.134 A 
ATOM     80  C   UNL A   1      46.349  23.784  33.986  1.00  0.00     0.134 A 
ATOM     81  F   UNL A   1      42.912  22.924  33.201  1.00  0.00    -0.206 F 
ATOM     82  C   UNL A   1      44.416  21.936  34.696  1.00  0.00     0.040 A 
ATOM     83  C   UNL A   1      46.623  22.834  34.972  1.00  0.00     0.040 A 
ATOM     84  F   UNL A   1      47.349  24.615  33.657  1.00  0.00    -0.206 F 
ATOM     85  C   UNL A   1      45.655  21.903  35.328  1.00  0.00     0.006 A 
ENDBRANCH  61  78
ENDBRANCH  35  36
ENDBRANCH  27  30
ENDBRANCH  25  26
ENDBRANCH  24  25
ENDBRANCH   1  24
TORSDOF 14
ENDMDL
MODEL 3
REMARK VINA RESULT:     -12.0      4.309      9.541
REMARK SMILES Cc1cccc(CS[C@@H]2CC[C@]([NH3+])(C(=O)NCCCNC(=O)c3ccc(-c4c5nc(c(-c6c(F)cccc6F)c6ccc([nH]6)c(-c6c(F)cccc6F)c6nc(c(-c7c(F)cccc7F)c7ccc4[nH]7)C=C6)C=C5)cc3)C2)c1
REMARK SMILES IDX 17 1 16 2 14 3 15 4 12 6 9 7 10 8 77 9 11 10 8 11 7 12 6 13
REMARK SMILES IDX 1 14 2 15 3 16 78 17 4 18 5 19 13 20 18 24 19 25 20 26 21 27
REMARK SMILES IDX 22 29 23 30 24 31 76 32 25 33 75 34 26 35 27 36 28 37 69 38
REMARK SMILES IDX 29 39 74 40 68 41 70 42 30 43 73 44 67 45 66 46 31 48 57 49
REMARK SMILES IDX 40 50 56 51 41 52 44 53 55 54 71 55 42 56 43 57 54 59 72 60
REMARK SMILES IDX 45 61 32 62 33 63 38 64 34 65 35 66 37 67 39 68 36 69 58 70
REMARK SMILES IDX 59 71 64 72 60 73 61 74 63 75 65 76 62 77 46 78 47 79 52 80
REMARK SMILES IDX 48 81 49 82 51 83 53 84 50 85
REMARK H PARENT 16 5 13 21 13 22 13 23 20 28 70 47 44 58
REMARK Flexibility Score: inf
ROOT
ATOM      1  C   UNL A   1      32.258  30.047  26.270  1.00  0.00     0.118 C 
ENDROOT
BRANCH   1   2
ATOM      2  N   UNL A   1      33.037  29.824  25.064  1.00  0.00    -0.351 N 
ATOM      3  C   UNL A   1      32.808  29.062  23.960  1.00  0.00     0.281 C 
ATOM      4  O   UNL A   1      33.693  29.085  23.095  1.00  0.00    -0.268 OA
ATOM      5  H   UNL A   1      33.890  30.315  25.041  1.00  0.00     0.163 HD
BRANCH   3   6
ATOM      6  C   UNL A   1      31.586  28.107  23.805  1.00  0.00     0.175 C 
ATOM      7  C   UNL A   1      30.736  25.951  24.619  1.00  0.00     0.054 C 
ATOM      8  C   UNL A   1      30.775  25.911  23.092  1.00  0.00     0.022 C 
ATOM      9  C   UNL A   1      31.528  27.185  25.048  1.00  0.00     0.093 C 
ATOM     10  C   UNL A   1      31.641  27.091  22.666  1.00  0.00     0.080 C 
BRANCH   7  11
ATOM     11  S   UNL A   1      31.142  24.357  25.425  1.00  0.00    -0.154 SA
BRANCH  11  12
ATOM     12  C   UNL A   1      32.797  24.617  26.154  1.00  0.00     0.105 C 
BRANCH  12  13
ATOM     13  C   UNL A   1      33.970  24.162  25.324  1.00  0.00    -0.038 A 
ATOM     14  C   UNL A   1      37.723  23.581  25.749  1.00  0.00     0.044 C 
ATOM     15  C   UNL A   1      36.353  23.645  25.143  1.00  0.00    -0.051 A 
ATOM     16  C   UNL A   1      36.162  23.278  23.807  1.00  0.00     0.003 A 
ATOM     17  C   UNL A   1      35.250  24.078  25.896  1.00  0.00     0.008 A 
ATOM     18  C   UNL A   1      34.892  23.328  23.236  1.00  0.00     0.001 A 
ATOM     19  C   UNL A   1      33.801  23.757  23.992  1.00  0.00     0.004 A 
ENDBRANCH  12  13
ENDBRANCH  11  12
ENDBRANCH   7  11
BRANCH   6  20
ATOM     20  N   UNL A   1      30.359  28.930  23.702  1.00  0.00    -0.345 N 
ATOM     21  H   UNL A   1      30.615  29.911  23.590  1.00  0.00     0.345 HD
ATOM     22  H   UNL A   1      29.802  28.818  24.549  1.00  0.00     0.345 HD
ATOM     23  H   UNL A   1      29.813  28.627  22.895  1.00  0.00     0.345 HD
ENDBRANCH   6  20
ENDBRANCH   3   6
ENDBRANCH   1   2
BRANCH   1  24
ATOM     24  C   UNL A   1      32.935  31.010  27.241  1.00  0.00     0.042 C 
BRANCH  24  25
ATOM     25  C   UNL A   1      34.305  30.514  27.680  1.00  0.00     0.118 C 
BRANCH  25  26
ATOM     26  N   UNL A   1      34.965  31.352  28.682  1.00  0.00    -0.352 N 
ATOM     27  C   UNL A   1      36.130  31.089  29.392  1.00  0.00     0.251 C 
ATOM     28  H   UNL A   1      34.527  32.212  28.879  1.00  0.00     0.163 HD
ATOM     29  O   UNL A   1      36.584  31.897  30.183  1.00  0.00    -0.269 OA
BRANCH  27  30
ATOM     30  C   UNL A   1      36.879  29.852  29.065  1.00  0.00     0.039 A 
ATOM     31  C   UNL A   1      37.131  28.953  30.105  1.00  0.00     0.014 A 
ATOM     32  C   UNL A   1      37.568  29.762  27.858  1.00  0.00     0.014 A 
ATOM     33  C   UNL A   1      38.270  28.158  30.040  1.00  0.00     0.010 A 
ATOM     34  C   UNL A   1      38.752  29.051  27.837  1.00  0.00     0.010 A 
ATOM     35  C   UNL A   1      39.146  28.321  28.966  1.00  0.00    -0.014 A 
BRANCH  35  36
ATOM     36  C   UNL A   1      40.549  27.914  29.027  1.00  0.00     0.031 A 
ATOM     37  C   UNL A   1      40.988  26.615  28.484  1.00  0.00     0.074 A 
ATOM     38  C   UNL A   1      41.469  28.774  29.524  1.00  0.00     0.049 A 
ATOM     39  N   UNL A   1      42.096  26.027  28.788  1.00  0.00    -0.248 NA
ATOM     40  C   UNL A   1      40.154  25.836  27.582  1.00  0.00     0.031 C 
ATOM     41  C   UNL A   1      42.923  28.671  29.436  1.00  0.00     0.029 A 
ATOM     42  N   UNL A   1      41.249  29.820  30.433  1.00  0.00    -0.354 N 
ATOM     43  C   UNL A   1      42.256  24.955  27.939  1.00  0.00     0.074 A 
ATOM     44  C   UNL A   1      40.980  24.834  27.273  1.00  0.00     0.031 C 
ATOM     45  C   UNL A   1      43.463  29.363  30.451  1.00  0.00     0.029 A 
ATOM     46  C   UNL A   1      42.372  29.817  31.295  1.00  0.00     0.049 A 
ATOM     47  H   UNL A   1      40.475  30.428  30.465  1.00  0.00     0.167 HD
ATOM     48  C   UNL A   1      43.490  24.380  27.818  1.00  0.00     0.037 A 
ATOM     49  C   UNL A   1      42.229  29.536  32.623  1.00  0.00     0.037 A 
ATOM     50  C   UNL A   1      44.412  24.886  28.843  1.00  0.00     0.049 A 
ATOM     51  C   UNL A   1      42.962  28.294  33.090  1.00  0.00     0.074 A 
ATOM     52  C   UNL A   1      45.442  25.812  28.860  1.00  0.00     0.029 A 
ATOM     53  N   UNL A   1      44.142  24.599  30.172  1.00  0.00    -0.354 N 
ATOM     54  N   UNL A   1      43.646  27.501  32.312  1.00  0.00    -0.248 NA
ATOM     55  C   UNL A   1      42.887  27.794  34.466  1.00  0.00     0.031 C 
ATOM     56  C   UNL A   1      45.743  26.120  30.219  1.00  0.00     0.029 A 
ATOM     57  C   UNL A   1      44.901  25.377  31.026  1.00  0.00     0.049 A 
ATOM     58  H   UNL A   1      43.489  23.925  30.471  1.00  0.00     0.167 HD
ATOM     59  C   UNL A   1      44.016  26.389  33.019  1.00  0.00     0.074 A 
ATOM     60  C   UNL A   1      43.535  26.622  34.367  1.00  0.00     0.031 C 
ATOM     61  C   UNL A   1      44.641  25.320  32.452  1.00  0.00     0.037 A 
BRANCH  48  62
ATOM     62  C   UNL A   1      43.941  23.546  26.630  1.00  0.00     0.057 A 
ATOM     63  C   UNL A   1      43.536  22.200  26.504  1.00  0.00     0.134 A 
ATOM     64  C   UNL A   1      44.831  23.957  25.620  1.00  0.00     0.134 A 
ATOM     65  F   UNL A   1      42.607  21.666  27.307  1.00  0.00    -0.206 F 
ATOM     66  C   UNL A   1      44.060  21.323  25.542  1.00  0.00     0.040 A 
ATOM     67  C   UNL A   1      45.400  23.083  24.682  1.00  0.00     0.040 A 
ATOM     68  F   UNL A   1      45.152  25.239  25.432  1.00  0.00    -0.206 F 
ATOM     69  C   UNL A   1      45.028  21.752  24.650  1.00  0.00     0.006 A 
ENDBRANCH  48  62
BRANCH  49  70
ATOM     70  C   UNL A   1      40.941  30.020  33.185  1.00  0.00     0.057 A 
ATOM     71  C   UNL A   1      40.790  31.395  33.448  1.00  0.00     0.134 A 
ATOM     72  C   UNL A   1      39.778  29.247  33.148  1.00  0.00     0.134 A 
ATOM     73  F   UNL A   1      41.866  32.196  33.497  1.00  0.00    -0.206 F 
ATOM     74  C   UNL A   1      39.532  31.991  33.556  1.00  0.00     0.040 A 
ATOM     75  C   UNL A   1      38.514  29.832  33.273  1.00  0.00     0.040 A 
ATOM     76  F   UNL A   1      39.835  27.936  32.876  1.00  0.00    -0.206 F 
ATOM     77  C   UNL A   1      38.387  31.210  33.438  1.00  0.00     0.006 A 
ENDBRANCH  49  70
BRANCH  61  78
ATOM     78  C   UNL A   1      45.044  24.123  33.251  1.00  0.00     0.057 A 
ATOM     79  C   UNL A   1      44.199  23.014  33.393  1.00  0.00     0.134 A 
ATOM     80  C   UNL A   1      46.238  24.099  33.990  1.00  0.00     0.134 A 
ATOM     81  F   UNL A   1      43.028  22.957  32.741  1.00  0.00    -0.206 F 
ATOM     82  C   UNL A   1      44.528  21.934  34.217  1.00  0.00     0.040 A 
ATOM     83  C   UNL A   1      46.561  23.044  34.846  1.00  0.00     0.040 A 
ATOM     84  F   UNL A   1      47.136  25.090  33.893  1.00  0.00    -0.206 F 
ATOM     85  C   UNL A   1      45.706  21.954  34.959  1.00  0.00     0.006 A 
ENDBRANCH  61  78
ENDBRANCH  35  36
ENDBRANCH  27  30
ENDBRANCH  25  26
ENDBRANCH  24  25
ENDBRANCH   1  24
TORSDOF 14
ENDMDL
