MODEL 1
REMARK VINA RESULT:     -14.0      0.000      0.000
REMARK SMILES O=C(NCCCNC(=O)[C@H](c1c[nH]c2ccc(Cl)cc12)[NH+]1CCN(c2cccc(Cl)c2)CC1)c1ccc(-c2c3nc(c(-c4c(F)cccc4F)c4ccc([nH]4)c(-c4c(F)cccc4F)c4nc(c(-c5c(F)cccc5F)c5ccc2[nH]5)C=C4)C=C3)cc1
REMARK SMILES IDX 5 1 4 2 3 3 1 4 2 5 34 7 35 8 87 9 36 10 86 11 37 12 38 13
REMARK SMILES IDX 39 14 80 15 40 16 85 17 79 18 81 19 41 20 84 21 78 22 77 23
REMARK SMILES IDX 42 25 68 26 51 27 67 28 52 29 55 30 66 31 82 32 53 33 54 34
REMARK SMILES IDX 65 36 83 37 56 38 43 39 44 40 49 41 45 42 46 43 48 44 50 45
REMARK SMILES IDX 47 46 69 47 70 48 75 49 71 50 72 51 74 52 76 53 73 54 57 55
REMARK SMILES IDX 58 56 63 57 59 58 60 59 62 60 64 61 61 62 6 63 7 64 8 65
REMARK SMILES IDX 9 67 10 68 21 69 22 70 33 71 23 73 32 74 24 75 25 76 26 77
REMARK SMILES IDX 31 78 27 79 29 80 28 81 30 82 11 83 12 84 20 85 13 86 14 87
REMARK SMILES IDX 19 88 15 90 17 91 16 92 18 93
REMARK H PARENT 3 6 81 24 55 35 7 66 21 72 13 89
REMARK Flexibility Score: inf
ROOT
ATOM      1  C   UNL A   1      31.756  29.119  26.944  1.00  0.00     0.042 C 
ENDROOT
BRANCH   1   2
ATOM      2  C   UNL A   1      32.526  30.098  26.074  1.00  0.00     0.118 C 
BRANCH   2   3
ATOM      3  N   UNL A   1      32.290  31.492  26.440  1.00  0.00    -0.352 N 
ATOM      4  O   UNL A   1      32.479  33.403  27.620  1.00  0.00    -0.269 OA
ATOM      5  C   UNL A   1      32.976  32.329  27.288  1.00  0.00     0.251 C 
ATOM      6  H   UNL A   1      31.507  31.901  26.006  1.00  0.00     0.163 HD
BRANCH   5   7
ATOM      7  C   UNL A   1      34.287  31.922  27.834  1.00  0.00     0.039 A 
ATOM      8  C   UNL A   1      34.516  30.599  28.189  1.00  0.00     0.014 A 
ATOM      9  C   UNL A   1      35.302  32.868  28.004  1.00  0.00     0.014 A 
ATOM     10  C   UNL A   1      35.626  30.272  28.947  1.00  0.00     0.010 A 
ATOM     11  C   UNL A   1      36.504  32.496  28.620  1.00  0.00     0.010 A 
ATOM     12  C   UNL A   1      36.653  31.206  29.150  1.00  0.00    -0.014 A 
BRANCH  12  13
ATOM     13  C   UNL A   1      37.870  30.766  29.882  1.00  0.00     0.031 A 
ATOM     14  C   UNL A   1      38.072  31.088  31.338  1.00  0.00     0.074 A 
ATOM     15  C   UNL A   1      38.761  29.988  29.234  1.00  0.00     0.049 A 
ATOM     16  N   UNL A   1      39.047  30.722  32.132  1.00  0.00    -0.248 NA
ATOM     17  C   UNL A   1      37.064  31.939  31.988  1.00  0.00     0.031 C 
ATOM     18  C   UNL A   1      38.679  29.615  27.817  1.00  0.00     0.029 A 
ATOM     19  N   UNL A   1      39.874  29.325  29.680  1.00  0.00    -0.354 N 
ATOM     20  C   UNL A   1      38.797  31.333  33.354  1.00  0.00     0.074 A 
ATOM     21  C   UNL A   1      37.582  32.102  33.197  1.00  0.00     0.031 C 
ATOM     22  C   UNL A   1      39.629  28.712  27.541  1.00  0.00     0.029 A 
ATOM     23  C   UNL A   1      40.446  28.514  28.730  1.00  0.00     0.049 A 
ATOM     24  H   UNL A   1      40.229  29.421  30.595  1.00  0.00     0.167 HD
ATOM     25  C   UNL A   1      39.514  31.257  34.500  1.00  0.00     0.037 A 
ATOM     26  C   UNL A   1      41.517  27.705  28.800  1.00  0.00     0.037 A 
ATOM     27  C   UNL A   1      40.698  30.451  34.663  1.00  0.00     0.049 A 
ATOM     28  C   UNL A   1      42.281  27.627  30.086  1.00  0.00     0.074 A 
ATOM     29  C   UNL A   1      41.473  30.275  35.797  1.00  0.00     0.029 A 
ATOM     30  N   UNL A   1      41.274  29.682  33.663  1.00  0.00    -0.354 N 
ATOM     31  N   UNL A   1      42.026  28.208  31.232  1.00  0.00    -0.248 NA
ATOM     32  C   UNL A   1      43.492  26.797  30.082  1.00  0.00     0.031 C 
ATOM     33  C   UNL A   1      42.539  29.428  35.472  1.00  0.00     0.029 A 
ATOM     34  C   UNL A   1      42.403  29.043  34.149  1.00  0.00     0.049 A 
ATOM     35  H   UNL A   1      40.931  29.601  32.744  1.00  0.00     0.167 HD
ATOM     36  C   UNL A   1      43.039  27.810  32.090  1.00  0.00     0.074 A 
ATOM     37  C   UNL A   1      43.897  26.916  31.339  1.00  0.00     0.031 C 
ATOM     38  C   UNL A   1      43.244  28.158  33.383  1.00  0.00     0.037 A 
BRANCH  25  39
ATOM     39  C   UNL A   1      39.058  32.089  35.664  1.00  0.00     0.057 A 
ATOM     40  C   UNL A   1      38.231  31.574  36.671  1.00  0.00     0.134 A 
ATOM     41  C   UNL A   1      39.486  33.416  35.796  1.00  0.00     0.134 A 
ATOM     42  F   UNL A   1      37.774  30.315  36.599  1.00  0.00    -0.206 F 
ATOM     43  C   UNL A   1      37.831  32.357  37.756  1.00  0.00     0.040 A 
ATOM     44  C   UNL A   1      39.111  34.201  36.888  1.00  0.00     0.040 A 
ATOM     45  F   UNL A   1      40.284  33.970  34.870  1.00  0.00    -0.206 F 
ATOM     46  C   UNL A   1      38.277  33.673  37.870  1.00  0.00     0.006 A 
ENDBRANCH  25  39
BRANCH  26  47
ATOM     47  C   UNL A   1      41.925  26.914  27.612  1.00  0.00     0.057 A 
ATOM     48  C   UNL A   1      42.746  27.468  26.622  1.00  0.00     0.134 A 
ATOM     49  C   UNL A   1      41.527  25.581  27.450  1.00  0.00     0.134 A 
ATOM     50  F   UNL A   1      43.147  28.744  26.714  1.00  0.00    -0.206 F 
ATOM     51  C   UNL A   1      43.148  26.728  25.510  1.00  0.00     0.040 A 
ATOM     52  C   UNL A   1      41.945  24.821  26.358  1.00  0.00     0.040 A 
ATOM     53  F   UNL A   1      40.750  24.991  28.369  1.00  0.00    -0.206 F 
ATOM     54  C   UNL A   1      42.753  25.396  25.380  1.00  0.00     0.006 A 
ENDBRANCH  26  47
BRANCH  38  55
ATOM     55  C   UNL A   1      44.430  27.546  34.064  1.00  0.00     0.057 A 
ATOM     56  C   UNL A   1      45.678  28.182  34.082  1.00  0.00     0.134 A 
ATOM     57  C   UNL A   1      44.321  26.309  34.712  1.00  0.00     0.134 A 
ATOM     58  F   UNL A   1      45.850  29.360  33.463  1.00  0.00    -0.206 F 
ATOM     59  C   UNL A   1      46.783  27.596  34.700  1.00  0.00     0.040 A 
ATOM     60  C   UNL A   1      45.413  25.726  35.354  1.00  0.00     0.040 A 
ATOM     61  F   UNL A   1      43.151  25.653  34.734  1.00  0.00    -0.206 F 
ATOM     62  C   UNL A   1      46.650  26.365  35.341  1.00  0.00     0.006 A 
ENDBRANCH  38  55
ENDBRANCH  12  13
ENDBRANCH   5   7
ENDBRANCH   2   3
ENDBRANCH   1   2
BRANCH   1  63
ATOM     63  C   UNL A   1      32.241  27.692  26.766  1.00  0.00     0.118 C 
BRANCH  63  64
ATOM     64  N   UNL A   1      31.174  26.700  26.907  1.00  0.00    -0.351 N 
ATOM     65  C   UNL A   1      30.896  25.585  26.157  1.00  0.00     0.283 C 
ATOM     66  H   UNL A   1      30.559  26.857  27.659  1.00  0.00     0.163 HD
ATOM     67  O   UNL A   1      29.901  24.932  26.499  1.00  0.00    -0.268 OA
BRANCH  65  68
ATOM     68  C   UNL A   1      31.745  25.156  24.920  1.00  0.00     0.307 C 
BRANCH  68  69
ATOM     69  N   UNL A   1      31.257  23.885  24.284  1.00  0.00    -0.318 N 
ATOM     70  C   UNL A   1      32.129  23.421  23.166  1.00  0.00     0.284 C 
ATOM     71  C   UNL A   1      31.022  22.714  25.168  1.00  0.00     0.284 C 
ATOM     72  H   UNL A   1      30.342  24.195  23.956  1.00  0.00     0.349 HD
ATOM     73  C   UNL A   1      33.384  22.572  23.541  1.00  0.00     0.178 C 
ATOM     74  C   UNL A   1      32.236  21.875  25.605  1.00  0.00     0.178 C 
ATOM     75  N   UNL A   1      33.014  21.476  24.441  1.00  0.00    -0.360 N 
BRANCH  75  76
ATOM     76  C   UNL A   1      33.069  20.160  24.028  1.00  0.00     0.038 A 
ATOM     77  C   UNL A   1      32.189  19.634  23.069  1.00  0.00     0.026 A 
ATOM     78  C   UNL A   1      34.002  19.284  24.597  1.00  0.00     0.046 A 
ATOM     79  C   UNL A   1      32.233  18.286  22.692  1.00  0.00     0.004 A 
ATOM     80  C   UNL A   1      34.034  17.933  24.240  1.00  0.00     0.043 A 
ATOM     81  C   UNL A   1      33.155  17.429  23.286  1.00  0.00     0.020 A 
ATOM     82  Cl  UNL A   1      35.156  16.872  25.004  1.00  0.00    -0.084 Cl
ENDBRANCH  75  76
ENDBRANCH  68  69
BRANCH  68  83
ATOM     83  C   UNL A   1      31.787  26.295  23.872  1.00  0.00     0.044 A 
ATOM     84  C   UNL A   1      32.821  26.602  22.995  1.00  0.00     0.094 A 
ATOM     85  C   UNL A   1      30.735  27.201  23.464  1.00  0.00     0.011 A 
ATOM     86  N   UNL A   1      32.615  27.841  22.465  1.00  0.00    -0.361 N 
ATOM     87  C   UNL A   1      31.314  28.202  22.675  1.00  0.00     0.046 A 
ATOM     88  C   UNL A   1      29.342  27.275  23.674  1.00  0.00     0.031 A 
ATOM     89  H   UNL A   1      33.293  28.386  22.005  1.00  0.00     0.166 HD
ATOM     90  C   UNL A   1      30.626  29.317  22.190  1.00  0.00     0.028 A 
ATOM     91  C   UNL A   1      28.623  28.346  23.127  1.00  0.00     0.041 A 
ATOM     92  C   UNL A   1      29.256  29.367  22.425  1.00  0.00     0.022 A 
ATOM     93  Cl  UNL A   1      26.909  28.391  23.309  1.00  0.00    -0.084 Cl
ENDBRANCH  68  83
ENDBRANCH  65  68
ENDBRANCH  63  64
ENDBRANCH   1  63
TORSDOF 13
ENDMDL
MODEL 2
REMARK VINA RESULT:     -13.7      2.735      8.107
REMARK SMILES O=C(NCCCNC(=O)[C@H](c1c[nH]c2ccc(Cl)cc12)[NH+]1CCN(c2cccc(Cl)c2)CC1)c1ccc(-c2c3nc(c(-c4c(F)cccc4F)c4ccc([nH]4)c(-c4c(F)cccc4F)c4nc(c(-c5c(F)cccc5F)c5ccc2[nH]5)C=C4)C=C3)cc1
REMARK SMILES IDX 5 1 4 2 3 3 1 4 2 5 34 7 35 8 87 9 36 10 86 11 37 12 38 13
REMARK SMILES IDX 39 14 80 15 40 16 85 17 79 18 81 19 41 20 84 21 78 22 77 23
REMARK SMILES IDX 42 25 68 26 51 27 67 28 52 29 55 30 66 31 82 32 53 33 54 34
REMARK SMILES IDX 65 36 83 37 56 38 43 39 44 40 49 41 45 42 46 43 48 44 50 45
REMARK SMILES IDX 47 46 69 47 70 48 75 49 71 50 72 51 74 52 76 53 73 54 57 55
REMARK SMILES IDX 58 56 63 57 59 58 60 59 62 60 64 61 61 62 6 63 7 64 8 65
REMARK SMILES IDX 9 67 10 68 21 69 22 70 33 71 23 73 32 74 24 75 25 76 26 77
REMARK SMILES IDX 31 78 27 79 29 80 28 81 30 82 11 83 12 84 20 85 13 86 14 87
REMARK SMILES IDX 19 88 15 90 17 91 16 92 18 93
REMARK H PARENT 3 6 81 24 55 35 7 66 21 72 13 89
REMARK Flexibility Score: inf
ROOT
ATOM      1  C   UNL A   1      37.638  23.052  25.221  1.00  0.00     0.042 C 
ENDROOT
BRANCH   1   2
ATOM      2  C   UNL A   1      38.416  23.801  26.289  1.00  0.00     0.118 C 
BRANCH   2   3
ATOM      3  N   UNL A   1      39.863  23.658  26.144  1.00  0.00    -0.352 N 
ATOM      4  O   UNL A   1      42.034  24.263  26.150  1.00  0.00    -0.269 OA
ATOM      5  C   UNL A   1      40.895  24.461  26.568  1.00  0.00     0.251 C 
ATOM      6  H   UNL A   1      40.146  22.848  25.660  1.00  0.00     0.163 HD
BRANCH   5   7
ATOM      7  C   UNL A   1      40.632  25.584  27.491  1.00  0.00     0.039 A 
ATOM      8  C   UNL A   1      41.347  26.769  27.371  1.00  0.00     0.014 A 
ATOM      9  C   UNL A   1      39.667  25.458  28.495  1.00  0.00     0.014 A 
ATOM     10  C   UNL A   1      41.302  27.705  28.390  1.00  0.00     0.010 A 
ATOM     11  C   UNL A   1      39.499  26.486  29.431  1.00  0.00     0.010 A 
ATOM     12  C   UNL A   1      40.358  27.595  29.420  1.00  0.00    -0.014 A 
BRANCH  12  13
ATOM     13  C   UNL A   1      40.284  28.687  30.427  1.00  0.00     0.031 A 
ATOM     14  C   UNL A   1      39.211  29.740  30.368  1.00  0.00     0.074 A 
ATOM     15  C   UNL A   1      41.154  28.668  31.458  1.00  0.00     0.049 A 
ATOM     16  N   UNL A   1      38.974  30.718  31.205  1.00  0.00    -0.248 NA
ATOM     17  C   UNL A   1      38.293  29.705  29.219  1.00  0.00     0.031 C 
ATOM     18  C   UNL A   1      42.246  27.701  31.620  1.00  0.00     0.029 A 
ATOM     19  N   UNL A   1      41.230  29.438  32.589  1.00  0.00    -0.354 N 
ATOM     20  C   UNL A   1      37.918  31.440  30.664  1.00  0.00     0.074 A 
ATOM     21  C   UNL A   1      37.562  30.792  29.421  1.00  0.00     0.031 C 
ATOM     22  C   UNL A   1      42.810  27.869  32.824  1.00  0.00     0.029 A 
ATOM     23  C   UNL A   1      42.187  29.011  33.478  1.00  0.00     0.049 A 
ATOM     24  H   UNL A   1      40.654  30.221  32.749  1.00  0.00     0.167 HD
ATOM     25  C   UNL A   1      37.301  32.538  31.162  1.00  0.00     0.037 A 
ATOM     26  C   UNL A   1      42.537  29.489  34.684  1.00  0.00     0.037 A 
ATOM     27  C   UNL A   1      37.629  33.149  32.425  1.00  0.00     0.049 A 
ATOM     28  C   UNL A   1      41.825  30.694  35.217  1.00  0.00     0.074 A 
ATOM     29  C   UNL A   1      37.035  34.240  33.035  1.00  0.00     0.029 A 
ATOM     30  N   UNL A   1      38.637  32.717  33.274  1.00  0.00    -0.354 N 
ATOM     31  N   UNL A   1      40.825  31.359  34.694  1.00  0.00    -0.248 NA
ATOM     32  C   UNL A   1      42.304  31.228  36.499  1.00  0.00     0.031 C 
ATOM     33  C   UNL A   1      37.708  34.491  34.236  1.00  0.00     0.029 A 
ATOM     34  C   UNL A   1      38.693  33.530  34.394  1.00  0.00     0.049 A 
ATOM     35  H   UNL A   1      39.225  31.946  33.106  1.00  0.00     0.167 HD
ATOM     36  C   UNL A   1      40.548  32.386  35.583  1.00  0.00     0.074 A 
ATOM     37  C   UNL A   1      41.468  32.239  36.692  1.00  0.00     0.031 C 
ATOM     38  C   UNL A   1      39.618  33.366  35.487  1.00  0.00     0.037 A 
BRANCH  25  39
ATOM     39  C   UNL A   1      36.225  33.171  30.327  1.00  0.00     0.057 A 
ATOM     40  C   UNL A   1      34.864  33.011  30.615  1.00  0.00     0.134 A 
ATOM     41  C   UNL A   1      36.563  33.985  29.237  1.00  0.00     0.134 A 
ATOM     42  F   UNL A   1      34.472  32.234  31.636  1.00  0.00    -0.206 F 
ATOM     43  C   UNL A   1      33.877  33.622  29.838  1.00  0.00     0.040 A 
ATOM     44  C   UNL A   1      35.586  34.619  28.468  1.00  0.00     0.040 A 
ATOM     45  F   UNL A   1      37.848  34.185  28.909  1.00  0.00    -0.206 F 
ATOM     46  C   UNL A   1      34.238  34.435  28.764  1.00  0.00     0.006 A 
ENDBRANCH  25  39
BRANCH  26  47
ATOM     47  C   UNL A   1      43.615  28.825  35.459  1.00  0.00     0.057 A 
ATOM     48  C   UNL A   1      43.320  27.839  36.407  1.00  0.00     0.134 A 
ATOM     49  C   UNL A   1      44.963  29.142  35.253  1.00  0.00     0.134 A 
ATOM     50  F   UNL A   1      42.047  27.504  36.660  1.00  0.00    -0.206 F 
ATOM     51  C   UNL A   1      44.327  27.198  37.130  1.00  0.00     0.040 A 
ATOM     52  C   UNL A   1      45.982  28.488  35.947  1.00  0.00     0.040 A 
ATOM     53  F   UNL A   1      45.310  30.070  34.351  1.00  0.00    -0.206 F 
ATOM     54  C   UNL A   1      45.664  27.517  36.894  1.00  0.00     0.006 A 
ENDBRANCH  26  47
BRANCH  38  55
ATOM     55  C   UNL A   1      39.543  34.335  36.627  1.00  0.00     0.057 A 
ATOM     56  C   UNL A   1      40.181  35.581  36.578  1.00  0.00     0.134 A 
ATOM     57  C   UNL A   1      38.820  34.019  37.784  1.00  0.00     0.134 A 
ATOM     58  F   UNL A   1      40.903  35.934  35.504  1.00  0.00    -0.206 F 
ATOM     59  C   UNL A   1      40.123  36.469  37.653  1.00  0.00     0.040 A 
ATOM     60  C   UNL A   1      38.736  34.909  38.854  1.00  0.00     0.040 A 
ATOM     61  F   UNL A   1      38.183  32.843  37.890  1.00  0.00    -0.206 F 
ATOM     62  C   UNL A   1      39.396  36.135  38.794  1.00  0.00     0.006 A 
ENDBRANCH  38  55
ENDBRANCH  12  13
ENDBRANCH   5   7
ENDBRANCH   2   3
ENDBRANCH   1   2
BRANCH   1  63
ATOM     63  C   UNL A   1      36.231  23.598  25.051  1.00  0.00     0.118 C 
BRANCH  63  64
ATOM     64  N   UNL A   1      35.717  23.450  23.690  1.00  0.00    -0.351 N 
ATOM     65  C   UNL A   1      34.425  23.441  23.226  1.00  0.00     0.283 C 
ATOM     66  H   UNL A   1      36.406  23.338  22.996  1.00  0.00     0.163 HD
ATOM     67  O   UNL A   1      34.284  23.272  22.007  1.00  0.00    -0.268 OA
BRANCH  65  68
ATOM     68  C   UNL A   1      33.184  23.600  24.158  1.00  0.00     0.307 C 
BRANCH  68  69
ATOM     69  N   UNL A   1      31.933  23.971  23.413  1.00  0.00    -0.318 N 
ATOM     70  C   UNL A   1      30.756  24.165  24.310  1.00  0.00     0.284 C 
ATOM     71  C   UNL A   1      31.990  25.148  22.507  1.00  0.00     0.284 C 
ATOM     72  H   UNL A   1      31.833  23.148  22.819  1.00  0.00     0.349 HD
ATOM     73  C   UNL A   1      30.590  25.564  24.981  1.00  0.00     0.178 C 
ATOM     74  C   UNL A   1      31.880  26.551  23.129  1.00  0.00     0.178 C 
ATOM     75  N   UNL A   1      30.702  26.631  23.982  1.00  0.00    -0.360 N 
BRANCH  75  76
ATOM     76  C   UNL A   1      29.612  27.405  23.635  1.00  0.00     0.038 A 
ATOM     77  C   UNL A   1      28.292  27.011  23.904  1.00  0.00     0.026 A 
ATOM     78  C   UNL A   1      29.799  28.613  22.953  1.00  0.00     0.046 A 
ATOM     79  C   UNL A   1      27.197  27.791  23.509  1.00  0.00     0.004 A 
ATOM     80  C   UNL A   1      28.708  29.382  22.536  1.00  0.00     0.043 A 
ATOM     81  C   UNL A   1      27.406  28.978  22.814  1.00  0.00     0.020 A 
ATOM     82  Cl  UNL A   1      28.975  30.834  21.647  1.00  0.00    -0.084 Cl
ENDBRANCH  75  76
ENDBRANCH  68  69
BRANCH  68  83
ATOM     83  C   UNL A   1      32.953  22.305  24.976  1.00  0.00     0.044 A 
ATOM     84  C   UNL A   1      32.744  22.194  26.346  1.00  0.00     0.094 A 
ATOM     85  C   UNL A   1      32.762  20.950  24.507  1.00  0.00     0.011 A 
ATOM     86  N   UNL A   1      32.897  20.894  26.725  1.00  0.00    -0.361 N 
ATOM     87  C   UNL A   1      32.837  20.099  25.616  1.00  0.00     0.046 A 
ATOM     88  C   UNL A   1      32.523  20.349  23.253  1.00  0.00     0.031 A 
ATOM     89  H   UNL A   1      33.030  20.580  27.649  1.00  0.00     0.166 HD
ATOM     90  C   UNL A   1      32.809  18.704  25.540  1.00  0.00     0.028 A 
ATOM     91  C   UNL A   1      32.413  18.955  23.171  1.00  0.00     0.041 A 
ATOM     92  C   UNL A   1      32.584  18.142  24.288  1.00  0.00     0.022 A 
ATOM     93  Cl  UNL A   1      32.035  18.227  21.655  1.00  0.00    -0.084 Cl
ENDBRANCH  68  83
ENDBRANCH  65  68
ENDBRANCH  63  64
ENDBRANCH   1  63
TORSDOF 13
ENDMDL
MODEL 3
REMARK VINA RESULT:     -13.7      4.296      7.379
REMARK SMILES O=C(NCCCNC(=O)[C@H](c1c[nH]c2ccc(Cl)cc12)[NH+]1CCN(c2cccc(Cl)c2)CC1)c1ccc(-c2c3nc(c(-c4c(F)cccc4F)c4ccc([nH]4)c(-c4c(F)cccc4F)c4nc(c(-c5c(F)cccc5F)c5ccc2[nH]5)C=C4)C=C3)cc1
REMARK SMILES IDX 5 1 4 2 3 3 1 4 2 5 34 7 35 8 87 9 36 10 86 11 37 12 38 13
REMARK SMILES IDX 39 14 80 15 40 16 85 17 79 18 81 19 41 20 84 21 78 22 77 23
REMARK SMILES IDX 42 25 68 26 51 27 67 28 52 29 55 30 66 31 82 32 53 33 54 34
REMARK SMILES IDX 65 36 83 37 56 38 43 39 44 40 49 41 45 42 46 43 48 44 50 45
REMARK SMILES IDX 47 46 69 47 70 48 75 49 71 50 72 51 74 52 76 53 73 54 57 55
REMARK SMILES IDX 58 56 63 57 59 58 60 59 62 60 64 61 61 62 6 63 7 64 8 65
REMARK SMILES IDX 9 67 10 68 21 69 22 70 33 71 23 73 32 74 24 75 25 76 26 77
REMARK SMILES IDX 31 78 27 79 29 80 28 81 30 82 11 83 12 84 20 85 13 86 14 87
REMARK SMILES IDX 19 88 15 90 17 91 16 92 18 93
REMARK H PARENT 3 6 81 24 55 35 7 66 21 72 13 89
REMARK Flexibility Score: inf
ROOT
ATOM      1  C   UNL A   1      32.807  28.313  27.354  1.00  0.00     0.042 C 
ENDROOT
BRANCH   1   2
ATOM      2  C   UNL A   1      34.167  28.972  27.196  1.00  0.00     0.118 C 
BRANCH   2   3
ATOM      3  N   UNL A   1      34.334  30.142  28.054  1.00  0.00    -0.352 N 
ATOM      4  O   UNL A   1      35.273  31.475  29.610  1.00  0.00    -0.269 OA
ATOM      5  C   UNL A   1      35.416  30.578  28.783  1.00  0.00     0.251 C 
ATOM      6  H   UNL A   1      33.537  30.716  28.122  1.00  0.00     0.163 HD
BRANCH   5   7
ATOM      7  C   UNL A   1      36.737  29.943  28.602  1.00  0.00     0.039 A 
ATOM      8  C   UNL A   1      37.335  29.262  29.656  1.00  0.00     0.014 A 
ATOM      9  C   UNL A   1      37.398  30.030  27.373  1.00  0.00     0.014 A 
ATOM     10  C   UNL A   1      38.671  28.912  29.579  1.00  0.00     0.010 A 
ATOM     11  C   UNL A   1      38.695  29.518  27.243  1.00  0.00     0.010 A 
ATOM     12  C   UNL A   1      39.366  29.006  28.364  1.00  0.00    -0.014 A 
BRANCH  12  13
ATOM     13  C   UNL A   1      40.768  28.514  28.315  1.00  0.00     0.031 A 
ATOM     14  C   UNL A   1      41.090  27.093  27.940  1.00  0.00     0.074 A 
ATOM     15  C   UNL A   1      41.765  29.397  28.529  1.00  0.00     0.049 A 
ATOM     16  N   UNL A   1      42.262  26.529  27.790  1.00  0.00    -0.248 NA
ATOM     17  C   UNL A   1      39.958  26.180  27.717  1.00  0.00     0.031 C 
ATOM     18  C   UNL A   1      41.578  30.802  28.910  1.00  0.00     0.029 A 
ATOM     19  N   UNL A   1      43.124  29.271  28.407  1.00  0.00    -0.354 N 
ATOM     20  C   UNL A   1      42.012  25.193  27.504  1.00  0.00     0.074 A 
ATOM     21  C   UNL A   1      40.575  25.025  27.509  1.00  0.00     0.031 C 
ATOM     22  C   UNL A   1      42.762  31.428  28.884  1.00  0.00     0.029 A 
ATOM     23  C   UNL A   1      43.801  30.454  28.582  1.00  0.00     0.049 A 
ATOM     24  H   UNL A   1      43.572  28.415  28.212  1.00  0.00     0.167 HD
ATOM     25  C   UNL A   1      42.899  24.200  27.258  1.00  0.00     0.037 A 
ATOM     26  C   UNL A   1      45.115  30.728  28.518  1.00  0.00     0.037 A 
ATOM     27  C   UNL A   1      44.328  24.384  27.208  1.00  0.00     0.049 A 
ATOM     28  C   UNL A   1      46.072  29.614  28.227  1.00  0.00     0.074 A 
ATOM     29  C   UNL A   1      45.309  23.449  26.926  1.00  0.00     0.029 A 
ATOM     30  N   UNL A   1      44.978  25.587  27.439  1.00  0.00    -0.354 N 
ATOM     31  N   UNL A   1      45.816  28.358  27.954  1.00  0.00    -0.248 NA
ATOM     32  C   UNL A   1      47.501  29.949  28.254  1.00  0.00     0.031 C 
ATOM     33  C   UNL A   1      46.555  24.078  27.024  1.00  0.00     0.029 A 
ATOM     34  C   UNL A   1      46.348  25.414  27.323  1.00  0.00     0.049 A 
ATOM     35  H   UNL A   1      44.532  26.438  27.653  1.00  0.00     0.167 HD
ATOM     36  C   UNL A   1      47.050  27.753  27.769  1.00  0.00     0.074 A 
ATOM     37  C   UNL A   1      48.052  28.787  27.935  1.00  0.00     0.031 C 
ATOM     38  C   UNL A   1      47.328  26.456  27.493  1.00  0.00     0.037 A 
BRANCH  25  39
ATOM     39  C   UNL A   1      42.356  22.814  27.052  1.00  0.00     0.057 A 
ATOM     40  C   UNL A   1      42.281  22.222  25.786  1.00  0.00     0.134 A 
ATOM     41  C   UNL A   1      41.936  22.050  28.149  1.00  0.00     0.134 A 
ATOM     42  F   UNL A   1      42.654  22.904  24.693  1.00  0.00    -0.206 F 
ATOM     43  C   UNL A   1      41.790  20.926  25.615  1.00  0.00     0.040 A 
ATOM     44  C   UNL A   1      41.464  20.745  27.992  1.00  0.00     0.040 A 
ATOM     45  F   UNL A   1      41.986  22.555  29.391  1.00  0.00    -0.206 F 
ATOM     46  C   UNL A   1      41.385  20.181  26.722  1.00  0.00     0.006 A 
ENDBRANCH  25  39
BRANCH  26  47
ATOM     47  C   UNL A   1      45.593  32.116  28.739  1.00  0.00     0.057 A 
ATOM     48  C   UNL A   1      45.682  33.027  27.681  1.00  0.00     0.134 A 
ATOM     49  C   UNL A   1      45.947  32.571  30.015  1.00  0.00     0.134 A 
ATOM     50  F   UNL A   1      45.371  32.646  26.433  1.00  0.00    -0.206 F 
ATOM     51  C   UNL A   1      46.115  34.338  27.881  1.00  0.00     0.040 A 
ATOM     52  C   UNL A   1      46.354  33.888  30.235  1.00  0.00     0.040 A 
ATOM     53  F   UNL A   1      45.873  31.750  31.072  1.00  0.00    -0.206 F 
ATOM     54  C   UNL A   1      46.444  34.774  29.164  1.00  0.00     0.006 A 
ENDBRANCH  26  47
BRANCH  38  55
ATOM     55  C   UNL A   1      48.774  26.100  27.331  1.00  0.00     0.057 A 
ATOM     56  C   UNL A   1      49.407  26.142  26.082  1.00  0.00     0.134 A 
ATOM     57  C   UNL A   1      49.542  25.717  28.437  1.00  0.00     0.134 A 
ATOM     58  F   UNL A   1      48.720  26.485  24.982  1.00  0.00    -0.206 F 
ATOM     59  C   UNL A   1      50.749  25.789  25.935  1.00  0.00     0.040 A 
ATOM     60  C   UNL A   1      50.890  25.386  28.306  1.00  0.00     0.040 A 
ATOM     61  F   UNL A   1      48.994  25.662  29.661  1.00  0.00    -0.206 F 
ATOM     62  C   UNL A   1      51.495  25.413  27.051  1.00  0.00     0.006 A 
ENDBRANCH  38  55
ENDBRANCH  12  13
ENDBRANCH   5   7
ENDBRANCH   2   3
ENDBRANCH   1   2
BRANCH   1  63
ATOM     63  C   UNL A   1      31.814  28.795  26.312  1.00  0.00     0.118 C 
BRANCH  63  64
ATOM     64  N   UNL A   1      32.438  29.120  25.029  1.00  0.00    -0.351 N 
ATOM     65  C   UNL A   1      32.453  28.422  23.847  1.00  0.00     0.283 C 
ATOM     66  H   UNL A   1      32.925  29.975  25.011  1.00  0.00     0.163 HD
ATOM     67  O   UNL A   1      33.089  28.936  22.918  1.00  0.00    -0.268 OA
BRANCH  65  68
ATOM     68  C   UNL A   1      31.744  27.044  23.663  1.00  0.00     0.307 C 
BRANCH  68  69
ATOM     69  N   UNL A   1      32.211  26.007  24.644  1.00  0.00    -0.318 N 
ATOM     70  C   UNL A   1      31.664  24.648  24.360  1.00  0.00     0.284 C 
ATOM     71  C   UNL A   1      33.675  25.854  24.846  1.00  0.00     0.284 C 
ATOM     72  H   UNL A   1      31.835  26.401  25.506  1.00  0.00     0.349 HD
ATOM     73  C   UNL A   1      32.421  23.776  23.310  1.00  0.00     0.178 C 
ATOM     74  C   UNL A   1      34.473  25.044  23.808  1.00  0.00     0.178 C 
ATOM     75  N   UNL A   1      33.855  23.740  23.608  1.00  0.00    -0.360 N 
BRANCH  75  76
ATOM     76  C   UNL A   1      34.470  22.579  24.033  1.00  0.00     0.038 A 
ATOM     77  C   UNL A   1      33.763  21.383  24.236  1.00  0.00     0.026 A 
ATOM     78  C   UNL A   1      35.841  22.575  24.318  1.00  0.00     0.046 A 
ATOM     79  C   UNL A   1      34.397  20.226  24.705  1.00  0.00     0.004 A 
ATOM     80  C   UNL A   1      36.472  21.428  24.810  1.00  0.00     0.043 A 
ATOM     81  C   UNL A   1      35.757  20.251  25.002  1.00  0.00     0.020 A 
ATOM     82  Cl  UNL A   1      38.148  21.477  25.205  1.00  0.00    -0.084 Cl
ENDBRANCH  75  76
ENDBRANCH  68  69
BRANCH  68  83
ATOM     83  C   UNL A   1      30.207  27.211  23.753  1.00  0.00     0.044 A 
ATOM     84  C   UNL A   1      29.284  26.300  24.254  1.00  0.00     0.094 A 
ATOM     85  C   UNL A   1      29.397  28.378  23.480  1.00  0.00     0.011 A 
ATOM     86  N   UNL A   1      28.028  26.673  23.877  1.00  0.00    -0.361 N 
ATOM     87  C   UNL A   1      28.057  27.975  23.465  1.00  0.00     0.046 A 
ATOM     88  C   UNL A   1      29.658  29.745  23.248  1.00  0.00     0.031 A 
ATOM     89  H   UNL A   1      27.230  26.096  23.898  1.00  0.00     0.166 HD
ATOM     90  C   UNL A   1      26.989  28.808  23.124  1.00  0.00     0.028 A 
ATOM     91  C   UNL A   1      28.589  30.612  22.982  1.00  0.00     0.041 A 
ATOM     92  C   UNL A   1      27.280  30.148  22.889  1.00  0.00     0.022 A 
ATOM     93  Cl  UNL A   1      28.898  32.296  22.786  1.00  0.00    -0.084 Cl
ENDBRANCH  68  83
ENDBRANCH  65  68
ENDBRANCH  63  64
ENDBRANCH   1  63
TORSDOF 13
ENDMDL
