MODEL 1
REMARK VINA RESULT:     -12.3      0.000      0.000
REMARK SMILES O=C(NCCCNC(=O)[C@H]1C[C@H]2CCCC[C@@H]2[N@@H+]1Cc1ccno1)c1ccc(-c2c3nc(c(-c4c(F)cccc4F)c4ccc([nH]4)c(-c4c(F)cccc4F)c4nc(c(-c5c(F)cccc5F)c5ccc2[nH]5)C=C4)C=C3)cc1
REMARK SMILES IDX 5 1 4 2 3 3 1 4 2 5 25 7 26 8 78 9 27 10 77 11 28 12 29 13
REMARK SMILES IDX 30 14 71 15 31 16 76 17 70 18 72 19 32 20 75 21 69 22 68 23
REMARK SMILES IDX 33 25 59 26 42 27 58 28 43 29 46 30 57 31 73 32 44 33 45 34
REMARK SMILES IDX 56 36 74 37 47 38 34 39 35 40 40 41 36 42 37 43 39 44 41 45
REMARK SMILES IDX 38 46 60 47 61 48 66 49 62 50 63 51 65 52 67 53 64 54 48 55
REMARK SMILES IDX 49 56 54 57 50 58 51 59 53 60 55 61 52 62 6 63 7 64 8 65
REMARK SMILES IDX 9 67 10 68 11 69 18 70 12 71 17 72 13 74 16 75 14 76 15 77
REMARK SMILES IDX 19 78 20 79 21 80 24 81 22 82 23 83
REMARK H PARENT 3 6 72 24 46 35 7 66 18 73
REMARK Flexibility Score: inf
ROOT
ATOM      1  C   UNL A   1      31.403  32.104  26.838  1.00  0.00     0.042 C 
ENDROOT
BRANCH   1   2
ATOM      2  C   UNL A   1      32.695  32.783  27.254  1.00  0.00     0.118 C 
BRANCH   2   3
ATOM      3  N   UNL A   1      32.472  34.175  27.626  1.00  0.00    -0.352 N 
ATOM      4  O   UNL A   1      32.528  35.963  28.997  1.00  0.00    -0.269 OA
ATOM      5  C   UNL A   1      33.018  34.886  28.660  1.00  0.00     0.251 C 
ATOM      6  H   UNL A   1      31.842  34.670  27.055  1.00  0.00     0.163 HD
BRANCH   5   7
ATOM      7  C   UNL A   1      34.200  34.356  29.363  1.00  0.00     0.039 A 
ATOM      8  C   UNL A   1      34.039  33.587  30.520  1.00  0.00     0.014 A 
ATOM      9  C   UNL A   1      35.474  34.586  28.839  1.00  0.00     0.014 A 
ATOM     10  C   UNL A   1      35.151  33.141  31.216  1.00  0.00     0.010 A 
ATOM     11  C   UNL A   1      36.590  34.049  29.484  1.00  0.00     0.010 A 
ATOM     12  C   UNL A   1      36.433  33.322  30.674  1.00  0.00    -0.014 A 
BRANCH  12  13
ATOM     13  C   UNL A   1      37.572  32.600  31.286  1.00  0.00     0.031 A 
ATOM     14  C   UNL A   1      38.236  31.454  30.587  1.00  0.00     0.074 A 
ATOM     15  C   UNL A   1      37.982  33.002  32.504  1.00  0.00     0.049 A 
ATOM     16  N   UNL A   1      39.212  30.695  31.013  1.00  0.00    -0.248 NA
ATOM     17  C   UNL A   1      37.741  31.104  29.246  1.00  0.00     0.031 C 
ATOM     18  C   UNL A   1      37.385  34.099  33.275  1.00  0.00     0.029 A 
ATOM     19  N   UNL A   1      38.987  32.542  33.314  1.00  0.00    -0.354 N 
ATOM     20  C   UNL A   1      39.437  29.766  30.007  1.00  0.00     0.074 A 
ATOM     21  C   UNL A   1      38.487  30.046  28.951  1.00  0.00     0.031 C 
ATOM     22  C   UNL A   1      38.049  34.241  34.430  1.00  0.00     0.029 A 
ATOM     23  C   UNL A   1      39.063  33.201  34.517  1.00  0.00     0.049 A 
ATOM     24  H   UNL A   1      39.596  31.812  33.057  1.00  0.00     0.167 HD
ATOM     25  C   UNL A   1      40.355  28.772  29.980  1.00  0.00     0.037 A 
ATOM     26  C   UNL A   1      39.833  32.964  35.593  1.00  0.00     0.037 A 
ATOM     27  C   UNL A   1      41.306  28.523  31.034  1.00  0.00     0.049 A 
ATOM     28  C   UNL A   1      40.810  31.827  35.541  1.00  0.00     0.074 A 
ATOM     29  C   UNL A   1      42.329  27.591  31.065  1.00  0.00     0.029 A 
ATOM     30  N   UNL A   1      41.339  29.194  32.247  1.00  0.00    -0.354 N 
ATOM     31  N   UNL A   1      41.066  31.006  34.553  1.00  0.00    -0.248 NA
ATOM     32  C   UNL A   1      41.598  31.577  36.754  1.00  0.00     0.031 C 
ATOM     33  C   UNL A   1      42.938  27.654  32.321  1.00  0.00     0.029 A 
ATOM     34  C   UNL A   1      42.332  28.662  33.053  1.00  0.00     0.049 A 
ATOM     35  H   UNL A   1      40.744  29.937  32.498  1.00  0.00     0.167 HD
ATOM     36  C   UNL A   1      42.047  30.145  35.020  1.00  0.00     0.074 A 
ATOM     37  C   UNL A   1      42.365  30.567  36.369  1.00  0.00     0.031 C 
ATOM     38  C   UNL A   1      42.627  29.094  34.395  1.00  0.00     0.037 A 
BRANCH  25  39
ATOM     39  C   UNL A   1      40.379  27.855  28.793  1.00  0.00     0.057 A 
ATOM     40  C   UNL A   1      41.170  28.113  27.669  1.00  0.00     0.134 A 
ATOM     41  C   UNL A   1      39.676  26.642  28.825  1.00  0.00     0.134 A 
ATOM     42  F   UNL A   1      41.862  29.258  27.572  1.00  0.00    -0.206 F 
ATOM     43  C   UNL A   1      41.264  27.198  26.616  1.00  0.00     0.040 A 
ATOM     44  C   UNL A   1      39.777  25.711  27.790  1.00  0.00     0.040 A 
ATOM     45  F   UNL A   1      38.903  26.330  29.876  1.00  0.00    -0.206 F 
ATOM     46  C   UNL A   1      40.575  25.988  26.682  1.00  0.00     0.006 A 
ENDBRANCH  25  39
BRANCH  26  47
ATOM     47  C   UNL A   1      39.668  33.779  36.823  1.00  0.00     0.057 A 
ATOM     48  C   UNL A   1      38.774  33.404  37.831  1.00  0.00     0.134 A 
ATOM     49  C   UNL A   1      40.388  34.967  37.009  1.00  0.00     0.134 A 
ATOM     50  F   UNL A   1      38.045  32.285  37.705  1.00  0.00    -0.206 F 
ATOM     51  C   UNL A   1      38.579  34.195  38.966  1.00  0.00     0.040 A 
ATOM     52  C   UNL A   1      40.228  35.749  38.153  1.00  0.00     0.040 A 
ATOM     53  F   UNL A   1      41.268  35.379  36.084  1.00  0.00    -0.206 F 
ATOM     54  C   UNL A   1      39.311  35.370  39.130  1.00  0.00     0.006 A 
ENDBRANCH  26  47
BRANCH  38  55
ATOM     55  C   UNL A   1      43.667  28.335  35.163  1.00  0.00     0.057 A 
ATOM     56  C   UNL A   1      45.015  28.715  35.142  1.00  0.00     0.134 A 
ATOM     57  C   UNL A   1      43.312  27.242  35.962  1.00  0.00     0.134 A 
ATOM     58  F   UNL A   1      45.421  29.742  34.381  1.00  0.00    -0.206 F 
ATOM     59  C   UNL A   1      45.977  28.019  35.875  1.00  0.00     0.040 A 
ATOM     60  C   UNL A   1      44.260  26.558  36.722  1.00  0.00     0.040 A 
ATOM     61  F   UNL A   1      42.036  26.834  36.031  1.00  0.00    -0.206 F 
ATOM     62  C   UNL A   1      45.599  26.944  36.676  1.00  0.00     0.006 A 
ENDBRANCH  38  55
ENDBRANCH  12  13
ENDBRANCH   5   7
ENDBRANCH   2   3
ENDBRANCH   1   2
BRANCH   1  63
ATOM     63  C   UNL A   1      31.655  30.836  26.039  1.00  0.00     0.118 C 
BRANCH  63  64
ATOM     64  N   UNL A   1      31.571  29.664  26.883  1.00  0.00    -0.351 N 
ATOM     65  C   UNL A   1      31.778  28.343  26.646  1.00  0.00     0.278 C 
ATOM     66  H   UNL A   1      31.313  29.863  27.812  1.00  0.00     0.163 HD
ATOM     67  O   UNL A   1      31.475  27.581  27.574  1.00  0.00    -0.268 OA
BRANCH  65  68
ATOM     68  C   UNL A   1      32.435  27.775  25.368  1.00  0.00     0.275 C 
ATOM     69  C   UNL A   1      33.388  26.576  25.485  1.00  0.00     0.085 C 
ATOM     70  N   UNL A   1      31.354  27.385  24.412  1.00  0.00    -0.316 N 
ATOM     71  C   UNL A   1      32.816  25.543  24.518  1.00  0.00     0.054 C 
ATOM     72  C   UNL A   1      31.345  25.927  24.387  1.00  0.00     0.188 C 
ATOM     73  H   UNL A   1      30.428  27.686  24.712  1.00  0.00     0.349 HD
ATOM     74  C   UNL A   1      32.967  24.069  24.858  1.00  0.00     0.010 C 
ATOM     75  C   UNL A   1      30.634  25.139  23.292  1.00  0.00     0.065 C 
ATOM     76  C   UNL A   1      32.298  23.241  23.754  1.00  0.00     0.001 C 
ATOM     77  C   UNL A   1      30.831  23.632  23.522  1.00  0.00     0.006 C 
BRANCH  70  78
ATOM     78  C   UNL A   1      31.416  28.111  23.133  1.00  0.00     0.342 C 
BRANCH  78  79
ATOM     79  C   UNL A   1      30.169  28.803  22.701  1.00  0.00     0.190 A 
ATOM     80  C   UNL A   1      28.860  28.798  23.126  1.00  0.00     0.075 A 
ATOM     81  O   UNL A   1      30.276  29.634  21.626  1.00  0.00    -0.355 OA
ATOM     82  C   UNL A   1      28.190  29.601  22.189  1.00  0.00     0.158 A 
ATOM     83  N   UNL A   1      29.025  30.122  21.289  1.00  0.00    -0.088 NA
ENDBRANCH  78  79
ENDBRANCH  70  78
ENDBRANCH  65  68
ENDBRANCH  63  64
ENDBRANCH   1  63
TORSDOF 12
ENDMDL
MODEL 2
REMARK VINA RESULT:     -12.3      5.723     10.650
REMARK SMILES O=C(NCCCNC(=O)[C@H]1C[C@H]2CCCC[C@@H]2[N@@H+]1Cc1ccno1)c1ccc(-c2c3nc(c(-c4c(F)cccc4F)c4ccc([nH]4)c(-c4c(F)cccc4F)c4nc(c(-c5c(F)cccc5F)c5ccc2[nH]5)C=C4)C=C3)cc1
REMARK SMILES IDX 5 1 4 2 3 3 1 4 2 5 25 7 26 8 78 9 27 10 77 11 28 12 29 13
REMARK SMILES IDX 30 14 71 15 31 16 76 17 70 18 72 19 32 20 75 21 69 22 68 23
REMARK SMILES IDX 33 25 59 26 42 27 58 28 43 29 46 30 57 31 73 32 44 33 45 34
REMARK SMILES IDX 56 36 74 37 47 38 34 39 35 40 40 41 36 42 37 43 39 44 41 45
REMARK SMILES IDX 38 46 60 47 61 48 66 49 62 50 63 51 65 52 67 53 64 54 48 55
REMARK SMILES IDX 49 56 54 57 50 58 51 59 53 60 55 61 52 62 6 63 7 64 8 65
REMARK SMILES IDX 9 67 10 68 11 69 18 70 12 71 17 72 13 74 16 75 14 76 15 77
REMARK SMILES IDX 19 78 20 79 21 80 24 81 22 82 23 83
REMARK H PARENT 3 6 72 24 46 35 7 66 18 73
REMARK Flexibility Score: inf
ROOT
ATOM      1  C   UNL A   1      37.780  19.960  24.682  1.00  0.00     0.042 C 
ENDROOT
BRANCH   1   2
ATOM      2  C   UNL A   1      38.824  20.264  25.740  1.00  0.00     0.118 C 
BRANCH   2   3
ATOM      3  N   UNL A   1      39.821  19.203  25.826  1.00  0.00    -0.352 N 
ATOM      4  O   UNL A   1      41.900  18.335  25.751  1.00  0.00    -0.269 OA
ATOM      5  C   UNL A   1      41.180  19.310  25.960  1.00  0.00     0.251 C 
ATOM      6  H   UNL A   1      39.469  18.286  25.782  1.00  0.00     0.163 HD
BRANCH   5   7
ATOM      7  C   UNL A   1      41.772  20.598  26.363  1.00  0.00     0.039 A 
ATOM      8  C   UNL A   1      42.121  21.541  25.390  1.00  0.00     0.014 A 
ATOM      9  C   UNL A   1      41.935  20.888  27.719  1.00  0.00     0.014 A 
ATOM     10  C   UNL A   1      42.735  22.726  25.764  1.00  0.00     0.010 A 
ATOM     11  C   UNL A   1      42.459  22.125  28.100  1.00  0.00     0.010 A 
ATOM     12  C   UNL A   1      42.859  23.050  27.123  1.00  0.00    -0.014 A 
BRANCH  12  13
ATOM     13  C   UNL A   1      43.257  24.428  27.492  1.00  0.00     0.031 A 
ATOM     14  C   UNL A   1      42.245  25.445  27.919  1.00  0.00     0.074 A 
ATOM     15  C   UNL A   1      44.565  24.740  27.415  1.00  0.00     0.049 A 
ATOM     16  N   UNL A   1      42.432  26.702  28.229  1.00  0.00    -0.248 NA
ATOM     17  C   UNL A   1      40.843  25.007  28.004  1.00  0.00     0.031 C 
ATOM     18  C   UNL A   1      45.628  23.821  26.991  1.00  0.00     0.029 A 
ATOM     19  N   UNL A   1      45.230  25.908  27.684  1.00  0.00    -0.354 N 
ATOM     20  C   UNL A   1      41.175  27.212  28.524  1.00  0.00     0.074 A 
ATOM     21  C   UNL A   1      40.227  26.132  28.345  1.00  0.00     0.031 C 
ATOM     22  C   UNL A   1      46.808  24.451  27.051  1.00  0.00     0.029 A 
ATOM     23  C   UNL A   1      46.580  25.835  27.440  1.00  0.00     0.049 A 
ATOM     24  H   UNL A   1      44.783  26.718  28.020  1.00  0.00     0.167 HD
ATOM     25  C   UNL A   1      40.855  28.470  28.906  1.00  0.00     0.037 A 
ATOM     26  C   UNL A   1      47.526  26.790  27.481  1.00  0.00     0.037 A 
ATOM     27  C   UNL A   1      41.817  29.525  29.096  1.00  0.00     0.049 A 
ATOM     28  C   UNL A   1      47.125  28.182  27.868  1.00  0.00     0.074 A 
ATOM     29  C   UNL A   1      41.601  30.812  29.560  1.00  0.00     0.029 A 
ATOM     30  N   UNL A   1      43.172  29.423  28.818  1.00  0.00    -0.354 N 
ATOM     31  N   UNL A   1      45.945  28.631  28.219  1.00  0.00    -0.248 NA
ATOM     32  C   UNL A   1      48.180  29.202  27.855  1.00  0.00     0.031 C 
ATOM     33  C   UNL A   1      42.812  31.506  29.500  1.00  0.00     0.029 A 
ATOM     34  C   UNL A   1      43.794  30.638  29.052  1.00  0.00     0.049 A 
ATOM     35  H   UNL A   1      43.624  28.607  28.502  1.00  0.00     0.167 HD
ATOM     36  C   UNL A   1      46.116  29.983  28.476  1.00  0.00     0.074 A 
ATOM     37  C   UNL A   1      47.521  30.273  28.272  1.00  0.00     0.031 C 
ATOM     38  C   UNL A   1      45.193  30.905  28.837  1.00  0.00     0.037 A 
BRANCH  25  39
ATOM     39  C   UNL A   1      39.408  28.802  29.125  1.00  0.00     0.057 A 
ATOM     40  C   UNL A   1      38.802  28.689  30.381  1.00  0.00     0.134 A 
ATOM     41  C   UNL A   1      38.643  29.343  28.083  1.00  0.00     0.134 A 
ATOM     42  F   UNL A   1      39.477  28.173  31.419  1.00  0.00    -0.206 F 
ATOM     43  C   UNL A   1      37.483  29.102  30.593  1.00  0.00     0.040 A 
ATOM     44  C   UNL A   1      37.333  29.777  28.287  1.00  0.00     0.040 A 
ATOM     45  F   UNL A   1      39.166  29.484  26.855  1.00  0.00    -0.206 F 
ATOM     46  C   UNL A   1      36.750  29.659  29.547  1.00  0.00     0.006 A 
ENDBRANCH  25  39
BRANCH  26  47
ATOM     47  C   UNL A   1      48.922  26.473  27.088  1.00  0.00     0.057 A 
ATOM     48  C   UNL A   1      49.336  26.533  25.754  1.00  0.00     0.134 A 
ATOM     49  C   UNL A   1      49.873  26.082  28.041  1.00  0.00     0.134 A 
ATOM     50  F   UNL A   1      48.469  26.887  24.794  1.00  0.00    -0.206 F 
ATOM     51  C   UNL A   1      50.635  26.188  25.376  1.00  0.00     0.040 A 
ATOM     52  C   UNL A   1      51.184  25.767  27.682  1.00  0.00     0.040 A 
ATOM     53  F   UNL A   1      49.544  26.014  29.340  1.00  0.00    -0.206 F 
ATOM     54  C   UNL A   1      51.564  25.807  26.343  1.00  0.00     0.006 A 
ENDBRANCH  26  47
BRANCH  38  55
ATOM     55  C   UNL A   1      45.679  32.309  29.041  1.00  0.00     0.057 A 
ATOM     56  C   UNL A   1      45.636  33.255  28.009  1.00  0.00     0.134 A 
ATOM     57  C   UNL A   1      46.156  32.729  30.288  1.00  0.00     0.134 A 
ATOM     58  F   UNL A   1      45.206  32.910  26.787  1.00  0.00    -0.206 F 
ATOM     59  C   UNL A   1      46.069  34.567  28.207  1.00  0.00     0.040 A 
ATOM     60  C   UNL A   1      46.565  34.044  30.506  1.00  0.00     0.040 A 
ATOM     61  F   UNL A   1      46.217  31.872  31.318  1.00  0.00    -0.206 F 
ATOM     62  C   UNL A   1      46.526  34.966  29.462  1.00  0.00     0.006 A 
ENDBRANCH  38  55
ENDBRANCH  12  13
ENDBRANCH   5   7
ENDBRANCH   2   3
ENDBRANCH   1   2
BRANCH   1  63
ATOM     63  C   UNL A   1      36.439  20.599  25.001  1.00  0.00     0.118 C 
BRANCH  63  64
ATOM     64  N   UNL A   1      36.230  21.793  24.211  1.00  0.00    -0.351 N 
ATOM     65  C   UNL A   1      35.255  22.738  24.212  1.00  0.00     0.278 C 
ATOM     66  H   UNL A   1      36.933  21.951  23.540  1.00  0.00     0.163 HD
ATOM     67  O   UNL A   1      35.311  23.564  23.291  1.00  0.00    -0.268 OA
BRANCH  65  68
ATOM     68  C   UNL A   1      34.182  22.887  25.314  1.00  0.00     0.275 C 
ATOM     69  C   UNL A   1      34.115  24.191  26.124  1.00  0.00     0.085 C 
ATOM     70  N   UNL A   1      32.835  22.686  24.696  1.00  0.00    -0.316 N 
ATOM     71  C   UNL A   1      32.672  24.660  25.967  1.00  0.00     0.054 C 
ATOM     72  C   UNL A   1      32.201  23.999  24.675  1.00  0.00     0.188 C 
ATOM     73  H   UNL A   1      32.884  22.360  23.731  1.00  0.00     0.349 HD
ATOM     74  C   UNL A   1      32.392  26.154  25.948  1.00  0.00     0.010 C 
ATOM     75  C   UNL A   1      30.704  24.172  24.444  1.00  0.00     0.065 C 
ATOM     76  C   UNL A   1      30.884  26.368  25.759  1.00  0.00     0.001 C 
ATOM     77  C   UNL A   1      30.334  25.662  24.511  1.00  0.00     0.006 C 
BRANCH  70  78
ATOM     78  C   UNL A   1      32.093  21.553  25.271  1.00  0.00     0.342 C 
BRANCH  78  79
ATOM     79  C   UNL A   1      32.275  20.232  24.606  1.00  0.00     0.190 A 
ATOM     80  C   UNL A   1      32.529  19.823  23.317  1.00  0.00     0.075 A 
ATOM     81  O   UNL A   1      32.154  19.130  25.399  1.00  0.00    -0.355 OA
ATOM     82  C   UNL A   1      32.462  18.421  23.381  1.00  0.00     0.158 A 
ATOM     83  N   UNL A   1      32.251  17.987  24.625  1.00  0.00    -0.088 NA
ENDBRANCH  78  79
ENDBRANCH  70  78
ENDBRANCH  65  68
ENDBRANCH  63  64
ENDBRANCH   1  63
TORSDOF 12
ENDMDL
MODEL 3
REMARK VINA RESULT:     -12.1      0.631      6.244
REMARK SMILES O=C(NCCCNC(=O)[C@H]1C[C@H]2CCCC[C@@H]2[N@@H+]1Cc1ccno1)c1ccc(-c2c3nc(c(-c4c(F)cccc4F)c4ccc([nH]4)c(-c4c(F)cccc4F)c4nc(c(-c5c(F)cccc5F)c5ccc2[nH]5)C=C4)C=C3)cc1
REMARK SMILES IDX 5 1 4 2 3 3 1 4 2 5 25 7 26 8 78 9 27 10 77 11 28 12 29 13
REMARK SMILES IDX 30 14 71 15 31 16 76 17 70 18 72 19 32 20 75 21 69 22 68 23
REMARK SMILES IDX 33 25 59 26 42 27 58 28 43 29 46 30 57 31 73 32 44 33 45 34
REMARK SMILES IDX 56 36 74 37 47 38 34 39 35 40 40 41 36 42 37 43 39 44 41 45
REMARK SMILES IDX 38 46 60 47 61 48 66 49 62 50 63 51 65 52 67 53 64 54 48 55
REMARK SMILES IDX 49 56 54 57 50 58 51 59 53 60 55 61 52 62 6 63 7 64 8 65
REMARK SMILES IDX 9 67 10 68 11 69 18 70 12 71 17 72 13 74 16 75 14 76 15 77
REMARK SMILES IDX 19 78 20 79 21 80 24 81 22 82 23 83
REMARK H PARENT 3 6 72 24 46 35 7 66 18 73
REMARK Flexibility Score: inf
ROOT
ATOM      1  C   UNL A   1      31.403  31.858  26.535  1.00  0.00     0.042 C 
ENDROOT
BRANCH   1   2
ATOM      2  C   UNL A   1      32.610  32.451  27.239  1.00  0.00     0.118 C 
BRANCH   2   3
ATOM      3  N   UNL A   1      32.424  33.871  27.514  1.00  0.00    -0.352 N 
ATOM      4  O   UNL A   1      32.545  35.751  28.751  1.00  0.00    -0.269 OA
ATOM      5  C   UNL A   1      33.005  34.642  28.485  1.00  0.00     0.251 C 
ATOM      6  H   UNL A   1      31.794  34.339  26.920  1.00  0.00     0.163 HD
BRANCH   5   7
ATOM      7  C   UNL A   1      34.188  34.136  29.204  1.00  0.00     0.039 A 
ATOM      8  C   UNL A   1      34.028  33.403  30.384  1.00  0.00     0.014 A 
ATOM      9  C   UNL A   1      35.462  34.352  28.673  1.00  0.00     0.014 A 
ATOM     10  C   UNL A   1      35.141  32.980  31.093  1.00  0.00     0.010 A 
ATOM     11  C   UNL A   1      36.579  33.838  29.334  1.00  0.00     0.010 A 
ATOM     12  C   UNL A   1      36.422  33.147  30.547  1.00  0.00    -0.014 A 
BRANCH  12  13
ATOM     13  C   UNL A   1      37.563  32.448  31.180  1.00  0.00     0.031 A 
ATOM     14  C   UNL A   1      38.172  32.942  32.455  1.00  0.00     0.074 A 
ATOM     15  C   UNL A   1      38.046  31.354  30.558  1.00  0.00     0.049 A 
ATOM     16  N   UNL A   1      39.202  32.465  33.106  1.00  0.00    -0.248 NA
ATOM     17  C   UNL A   1      37.561  34.125  33.080  1.00  0.00     0.031 C 
ATOM     18  C   UNL A   1      37.530  30.804  29.299  1.00  0.00     0.029 A 
ATOM     19  N   UNL A   1      39.073  30.510  30.888  1.00  0.00    -0.354 N 
ATOM     20  C   UNL A   1      39.377  33.298  34.202  1.00  0.00     0.074 A 
ATOM     21  C   UNL A   1      38.354  34.320  34.126  1.00  0.00     0.031 C 
ATOM     22  C   UNL A   1      38.227  29.705  28.978  1.00  0.00     0.029 A 
ATOM     23  C   UNL A   1      39.283  29.518  29.961  1.00  0.00     0.049 A 
ATOM     24  H   UNL A   1      39.608  30.605  31.710  1.00  0.00     0.167 HD
ATOM     25  C   UNL A   1      40.312  33.207  35.177  1.00  0.00     0.037 A 
ATOM     26  C   UNL A   1      40.250  28.587  29.885  1.00  0.00     0.037 A 
ATOM     27  C   UNL A   1      41.309  32.169  35.245  1.00  0.00     0.049 A 
ATOM     28  C   UNL A   1      41.293  28.545  30.961  1.00  0.00     0.074 A 
ATOM     29  C   UNL A   1      42.249  31.945  36.235  1.00  0.00     0.029 A 
ATOM     30  N   UNL A   1      41.507  31.195  34.277  1.00  0.00    -0.354 N 
ATOM     31  N   UNL A   1      41.400  29.290  32.034  1.00  0.00    -0.248 NA
ATOM     32  C   UNL A   1      42.355  27.542  30.814  1.00  0.00     0.031 C 
ATOM     33  C   UNL A   1      43.057  30.877  35.837  1.00  0.00     0.029 A 
ATOM     34  C   UNL A   1      42.587  30.400  34.624  1.00  0.00     0.049 A 
ATOM     35  H   UNL A   1      40.961  31.086  33.465  1.00  0.00     0.167 HD
ATOM     36  C   UNL A   1      42.535  28.843  32.693  1.00  0.00     0.074 A 
ATOM     37  C   UNL A   1      43.062  27.739  31.918  1.00  0.00     0.031 C 
ATOM     38  C   UNL A   1      43.097  29.309  33.833  1.00  0.00     0.037 A 
BRANCH  25  39
ATOM     39  C   UNL A   1      40.332  34.261  36.245  1.00  0.00     0.057 A 
ATOM     40  C   UNL A   1      41.086  35.433  36.119  1.00  0.00     0.134 A 
ATOM     41  C   UNL A   1      39.500  34.143  37.367  1.00  0.00     0.134 A 
ATOM     42  F   UNL A   1      41.907  35.605  35.072  1.00  0.00    -0.206 F 
ATOM     43  C   UNL A   1      41.012  36.453  37.072  1.00  0.00     0.040 A 
ATOM     44  C   UNL A   1      39.403  35.163  38.315  1.00  0.00     0.040 A 
ATOM     45  F   UNL A   1      38.748  33.047  37.545  1.00  0.00    -0.206 F 
ATOM     46  C   UNL A   1      40.160  36.323  38.167  1.00  0.00     0.006 A 
ENDBRANCH  25  39
BRANCH  26  47
ATOM     47  C   UNL A   1      40.308  27.665  28.722  1.00  0.00     0.057 A 
ATOM     48  C   UNL A   1      39.632  26.441  28.728  1.00  0.00     0.134 A 
ATOM     49  C   UNL A   1      41.060  27.980  27.583  1.00  0.00     0.134 A 
ATOM     50  F   UNL A   1      38.906  26.076  29.796  1.00  0.00    -0.206 F 
ATOM     51  C   UNL A   1      39.725  25.550  27.657  1.00  0.00     0.040 A 
ATOM     52  C   UNL A   1      41.135  27.115  26.491  1.00  0.00     0.040 A 
ATOM     53  F   UNL A   1      41.725  29.143  27.509  1.00  0.00    -0.206 F 
ATOM     54  C   UNL A   1      40.476  25.889  26.532  1.00  0.00     0.006 A 
ENDBRANCH  26  47
BRANCH  38  55
ATOM     55  C   UNL A   1      44.341  28.621  34.308  1.00  0.00     0.057 A 
ATOM     56  C   UNL A   1      45.615  29.091  33.963  1.00  0.00     0.134 A 
ATOM     57  C   UNL A   1      44.267  27.504  35.148  1.00  0.00     0.134 A 
ATOM     58  F   UNL A   1      45.753  30.146  33.147  1.00  0.00    -0.206 F 
ATOM     59  C   UNL A   1      46.771  28.460  34.424  1.00  0.00     0.040 A 
ATOM     60  C   UNL A   1      45.415  26.883  35.638  1.00  0.00     0.040 A 
ATOM     61  F   UNL A   1      43.076  27.009  35.520  1.00  0.00    -0.206 F 
ATOM     62  C   UNL A   1      46.673  27.359  35.272  1.00  0.00     0.006 A 
ENDBRANCH  38  55
ENDBRANCH  12  13
ENDBRANCH   5   7
ENDBRANCH   2   3
ENDBRANCH   1   2
BRANCH   1  63
ATOM     63  C   UNL A   1      31.752  30.594  25.769  1.00  0.00     0.118 C 
BRANCH  63  64
ATOM     64  N   UNL A   1      31.630  29.423  26.610  1.00  0.00    -0.351 N 
ATOM     65  C   UNL A   1      31.792  28.097  26.371  1.00  0.00     0.278 C 
ATOM     66  H   UNL A   1      31.379  29.630  27.540  1.00  0.00     0.163 HD
ATOM     67  O   UNL A   1      31.465  27.344  27.297  1.00  0.00    -0.268 OA
BRANCH  65  68
ATOM     68  C   UNL A   1      32.429  27.510  25.091  1.00  0.00     0.275 C 
ATOM     69  C   UNL A   1      33.465  26.383  25.219  1.00  0.00     0.085 C 
ATOM     70  N   UNL A   1      31.336  27.003  24.206  1.00  0.00    -0.316 N 
ATOM     71  C   UNL A   1      32.922  25.268  24.330  1.00  0.00     0.054 C 
ATOM     72  C   UNL A   1      31.424  25.548  24.251  1.00  0.00     0.188 C 
ATOM     73  H   UNL A   1      30.405  27.258  24.535  1.00  0.00     0.349 HD
ATOM     74  C   UNL A   1      33.187  23.826  24.731  1.00  0.00     0.010 C 
ATOM     75  C   UNL A   1      30.720  24.662  23.229  1.00  0.00     0.065 C 
ATOM     76  C   UNL A   1      32.526  22.901  23.699  1.00  0.00     0.001 C 
ATOM     77  C   UNL A   1      31.028  23.184  23.519  1.00  0.00     0.006 C 
BRANCH  70  78
ATOM     78  C   UNL A   1      31.292  27.667  22.894  1.00  0.00     0.342 C 
BRANCH  78  79
ATOM     79  C   UNL A   1      30.099  28.515  22.617  1.00  0.00     0.190 A 
ATOM     80  C   UNL A   1      28.822  28.588  23.126  1.00  0.00     0.075 A 
ATOM     81  O   UNL A   1      30.227  29.441  21.626  1.00  0.00    -0.355 OA
ATOM     82  C   UNL A   1      28.184  29.545  22.321  1.00  0.00     0.158 A 
ATOM     83  N   UNL A   1      29.015  30.078  21.424  1.00  0.00    -0.088 NA
ENDBRANCH  78  79
ENDBRANCH  70  78
ENDBRANCH  65  68
ENDBRANCH  63  64
ENDBRANCH   1  63
TORSDOF 12
ENDMDL
