MODEL 1
REMARK VINA RESULT:     -11.6      0.000      0.000
REMARK SMILES Cc1sc2[nH]c(SCC(=O)NCCCNC(=O)c3ccc(-c4c5nc(c(-c6c(F)cccc6F)c6ccc([nH]6)c(-c6c(F)cccc6F)c6nc(c(-c7c(F)cccc7F)c7ccc4[nH]7)C=C6)C=C5)cc3)nc(=O)c2c1C
REMARK SMILES IDX 13 1 12 2 11 3 9 4 10 5 8 7 7 8 6 9 1 10 2 11 3 12 76 13
REMARK SMILES IDX 4 14 75 15 77 16 5 17 73 18 72 20 74 21 14 22 15 23 16 24
REMARK SMILES IDX 17 26 18 27 19 28 71 29 20 30 70 31 21 32 22 33 23 34 64 35
REMARK SMILES IDX 24 36 69 37 63 38 65 39 25 40 68 41 62 42 61 43 26 45 52 46
REMARK SMILES IDX 35 47 51 48 36 49 39 50 50 51 66 52 37 53 38 54 49 56 67 57
REMARK SMILES IDX 40 58 27 59 28 60 33 61 29 62 30 63 32 64 34 65 31 66 53 67
REMARK SMILES IDX 54 68 59 69 55 70 56 71 58 72 60 73 57 74 41 75 42 76 47 77
REMARK SMILES IDX 43 78 44 79 46 80 48 81 45 82
REMARK H PARENT 11 6 5 19 15 25 65 44 39 55
REMARK Flexibility Score: inf
ROOT
ATOM      1  C   UNL A   1      45.754  21.066  35.047  1.00  0.00     0.042 C 
ENDROOT
BRANCH   1   2
ATOM      2  C   UNL A   1      46.013  19.665  35.622  1.00  0.00     0.117 C 
BRANCH   2   3
ATOM      3  N   UNL A   1      47.249  19.596  36.376  1.00  0.00    -0.355 N 
ATOM      4  C   UNL A   1      47.463  19.511  37.722  1.00  0.00     0.230 C 
ATOM      5  O   UNL A   1      48.623  19.306  38.089  1.00  0.00    -0.274 OA
ATOM      6  H   UNL A   1      48.067  19.615  35.829  1.00  0.00     0.163 HD
BRANCH   4   7
ATOM      7  C   UNL A   1      46.319  19.534  38.720  1.00  0.00     0.178 C 
BRANCH   7   8
ATOM      8  S   UNL A   1      46.662  18.716  40.296  1.00  0.00    -0.078 SA
BRANCH   8   9
ATOM      9  C   UNL A   1      45.394  17.523  40.403  1.00  0.00     0.170 A 
ATOM     10  C   UNL A   1      41.282  14.225  43.606  1.00  0.00     0.057 C 
ATOM     11  C   UNL A   1      42.247  14.917  42.697  1.00  0.00     0.007 A 
ATOM     12  S   UNL A   1      43.399  15.974  43.410  1.00  0.00    -0.122 S 
ATOM     13  C   UNL A   1      42.369  14.865  41.312  1.00  0.00    -0.022 A 
ATOM     14  C   UNL A   1      44.029  16.388  41.905  1.00  0.00     0.108 A 
ATOM     15  C   UNL A   1      43.417  15.753  40.854  1.00  0.00     0.080 A 
ATOM     16  C   UNL A   1      41.535  14.034  40.386  1.00  0.00     0.046 C 
ATOM     17  N   UNL A   1      45.024  17.258  41.686  1.00  0.00    -0.326 N 
ATOM     18  C   UNL A   1      43.873  16.049  39.485  1.00  0.00     0.282 A 
ATOM     19  H   UNL A   1      45.479  17.699  42.441  1.00  0.00     0.169 HD
ATOM     20  N   UNL A   1      44.880  16.990  39.344  1.00  0.00    -0.185 NA
ATOM     21  O   UNL A   1      43.363  15.487  38.516  1.00  0.00    -0.267 OA
ENDBRANCH   8   9
ENDBRANCH   7   8
ENDBRANCH   4   7
ENDBRANCH   2   3
ENDBRANCH   1   2
BRANCH   1  22
ATOM     22  C   UNL A   1      45.966  22.226  36.038  1.00  0.00     0.118 C 
BRANCH  22  23
ATOM     23  N   UNL A   1      44.717  22.924  36.293  1.00  0.00    -0.352 N 
ATOM     24  C   UNL A   1      44.155  24.043  35.746  1.00  0.00     0.251 C 
ATOM     25  H   UNL A   1      44.168  22.508  36.996  1.00  0.00     0.163 HD
ATOM     26  O   UNL A   1      43.291  24.619  36.408  1.00  0.00    -0.269 OA
BRANCH  24  27
ATOM     27  C   UNL A   1      44.478  24.564  34.399  1.00  0.00     0.039 A 
ATOM     28  C   UNL A   1      45.072  25.833  34.342  1.00  0.00     0.014 A 
ATOM     29  C   UNL A   1      44.008  23.973  33.224  1.00  0.00     0.014 A 
ATOM     30  C   UNL A   1      45.181  26.514  33.130  1.00  0.00     0.010 A 
ATOM     31  C   UNL A   1      44.120  24.661  32.004  1.00  0.00     0.010 A 
ATOM     32  C   UNL A   1      44.696  25.941  31.949  1.00  0.00    -0.014 A 
BRANCH  32  33
ATOM     33  C   UNL A   1      44.928  26.687  30.690  1.00  0.00     0.031 A 
ATOM     34  C   UNL A   1      44.930  25.858  29.442  1.00  0.00     0.074 A 
ATOM     35  C   UNL A   1      44.642  28.005  30.577  1.00  0.00     0.049 A 
ATOM     36  N   UNL A   1      43.844  25.482  28.829  1.00  0.00    -0.248 NA
ATOM     37  C   UNL A   1      46.137  25.188  28.957  1.00  0.00     0.031 C 
ATOM     38  C   UNL A   1      43.474  28.643  31.198  1.00  0.00     0.029 A 
ATOM     39  N   UNL A   1      45.160  28.985  29.755  1.00  0.00    -0.354 N 
ATOM     40  C   UNL A   1      44.202  24.526  27.894  1.00  0.00     0.074 A 
ATOM     41  C   UNL A   1      45.637  24.373  28.014  1.00  0.00     0.031 C 
ATOM     42  C   UNL A   1      43.262  29.835  30.602  1.00  0.00     0.029 A 
ATOM     43  C   UNL A   1      44.347  30.114  29.660  1.00  0.00     0.049 A 
ATOM     44  H   UNL A   1      46.018  28.895  29.282  1.00  0.00     0.167 HD
ATOM     45  C   UNL A   1      43.305  23.932  27.062  1.00  0.00     0.037 A 
ATOM     46  C   UNL A   1      44.208  30.879  28.538  1.00  0.00     0.037 A 
ATOM     47  C   UNL A   1      41.954  24.397  27.177  1.00  0.00     0.049 A 
ATOM     48  C   UNL A   1      43.397  29.952  27.666  1.00  0.00     0.074 A 
ATOM     49  C   UNL A   1      40.770  24.011  27.763  1.00  0.00     0.029 A 
ATOM     50  N   UNL A   1      41.644  25.573  26.537  1.00  0.00    -0.354 N 
ATOM     51  N   UNL A   1      42.116  29.720  27.763  1.00  0.00    -0.248 NA
ATOM     52  C   UNL A   1      44.142  28.965  26.882  1.00  0.00     0.031 C 
ATOM     53  C   UNL A   1      39.982  25.206  27.849  1.00  0.00     0.029 A 
ATOM     54  C   UNL A   1      40.760  26.244  27.337  1.00  0.00     0.049 A 
ATOM     55  H   UNL A   1      41.991  25.876  25.667  1.00  0.00     0.167 HD
ATOM     56  C   UNL A   1      41.937  28.419  27.285  1.00  0.00     0.074 A 
ATOM     57  C   UNL A   1      43.223  28.019  26.748  1.00  0.00     0.031 C 
ATOM     58  C   UNL A   1      40.815  27.676  27.515  1.00  0.00     0.037 A 
BRANCH  45  59
ATOM     59  C   UNL A   1      43.640  23.063  25.915  1.00  0.00     0.057 A 
ATOM     60  C   UNL A   1      44.360  23.507  24.807  1.00  0.00     0.134 A 
ATOM     61  C   UNL A   1      43.492  21.679  26.088  1.00  0.00     0.134 A 
ATOM     62  F   UNL A   1      44.547  24.818  24.593  1.00  0.00    -0.206 F 
ATOM     63  C   UNL A   1      44.959  22.597  23.929  1.00  0.00     0.040 A 
ATOM     64  C   UNL A   1      44.099  20.763  25.234  1.00  0.00     0.040 A 
ATOM     65  F   UNL A   1      42.816  21.202  27.148  1.00  0.00    -0.206 F 
ATOM     66  C   UNL A   1      44.851  21.223  24.157  1.00  0.00     0.006 A 
ENDBRANCH  45  59
BRANCH  46  67
ATOM     67  C   UNL A   1      45.425  31.592  28.031  1.00  0.00     0.057 A 
ATOM     68  C   UNL A   1      46.657  30.991  27.735  1.00  0.00     0.134 A 
ATOM     69  C   UNL A   1      45.354  32.976  27.790  1.00  0.00     0.134 A 
ATOM     70  F   UNL A   1      46.812  29.660  27.774  1.00  0.00    -0.206 F 
ATOM     71  C   UNL A   1      47.792  31.740  27.398  1.00  0.00     0.040 A 
ATOM     72  C   UNL A   1      46.472  33.735  27.426  1.00  0.00     0.040 A 
ATOM     73  F   UNL A   1      44.187  33.628  27.904  1.00  0.00    -0.206 F 
ATOM     74  C   UNL A   1      47.707  33.120  27.266  1.00  0.00     0.006 A 
ENDBRANCH  46  67
BRANCH  58  75
ATOM     75  C   UNL A   1      39.706  28.388  28.211  1.00  0.00     0.057 A 
ATOM     76  C   UNL A   1      39.475  28.232  29.585  1.00  0.00     0.134 A 
ATOM     77  C   UNL A   1      38.848  29.238  27.505  1.00  0.00     0.134 A 
ATOM     78  F   UNL A   1      40.266  27.451  30.337  1.00  0.00    -0.206 F 
ATOM     79  C   UNL A   1      38.411  28.871  30.224  1.00  0.00     0.040 A 
ATOM     80  C   UNL A   1      37.799  29.906  28.139  1.00  0.00     0.040 A 
ATOM     81  F   UNL A   1      39.003  29.419  26.184  1.00  0.00    -0.206 F 
ATOM     82  C   UNL A   1      37.572  29.715  29.501  1.00  0.00     0.006 A 
ENDBRANCH  58  75
ENDBRANCH  32  33
ENDBRANCH  24  27
ENDBRANCH  22  23
ENDBRANCH   1  22
TORSDOF 12
ENDMDL
MODEL 2
REMARK VINA RESULT:     -11.6      7.632     12.430
REMARK SMILES Cc1sc2[nH]c(SCC(=O)NCCCNC(=O)c3ccc(-c4c5nc(c(-c6c(F)cccc6F)c6ccc([nH]6)c(-c6c(F)cccc6F)c6nc(c(-c7c(F)cccc7F)c7ccc4[nH]7)C=C6)C=C5)cc3)nc(=O)c2c1C
REMARK SMILES IDX 13 1 12 2 11 3 9 4 10 5 8 7 7 8 6 9 1 10 2 11 3 12 76 13
REMARK SMILES IDX 4 14 75 15 77 16 5 17 73 18 72 20 74 21 14 22 15 23 16 24
REMARK SMILES IDX 17 26 18 27 19 28 71 29 20 30 70 31 21 32 22 33 23 34 64 35
REMARK SMILES IDX 24 36 69 37 63 38 65 39 25 40 68 41 62 42 61 43 26 45 52 46
REMARK SMILES IDX 35 47 51 48 36 49 39 50 50 51 66 52 37 53 38 54 49 56 67 57
REMARK SMILES IDX 40 58 27 59 28 60 33 61 29 62 30 63 32 64 34 65 31 66 53 67
REMARK SMILES IDX 54 68 59 69 55 70 56 71 58 72 60 73 57 74 41 75 42 76 47 77
REMARK SMILES IDX 43 78 44 79 46 80 48 81 45 82
REMARK H PARENT 11 6 5 19 15 25 65 44 39 55
REMARK Flexibility Score: inf
ROOT
ATOM      1  C   UNL A   1      37.563  20.599  24.827  1.00  0.00     0.042 C 
ENDROOT
BRANCH   1   2
ATOM      2  C   UNL A   1      36.074  20.591  25.202  1.00  0.00     0.117 C 
BRANCH   2   3
ATOM      3  N   UNL A   1      35.677  21.787  25.917  1.00  0.00    -0.355 N 
ATOM      4  C   UNL A   1      34.445  22.354  26.082  1.00  0.00     0.230 C 
ATOM      5  O   UNL A   1      34.368  23.295  26.877  1.00  0.00    -0.274 OA
ATOM      6  H   UNL A   1      36.414  22.271  26.355  1.00  0.00     0.163 HD
BRANCH   4   7
ATOM      7  C   UNL A   1      33.203  21.780  25.425  1.00  0.00     0.178 C 
BRANCH   7   8
ATOM      8  S   UNL A   1      33.069  22.083  23.646  1.00  0.00    -0.078 SA
BRANCH   8   9
ATOM      9  C   UNL A   1      33.061  23.824  23.546  1.00  0.00     0.170 A 
ATOM     10  C   UNL A   1      32.018  29.408  25.949  1.00  0.00     0.057 C 
ATOM     11  C   UNL A   1      32.287  28.134  25.213  1.00  0.00     0.007 A 
ATOM     12  S   UNL A   1      31.890  26.659  25.999  1.00  0.00    -0.122 S 
ATOM     13  C   UNL A   1      32.843  27.926  23.955  1.00  0.00    -0.022 A 
ATOM     14  C   UNL A   1      32.479  25.752  24.708  1.00  0.00     0.108 A 
ATOM     15  C   UNL A   1      32.966  26.511  23.674  1.00  0.00     0.080 A 
ATOM     16  C   UNL A   1      33.286  28.993  23.001  1.00  0.00     0.046 C 
ATOM     17  N   UNL A   1      32.510  24.415  24.642  1.00  0.00    -0.326 N 
ATOM     18  C   UNL A   1      33.525  25.827  22.495  1.00  0.00     0.282 A 
ATOM     19  H   UNL A   1      32.141  23.868  25.374  1.00  0.00     0.169 HD
ATOM     20  N   UNL A   1      33.554  24.442  22.524  1.00  0.00    -0.185 NA
ATOM     21  O   UNL A   1      33.955  26.471  21.538  1.00  0.00    -0.267 OA
ENDBRANCH   8   9
ENDBRANCH   7   8
ENDBRANCH   4   7
ENDBRANCH   2   3
ENDBRANCH   1   2
BRANCH   1  22
ATOM     22  C   UNL A   1      38.373  21.777  25.400  1.00  0.00     0.118 C 
BRANCH  22  23
ATOM     23  N   UNL A   1      39.162  21.353  26.545  1.00  0.00    -0.352 N 
ATOM     24  C   UNL A   1      40.155  21.961  27.259  1.00  0.00     0.251 C 
ATOM     25  H   UNL A   1      38.936  20.452  26.869  1.00  0.00     0.163 HD
ATOM     26  O   UNL A   1      40.900  21.235  27.918  1.00  0.00    -0.269 OA
BRANCH  24  27
ATOM     27  C   UNL A   1      40.352  23.426  27.333  1.00  0.00     0.039 A 
ATOM     28  C   UNL A   1      41.583  23.919  26.877  1.00  0.00     0.014 A 
ATOM     29  C   UNL A   1      39.491  24.273  28.035  1.00  0.00     0.014 A 
ATOM     30  C   UNL A   1      41.962  25.236  27.135  1.00  0.00     0.010 A 
ATOM     31  C   UNL A   1      39.875  25.600  28.293  1.00  0.00     0.010 A 
ATOM     32  C   UNL A   1      41.118  26.088  27.856  1.00  0.00    -0.014 A 
BRANCH  32  33
ATOM     33  C   UNL A   1      41.551  27.496  28.013  1.00  0.00     0.031 A 
ATOM     34  C   UNL A   1      40.473  28.523  27.848  1.00  0.00     0.074 A 
ATOM     35  C   UNL A   1      42.643  27.832  28.739  1.00  0.00     0.049 A 
ATOM     36  N   UNL A   1      39.638  28.845  28.795  1.00  0.00    -0.248 NA
ATOM     37  C   UNL A   1      40.106  29.060  26.537  1.00  0.00     0.031 C 
ATOM     38  C   UNL A   1      43.028  27.165  29.990  1.00  0.00     0.029 A 
ATOM     39  N   UNL A   1      43.490  28.918  28.666  1.00  0.00    -0.354 N 
ATOM     40  C   UNL A   1      38.632  29.607  28.223  1.00  0.00     0.074 A 
ATOM     41  C   UNL A   1      38.963  29.709  26.818  1.00  0.00     0.031 C 
ATOM     42  C   UNL A   1      43.903  27.951  30.650  1.00  0.00     0.029 A 
ATOM     43  C   UNL A   1      44.251  29.105  29.820  1.00  0.00     0.049 A 
ATOM     44  H   UNL A   1      43.550  29.505  27.878  1.00  0.00     0.167 HD
ATOM     45  C   UNL A   1      37.600  30.126  28.940  1.00  0.00     0.037 A 
ATOM     46  C   UNL A   1      44.623  30.321  30.317  1.00  0.00     0.037 A 
ATOM     47  C   UNL A   1      37.641  29.878  30.352  1.00  0.00     0.049 A 
ATOM     48  C   UNL A   1      43.301  30.824  30.843  1.00  0.00     0.074 A 
ATOM     49  C   UNL A   1      37.073  29.026  31.272  1.00  0.00     0.029 A 
ATOM     50  N   UNL A   1      38.460  30.686  31.103  1.00  0.00    -0.354 N 
ATOM     51  N   UNL A   1      42.720  30.459  31.954  1.00  0.00    -0.248 NA
ATOM     52  C   UNL A   1      42.424  31.501  29.886  1.00  0.00     0.031 C 
ATOM     53  C   UNL A   1      37.948  29.057  32.407  1.00  0.00     0.029 A 
ATOM     54  C   UNL A   1      39.008  29.903  32.081  1.00  0.00     0.049 A 
ATOM     55  H   UNL A   1      38.622  31.647  30.963  1.00  0.00     0.167 HD
ATOM     56  C   UNL A   1      41.351  30.614  31.724  1.00  0.00     0.074 A 
ATOM     57  C   UNL A   1      41.241  31.271  30.437  1.00  0.00     0.031 C 
ATOM     58  C   UNL A   1      40.383  30.042  32.500  1.00  0.00     0.037 A 
BRANCH  45  59
ATOM     59  C   UNL A   1      36.613  31.105  28.440  1.00  0.00     0.057 A 
ATOM     60  C   UNL A   1      35.295  30.770  28.133  1.00  0.00     0.134 A 
ATOM     61  C   UNL A   1      36.930  32.466  28.568  1.00  0.00     0.134 A 
ATOM     62  F   UNL A   1      34.927  29.486  28.010  1.00  0.00    -0.206 F 
ATOM     63  C   UNL A   1      34.313  31.759  28.012  1.00  0.00     0.040 A 
ATOM     64  C   UNL A   1      35.959  33.458  28.469  1.00  0.00     0.040 A 
ATOM     65  F   UNL A   1      38.185  32.839  28.874  1.00  0.00    -0.206 F 
ATOM     66  C   UNL A   1      34.640  33.104  28.206  1.00  0.00     0.006 A 
ENDBRANCH  45  59
BRANCH  46  67
ATOM     67  C   UNL A   1      45.520  31.171  29.469  1.00  0.00     0.057 A 
ATOM     68  C   UNL A   1      45.580  32.572  29.495  1.00  0.00     0.134 A 
ATOM     69  C   UNL A   1      46.413  30.544  28.580  1.00  0.00     0.134 A 
ATOM     70  F   UNL A   1      44.894  33.282  30.403  1.00  0.00    -0.206 F 
ATOM     71  C   UNL A   1      46.341  33.305  28.576  1.00  0.00     0.040 A 
ATOM     72  C   UNL A   1      47.200  31.263  27.674  1.00  0.00     0.040 A 
ATOM     73  F   UNL A   1      46.541  29.209  28.572  1.00  0.00    -0.206 F 
ATOM     74  C   UNL A   1      47.137  32.650  27.645  1.00  0.00     0.006 A 
ENDBRANCH  46  67
BRANCH  58  75
ATOM     75  C   UNL A   1      40.873  29.328  33.713  1.00  0.00     0.057 A 
ATOM     76  C   UNL A   1      41.013  29.977  34.947  1.00  0.00     0.134 A 
ATOM     77  C   UNL A   1      41.220  27.974  33.653  1.00  0.00     0.134 A 
ATOM     78  F   UNL A   1      40.682  31.270  35.091  1.00  0.00    -0.206 F 
ATOM     79  C   UNL A   1      41.510  29.313  36.070  1.00  0.00     0.040 A 
ATOM     80  C   UNL A   1      41.690  27.292  34.777  1.00  0.00     0.040 A 
ATOM     81  F   UNL A   1      41.127  27.296  32.499  1.00  0.00    -0.206 F 
ATOM     82  C   UNL A   1      41.846  27.965  35.988  1.00  0.00     0.006 A 
ENDBRANCH  58  75
ENDBRANCH  32  33
ENDBRANCH  24  27
ENDBRANCH  22  23
ENDBRANCH   1  22
TORSDOF 12
ENDMDL
MODEL 3
REMARK VINA RESULT:     -11.4      9.814     18.913
REMARK SMILES Cc1sc2[nH]c(SCC(=O)NCCCNC(=O)c3ccc(-c4c5nc(c(-c6c(F)cccc6F)c6ccc([nH]6)c(-c6c(F)cccc6F)c6nc(c(-c7c(F)cccc7F)c7ccc4[nH]7)C=C6)C=C5)cc3)nc(=O)c2c1C
REMARK SMILES IDX 13 1 12 2 11 3 9 4 10 5 8 7 7 8 6 9 1 10 2 11 3 12 76 13
REMARK SMILES IDX 4 14 75 15 77 16 5 17 73 18 72 20 74 21 14 22 15 23 16 24
REMARK SMILES IDX 17 26 18 27 19 28 71 29 20 30 70 31 21 32 22 33 23 34 64 35
REMARK SMILES IDX 24 36 69 37 63 38 65 39 25 40 68 41 62 42 61 43 26 45 52 46
REMARK SMILES IDX 35 47 51 48 36 49 39 50 50 51 66 52 37 53 38 54 49 56 67 57
REMARK SMILES IDX 40 58 27 59 28 60 33 61 29 62 30 63 32 64 34 65 31 66 53 67
REMARK SMILES IDX 54 68 59 69 55 70 56 71 58 72 60 73 57 74 41 75 42 76 47 77
REMARK SMILES IDX 43 78 44 79 46 80 48 81 45 82
REMARK H PARENT 11 6 5 19 15 25 65 44 39 55
REMARK Flexibility Score: inf
ROOT
ATOM      1  C   UNL A   1      41.500  40.030  26.324  1.00  0.00     0.042 C 
ENDROOT
BRANCH   1   2
ATOM      2  C   UNL A   1      42.260  41.162  25.616  1.00  0.00     0.117 C 
BRANCH   2   3
ATOM      3  N   UNL A   1      41.535  41.687  24.476  1.00  0.00    -0.355 N 
ATOM      4  C   UNL A   1      41.871  42.668  23.587  1.00  0.00     0.230 C 
ATOM      5  O   UNL A   1      41.132  42.809  22.609  1.00  0.00    -0.274 OA
ATOM      6  H   UNL A   1      40.659  41.269  24.316  1.00  0.00     0.163 HD
BRANCH   4   7
ATOM      7  C   UNL A   1      43.157  43.464  23.718  1.00  0.00     0.178 C 
BRANCH   7   8
ATOM      8  S   UNL A   1      44.538  42.857  22.719  1.00  0.00    -0.078 SA
BRANCH   8   9
ATOM      9  C   UNL A   1      44.434  43.830  21.275  1.00  0.00     0.170 A 
ATOM     10  C   UNL A   1      41.530  45.683  16.159  1.00  0.00     0.057 C 
ATOM     11  C   UNL A   1      42.373  45.316  17.338  1.00  0.00     0.007 A 
ATOM     12  S   UNL A   1      41.817  44.049  18.356  1.00  0.00    -0.122 S 
ATOM     13  C   UNL A   1      43.576  45.857  17.783  1.00  0.00    -0.022 A 
ATOM     14  C   UNL A   1      43.128  44.235  19.394  1.00  0.00     0.108 A 
ATOM     15  C   UNL A   1      44.004  45.219  19.010  1.00  0.00     0.080 A 
ATOM     16  C   UNL A   1      44.342  46.962  17.122  1.00  0.00     0.046 C 
ATOM     17  N   UNL A   1      43.347  43.531  20.512  1.00  0.00    -0.326 N 
ATOM     18  C   UNL A   1      45.183  45.486  19.852  1.00  0.00     0.282 A 
ATOM     19  H   UNL A   1      42.731  42.810  20.779  1.00  0.00     0.169 HD
ATOM     20  N   UNL A   1      45.313  44.739  21.012  1.00  0.00    -0.185 NA
ATOM     21  O   UNL A   1      46.003  46.348  19.533  1.00  0.00    -0.267 OA
ENDBRANCH   8   9
ENDBRANCH   7   8
ENDBRANCH   4   7
ENDBRANCH   2   3
ENDBRANCH   1   2
BRANCH   1  22
ATOM     22  C   UNL A   1      42.324  39.240  27.359  1.00  0.00     0.118 C 
BRANCH  22  23
ATOM     23  N   UNL A   1      43.165  38.252  26.704  1.00  0.00    -0.352 N 
ATOM     24  C   UNL A   1      43.666  37.049  27.111  1.00  0.00     0.251 C 
ATOM     25  H   UNL A   1      43.424  38.499  25.787  1.00  0.00     0.163 HD
ATOM     26  O   UNL A   1      44.649  36.615  26.509  1.00  0.00    -0.269 OA
BRANCH  24  27
ATOM     27  C   UNL A   1      43.072  36.218  28.183  1.00  0.00     0.039 A 
ATOM     28  C   UNL A   1      43.950  35.740  29.167  1.00  0.00     0.014 A 
ATOM     29  C   UNL A   1      41.772  35.712  28.118  1.00  0.00     0.014 A 
ATOM     30  C   UNL A   1      43.543  34.754  30.065  1.00  0.00     0.010 A 
ATOM     31  C   UNL A   1      41.364  34.719  29.026  1.00  0.00     0.010 A 
ATOM     32  C   UNL A   1      42.249  34.224  29.997  1.00  0.00    -0.014 A 
BRANCH  32  33
ATOM     33  C   UNL A   1      41.863  33.246  31.041  1.00  0.00     0.031 A 
ATOM     34  C   UNL A   1      40.437  33.318  31.494  1.00  0.00     0.074 A 
ATOM     35  C   UNL A   1      42.523  32.075  31.202  1.00  0.00     0.049 A 
ATOM     36  N   UNL A   1      39.449  32.770  30.845  1.00  0.00    -0.248 NA
ATOM     37  C   UNL A   1      40.006  34.223  32.559  1.00  0.00     0.031 C 
ATOM     38  C   UNL A   1      43.044  31.272  30.089  1.00  0.00     0.029 A 
ATOM     39  N   UNL A   1      42.682  31.261  32.304  1.00  0.00    -0.354 N 
ATOM     40  C   UNL A   1      38.272  33.255  31.390  1.00  0.00     0.074 A 
ATOM     41  C   UNL A   1      38.669  34.159  32.448  1.00  0.00     0.031 C 
ATOM     42  C   UNL A   1      43.294  30.023  30.534  1.00  0.00     0.029 A 
ATOM     43  C   UNL A   1      43.089  29.966  31.981  1.00  0.00     0.049 A 
ATOM     44  H   UNL A   1      42.523  31.563  33.227  1.00  0.00     0.167 HD
ATOM     45  C   UNL A   1      37.042  32.871  30.954  1.00  0.00     0.037 A 
ATOM     46  C   UNL A   1      42.710  28.842  32.656  1.00  0.00     0.037 A 
ATOM     47  C   UNL A   1      37.035  31.882  29.917  1.00  0.00     0.049 A 
ATOM     48  C   UNL A   1      41.267  28.731  32.228  1.00  0.00     0.074 A 
ATOM     49  C   UNL A   1      36.887  31.812  28.550  1.00  0.00     0.029 A 
ATOM     50  N   UNL A   1      37.216  30.575  30.302  1.00  0.00    -0.354 N 
ATOM     51  N   UNL A   1      40.831  28.284  31.082  1.00  0.00    -0.248 NA
ATOM     52  C   UNL A   1      40.290  29.504  32.997  1.00  0.00     0.031 C 
ATOM     53  C   UNL A   1      37.473  30.561  28.169  1.00  0.00     0.029 A 
ATOM     54  C   UNL A   1      37.968  29.971  29.331  1.00  0.00     0.049 A 
ATOM     55  H   UNL A   1      36.869  30.152  31.121  1.00  0.00     0.167 HD
ATOM     56  C   UNL A   1      39.621  28.947  30.861  1.00  0.00     0.074 A 
ATOM     57  C   UNL A   1      39.342  29.671  32.086  1.00  0.00     0.031 C 
ATOM     58  C   UNL A   1      39.007  29.018  29.643  1.00  0.00     0.037 A 
BRANCH  45  59
ATOM     59  C   UNL A   1      35.759  33.188  31.614  1.00  0.00     0.057 A 
ATOM     60  C   UNL A   1      35.474  32.841  32.934  1.00  0.00     0.134 A 
ATOM     61  C   UNL A   1      34.926  34.129  30.990  1.00  0.00     0.134 A 
ATOM     62  F   UNL A   1      36.240  31.957  33.590  1.00  0.00    -0.206 F 
ATOM     63  C   UNL A   1      34.424  33.455  33.626  1.00  0.00     0.040 A 
ATOM     64  C   UNL A   1      33.892  34.761  31.673  1.00  0.00     0.040 A 
ATOM     65  F   UNL A   1      35.167  34.504  29.722  1.00  0.00    -0.206 F 
ATOM     66  C   UNL A   1      33.648  34.436  33.003  1.00  0.00     0.006 A 
ENDBRANCH  45  59
BRANCH  46  67
ATOM     67  C   UNL A   1      43.128  28.721  34.091  1.00  0.00     0.057 A 
ATOM     68  C   UNL A   1      42.441  28.008  35.083  1.00  0.00     0.134 A 
ATOM     69  C   UNL A   1      44.322  29.338  34.507  1.00  0.00     0.134 A 
ATOM     70  F   UNL A   1      41.375  27.250  34.786  1.00  0.00    -0.206 F 
ATOM     71  C   UNL A   1      42.815  28.054  36.432  1.00  0.00     0.040 A 
ATOM     72  C   UNL A   1      44.725  29.371  35.846  1.00  0.00     0.040 A 
ATOM     73  F   UNL A   1      45.131  29.928  33.614  1.00  0.00    -0.206 F 
ATOM     74  C   UNL A   1      43.948  28.758  36.821  1.00  0.00     0.006 A 
ENDBRANCH  46  67
BRANCH  58  75
ATOM     75  C   UNL A   1      39.647  28.223  28.556  1.00  0.00     0.057 A 
ATOM     76  C   UNL A   1      39.393  26.855  28.394  1.00  0.00     0.134 A 
ATOM     77  C   UNL A   1      40.535  28.826  27.660  1.00  0.00     0.134 A 
ATOM     78  F   UNL A   1      38.537  26.208  29.201  1.00  0.00    -0.206 F 
ATOM     79  C   UNL A   1      40.025  26.107  27.399  1.00  0.00     0.040 A 
ATOM     80  C   UNL A   1      41.150  28.095  26.641  1.00  0.00     0.040 A 
ATOM     81  F   UNL A   1      40.835  30.130  27.768  1.00  0.00    -0.206 F 
ATOM     82  C   UNL A   1      40.903  26.729  26.516  1.00  0.00     0.006 A 
ENDBRANCH  58  75
ENDBRANCH  32  33
ENDBRANCH  24  27
ENDBRANCH  22  23
ENDBRANCH   1  22
TORSDOF 12
ENDMDL
