MODEL 1
REMARK VINA RESULT:     -11.7      0.000      0.000
REMARK SMILES CCc1cc(OC(F)(F)F)cc2c1O[C@@H](C(F)(F)F)C(C(=O)NCCCNC(=O)c1ccc(-c3c4nc(c(-c5c(F)cccc5F)c5ccc([nH]5)c(-c5c(F)cccc5F)c5nc(c(-c6c(F)cccc6F)c6ccc3[nH]6)C=C5)C=C4)cc1)=C2
REMARK SMILES IDX 25 1 24 2 23 3 21 4 22 5 20 7 3 8 4 9 13 10 5 11 12 12 14 13
REMARK SMILES IDX 11 14 84 15 15 16 2 17 1 18 6 19 7 20 8 21 9 22 10 23 16 24
REMARK SMILES IDX 17 25 18 26 19 27 26 28 27 29 28 30 29 32 30 33 31 34 83 35
REMARK SMILES IDX 32 36 82 37 33 38 34 39 35 40 76 41 36 42 81 43 75 44 77 45
REMARK SMILES IDX 37 46 80 47 74 48 73 49 38 51 64 52 47 53 63 54 48 55 51 56
REMARK SMILES IDX 62 57 78 58 49 59 50 60 61 62 79 63 52 64 39 65 40 66 45 67
REMARK SMILES IDX 41 68 42 69 44 70 46 71 43 72 65 73 66 74 71 75 67 76 68 77
REMARK SMILES IDX 70 78 72 79 69 80 53 81 54 82 59 83 55 84 56 85 58 86 60 87
REMARK SMILES IDX 57 88
REMARK H PARENT 23 6 27 31 77 50 51 61
REMARK Flexibility Score: inf
ROOT
ATOM      1  C   UNL A   1      31.789  30.994  25.763  1.00  0.00     0.042 C 
ENDROOT
BRANCH   1   2
ATOM      2  C   UNL A   1      32.111  29.532  25.439  1.00  0.00     0.118 C 
BRANCH   2   3
ATOM      3  N   UNL A   1      31.720  28.668  26.542  1.00  0.00    -0.352 N 
ATOM      4  C   UNL A   1      31.717  27.321  26.714  1.00  0.00     0.251 C 
ATOM      5  O   UNL A   1      31.172  26.874  27.721  1.00  0.00    -0.270 OA
ATOM      6  H   UNL A   1      31.388  29.162  27.327  1.00  0.00     0.163 HD
BRANCH   4   7
ATOM      7  C   UNL A   1      32.399  26.380  25.787  1.00  0.00     0.067 C 
ATOM      8  C   UNL A   1      34.020  23.557  23.108  1.00  0.00    -0.002 A 
ATOM      9  C   UNL A   1      35.309  23.054  23.367  1.00  0.00     0.054 A 
ATOM     10  C   UNL A   1      33.482  24.516  23.988  1.00  0.00     0.131 A 
ATOM     11  C   UNL A   1      36.059  23.515  24.452  1.00  0.00     0.130 A 
ATOM     12  C   UNL A   1      34.230  24.990  25.064  1.00  0.00     0.021 A 
ATOM     13  O   UNL A   1      32.188  24.898  23.782  1.00  0.00    -0.475 OA
ATOM     14  C   UNL A   1      35.516  24.491  25.288  1.00  0.00     0.058 A 
ATOM     15  C   UNL A   1      33.647  25.939  25.995  1.00  0.00     0.025 C 
ATOM     16  C   UNL A   1      31.670  26.064  24.484  1.00  0.00     0.314 C 
BRANCH   8  17
ATOM     17  C   UNL A   1      33.180  23.066  21.944  1.00  0.00     0.036 C 
ATOM     18  C   UNL A   1      32.262  21.879  22.219  1.00  0.00     0.009 C 
ENDBRANCH   8  17
BRANCH  11  19
ATOM     19  O   UNL A   1      37.306  23.098  24.819  1.00  0.00    -0.406 OA
BRANCH  19  20
ATOM     20  C   UNL A   1      37.439  21.805  25.383  1.00  0.00     0.573 C 
ATOM     21  F   UNL A   1      38.478  21.752  26.242  1.00  0.00    -0.132 F 
ATOM     22  F   UNL A   1      36.307  21.435  26.018  1.00  0.00    -0.132 F 
ATOM     23  F   UNL A   1      37.670  20.922  24.387  1.00  0.00    -0.132 F 
ENDBRANCH  19  20
ENDBRANCH  11  19
BRANCH  16  24
ATOM     24  C   UNL A   1      30.135  25.887  24.579  1.00  0.00     0.429 C 
ATOM     25  F   UNL A   1      29.468  27.061  24.557  1.00  0.00    -0.167 F 
ATOM     26  F   UNL A   1      29.662  25.182  23.515  1.00  0.00    -0.167 F 
ATOM     27  F   UNL A   1      29.764  25.209  25.690  1.00  0.00    -0.167 F 
ENDBRANCH  16  24
ENDBRANCH   4   7
ENDBRANCH   2   3
ENDBRANCH   1   2
BRANCH   1  28
ATOM     28  C   UNL A   1      32.461  31.488  27.043  1.00  0.00     0.118 C 
BRANCH  28  29
ATOM     29  N   UNL A   1      32.244  32.913  27.252  1.00  0.00    -0.352 N 
ATOM     30  C   UNL A   1      32.942  33.804  28.029  1.00  0.00     0.251 C 
ATOM     31  H   UNL A   1      31.482  33.297  26.761  1.00  0.00     0.163 HD
ATOM     32  O   UNL A   1      32.464  34.908  28.271  1.00  0.00    -0.269 OA
BRANCH  30  33
ATOM     33  C   UNL A   1      34.261  33.437  28.587  1.00  0.00     0.039 A 
ATOM     34  C   UNL A   1      34.315  32.756  29.807  1.00  0.00     0.014 A 
ATOM     35  C   UNL A   1      35.441  33.789  27.926  1.00  0.00     0.014 A 
ATOM     36  C   UNL A   1      35.551  32.361  30.326  1.00  0.00     0.010 A 
ATOM     37  C   UNL A   1      36.666  33.342  28.413  1.00  0.00     0.010 A 
ATOM     38  C   UNL A   1      36.731  32.616  29.612  1.00  0.00    -0.014 A 
BRANCH  38  39
ATOM     39  C   UNL A   1      38.045  32.104  30.076  1.00  0.00     0.031 A 
ATOM     40  C   UNL A   1      38.581  30.803  29.554  1.00  0.00     0.074 A 
ATOM     41  C   UNL A   1      38.710  32.774  31.037  1.00  0.00     0.049 A 
ATOM     42  N   UNL A   1      39.651  30.143  29.919  1.00  0.00    -0.248 NA
ATOM     43  C   UNL A   1      37.798  30.144  28.498  1.00  0.00     0.031 C 
ATOM     44  C   UNL A   1      38.279  34.035  31.641  1.00  0.00     0.029 A 
ATOM     45  N   UNL A   1      39.884  32.478  31.683  1.00  0.00    -0.354 N 
ATOM     46  C   UNL A   1      39.665  28.989  29.146  1.00  0.00     0.074 A 
ATOM     47  C   UNL A   1      38.470  29.015  28.330  1.00  0.00     0.031 C 
ATOM     48  C   UNL A   1      39.187  34.417  32.554  1.00  0.00     0.029 A 
ATOM     49  C   UNL A   1      40.236  33.406  32.633  1.00  0.00     0.049 A 
ATOM     50  H   UNL A   1      40.422  31.678  31.485  1.00  0.00     0.167 HD
ATOM     51  C   UNL A   1      40.598  28.008  29.107  1.00  0.00     0.037 A 
ATOM     52  C   UNL A   1      41.278  33.430  33.484  1.00  0.00     0.037 A 
ATOM     53  C   UNL A   1      41.788  27.990  29.920  1.00  0.00     0.049 A 
ATOM     54  C   UNL A   1      42.268  32.300  33.466  1.00  0.00     0.074 A 
ATOM     55  C   UNL A   1      42.819  27.067  29.921  1.00  0.00     0.029 A 
ATOM     56  N   UNL A   1      42.096  28.935  30.888  1.00  0.00    -0.354 N 
ATOM     57  N   UNL A   1      42.300  31.243  32.691  1.00  0.00    -0.248 NA
ATOM     58  C   UNL A   1      43.361  32.363  34.446  1.00  0.00     0.031 C 
ATOM     59  C   UNL A   1      43.727  27.427  30.923  1.00  0.00     0.029 A 
ATOM     60  C   UNL A   1      43.286  28.601  31.514  1.00  0.00     0.049 A 
ATOM     61  H   UNL A   1      41.551  29.728  31.096  1.00  0.00     0.167 HD
ATOM     62  C   UNL A   1      43.428  30.528  33.070  1.00  0.00     0.074 A 
ATOM     63  C   UNL A   1      44.059  31.277  34.138  1.00  0.00     0.031 C 
ATOM     64  C   UNL A   1      43.900  29.357  32.576  1.00  0.00     0.037 A 
BRANCH  51  65
ATOM     65  C   UNL A   1      40.358  26.870  28.156  1.00  0.00     0.057 A 
ATOM     66  C   UNL A   1      40.953  26.829  26.887  1.00  0.00     0.134 A 
ATOM     67  C   UNL A   1      39.529  25.799  28.513  1.00  0.00     0.134 A 
ATOM     68  F   UNL A   1      41.750  27.827  26.478  1.00  0.00    -0.206 F 
ATOM     69  C   UNL A   1      40.701  25.785  25.994  1.00  0.00     0.040 A 
ATOM     70  C   UNL A   1      39.292  24.735  27.641  1.00  0.00     0.040 A 
ATOM     71  F   UNL A   1      38.934  25.769  29.715  1.00  0.00    -0.206 F 
ATOM     72  C   UNL A   1      39.872  24.732  26.373  1.00  0.00     0.006 A 
ENDBRANCH  51  65
BRANCH  52  73
ATOM     73  C   UNL A   1      41.453  34.579  34.406  1.00  0.00     0.057 A 
ATOM     74  C   UNL A   1      42.126  35.734  33.989  1.00  0.00     0.134 A 
ATOM     75  C   UNL A   1      40.948  34.562  35.711  1.00  0.00     0.134 A 
ATOM     76  F   UNL A   1      42.648  35.803  32.756  1.00  0.00    -0.206 F 
ATOM     77  C   UNL A   1      42.298  36.827  34.841  1.00  0.00     0.040 A 
ATOM     78  C   UNL A   1      41.093  35.656  36.566  1.00  0.00     0.040 A 
ATOM     79  F   UNL A   1      40.287  33.487  36.168  1.00  0.00    -0.206 F 
ATOM     80  C   UNL A   1      41.775  36.791  36.131  1.00  0.00     0.006 A 
ENDBRANCH  52  73
BRANCH  64  81
ATOM     81  C   UNL A   1      45.174  28.827  33.167  1.00  0.00     0.057 A 
ATOM     82  C   UNL A   1      45.172  27.956  34.264  1.00  0.00     0.134 A 
ATOM     83  C   UNL A   1      46.413  29.158  32.606  1.00  0.00     0.134 A 
ATOM     84  F   UNL A   1      44.019  27.613  34.859  1.00  0.00    -0.206 F 
ATOM     85  C   UNL A   1      46.359  27.445  34.790  1.00  0.00     0.040 A 
ATOM     86  C   UNL A   1      47.605  28.633  33.107  1.00  0.00     0.040 A 
ATOM     87  F   UNL A   1      46.484  29.983  31.550  1.00  0.00    -0.206 F 
ATOM     88  C   UNL A   1      47.580  27.777  34.205  1.00  0.00     0.006 A 
ENDBRANCH  64  81
ENDBRANCH  38  39
ENDBRANCH  30  33
ENDBRANCH  28  29
ENDBRANCH   1  28
TORSDOF 14
ENDMDL
MODEL 2
REMARK VINA RESULT:     -11.6      2.806      7.150
REMARK SMILES CCc1cc(OC(F)(F)F)cc2c1O[C@@H](C(F)(F)F)C(C(=O)NCCCNC(=O)c1ccc(-c3c4nc(c(-c5c(F)cccc5F)c5ccc([nH]5)c(-c5c(F)cccc5F)c5nc(c(-c6c(F)cccc6F)c6ccc3[nH]6)C=C5)C=C4)cc1)=C2
REMARK SMILES IDX 25 1 24 2 23 3 21 4 22 5 20 7 3 8 4 9 13 10 5 11 12 12 14 13
REMARK SMILES IDX 11 14 84 15 15 16 2 17 1 18 6 19 7 20 8 21 9 22 10 23 16 24
REMARK SMILES IDX 17 25 18 26 19 27 26 28 27 29 28 30 29 32 30 33 31 34 83 35
REMARK SMILES IDX 32 36 82 37 33 38 34 39 35 40 76 41 36 42 81 43 75 44 77 45
REMARK SMILES IDX 37 46 80 47 74 48 73 49 38 51 64 52 47 53 63 54 48 55 51 56
REMARK SMILES IDX 62 57 78 58 49 59 50 60 61 62 79 63 52 64 39 65 40 66 45 67
REMARK SMILES IDX 41 68 42 69 44 70 46 71 43 72 65 73 66 74 71 75 67 76 68 77
REMARK SMILES IDX 70 78 72 79 69 80 53 81 54 82 59 83 55 84 56 85 58 86 60 87
REMARK SMILES IDX 57 88
REMARK H PARENT 23 6 27 31 77 50 51 61
REMARK Flexibility Score: inf
ROOT
ATOM      1  C   UNL A   1      32.928  28.172  27.455  1.00  0.00     0.042 C 
ENDROOT
BRANCH   1   2
ATOM      2  C   UNL A   1      31.663  27.994  26.609  1.00  0.00     0.118 C 
BRANCH   2   3
ATOM      3  N   UNL A   1      31.924  28.352  25.223  1.00  0.00    -0.352 N 
ATOM      4  C   UNL A   1      32.530  27.707  24.193  1.00  0.00     0.251 C 
ATOM      5  O   UNL A   1      32.738  28.344  23.163  1.00  0.00    -0.270 OA
ATOM      6  H   UNL A   1      31.592  29.247  24.981  1.00  0.00     0.163 HD
BRANCH   4   7
ATOM      7  C   UNL A   1      32.885  26.264  24.232  1.00  0.00     0.067 C 
ATOM      8  C   UNL A   1      33.548  22.103  24.382  1.00  0.00    -0.002 A 
ATOM      9  C   UNL A   1      34.702  21.633  25.038  1.00  0.00     0.054 A 
ATOM     10  C   UNL A   1      33.332  23.493  24.311  1.00  0.00     0.131 A 
ATOM     11  C   UNL A   1      35.635  22.521  25.579  1.00  0.00     0.130 A 
ATOM     12  C   UNL A   1      34.266  24.383  24.837  1.00  0.00     0.021 A 
ATOM     13  O   UNL A   1      32.150  23.916  23.775  1.00  0.00    -0.475 OA
ATOM     14  C   UNL A   1      35.415  23.894  25.465  1.00  0.00     0.058 A 
ATOM     15  C   UNL A   1      34.009  25.812  24.805  1.00  0.00     0.025 C 
ATOM     16  C   UNL A   1      31.986  25.323  23.435  1.00  0.00     0.314 C 
BRANCH   8  17
ATOM     17  C   UNL A   1      32.513  21.162  23.795  1.00  0.00     0.036 C 
ATOM     18  C   UNL A   1      32.531  19.724  24.305  1.00  0.00     0.009 C 
ENDBRANCH   8  17
BRANCH  11  19
ATOM     19  O   UNL A   1      36.779  22.195  26.251  1.00  0.00    -0.406 OA
BRANCH  19  20
ATOM     20  C   UNL A   1      37.978  22.077  25.505  1.00  0.00     0.573 C 
ATOM     21  F   UNL A   1      37.772  22.360  24.202  1.00  0.00    -0.132 F 
ATOM     22  F   UNL A   1      38.937  22.888  25.998  1.00  0.00    -0.132 F 
ATOM     23  F   UNL A   1      38.418  20.803  25.595  1.00  0.00    -0.132 F 
ENDBRANCH  19  20
ENDBRANCH  11  19
BRANCH  16  24
ATOM     24  C   UNL A   1      30.468  25.621  23.477  1.00  0.00     0.429 C 
ATOM     25  F   UNL A   1      29.717  24.583  23.050  1.00  0.00    -0.167 F 
ATOM     26  F   UNL A   1      30.057  25.865  24.752  1.00  0.00    -0.167 F 
ATOM     27  F   UNL A   1      30.138  26.712  22.747  1.00  0.00    -0.167 F 
ENDBRANCH  16  24
ENDBRANCH   4   7
ENDBRANCH   2   3
ENDBRANCH   1   2
BRANCH   1  28
ATOM     28  C   UNL A   1      33.905  29.191  26.870  1.00  0.00     0.118 C 
BRANCH  28  29
ATOM     29  N   UNL A   1      33.880  30.448  27.607  1.00  0.00    -0.352 N 
ATOM     30  C   UNL A   1      34.780  30.954  28.512  1.00  0.00     0.251 C 
ATOM     31  H   UNL A   1      33.101  31.022  27.428  1.00  0.00     0.163 HD
ATOM     32  O   UNL A   1      34.467  31.913  29.210  1.00  0.00    -0.269 OA
BRANCH  30  33
ATOM     33  C   UNL A   1      36.118  30.344  28.659  1.00  0.00     0.039 A 
ATOM     34  C   UNL A   1      37.013  30.407  27.586  1.00  0.00     0.014 A 
ATOM     35  C   UNL A   1      36.480  29.687  29.837  1.00  0.00     0.014 A 
ATOM     36  C   UNL A   1      38.298  29.876  27.724  1.00  0.00     0.010 A 
ATOM     37  C   UNL A   1      37.779  29.213  29.995  1.00  0.00     0.010 A 
ATOM     38  C   UNL A   1      38.702  29.312  28.943  1.00  0.00    -0.014 A 
BRANCH  38  39
ATOM     39  C   UNL A   1      40.097  28.851  29.160  1.00  0.00     0.031 A 
ATOM     40  C   UNL A   1      41.123  29.779  29.740  1.00  0.00     0.074 A 
ATOM     41  C   UNL A   1      40.453  27.618  28.749  1.00  0.00     0.049 A 
ATOM     42  N   UNL A   1      42.409  29.593  29.901  1.00  0.00    -0.248 NA
ATOM     43  C   UNL A   1      40.646  31.100  30.174  1.00  0.00     0.031 C 
ATOM     44  C   UNL A   1      39.552  26.634  28.148  1.00  0.00     0.029 A 
ATOM     45  N   UNL A   1      41.673  26.990  28.761  1.00  0.00    -0.354 N 
ATOM     46  C   UNL A   1      42.896  30.775  30.446  1.00  0.00     0.074 A 
ATOM     47  C   UNL A   1      41.776  31.688  30.539  1.00  0.00     0.031 C 
ATOM     48  C   UNL A   1      40.245  25.517  27.870  1.00  0.00     0.029 A 
ATOM     49  C   UNL A   1      41.644  25.725  28.228  1.00  0.00     0.049 A 
ATOM     50  H   UNL A   1      42.490  27.406  29.119  1.00  0.00     0.167 HD
ATOM     51  C   UNL A   1      44.156  31.065  30.849  1.00  0.00     0.037 A 
ATOM     52  C   UNL A   1      42.637  24.837  28.034  1.00  0.00     0.037 A 
ATOM     53  C   UNL A   1      45.265  30.151  30.758  1.00  0.00     0.049 A 
ATOM     54  C   UNL A   1      44.038  25.204  28.432  1.00  0.00     0.074 A 
ATOM     55  C   UNL A   1      46.570  30.331  31.182  1.00  0.00     0.029 A 
ATOM     56  N   UNL A   1      45.201  28.887  30.188  1.00  0.00    -0.354 N 
ATOM     57  N   UNL A   1      44.475  26.303  28.997  1.00  0.00    -0.248 NA
ATOM     58  C   UNL A   1      45.085  24.211  28.156  1.00  0.00     0.031 C 
ATOM     59  C   UNL A   1      47.306  29.195  30.826  1.00  0.00     0.029 A 
ATOM     60  C   UNL A   1      46.449  28.288  30.223  1.00  0.00     0.049 A 
ATOM     61  H   UNL A   1      44.387  28.476  29.817  1.00  0.00     0.167 HD
ATOM     62  C   UNL A   1      45.841  26.125  29.170  1.00  0.00     0.074 A 
ATOM     63  C   UNL A   1      46.159  24.807  28.658  1.00  0.00     0.031 C 
ATOM     64  C   UNL A   1      46.750  26.975  29.708  1.00  0.00     0.037 A 
BRANCH  51  65
ATOM     65  C   UNL A   1      44.396  32.435  31.419  1.00  0.00     0.057 A 
ATOM     66  C   UNL A   1      44.253  32.702  32.787  1.00  0.00     0.134 A 
ATOM     67  C   UNL A   1      44.782  33.498  30.592  1.00  0.00     0.134 A 
ATOM     68  F   UNL A   1      43.876  31.731  33.634  1.00  0.00    -0.206 F 
ATOM     69  C   UNL A   1      44.446  33.983  33.307  1.00  0.00     0.040 A 
ATOM     70  C   UNL A   1      45.006  34.777  31.104  1.00  0.00     0.040 A 
ATOM     71  F   UNL A   1      44.945  33.312  29.273  1.00  0.00    -0.206 F 
ATOM     72  C   UNL A   1      44.828  35.025  32.464  1.00  0.00     0.006 A 
ENDBRANCH  51  65
BRANCH  52  73
ATOM     73  C   UNL A   1      42.335  23.504  27.457  1.00  0.00     0.057 A 
ATOM     74  C   UNL A   1      42.391  23.295  26.074  1.00  0.00     0.134 A 
ATOM     75  C   UNL A   1      41.998  22.410  28.263  1.00  0.00     0.134 A 
ATOM     76  F   UNL A   1      42.691  24.309  25.250  1.00  0.00    -0.206 F 
ATOM     77  C   UNL A   1      42.113  22.047  25.512  1.00  0.00     0.040 A 
ATOM     78  C   UNL A   1      41.740  21.152  27.716  1.00  0.00     0.040 A 
ATOM     79  F   UNL A   1      41.934  22.544  29.596  1.00  0.00    -0.206 F 
ATOM     80  C   UNL A   1      41.793  20.970  26.335  1.00  0.00     0.006 A 
ENDBRANCH  52  73
BRANCH  64  81
ATOM     81  C   UNL A   1      48.170  26.497  29.794  1.00  0.00     0.057 A 
ATOM     82  C   UNL A   1      49.097  26.750  28.775  1.00  0.00     0.134 A 
ATOM     83  C   UNL A   1      48.625  25.813  30.928  1.00  0.00     0.134 A 
ATOM     84  F   UNL A   1      48.719  27.386  27.654  1.00  0.00    -0.206 F 
ATOM     85  C   UNL A   1      50.423  26.327  28.875  1.00  0.00     0.040 A 
ATOM     86  C   UNL A   1      49.954  25.408  31.050  1.00  0.00     0.040 A 
ATOM     87  F   UNL A   1      47.790  25.544  31.942  1.00  0.00    -0.206 F 
ATOM     88  C   UNL A   1      50.857  25.661  30.020  1.00  0.00     0.006 A 
ENDBRANCH  64  81
ENDBRANCH  38  39
ENDBRANCH  30  33
ENDBRANCH  28  29
ENDBRANCH   1  28
TORSDOF 14
ENDMDL
MODEL 3
REMARK VINA RESULT:     -11.6      3.665      8.570
REMARK SMILES CCc1cc(OC(F)(F)F)cc2c1O[C@@H](C(F)(F)F)C(C(=O)NCCCNC(=O)c1ccc(-c3c4nc(c(-c5c(F)cccc5F)c5ccc([nH]5)c(-c5c(F)cccc5F)c5nc(c(-c6c(F)cccc6F)c6ccc3[nH]6)C=C5)C=C4)cc1)=C2
REMARK SMILES IDX 25 1 24 2 23 3 21 4 22 5 20 7 3 8 4 9 13 10 5 11 12 12 14 13
REMARK SMILES IDX 11 14 84 15 15 16 2 17 1 18 6 19 7 20 8 21 9 22 10 23 16 24
REMARK SMILES IDX 17 25 18 26 19 27 26 28 27 29 28 30 29 32 30 33 31 34 83 35
REMARK SMILES IDX 32 36 82 37 33 38 34 39 35 40 76 41 36 42 81 43 75 44 77 45
REMARK SMILES IDX 37 46 80 47 74 48 73 49 38 51 64 52 47 53 63 54 48 55 51 56
REMARK SMILES IDX 62 57 78 58 49 59 50 60 61 62 79 63 52 64 39 65 40 66 45 67
REMARK SMILES IDX 41 68 42 69 44 70 46 71 43 72 65 73 66 74 71 75 67 76 68 77
REMARK SMILES IDX 70 78 72 79 69 80 53 81 54 82 59 83 55 84 56 85 58 86 60 87
REMARK SMILES IDX 57 88
REMARK H PARENT 23 6 27 31 77 50 51 61
REMARK Flexibility Score: inf
ROOT
ATOM      1  C   UNL A   1      37.271  20.248  25.060  1.00  0.00     0.042 C 
ENDROOT
BRANCH   1   2
ATOM      2  C   UNL A   1      36.200  21.342  25.053  1.00  0.00     0.118 C 
BRANCH   2   3
ATOM      3  N   UNL A   1      35.122  21.006  25.971  1.00  0.00    -0.352 N 
ATOM      4  C   UNL A   1      34.016  21.671  26.391  1.00  0.00     0.251 C 
ATOM      5  O   UNL A   1      33.365  21.176  27.309  1.00  0.00    -0.270 OA
ATOM      6  H   UNL A   1      35.214  20.110  26.371  1.00  0.00     0.163 HD
BRANCH   4   7
ATOM      7  C   UNL A   1      33.523  22.919  25.752  1.00  0.00     0.067 C 
ATOM      8  C   UNL A   1      32.136  26.288  23.630  1.00  0.00    -0.002 A 
ATOM      9  C   UNL A   1      32.587  27.561  24.028  1.00  0.00     0.054 A 
ATOM     10  C   UNL A   1      32.580  25.161  24.348  1.00  0.00     0.131 A 
ATOM     11  C   UNL A   1      33.430  27.714  25.131  1.00  0.00     0.130 A 
ATOM     12  C   UNL A   1      33.409  25.309  25.458  1.00  0.00     0.021 A 
ATOM     13  O   UNL A   1      32.223  23.933  23.870  1.00  0.00    -0.475 OA
ATOM     14  C   UNL A   1      33.827  26.584  25.847  1.00  0.00     0.058 A 
ATOM     15  C   UNL A   1      33.904  24.137  26.160  1.00  0.00     0.025 C 
ATOM     16  C   UNL A   1      32.424  22.758  24.706  1.00  0.00     0.314 C 
BRANCH   8  17
ATOM     17  C   UNL A   1      31.230  26.091  22.429  1.00  0.00     0.036 C 
ATOM     18  C   UNL A   1      31.916  25.902  21.081  1.00  0.00     0.009 C 
ENDBRANCH   8  17
BRANCH  11  19
ATOM     19  O   UNL A   1      33.948  28.885  25.607  1.00  0.00    -0.406 OA
BRANCH  19  20
ATOM     20  C   UNL A   1      33.194  29.607  26.565  1.00  0.00     0.573 C 
ATOM     21  F   UNL A   1      31.940  29.838  26.125  1.00  0.00    -0.132 F 
ATOM     22  F   UNL A   1      33.147  28.948  27.742  1.00  0.00    -0.132 F 
ATOM     23  F   UNL A   1      33.793  30.800  26.775  1.00  0.00    -0.132 F 
ENDBRANCH  19  20
ENDBRANCH  11  19
BRANCH  16  24
ATOM     24  C   UNL A   1      32.553  21.545  23.752  1.00  0.00     0.429 C 
ATOM     25  F   UNL A   1      32.272  20.370  24.355  1.00  0.00    -0.167 F 
ATOM     26  F   UNL A   1      31.669  21.643  22.721  1.00  0.00    -0.167 F 
ATOM     27  F   UNL A   1      33.785  21.455  23.201  1.00  0.00    -0.167 F 
ENDBRANCH  16  24
ENDBRANCH   4   7
ENDBRANCH   2   3
ENDBRANCH   1   2
BRANCH   1  28
ATOM     28  C   UNL A   1      38.674  20.781  25.351  1.00  0.00     0.118 C 
BRANCH  28  29
ATOM     29  N   UNL A   1      39.626  19.703  25.579  1.00  0.00    -0.352 N 
ATOM     30  C   UNL A   1      40.927  19.757  26.014  1.00  0.00     0.251 C 
ATOM     31  H   UNL A   1      39.285  18.799  25.394  1.00  0.00     0.163 HD
ATOM     32  O   UNL A   1      41.645  18.767  25.910  1.00  0.00    -0.269 OA
BRANCH  30  33
ATOM     33  C   UNL A   1      41.471  21.002  26.596  1.00  0.00     0.039 A 
ATOM     34  C   UNL A   1      42.052  21.949  25.748  1.00  0.00     0.014 A 
ATOM     35  C   UNL A   1      41.436  21.223  27.976  1.00  0.00     0.014 A 
ATOM     36  C   UNL A   1      42.529  23.151  26.275  1.00  0.00     0.010 A 
ATOM     37  C   UNL A   1      41.855  22.446  28.492  1.00  0.00     0.010 A 
ATOM     38  C   UNL A   1      42.397  23.424  27.645  1.00  0.00    -0.014 A 
BRANCH  38  39
ATOM     39  C   UNL A   1      42.783  24.739  28.215  1.00  0.00     0.031 A 
ATOM     40  C   UNL A   1      41.750  25.806  28.434  1.00  0.00     0.074 A 
ATOM     41  C   UNL A   1      44.084  24.998  28.451  1.00  0.00     0.049 A 
ATOM     42  N   UNL A   1      41.911  27.047  28.817  1.00  0.00    -0.248 NA
ATOM     43  C   UNL A   1      40.353  25.435  28.163  1.00  0.00     0.031 C 
ATOM     44  C   UNL A   1      45.183  24.052  28.254  1.00  0.00     0.029 A 
ATOM     45  N   UNL A   1      44.702  26.140  28.895  1.00  0.00    -0.354 N 
ATOM     46  C   UNL A   1      40.640  27.608  28.825  1.00  0.00     0.074 A 
ATOM     47  C   UNL A   1      39.727  26.586  28.359  1.00  0.00     0.031 C 
ATOM     48  C   UNL A   1      46.339  24.645  28.597  1.00  0.00     0.029 A 
ATOM     49  C   UNL A   1      46.067  26.023  28.991  1.00  0.00     0.049 A 
ATOM     50  H   UNL A   1      44.214  26.963  29.123  1.00  0.00     0.167 HD
ATOM     51  C   UNL A   1      40.266  28.853  29.204  1.00  0.00     0.037 A 
ATOM     52  C   UNL A   1      46.997  26.930  29.341  1.00  0.00     0.037 A 
ATOM     53  C   UNL A   1      41.180  29.865  29.671  1.00  0.00     0.049 A 
ATOM     54  C   UNL A   1      46.566  28.324  29.698  1.00  0.00     0.074 A 
ATOM     55  C   UNL A   1      40.897  31.141  30.125  1.00  0.00     0.029 A 
ATOM     56  N   UNL A   1      42.558  29.716  29.731  1.00  0.00    -0.354 N 
ATOM     57  N   UNL A   1      45.356  28.825  29.755  1.00  0.00    -0.248 NA
ATOM     58  C   UNL A   1      47.631  29.281  30.031  1.00  0.00     0.031 C 
ATOM     59  C   UNL A   1      42.107  31.781  30.413  1.00  0.00     0.029 A 
ATOM     60  C   UNL A   1      43.142  30.887  30.184  1.00  0.00     0.049 A 
ATOM     61  H   UNL A   1      43.048  28.897  29.489  1.00  0.00     0.167 HD
ATOM     62  C   UNL A   1      45.510  30.146  30.155  1.00  0.00     0.074 A 
ATOM     63  C   UNL A   1      46.930  30.365  30.337  1.00  0.00     0.031 C 
ATOM     64  C   UNL A   1      44.558  31.091  30.358  1.00  0.00     0.037 A 
BRANCH  51  65
ATOM     65  C   UNL A   1      38.804  29.187  29.119  1.00  0.00     0.057 A 
ATOM     66  C   UNL A   1      37.963  29.115  30.237  1.00  0.00     0.134 A 
ATOM     67  C   UNL A   1      38.231  29.593  27.907  1.00  0.00     0.134 A 
ATOM     68  F   UNL A   1      38.445  28.724  31.427  1.00  0.00    -0.206 F 
ATOM     69  C   UNL A   1      36.598  29.395  30.146  1.00  0.00     0.040 A 
ATOM     70  C   UNL A   1      36.873  29.904  27.809  1.00  0.00     0.040 A 
ATOM     71  F   UNL A   1      38.979  29.692  26.797  1.00  0.00    -0.206 F 
ATOM     72  C   UNL A   1      36.051  29.795  28.929  1.00  0.00     0.006 A 
ENDBRANCH  51  65
BRANCH  52  73
ATOM     73  C   UNL A   1      48.427  26.539  29.396  1.00  0.00     0.057 A 
ATOM     74  C   UNL A   1      49.273  26.769  28.305  1.00  0.00     0.134 A 
ATOM     75  C   UNL A   1      48.987  25.944  30.533  1.00  0.00     0.134 A 
ATOM     76  F   UNL A   1      48.791  27.320  27.181  1.00  0.00    -0.206 F 
ATOM     77  C   UNL A   1      50.622  26.411  28.338  1.00  0.00     0.040 A 
ATOM     78  C   UNL A   1      50.339  25.601  30.588  1.00  0.00     0.040 A 
ATOM     79  F   UNL A   1      48.231  25.704  31.615  1.00  0.00    -0.206 F 
ATOM     80  C   UNL A   1      51.160  25.832  29.485  1.00  0.00     0.006 A 
ENDBRANCH  52  73
BRANCH  64  81
ATOM     81  C   UNL A   1      45.021  32.440  30.823  1.00  0.00     0.057 A 
ATOM     82  C   UNL A   1      45.303  33.475  29.922  1.00  0.00     0.134 A 
ATOM     83  C   UNL A   1      45.143  32.721  32.190  1.00  0.00     0.134 A 
ATOM     84  F   UNL A   1      45.223  33.265  28.598  1.00  0.00    -0.206 F 
ATOM     85  C   UNL A   1      45.705  34.736  30.363  1.00  0.00     0.040 A 
ATOM     86  C   UNL A   1      45.519  33.985  32.644  1.00  0.00     0.040 A 
ATOM     87  F   UNL A   1      44.881  31.776  33.105  1.00  0.00    -0.206 F 
ATOM     88  C   UNL A   1      45.806  34.996  31.729  1.00  0.00     0.006 A 
ENDBRANCH  64  81
ENDBRANCH  38  39
ENDBRANCH  30  33
ENDBRANCH  28  29
ENDBRANCH   1  28
TORSDOF 14
ENDMDL
