MODEL 1
REMARK VINA RESULT:     -10.7      0.000      0.000
REMARK SMILES O=C(CSc1nc(-c2cccc(F)c2)n[nH]1)NCCCNC(=O)c1ccc(-c2c3nc(c(-c4c(F)cccc4F)c4ccc([nH]4)c(-c4c(F)cccc4F)c4nc(c(-c5c(F)cccc5F)c5ccc2[nH]5)C=C4)C=C3)cc1
REMARK SMILES IDX 18 1 17 2 1 3 2 4 3 6 4 7 5 8 6 9 16 10 7 11 15 12 8 14 9 15
REMARK SMILES IDX 14 16 10 17 12 18 11 19 13 20 19 21 20 22 21 23 22 24 23 26
REMARK SMILES IDX 24 27 25 28 77 29 26 30 76 31 27 32 28 33 29 34 70 35 30 36
REMARK SMILES IDX 75 37 69 38 71 39 31 40 74 41 68 42 67 43 32 45 58 46 41 47
REMARK SMILES IDX 57 48 42 49 45 50 56 51 72 52 43 53 44 54 55 56 73 57 46 58
REMARK SMILES IDX 33 59 34 60 39 61 35 62 36 63 38 64 40 65 37 66 59 67 60 68
REMARK SMILES IDX 65 69 61 70 62 71 64 72 66 73 63 74 47 75 48 76 53 77 49 78
REMARK SMILES IDX 50 79 52 80 54 81 51 82
REMARK H PARENT 17 5 16 13 21 25 71 44 45 55
REMARK Flexibility Score: inf
ROOT
ATOM      1  C   UNL A   1      41.716  19.656  27.405  1.00  0.00     0.117 C 
ENDROOT
BRANCH   1   2
ATOM      2  N   UNL A   1      43.064  19.536  26.881  1.00  0.00    -0.355 N 
ATOM      3  O   UNL A   1      42.663  17.602  25.717  1.00  0.00    -0.274 OA
ATOM      4  C   UNL A   1      43.431  18.501  26.054  1.00  0.00     0.230 C 
ATOM      5  H   UNL A   1      43.734  20.214  27.126  1.00  0.00     0.163 HD
BRANCH   4   6
ATOM      6  C   UNL A   1      44.815  18.602  25.453  1.00  0.00     0.178 C 
BRANCH   6   7
ATOM      7  S   UNL A   1      44.776  19.584  23.937  1.00  0.00    -0.077 SA
BRANCH   7   8
ATOM      8  C   UNL A   1      45.250  21.182  24.392  1.00  0.00     0.184 A 
ATOM      9  N   UNL A   1      45.645  21.518  25.596  1.00  0.00    -0.201 NA
ATOM     10  N   UNL A   1      45.148  22.304  23.622  1.00  0.00    -0.254 N 
ATOM     11  C   UNL A   1      45.706  22.890  25.541  1.00  0.00     0.182 A 
ATOM     12  N   UNL A   1      45.392  23.410  24.346  1.00  0.00    -0.153 NA
ATOM     13  H   UNL A   1      44.925  22.303  22.664  1.00  0.00     0.192 HD
BRANCH  11  14
ATOM     14  C   UNL A   1      46.045  23.693  26.699  1.00  0.00     0.024 A 
ATOM     15  C   UNL A   1      47.197  24.491  26.690  1.00  0.00     0.012 A 
ATOM     16  C   UNL A   1      45.230  23.668  27.837  1.00  0.00     0.051 A 
ATOM     17  C   UNL A   1      47.526  25.269  27.802  1.00  0.00     0.004 A 
ATOM     18  C   UNL A   1      45.579  24.431  28.944  1.00  0.00     0.123 A 
ATOM     19  C   UNL A   1      46.716  25.235  28.935  1.00  0.00     0.039 A 
ATOM     20  F   UNL A   1      44.812  24.391  30.041  1.00  0.00    -0.207 F 
ENDBRANCH  11  14
ENDBRANCH   7   8
ENDBRANCH   6   7
ENDBRANCH   4   6
ENDBRANCH   1   2
BRANCH   1  21
ATOM     21  C   UNL A   1      41.228  21.097  27.448  1.00  0.00     0.042 C 
BRANCH  21  22
ATOM     22  C   UNL A   1      40.933  21.711  26.083  1.00  0.00     0.118 C 
BRANCH  22  23
ATOM     23  N   UNL A   1      39.518  21.952  25.851  1.00  0.00    -0.352 N 
ATOM     24  C   UNL A   1      38.744  23.041  26.170  1.00  0.00     0.251 C 
ATOM     25  H   UNL A   1      39.041  21.223  25.395  1.00  0.00     0.163 HD
ATOM     26  O   UNL A   1      37.528  22.989  25.992  1.00  0.00    -0.269 OA
BRANCH  24  27
ATOM     27  C   UNL A   1      39.345  24.260  26.755  1.00  0.00     0.039 A 
ATOM     28  C   UNL A   1      40.008  25.150  25.905  1.00  0.00     0.014 A 
ATOM     29  C   UNL A   1      39.281  24.528  28.126  1.00  0.00     0.014 A 
ATOM     30  C   UNL A   1      40.537  26.338  26.413  1.00  0.00     0.010 A 
ATOM     31  C   UNL A   1      39.748  25.745  28.622  1.00  0.00     0.010 A 
ATOM     32  C   UNL A   1      40.374  26.666  27.769  1.00  0.00    -0.014 A 
BRANCH  32  33
ATOM     33  C   UNL A   1      40.823  27.982  28.293  1.00  0.00     0.031 A 
ATOM     34  C   UNL A   1      42.284  28.317  28.385  1.00  0.00     0.074 A 
ATOM     35  C   UNL A   1      39.905  28.862  28.737  1.00  0.00     0.049 A 
ATOM     36  N   UNL A   1      42.854  29.398  28.854  1.00  0.00    -0.248 NA
ATOM     37  C   UNL A   1      43.232  27.298  27.906  1.00  0.00     0.031 C 
ATOM     38  C   UNL A   1      38.457  28.642  28.745  1.00  0.00     0.029 A 
ATOM     39  N   UNL A   1      40.052  30.120  29.266  1.00  0.00    -0.354 N 
ATOM     40  C   UNL A   1      44.222  29.188  28.736  1.00  0.00     0.074 A 
ATOM     41  C   UNL A   1      44.399  27.857  28.194  1.00  0.00     0.031 C 
ATOM     42  C   UNL A   1      37.848  29.738  29.222  1.00  0.00     0.029 A 
ATOM     43  C   UNL A   1      38.860  30.725  29.588  1.00  0.00     0.049 A 
ATOM     44  H   UNL A   1      40.927  30.548  29.403  1.00  0.00     0.167 HD
ATOM     45  C   UNL A   1      45.236  30.036  29.029  1.00  0.00     0.037 A 
ATOM     46  C   UNL A   1      38.609  31.937  30.117  1.00  0.00     0.037 A 
ATOM     47  C   UNL A   1      45.062  31.370  29.542  1.00  0.00     0.049 A 
ATOM     48  C   UNL A   1      39.751  32.856  30.437  1.00  0.00     0.074 A 
ATOM     49  C   UNL A   1      46.030  32.321  29.814  1.00  0.00     0.029 A 
ATOM     50  N   UNL A   1      43.840  31.943  29.859  1.00  0.00    -0.354 N 
ATOM     51  N   UNL A   1      41.037  32.662  30.274  1.00  0.00    -0.248 NA
ATOM     52  C   UNL A   1      39.409  34.164  31.014  1.00  0.00     0.031 C 
ATOM     53  C   UNL A   1      45.398  33.455  30.331  1.00  0.00     0.029 A 
ATOM     54  C   UNL A   1      44.032  33.227  30.343  1.00  0.00     0.049 A 
ATOM     55  H   UNL A   1      42.965  31.503  29.756  1.00  0.00     0.167 HD
ATOM     56  C   UNL A   1      41.656  33.823  30.714  1.00  0.00     0.074 A 
ATOM     57  C   UNL A   1      40.605  34.726  31.134  1.00  0.00     0.031 C 
ATOM     58  C   UNL A   1      42.979  34.113  30.766  1.00  0.00     0.037 A 
BRANCH  45  59
ATOM     59  C   UNL A   1      46.637  29.556  28.788  1.00  0.00     0.057 A 
ATOM     60  C   UNL A   1      47.235  29.694  27.529  1.00  0.00     0.134 A 
ATOM     61  C   UNL A   1      47.369  28.898  29.784  1.00  0.00     0.134 A 
ATOM     62  F   UNL A   1      46.585  30.309  26.530  1.00  0.00    -0.206 F 
ATOM     63  C   UNL A   1      48.508  29.184  27.267  1.00  0.00     0.040 A 
ATOM     64  C   UNL A   1      48.652  28.404  29.540  1.00  0.00     0.040 A 
ATOM     65  F   UNL A   1      46.857  28.742  31.014  1.00  0.00    -0.206 F 
ATOM     66  C   UNL A   1      49.221  28.538  28.276  1.00  0.00     0.006 A 
ENDBRANCH  45  59
BRANCH  46  67
ATOM     67  C   UNL A   1      37.205  32.359  30.346  1.00  0.00     0.057 A 
ATOM     68  C   UNL A   1      36.494  33.092  29.389  1.00  0.00     0.134 A 
ATOM     69  C   UNL A   1      36.553  32.058  31.547  1.00  0.00     0.134 A 
ATOM     70  F   UNL A   1      37.068  33.418  28.222  1.00  0.00    -0.206 F 
ATOM     71  C   UNL A   1      35.188  33.523  29.624  1.00  0.00     0.040 A 
ATOM     72  C   UNL A   1      35.240  32.465  31.787  1.00  0.00     0.040 A 
ATOM     73  F   UNL A   1      37.179  31.343  32.494  1.00  0.00    -0.206 F 
ATOM     74  C   UNL A   1      34.555  33.206  30.825  1.00  0.00     0.006 A 
ENDBRANCH  46  67
BRANCH  58  75
ATOM     75  C   UNL A   1      43.368  35.462  31.292  1.00  0.00     0.057 A 
ATOM     76  C   UNL A   1      43.635  36.523  30.416  1.00  0.00     0.134 A 
ATOM     77  C   UNL A   1      43.533  35.697  32.662  1.00  0.00     0.134 A 
ATOM     78  F   UNL A   1      43.505  36.361  29.090  1.00  0.00    -0.206 F 
ATOM     79  C   UNL A   1      44.062  37.766  30.885  1.00  0.00     0.040 A 
ATOM     80  C   UNL A   1      43.937  36.943  33.145  1.00  0.00     0.040 A 
ATOM     81  F   UNL A   1      43.282  34.725  33.553  1.00  0.00    -0.206 F 
ATOM     82  C   UNL A   1      44.210  37.979  32.254  1.00  0.00     0.006 A 
ENDBRANCH  58  75
ENDBRANCH  32  33
ENDBRANCH  24  27
ENDBRANCH  22  23
ENDBRANCH  21  22
ENDBRANCH   1  21
TORSDOF 13
ENDMDL
MODEL 2
REMARK VINA RESULT:     -10.6      3.761      4.568
REMARK SMILES O=C(CSc1nc(-c2cccc(F)c2)n[nH]1)NCCCNC(=O)c1ccc(-c2c3nc(c(-c4c(F)cccc4F)c4ccc([nH]4)c(-c4c(F)cccc4F)c4nc(c(-c5c(F)cccc5F)c5ccc2[nH]5)C=C4)C=C3)cc1
REMARK SMILES IDX 18 1 17 2 1 3 2 4 3 6 4 7 5 8 6 9 16 10 7 11 15 12 8 14 9 15
REMARK SMILES IDX 14 16 10 17 12 18 11 19 13 20 19 21 20 22 21 23 22 24 23 26
REMARK SMILES IDX 24 27 25 28 77 29 26 30 76 31 27 32 28 33 29 34 70 35 30 36
REMARK SMILES IDX 75 37 69 38 71 39 31 40 74 41 68 42 67 43 32 45 58 46 41 47
REMARK SMILES IDX 57 48 42 49 45 50 56 51 72 52 43 53 44 54 55 56 73 57 46 58
REMARK SMILES IDX 33 59 34 60 39 61 35 62 36 63 38 64 40 65 37 66 59 67 60 68
REMARK SMILES IDX 65 69 61 70 62 71 64 72 66 73 63 74 47 75 48 76 53 77 49 78
REMARK SMILES IDX 50 79 52 80 54 81 51 82
REMARK H PARENT 17 5 16 13 21 25 71 44 45 55
REMARK Flexibility Score: inf
ROOT
ATOM      1  C   UNL A   1      41.239  20.091  26.120  1.00  0.00     0.117 C 
ENDROOT
BRANCH   1   2
ATOM      2  N   UNL A   1      42.669  19.940  25.927  1.00  0.00    -0.355 N 
ATOM      3  O   UNL A   1      42.621  17.651  25.795  1.00  0.00    -0.274 OA
ATOM      4  C   UNL A   1      43.253  18.705  25.766  1.00  0.00     0.230 C 
ATOM      5  H   UNL A   1      43.237  20.743  25.910  1.00  0.00     0.163 HD
BRANCH   4   6
ATOM      6  C   UNL A   1      44.721  18.717  25.406  1.00  0.00     0.178 C 
BRANCH   6   7
ATOM      7  S   UNL A   1      45.016  19.801  23.990  1.00  0.00    -0.077 SA
BRANCH   7   8
ATOM      8  C   UNL A   1      45.600  21.290  24.644  1.00  0.00     0.184 A 
ATOM      9  N   UNL A   1      45.472  21.642  25.901  1.00  0.00    -0.201 NA
ATOM     10  N   UNL A   1      46.133  22.328  23.937  1.00  0.00    -0.254 N 
ATOM     11  C   UNL A   1      45.880  22.955  25.907  1.00  0.00     0.182 A 
ATOM     12  N   UNL A   1      46.280  23.415  24.713  1.00  0.00    -0.153 NA
ATOM     13  H   UNL A   1      46.378  22.285  22.985  1.00  0.00     0.192 HD
BRANCH  11  14
ATOM     14  C   UNL A   1      45.838  23.769  27.106  1.00  0.00     0.024 A 
ATOM     15  C   UNL A   1      46.694  24.871  27.239  1.00  0.00     0.012 A 
ATOM     16  C   UNL A   1      44.950  23.453  28.140  1.00  0.00     0.051 A 
ATOM     17  C   UNL A   1      46.654  25.660  28.391  1.00  0.00     0.004 A 
ATOM     18  C   UNL A   1      44.934  24.234  29.289  1.00  0.00     0.123 A 
ATOM     19  C   UNL A   1      45.773  25.337  29.421  1.00  0.00     0.039 A 
ATOM     20  F   UNL A   1      44.100  23.920  30.289  1.00  0.00    -0.207 F 
ENDBRANCH  11  14
ENDBRANCH   7   8
ENDBRANCH   6   7
ENDBRANCH   4   6
ENDBRANCH   1   2
BRANCH   1  21
ATOM     21  C   UNL A   1      40.817  21.546  26.272  1.00  0.00     0.042 C 
BRANCH  21  22
ATOM     22  C   UNL A   1      41.935  22.493  26.697  1.00  0.00     0.118 C 
BRANCH  22  23
ATOM     23  N   UNL A   1      42.382  23.374  25.629  1.00  0.00    -0.352 N 
ATOM     24  C   UNL A   1      42.520  24.740  25.612  1.00  0.00     0.251 C 
ATOM     25  H   UNL A   1      42.625  22.920  24.790  1.00  0.00     0.163 HD
ATOM     26  O   UNL A   1      42.799  25.304  24.554  1.00  0.00    -0.269 OA
BRANCH  24  27
ATOM     27  C   UNL A   1      42.301  25.546  26.834  1.00  0.00     0.039 A 
ATOM     28  C   UNL A   1      43.124  26.654  27.056  1.00  0.00     0.014 A 
ATOM     29  C   UNL A   1      41.314  25.215  27.767  1.00  0.00     0.014 A 
ATOM     30  C   UNL A   1      42.909  27.470  28.168  1.00  0.00     0.010 A 
ATOM     31  C   UNL A   1      41.056  26.069  28.840  1.00  0.00     0.010 A 
ATOM     32  C   UNL A   1      41.846  27.209  29.047  1.00  0.00    -0.014 A 
BRANCH  32  33
ATOM     33  C   UNL A   1      41.533  28.139  30.162  1.00  0.00     0.031 A 
ATOM     34  C   UNL A   1      42.317  28.099  31.443  1.00  0.00     0.074 A 
ATOM     35  C   UNL A   1      40.501  28.996  30.035  1.00  0.00     0.049 A 
ATOM     36  N   UNL A   1      42.154  28.807  32.532  1.00  0.00    -0.248 NA
ATOM     37  C   UNL A   1      43.414  27.121  31.522  1.00  0.00     0.031 C 
ATOM     38  C   UNL A   1      39.633  29.105  28.861  1.00  0.00     0.029 A 
ATOM     39  N   UNL A   1      40.006  29.938  30.903  1.00  0.00    -0.354 N 
ATOM     40  C   UNL A   1      43.118  28.358  33.425  1.00  0.00     0.074 A 
ATOM     41  C   UNL A   1      43.832  27.284  32.769  1.00  0.00     0.031 C 
ATOM     42  C   UNL A   1      38.735  30.081  29.067  1.00  0.00     0.029 A 
ATOM     43  C   UNL A   1      38.938  30.641  30.400  1.00  0.00     0.049 A 
ATOM     44  H   UNL A   1      40.380  30.094  31.799  1.00  0.00     0.167 HD
ATOM     45  C   UNL A   1      43.398  28.816  34.668  1.00  0.00     0.037 A 
ATOM     46  C   UNL A   1      38.204  31.628  30.948  1.00  0.00     0.037 A 
ATOM     47  C   UNL A   1      42.707  29.903  35.312  1.00  0.00     0.049 A 
ATOM     48  C   UNL A   1      38.532  32.115  32.329  1.00  0.00     0.074 A 
ATOM     49  C   UNL A   1      42.961  30.473  36.548  1.00  0.00     0.029 A 
ATOM     50  N   UNL A   1      41.628  30.586  34.771  1.00  0.00    -0.354 N 
ATOM     51  N   UNL A   1      39.478  31.713  33.142  1.00  0.00    -0.248 NA
ATOM     52  C   UNL A   1      37.692  33.193  32.871  1.00  0.00     0.031 C 
ATOM     53  C   UNL A   1      42.012  31.475  36.772  1.00  0.00     0.029 A 
ATOM     54  C   UNL A   1      41.193  31.558  35.658  1.00  0.00     0.049 A 
ATOM     55  H   UNL A   1      41.230  30.408  33.889  1.00  0.00     0.167 HD
ATOM     56  C   UNL A   1      39.357  32.494  34.283  1.00  0.00     0.074 A 
ATOM     57  C   UNL A   1      38.258  33.408  34.051  1.00  0.00     0.031 C 
ATOM     58  C   UNL A   1      40.092  32.455  35.421  1.00  0.00     0.037 A 
BRANCH  45  59
ATOM     59  C   UNL A   1      44.515  28.154  35.419  1.00  0.00     0.057 A 
ATOM     60  C   UNL A   1      44.260  27.088  36.292  1.00  0.00     0.134 A 
ATOM     61  C   UNL A   1      45.834  28.615  35.329  1.00  0.00     0.134 A 
ATOM     62  F   UNL A   1      43.017  26.602  36.428  1.00  0.00    -0.206 F 
ATOM     63  C   UNL A   1      45.276  26.512  37.055  1.00  0.00     0.040 A 
ATOM     64  C   UNL A   1      46.863  28.032  36.071  1.00  0.00     0.040 A 
ATOM     65  F   UNL A   1      46.146  29.627  34.505  1.00  0.00    -0.206 F 
ATOM     66  C   UNL A   1      46.583  26.983  36.944  1.00  0.00     0.006 A 
ENDBRANCH  45  59
BRANCH  46  67
ATOM     67  C   UNL A   1      37.102  32.242  30.167  1.00  0.00     0.057 A 
ATOM     68  C   UNL A   1      37.340  33.269  29.245  1.00  0.00     0.134 A 
ATOM     69  C   UNL A   1      35.778  31.829  30.349  1.00  0.00     0.134 A 
ATOM     70  F   UNL A   1      38.587  33.712  29.033  1.00  0.00    -0.206 F 
ATOM     71  C   UNL A   1      36.297  33.872  28.542  1.00  0.00     0.040 A 
ATOM     72  C   UNL A   1      34.728  32.409  29.637  1.00  0.00     0.040 A 
ATOM     73  F   UNL A   1      35.492  30.838  31.206  1.00  0.00    -0.206 F 
ATOM     74  C   UNL A   1      34.986  33.440  28.734  1.00  0.00     0.006 A 
ENDBRANCH  46  67
BRANCH  58  75
ATOM     75  C   UNL A   1      39.737  33.430  36.504  1.00  0.00     0.057 A 
ATOM     76  C   UNL A   1      40.340  34.693  36.557  1.00  0.00     0.134 A 
ATOM     77  C   UNL A   1      38.839  33.098  37.525  1.00  0.00     0.134 A 
ATOM     78  F   UNL A   1      41.217  35.070  35.614  1.00  0.00    -0.206 F 
ATOM     79  C   UNL A   1      40.071  35.587  37.594  1.00  0.00     0.040 A 
ATOM     80  C   UNL A   1      38.543  33.992  38.555  1.00  0.00     0.040 A 
ATOM     81  F   UNL A   1      38.219  31.907  37.524  1.00  0.00    -0.206 F 
ATOM     82  C   UNL A   1      39.166  35.238  38.595  1.00  0.00     0.006 A 
ENDBRANCH  58  75
ENDBRANCH  32  33
ENDBRANCH  24  27
ENDBRANCH  22  23
ENDBRANCH  21  22
ENDBRANCH   1  21
TORSDOF 13
ENDMDL
MODEL 3
REMARK VINA RESULT:     -10.5      4.119      7.822
REMARK SMILES O=C(CSc1nc(-c2cccc(F)c2)n[nH]1)NCCCNC(=O)c1ccc(-c2c3nc(c(-c4c(F)cccc4F)c4ccc([nH]4)c(-c4c(F)cccc4F)c4nc(c(-c5c(F)cccc5F)c5ccc2[nH]5)C=C4)C=C3)cc1
REMARK SMILES IDX 18 1 17 2 1 3 2 4 3 6 4 7 5 8 6 9 16 10 7 11 15 12 8 14 9 15
REMARK SMILES IDX 14 16 10 17 12 18 11 19 13 20 19 21 20 22 21 23 22 24 23 26
REMARK SMILES IDX 24 27 25 28 77 29 26 30 76 31 27 32 28 33 29 34 70 35 30 36
REMARK SMILES IDX 75 37 69 38 71 39 31 40 74 41 68 42 67 43 32 45 58 46 41 47
REMARK SMILES IDX 57 48 42 49 45 50 56 51 72 52 43 53 44 54 55 56 73 57 46 58
REMARK SMILES IDX 33 59 34 60 39 61 35 62 36 63 38 64 40 65 37 66 59 67 60 68
REMARK SMILES IDX 65 69 61 70 62 71 64 72 66 73 63 74 47 75 48 76 53 77 49 78
REMARK SMILES IDX 50 79 52 80 54 81 51 82
REMARK H PARENT 17 5 16 13 21 25 71 44 45 55
REMARK Flexibility Score: inf
ROOT
ATOM      1  C   UNL A   1      45.530  22.842  26.322  1.00  0.00     0.117 C 
ENDROOT
BRANCH   1   2
ATOM      2  N   UNL A   1      45.279  21.481  25.884  1.00  0.00    -0.355 N 
ATOM      3  O   UNL A   1      44.120  22.078  23.998  1.00  0.00    -0.274 OA
ATOM      4  C   UNL A   1      44.588  21.206  24.728  1.00  0.00     0.230 C 
ATOM      5  H   UNL A   1      45.612  20.734  26.431  1.00  0.00     0.163 HD
BRANCH   4   6
ATOM      6  C   UNL A   1      44.553  19.752  24.315  1.00  0.00     0.178 C 
BRANCH   6   7
ATOM      7  S   UNL A   1      44.151  18.703  25.731  1.00  0.00    -0.077 SA
BRANCH   7   8
ATOM      8  C   UNL A   1      42.642  19.285  26.341  1.00  0.00     0.184 A 
ATOM      9  N   UNL A   1      41.719  19.851  25.602  1.00  0.00    -0.201 NA
ATOM     10  N   UNL A   1      42.277  19.359  27.653  1.00  0.00    -0.254 N 
ATOM     11  C   UNL A   1      40.821  20.331  26.526  1.00  0.00     0.182 A 
ATOM     12  N   UNL A   1      41.139  20.059  27.799  1.00  0.00    -0.153 NA
ATOM     13  H   UNL A   1      42.780  18.952  28.395  1.00  0.00     0.192 HD
BRANCH  11  14
ATOM     14  C   UNL A   1      39.653  21.097  26.138  1.00  0.00     0.024 A 
ATOM     15  C   UNL A   1      38.642  20.501  25.372  1.00  0.00     0.012 A 
ATOM     16  C   UNL A   1      39.533  22.439  26.519  1.00  0.00     0.051 A 
ATOM     17  C   UNL A   1      37.513  21.235  24.999  1.00  0.00     0.004 A 
ATOM     18  C   UNL A   1      38.415  23.162  26.125  1.00  0.00     0.123 A 
ATOM     19  C   UNL A   1      37.402  22.572  25.374  1.00  0.00     0.039 A 
ATOM     20  F   UNL A   1      38.309  24.452  26.470  1.00  0.00    -0.207 F 
ENDBRANCH  11  14
ENDBRANCH   7   8
ENDBRANCH   6   7
ENDBRANCH   4   6
ENDBRANCH   1   2
BRANCH   1  21
ATOM     21  C   UNL A   1      44.696  23.234  27.533  1.00  0.00     0.042 C 
BRANCH  21  22
ATOM     22  C   UNL A   1      43.188  23.182  27.312  1.00  0.00     0.118 C 
BRANCH  22  23
ATOM     23  N   UNL A   1      42.745  23.943  26.155  1.00  0.00    -0.352 N 
ATOM     24  C   UNL A   1      42.122  25.165  26.088  1.00  0.00     0.251 C 
ATOM     25  H   UNL A   1      42.920  23.517  25.286  1.00  0.00     0.163 HD
ATOM     26  O   UNL A   1      41.718  25.576  25.001  1.00  0.00    -0.269 OA
BRANCH  24  27
ATOM     27  C   UNL A   1      41.896  25.975  27.306  1.00  0.00     0.039 A 
ATOM     28  C   UNL A   1      42.796  27.004  27.597  1.00  0.00     0.014 A 
ATOM     29  C   UNL A   1      40.826  25.723  28.170  1.00  0.00     0.014 A 
ATOM     30  C   UNL A   1      42.582  27.825  28.706  1.00  0.00     0.010 A 
ATOM     31  C   UNL A   1      40.574  26.586  29.237  1.00  0.00     0.010 A 
ATOM     32  C   UNL A   1      41.446  27.650  29.511  1.00  0.00    -0.014 A 
BRANCH  32  33
ATOM     33  C   UNL A   1      41.143  28.594  30.618  1.00  0.00     0.031 A 
ATOM     34  C   UNL A   1      40.041  29.606  30.487  1.00  0.00     0.074 A 
ATOM     35  C   UNL A   1      41.902  28.570  31.731  1.00  0.00     0.049 A 
ATOM     36  N   UNL A   1      39.667  30.531  31.335  1.00  0.00    -0.248 NA
ATOM     37  C   UNL A   1      39.269  29.593  29.234  1.00  0.00     0.031 C 
ATOM     38  C   UNL A   1      43.031  27.667  31.964  1.00  0.00     0.029 A 
ATOM     39  N   UNL A   1      41.839  29.326  32.875  1.00  0.00    -0.354 N 
ATOM     40  C   UNL A   1      38.626  31.214  30.718  1.00  0.00     0.074 A 
ATOM     41  C   UNL A   1      38.458  30.627  29.405  1.00  0.00     0.031 C 
ATOM     42  C   UNL A   1      43.533  27.897  33.188  1.00  0.00     0.029 A 
ATOM     43  C   UNL A   1      42.787  28.987  33.811  1.00  0.00     0.049 A 
ATOM     44  H   UNL A   1      41.179  30.042  33.012  1.00  0.00     0.167 HD
ATOM     45  C   UNL A   1      37.866  32.220  31.209  1.00  0.00     0.037 A 
ATOM     46  C   UNL A   1      43.030  29.495  35.034  1.00  0.00     0.037 A 
ATOM     47  C   UNL A   1      38.014  32.786  32.525  1.00  0.00     0.049 A 
ATOM     48  C   UNL A   1      42.175  30.614  35.554  1.00  0.00     0.074 A 
ATOM     49  C   UNL A   1      37.249  33.770  33.129  1.00  0.00     0.029 A 
ATOM     50  N   UNL A   1      38.988  32.419  33.440  1.00  0.00    -0.354 N 
ATOM     51  N   UNL A   1      41.164  31.215  34.977  1.00  0.00    -0.248 NA
ATOM     52  C   UNL A   1      42.493  31.124  36.895  1.00  0.00     0.031 C 
ATOM     53  C   UNL A   1      37.785  34.026  34.395  1.00  0.00     0.029 A 
ATOM     54  C   UNL A   1      38.857  33.172  34.596  1.00  0.00     0.049 A 
ATOM     55  H   UNL A   1      39.672  31.727  33.291  1.00  0.00     0.167 HD
ATOM     56  C   UNL A   1      40.716  32.164  35.886  1.00  0.00     0.074 A 
ATOM     57  C   UNL A   1      41.554  32.046  37.061  1.00  0.00     0.031 C 
ATOM     58  C   UNL A   1      39.702  33.053  35.756  1.00  0.00     0.037 A 
BRANCH  45  59
ATOM     59  C   UNL A   1      36.785  32.772  30.327  1.00  0.00     0.057 A 
ATOM     60  C   UNL A   1      35.461  32.330  30.453  1.00  0.00     0.134 A 
ATOM     61  C   UNL A   1      37.067  33.690  29.308  1.00  0.00     0.134 A 
ATOM     62  F   UNL A   1      35.126  31.446  31.405  1.00  0.00    -0.206 F 
ATOM     63  C   UNL A   1      34.460  32.776  29.590  1.00  0.00     0.040 A 
ATOM     64  C   UNL A   1      36.068  34.160  28.454  1.00  0.00     0.040 A 
ATOM     65  F   UNL A   1      38.312  34.159  29.141  1.00  0.00    -0.206 F 
ATOM     66  C   UNL A   1      34.762  33.695  28.587  1.00  0.00     0.006 A 
ENDBRANCH  45  59
BRANCH  46  67
ATOM     67  C   UNL A   1      44.118  28.921  35.863  1.00  0.00     0.057 A 
ATOM     68  C   UNL A   1      43.880  27.880  36.768  1.00  0.00     0.134 A 
ATOM     69  C   UNL A   1      45.422  29.424  35.783  1.00  0.00     0.134 A 
ATOM     70  F   UNL A   1      42.650  27.362  36.894  1.00  0.00    -0.206 F 
ATOM     71  C   UNL A   1      44.897  27.370  37.575  1.00  0.00     0.040 A 
ATOM     72  C   UNL A   1      46.452  28.909  36.569  1.00  0.00     0.040 A 
ATOM     73  F   UNL A   1      45.713  30.409  34.920  1.00  0.00    -0.206 F 
ATOM     74  C   UNL A   1      46.190  27.882  37.474  1.00  0.00     0.006 A 
ENDBRANCH  46  67
BRANCH  58  75
ATOM     75  C   UNL A   1      39.436  33.969  36.913  1.00  0.00     0.057 A 
ATOM     76  C   UNL A   1      39.938  35.277  36.923  1.00  0.00     0.134 A 
ATOM     77  C   UNL A   1      38.731  33.538  38.043  1.00  0.00     0.134 A 
ATOM     78  F   UNL A   1      40.631  35.748  35.875  1.00  0.00    -0.206 F 
ATOM     79  C   UNL A   1      39.756  36.120  38.019  1.00  0.00     0.040 A 
ATOM     80  C   UNL A   1      38.522  34.380  39.137  1.00  0.00     0.040 A 
ATOM     81  F   UNL A   1      38.215  32.300  38.090  1.00  0.00    -0.206 F 
ATOM     82  C   UNL A   1      39.043  35.672  39.130  1.00  0.00     0.006 A 
ENDBRANCH  58  75
ENDBRANCH  32  33
ENDBRANCH  24  27
ENDBRANCH  22  23
ENDBRANCH  21  22
ENDBRANCH   1  21
TORSDOF 13
ENDMDL
