MODEL 1
REMARK VINA RESULT:     -13.5      0.000      0.000
REMARK SMILES CC(C)(C)c1cc(Nc2ccccc2C(=O)NCCCNC(=O)c2ccc(-c3c4nc(c(-c5c(F)cccc5F)c5ccc([nH]5)c(-c5c(F)cccc5F)c5nc(c(-c6c(F)cccc6F)c6ccc3[nH]6)C=C5)C=C4)cc2)cc2c1OCC2(C)C
REMARK SMILES IDX 18 1 17 2 15 3 16 4 14 6 9 7 10 8 11 9 13 10 12 11 8 12 7 14
REMARK SMILES IDX 5 15 6 16 80 17 79 18 81 19 78 20 83 21 82 22 84 23 85 24
REMARK SMILES IDX 2 25 1 26 3 27 4 28 19 29 20 30 21 31 22 32 23 34 24 35
REMARK SMILES IDX 25 36 77 37 26 38 76 39 27 40 28 41 29 42 70 43 30 44 75 45
REMARK SMILES IDX 69 46 71 47 31 48 74 49 68 50 67 51 32 53 58 54 41 55 57 56
REMARK SMILES IDX 42 57 45 58 56 59 72 60 43 61 44 62 55 64 73 65 46 66 33 67
REMARK SMILES IDX 34 68 39 69 35 70 36 71 38 72 40 73 37 74 59 75 60 76 65 77
REMARK SMILES IDX 61 78 62 79 64 80 66 81 63 82 47 83 48 84 53 85 49 86 50 87
REMARK SMILES IDX 52 88 54 89 51 90
REMARK H PARENT 17 5 8 13 21 33 71 52 45 63
REMARK Flexibility Score: inf
ROOT
ATOM      1  C   UNL A   1      42.686  20.875  26.809  1.00  0.00     0.118 C 
ENDROOT
BRANCH   1   2
ATOM      2  N   UNL A   1      41.553  20.129  26.315  1.00  0.00    -0.352 N 
ATOM      3  C   UNL A   1      40.229  20.347  26.058  1.00  0.00     0.253 C 
ATOM      4  O   UNL A   1      39.656  19.308  25.691  1.00  0.00    -0.269 OA
ATOM      5  H   UNL A   1      41.807  19.202  26.101  1.00  0.00     0.163 HD
BRANCH   3   6
ATOM      6  C   UNL A   1      39.410  21.615  26.108  1.00  0.00     0.063 A 
ATOM      7  C   UNL A   1      38.114  21.912  25.647  1.00  0.00     0.051 A 
ATOM      8  C   UNL A   1      37.542  23.182  25.941  1.00  0.00     0.027 A 
ATOM      9  C   UNL A   1      38.268  24.203  26.544  1.00  0.00     0.002 A 
ATOM     10  C   UNL A   1      40.122  22.691  26.709  1.00  0.00     0.016 A 
ATOM     11  C   UNL A   1      39.578  23.963  26.905  1.00  0.00     0.001 A 
BRANCH   7  12
ATOM     12  N   UNL A   1      37.299  21.051  24.890  1.00  0.00    -0.355 N 
ATOM     13  H   UNL A   1      37.738  20.528  24.181  1.00  0.00     0.167 HD
BRANCH  12  14
ATOM     14  C   UNL A   1      35.907  20.872  25.054  1.00  0.00     0.039 A 
ATOM     15  C   UNL A   1      33.923  19.410  24.742  1.00  0.00     0.002 A 
ATOM     16  C   UNL A   1      35.324  19.620  24.761  1.00  0.00     0.034 A 
ATOM     17  C   UNL A   1      33.144  20.510  25.096  1.00  0.00     0.127 A 
ATOM     18  C   UNL A   1      33.700  21.743  25.400  1.00  0.00     0.006 A 
ATOM     19  O   UNL A   1      31.778  20.523  25.167  1.00  0.00    -0.492 OA
ATOM     20  C   UNL A   1      35.065  21.944  25.348  1.00  0.00     0.034 A 
ATOM     21  C   UNL A   1      32.647  22.728  25.774  1.00  0.00     0.028 C 
ATOM     22  C   UNL A   1      31.397  21.886  25.461  1.00  0.00     0.240 C 
ATOM     23  C   UNL A   1      32.746  23.071  27.265  1.00  0.00     0.020 C 
ATOM     24  C   UNL A   1      32.700  24.001  24.927  1.00  0.00     0.020 C 
BRANCH  15  25
ATOM     25  C   UNL A   1      33.333  18.098  24.202  1.00  0.00    -0.009 C 
ATOM     26  C   UNL A   1      34.523  17.187  23.860  1.00  0.00     0.016 C 
ATOM     27  C   UNL A   1      32.471  18.259  22.929  1.00  0.00     0.016 C 
ATOM     28  C   UNL A   1      32.451  17.353  25.231  1.00  0.00     0.016 C 
ENDBRANCH  15  25
ENDBRANCH  12  14
ENDBRANCH   7  12
ENDBRANCH   3   6
ENDBRANCH   1   2
BRANCH   1  29
ATOM     29  C   UNL A   1      43.576  21.352  25.665  1.00  0.00     0.042 C 
BRANCH  29  30
ATOM     30  C   UNL A   1      43.160  22.705  25.090  1.00  0.00     0.118 C 
BRANCH  30  31
ATOM     31  N   UNL A   1      44.300  23.585  24.825  1.00  0.00    -0.352 N 
ATOM     32  C   UNL A   1      44.661  24.836  25.267  1.00  0.00     0.251 C 
ATOM     33  H   UNL A   1      44.948  23.198  24.193  1.00  0.00     0.163 HD
ATOM     34  O   UNL A   1      45.608  25.393  24.710  1.00  0.00    -0.269 OA
BRANCH  32  35
ATOM     35  C   UNL A   1      43.948  25.553  26.353  1.00  0.00     0.039 A 
ATOM     36  C   UNL A   1      44.007  26.935  26.501  1.00  0.00     0.014 A 
ATOM     37  C   UNL A   1      43.150  24.817  27.244  1.00  0.00     0.014 A 
ATOM     38  C   UNL A   1      43.472  27.542  27.635  1.00  0.00     0.010 A 
ATOM     39  C   UNL A   1      42.509  25.445  28.324  1.00  0.00     0.010 A 
ATOM     40  C   UNL A   1      42.716  26.808  28.566  1.00  0.00    -0.014 A 
BRANCH  40  41
ATOM     41  C   UNL A   1      42.131  27.524  29.734  1.00  0.00     0.031 A 
ATOM     42  C   UNL A   1      42.806  27.537  31.079  1.00  0.00     0.074 A 
ATOM     43  C   UNL A   1      41.026  28.270  29.542  1.00  0.00     0.049 A 
ATOM     44  N   UNL A   1      42.572  28.305  32.116  1.00  0.00    -0.248 NA
ATOM     45  C   UNL A   1      43.897  26.580  31.292  1.00  0.00     0.031 C 
ATOM     46  C   UNL A   1      40.266  28.345  28.292  1.00  0.00     0.029 A 
ATOM     47  N   UNL A   1      40.373  29.135  30.382  1.00  0.00    -0.354 N 
ATOM     48  C   UNL A   1      43.524  27.962  33.070  1.00  0.00     0.074 A 
ATOM     49  C   UNL A   1      44.310  26.886  32.512  1.00  0.00     0.031 C 
ATOM     50  C   UNL A   1      39.288  29.252  28.427  1.00  0.00     0.029 A 
ATOM     51  C   UNL A   1      39.315  29.778  29.788  1.00  0.00     0.049 A 
ATOM     52  H   UNL A   1      40.636  29.282  31.319  1.00  0.00     0.167 HD
ATOM     53  C   UNL A   1      43.727  28.486  34.302  1.00  0.00     0.037 A 
ATOM     54  C   UNL A   1      38.450  30.681  30.285  1.00  0.00     0.037 A 
ATOM     55  C   UNL A   1      42.877  29.472  34.912  1.00  0.00     0.049 A 
ATOM     56  C   UNL A   1      38.604  31.134  31.706  1.00  0.00     0.074 A 
ATOM     57  C   UNL A   1      42.972  30.040  36.170  1.00  0.00     0.029 A 
ATOM     58  N   UNL A   1      41.743  30.002  34.319  1.00  0.00    -0.354 N 
ATOM     59  N   UNL A   1      39.553  30.852  32.566  1.00  0.00    -0.248 NA
ATOM     60  C   UNL A   1      37.556  32.019  32.230  1.00  0.00     0.031 C 
ATOM     61  C   UNL A   1      41.858  30.865  36.361  1.00  0.00     0.029 A 
ATOM     62  C   UNL A   1      41.097  30.849  35.203  1.00  0.00     0.049 A 
ATOM     63  H   UNL A   1      41.439  29.805  33.402  1.00  0.00     0.167 HD
ATOM     64  C   UNL A   1      39.221  31.528  33.731  1.00  0.00     0.074 A 
ATOM     65  C   UNL A   1      37.996  32.255  33.458  1.00  0.00     0.031 C 
ATOM     66  C   UNL A   1      39.868  31.544  34.922  1.00  0.00     0.037 A 
BRANCH  53  67
ATOM     67  C   UNL A   1      44.895  27.960  35.087  1.00  0.00     0.057 A 
ATOM     68  C   UNL A   1      44.759  26.842  35.918  1.00  0.00     0.134 A 
ATOM     69  C   UNL A   1      46.152  28.576  35.028  1.00  0.00     0.134 A 
ATOM     70  F   UNL A   1      43.584  26.205  36.017  1.00  0.00    -0.206 F 
ATOM     71  C   UNL A   1      45.833  26.355  36.666  1.00  0.00     0.040 A 
ATOM     72  C   UNL A   1      47.238  28.087  35.758  1.00  0.00     0.040 A 
ATOM     73  F   UNL A   1      46.351  29.645  34.242  1.00  0.00    -0.206 F 
ATOM     74  C   UNL A   1      47.079  26.977  36.584  1.00  0.00     0.006 A 
ENDBRANCH  53  67
BRANCH  54  75
ATOM     75  C   UNL A   1      37.343  31.184  29.436  1.00  0.00     0.057 A 
ATOM     76  C   UNL A   1      37.399  32.458  28.857  1.00  0.00     0.134 A 
ATOM     77  C   UNL A   1      36.205  30.410  29.187  1.00  0.00     0.134 A 
ATOM     78  F   UNL A   1      38.465  33.248  29.060  1.00  0.00    -0.206 F 
ATOM     79  C   UNL A   1      36.356  32.954  28.077  1.00  0.00     0.040 A 
ATOM     80  C   UNL A   1      35.165  30.883  28.386  1.00  0.00     0.040 A 
ATOM     81  F   UNL A   1      36.104  29.174  29.698  1.00  0.00    -0.206 F 
ATOM     82  C   UNL A   1      35.235  32.161  27.835  1.00  0.00     0.006 A 
ENDBRANCH  54  75
BRANCH  66  83
ATOM     83  C   UNL A   1      39.254  32.370  36.012  1.00  0.00     0.057 A 
ATOM     84  C   UNL A   1      38.280  31.829  36.858  1.00  0.00     0.134 A 
ATOM     85  C   UNL A   1      39.628  33.704  36.219  1.00  0.00     0.134 A 
ATOM     86  F   UNL A   1      37.874  30.560  36.707  1.00  0.00    -0.206 F 
ATOM     87  C   UNL A   1      37.699  32.586  37.876  1.00  0.00     0.040 A 
ATOM     88  C   UNL A   1      39.073  34.464  37.250  1.00  0.00     0.040 A 
ATOM     89  F   UNL A   1      40.568  34.275  35.451  1.00  0.00    -0.206 F 
ATOM     90  C   UNL A   1      38.102  33.905  38.079  1.00  0.00     0.006 A 
ENDBRANCH  66  83
ENDBRANCH  40  41
ENDBRANCH  32  35
ENDBRANCH  30  31
ENDBRANCH  29  30
ENDBRANCH   1  29
TORSDOF 13
ENDMDL
MODEL 2
REMARK VINA RESULT:     -13.3      4.207      9.084
REMARK SMILES CC(C)(C)c1cc(Nc2ccccc2C(=O)NCCCNC(=O)c2ccc(-c3c4nc(c(-c5c(F)cccc5F)c5ccc([nH]5)c(-c5c(F)cccc5F)c5nc(c(-c6c(F)cccc6F)c6ccc3[nH]6)C=C5)C=C4)cc2)cc2c1OCC2(C)C
REMARK SMILES IDX 18 1 17 2 15 3 16 4 14 6 9 7 10 8 11 9 13 10 12 11 8 12 7 14
REMARK SMILES IDX 5 15 6 16 80 17 79 18 81 19 78 20 83 21 82 22 84 23 85 24
REMARK SMILES IDX 2 25 1 26 3 27 4 28 19 29 20 30 21 31 22 32 23 34 24 35
REMARK SMILES IDX 25 36 77 37 26 38 76 39 27 40 28 41 29 42 70 43 30 44 75 45
REMARK SMILES IDX 69 46 71 47 31 48 74 49 68 50 67 51 32 53 58 54 41 55 57 56
REMARK SMILES IDX 42 57 45 58 56 59 72 60 43 61 44 62 55 64 73 65 46 66 33 67
REMARK SMILES IDX 34 68 39 69 35 70 36 71 38 72 40 73 37 74 59 75 60 76 65 77
REMARK SMILES IDX 61 78 62 79 64 80 66 81 63 82 47 83 48 84 53 85 49 86 50 87
REMARK SMILES IDX 52 88 54 89 51 90
REMARK H PARENT 17 5 8 13 21 33 71 52 45 63
REMARK Flexibility Score: inf
ROOT
ATOM      1  C   UNL A   1      31.783  28.251  26.938  1.00  0.00     0.118 C 
ENDROOT
BRANCH   1   2
ATOM      2  N   UNL A   1      30.940  27.079  26.968  1.00  0.00    -0.352 N 
ATOM      3  C   UNL A   1      30.578  26.068  26.123  1.00  0.00     0.253 C 
ATOM      4  O   UNL A   1      29.735  25.318  26.640  1.00  0.00    -0.269 OA
ATOM      5  H   UNL A   1      30.503  26.980  27.844  1.00  0.00     0.163 HD
BRANCH   3   6
ATOM      6  C   UNL A   1      31.067  25.718  24.737  1.00  0.00     0.063 A 
ATOM      7  C   UNL A   1      31.329  24.480  24.120  1.00  0.00     0.051 A 
ATOM      8  C   UNL A   1      31.673  24.447  22.740  1.00  0.00     0.027 A 
ATOM      9  C   UNL A   1      31.906  25.602  22.003  1.00  0.00     0.002 A 
ATOM     10  C   UNL A   1      31.328  26.876  23.952  1.00  0.00     0.016 A 
ATOM     11  C   UNL A   1      31.758  26.826  22.622  1.00  0.00     0.001 A 
BRANCH   7  12
ATOM     12  N   UNL A   1      31.291  23.226  24.758  1.00  0.00    -0.355 N 
ATOM     13  H   UNL A   1      30.440  22.961  25.173  1.00  0.00     0.167 HD
BRANCH  12  14
ATOM     14  C   UNL A   1      32.368  22.316  24.856  1.00  0.00     0.039 A 
ATOM     15  C   UNL A   1      34.826  21.970  24.951  1.00  0.00     0.002 A 
ATOM     16  C   UNL A   1      33.683  22.805  25.011  1.00  0.00     0.034 A 
ATOM     17  C   UNL A   1      34.569  20.609  24.791  1.00  0.00     0.127 A 
ATOM     18  C   UNL A   1      33.284  20.110  24.652  1.00  0.00     0.006 A 
ATOM     19  O   UNL A   1      35.519  19.626  24.732  1.00  0.00    -0.492 OA
ATOM     20  C   UNL A   1      32.188  20.950  24.646  1.00  0.00     0.034 A 
ATOM     21  C   UNL A   1      33.296  18.625  24.531  1.00  0.00     0.028 C 
ATOM     22  C   UNL A   1      34.816  18.394  24.452  1.00  0.00     0.240 C 
ATOM     23  C   UNL A   1      32.684  17.985  25.782  1.00  0.00     0.020 C 
ATOM     24  C   UNL A   1      32.581  18.129  23.271  1.00  0.00     0.020 C 
BRANCH  15  25
ATOM     25  C   UNL A   1      36.238  22.573  24.900  1.00  0.00    -0.009 C 
ATOM     26  C   UNL A   1      36.629  22.657  23.415  1.00  0.00     0.016 C 
ATOM     27  C   UNL A   1      37.316  21.745  25.635  1.00  0.00     0.016 C 
ATOM     28  C   UNL A   1      36.314  24.003  25.487  1.00  0.00     0.016 C 
ENDBRANCH  15  25
ENDBRANCH  12  14
ENDBRANCH   7  12
ENDBRANCH   3   6
ENDBRANCH   1   2
BRANCH   1  29
ATOM     29  C   UNL A   1      33.259  27.869  26.884  1.00  0.00     0.042 C 
BRANCH  29  30
ATOM     30  C   UNL A   1      34.168  29.004  26.414  1.00  0.00     0.118 C 
BRANCH  30  31
ATOM     31  N   UNL A   1      34.161  30.152  27.324  1.00  0.00    -0.352 N 
ATOM     32  C   UNL A   1      35.037  30.619  28.275  1.00  0.00     0.251 C 
ATOM     33  H   UNL A   1      33.355  30.710  27.235  1.00  0.00     0.163 HD
ATOM     34  O   UNL A   1      34.654  31.529  29.013  1.00  0.00    -0.269 OA
BRANCH  32  35
ATOM     35  C   UNL A   1      36.398  30.061  28.473  1.00  0.00     0.039 A 
ATOM     36  C   UNL A   1      36.784  29.434  29.654  1.00  0.00     0.014 A 
ATOM     37  C   UNL A   1      37.321  30.130  27.417  1.00  0.00     0.014 A 
ATOM     38  C   UNL A   1      38.117  29.089  29.860  1.00  0.00     0.010 A 
ATOM     39  C   UNL A   1      38.639  29.672  27.583  1.00  0.00     0.010 A 
ATOM     40  C   UNL A   1      39.068  29.204  28.830  1.00  0.00    -0.014 A 
BRANCH  40  41
ATOM     41  C   UNL A   1      40.467  28.774  29.100  1.00  0.00     0.031 A 
ATOM     42  C   UNL A   1      40.963  27.400  28.736  1.00  0.00     0.074 A 
ATOM     43  C   UNL A   1      41.338  29.684  29.581  1.00  0.00     0.049 A 
ATOM     44  N   UNL A   1      42.194  26.953  28.669  1.00  0.00    -0.248 NA
ATOM     45  C   UNL A   1      39.953  26.395  28.386  1.00  0.00     0.031 C 
ATOM     46  C   UNL A   1      40.994  31.050  29.981  1.00  0.00     0.029 A 
ATOM     47  N   UNL A   1      42.693  29.610  29.778  1.00  0.00    -0.354 N 
ATOM     48  C   UNL A   1      42.102  25.643  28.211  1.00  0.00     0.074 A 
ATOM     49  C   UNL A   1      40.696  25.348  28.061  1.00  0.00     0.031 C 
ATOM     50  C   UNL A   1      42.114  31.704  30.318  1.00  0.00     0.029 A 
ATOM     51  C   UNL A   1      43.245  30.788  30.215  1.00  0.00     0.049 A 
ATOM     52  H   UNL A   1      43.219  28.792  29.620  1.00  0.00     0.167 HD
ATOM     53  C   UNL A   1      43.093  24.761  27.944  1.00  0.00     0.037 A 
ATOM     54  C   UNL A   1      44.519  31.097  30.515  1.00  0.00     0.037 A 
ATOM     55  C   UNL A   1      44.486  25.004  28.203  1.00  0.00     0.049 A 
ATOM     56  C   UNL A   1      45.581  30.051  30.355  1.00  0.00     0.074 A 
ATOM     57  C   UNL A   1      45.566  24.161  28.005  1.00  0.00     0.029 A 
ATOM     58  N   UNL A   1      44.985  26.168  28.765  1.00  0.00    -0.354 N 
ATOM     59  N   UNL A   1      45.484  28.843  29.852  1.00  0.00    -0.248 NA
ATOM     60  C   UNL A   1      46.928  30.406  30.821  1.00  0.00     0.031 C 
ATOM     61  C   UNL A   1      46.709  24.793  28.508  1.00  0.00     0.029 A 
ATOM     62  C   UNL A   1      46.349  26.047  28.972  1.00  0.00     0.049 A 
ATOM     63  H   UNL A   1      44.449  26.965  28.986  1.00  0.00     0.167 HD
ATOM     64  C   UNL A   1      46.757  28.296  29.935  1.00  0.00     0.074 A 
ATOM     65  C   UNL A   1      47.613  29.313  30.513  1.00  0.00     0.031 C 
ATOM     66  C   UNL A   1      47.179  27.061  29.570  1.00  0.00     0.037 A 
BRANCH  53  67
ATOM     67  C   UNL A   1      42.690  23.428  27.381  1.00  0.00     0.057 A 
ATOM     68  C   UNL A   1      42.299  22.379  28.222  1.00  0.00     0.134 A 
ATOM     69  C   UNL A   1      42.706  23.181  26.001  1.00  0.00     0.134 A 
ATOM     70  F   UNL A   1      42.259  22.551  29.551  1.00  0.00    -0.206 F 
ATOM     71  C   UNL A   1      41.939  21.130  27.711  1.00  0.00     0.040 A 
ATOM     72  C   UNL A   1      42.332  21.941  25.478  1.00  0.00     0.040 A 
ATOM     73  F   UNL A   1      43.062  24.148  25.141  1.00  0.00    -0.206 F 
ATOM     74  C   UNL A   1      41.952  20.910  26.334  1.00  0.00     0.006 A 
ENDBRANCH  53  67
BRANCH  54  75
ATOM     75  C   UNL A   1      44.847  32.449  31.031  1.00  0.00     0.057 A 
ATOM     76  C   UNL A   1      45.246  33.475  30.164  1.00  0.00     0.134 A 
ATOM     77  C   UNL A   1      44.774  32.746  32.395  1.00  0.00     0.134 A 
ATOM     78  F   UNL A   1      45.336  33.250  28.844  1.00  0.00    -0.206 F 
ATOM     79  C   UNL A   1      45.580  34.743  30.637  1.00  0.00     0.040 A 
ATOM     80  C   UNL A   1      45.080  34.019  32.879  1.00  0.00     0.040 A 
ATOM     81  F   UNL A   1      44.378  31.811  33.270  1.00  0.00    -0.206 F 
ATOM     82  C   UNL A   1      45.492  35.019  32.000  1.00  0.00     0.006 A 
ENDBRANCH  54  75
BRANCH  66  83
ATOM     83  C   UNL A   1      48.628  26.751  29.793  1.00  0.00     0.057 A 
ATOM     84  C   UNL A   1      49.590  27.098  28.837  1.00  0.00     0.134 A 
ATOM     85  C   UNL A   1      49.069  26.104  30.954  1.00  0.00     0.134 A 
ATOM     86  F   UNL A   1      49.232  27.713  27.701  1.00  0.00    -0.206 F 
ATOM     87  C   UNL A   1      50.943  26.815  29.030  1.00  0.00     0.040 A 
ATOM     88  C   UNL A   1      50.422  25.838  31.171  1.00  0.00     0.040 A 
ATOM     89  F   UNL A   1      48.197  25.760  31.915  1.00  0.00    -0.206 F 
ATOM     90  C   UNL A   1      51.362  26.190  30.204  1.00  0.00     0.006 A 
ENDBRANCH  66  83
ENDBRANCH  40  41
ENDBRANCH  32  35
ENDBRANCH  30  31
ENDBRANCH  29  30
ENDBRANCH   1  29
TORSDOF 13
ENDMDL
MODEL 3
REMARK VINA RESULT:     -13.2      3.213      8.141
REMARK SMILES CC(C)(C)c1cc(Nc2ccccc2C(=O)NCCCNC(=O)c2ccc(-c3c4nc(c(-c5c(F)cccc5F)c5ccc([nH]5)c(-c5c(F)cccc5F)c5nc(c(-c6c(F)cccc6F)c6ccc3[nH]6)C=C5)C=C4)cc2)cc2c1OCC2(C)C
REMARK SMILES IDX 18 1 17 2 15 3 16 4 14 6 9 7 10 8 11 9 13 10 12 11 8 12 7 14
REMARK SMILES IDX 5 15 6 16 80 17 79 18 81 19 78 20 83 21 82 22 84 23 85 24
REMARK SMILES IDX 2 25 1 26 3 27 4 28 19 29 20 30 21 31 22 32 23 34 24 35
REMARK SMILES IDX 25 36 77 37 26 38 76 39 27 40 28 41 29 42 70 43 30 44 75 45
REMARK SMILES IDX 69 46 71 47 31 48 74 49 68 50 67 51 32 53 58 54 41 55 57 56
REMARK SMILES IDX 42 57 45 58 56 59 72 60 43 61 44 62 55 64 73 65 46 66 33 67
REMARK SMILES IDX 34 68 39 69 35 70 36 71 38 72 40 73 37 74 59 75 60 76 65 77
REMARK SMILES IDX 61 78 62 79 64 80 66 81 63 82 47 83 48 84 53 85 49 86 50 87
REMARK SMILES IDX 52 88 54 89 51 90
REMARK H PARENT 17 5 8 13 21 33 71 52 45 63
REMARK Flexibility Score: inf
ROOT
ATOM      1  C   UNL A   1      31.753  28.225  26.903  1.00  0.00     0.118 C 
ENDROOT
BRANCH   1   2
ATOM      2  N   UNL A   1      30.935  27.036  26.962  1.00  0.00    -0.352 N 
ATOM      3  C   UNL A   1      30.582  26.006  26.137  1.00  0.00     0.253 C 
ATOM      4  O   UNL A   1      29.762  25.246  26.676  1.00  0.00    -0.269 OA
ATOM      5  H   UNL A   1      30.514  26.940  27.846  1.00  0.00     0.163 HD
BRANCH   3   6
ATOM      6  C   UNL A   1      31.056  25.647  24.748  1.00  0.00     0.063 A 
ATOM      7  C   UNL A   1      31.315  24.406  24.137  1.00  0.00     0.051 A 
ATOM      8  C   UNL A   1      31.644  24.363  22.754  1.00  0.00     0.027 A 
ATOM      9  C   UNL A   1      31.866  25.514  22.006  1.00  0.00     0.002 A 
ATOM     10  C   UNL A   1      31.306  26.800  23.951  1.00  0.00     0.016 A 
ATOM     11  C   UNL A   1      31.722  26.742  22.618  1.00  0.00     0.001 A 
BRANCH   7  12
ATOM     12  N   UNL A   1      31.287  23.157  24.784  1.00  0.00    -0.355 N 
ATOM     13  H   UNL A   1      30.444  22.896  25.218  1.00  0.00     0.167 HD
BRANCH  12  14
ATOM     14  C   UNL A   1      32.364  22.245  24.867  1.00  0.00     0.039 A 
ATOM     15  C   UNL A   1      34.823  21.893  24.907  1.00  0.00     0.002 A 
ATOM     16  C   UNL A   1      33.684  22.732  24.985  1.00  0.00     0.034 A 
ATOM     17  C   UNL A   1      34.559  20.531  24.769  1.00  0.00     0.127 A 
ATOM     18  C   UNL A   1      33.270  20.034  24.667  1.00  0.00     0.006 A 
ATOM     19  O   UNL A   1      35.505  19.545  24.699  1.00  0.00    -0.492 OA
ATOM     20  C   UNL A   1      32.176  20.877  24.678  1.00  0.00     0.034 A 
ATOM     21  C   UNL A   1      33.275  18.548  24.563  1.00  0.00     0.028 C 
ATOM     22  C   UNL A   1      34.792  18.312  24.451  1.00  0.00     0.240 C 
ATOM     23  C   UNL A   1      32.692  17.924  25.837  1.00  0.00     0.020 C 
ATOM     24  C   UNL A   1      32.529  18.039  23.327  1.00  0.00     0.020 C 
BRANCH  15  25
ATOM     25  C   UNL A   1      36.235  22.492  24.815  1.00  0.00    -0.009 C 
ATOM     26  C   UNL A   1      36.229  23.769  25.670  1.00  0.00     0.016 C 
ATOM     27  C   UNL A   1      36.676  22.874  23.384  1.00  0.00     0.016 C 
ATOM     28  C   UNL A   1      37.334  21.558  25.372  1.00  0.00     0.016 C 
ENDBRANCH  15  25
ENDBRANCH  12  14
ENDBRANCH   7  12
ENDBRANCH   3   6
ENDBRANCH   1   2
BRANCH   1  29
ATOM     29  C   UNL A   1      33.236  27.872  26.827  1.00  0.00     0.042 C 
BRANCH  29  30
ATOM     30  C   UNL A   1      34.088  28.954  26.164  1.00  0.00     0.118 C 
BRANCH  30  31
ATOM     31  N   UNL A   1      33.860  30.285  26.732  1.00  0.00    -0.352 N 
ATOM     32  C   UNL A   1      34.509  31.040  27.681  1.00  0.00     0.251 C 
ATOM     33  H   UNL A   1      33.072  30.736  26.353  1.00  0.00     0.163 HD
ATOM     34  O   UNL A   1      33.956  32.067  28.076  1.00  0.00    -0.269 OA
BRANCH  32  35
ATOM     35  C   UNL A   1      35.817  30.659  28.270  1.00  0.00     0.039 A 
ATOM     36  C   UNL A   1      36.993  31.343  27.983  1.00  0.00     0.014 A 
ATOM     37  C   UNL A   1      35.866  29.592  29.183  1.00  0.00     0.014 A 
ATOM     38  C   UNL A   1      38.219  30.841  28.415  1.00  0.00     0.010 A 
ATOM     39  C   UNL A   1      37.091  29.157  29.715  1.00  0.00     0.010 A 
ATOM     40  C   UNL A   1      38.289  29.739  29.286  1.00  0.00    -0.014 A 
BRANCH  40  41
ATOM     41  C   UNL A   1      39.628  29.280  29.748  1.00  0.00     0.031 A 
ATOM     42  C   UNL A   1      40.286  29.852  30.975  1.00  0.00     0.074 A 
ATOM     43  C   UNL A   1      40.209  28.246  29.108  1.00  0.00     0.049 A 
ATOM     44  N   UNL A   1      41.314  29.399  31.652  1.00  0.00    -0.248 NA
ATOM     45  C   UNL A   1      39.713  31.082  31.531  1.00  0.00     0.031 C 
ATOM     46  C   UNL A   1      39.686  27.599  27.903  1.00  0.00     0.029 A 
ATOM     47  N   UNL A   1      41.343  27.533  29.404  1.00  0.00    -0.354 N 
ATOM     48  C   UNL A   1      41.463  30.253  32.739  1.00  0.00     0.074 A 
ATOM     49  C   UNL A   1      40.454  31.279  32.611  1.00  0.00     0.031 C 
ATOM     50  C   UNL A   1      40.461  26.550  27.596  1.00  0.00     0.029 A 
ATOM     51  C   UNL A   1      41.567  26.486  28.545  1.00  0.00     0.049 A 
ATOM     52  H   UNL A   1      41.938  27.751  30.158  1.00  0.00     0.167 HD
ATOM     53  C   UNL A   1      42.361  30.198  33.752  1.00  0.00     0.037 A 
ATOM     54  C   UNL A   1      42.561  25.579  28.514  1.00  0.00     0.037 A 
ATOM     55  C   UNL A   1      43.442  29.252  33.824  1.00  0.00     0.049 A 
ATOM     56  C   UNL A   1      43.631  25.633  29.563  1.00  0.00     0.074 A 
ATOM     57  C   UNL A   1      44.429  29.136  34.787  1.00  0.00     0.029 A 
ATOM     58  N   UNL A   1      43.704  28.288  32.864  1.00  0.00    -0.354 N 
ATOM     59  N   UNL A   1      43.714  26.402  30.622  1.00  0.00    -0.248 NA
ATOM     60  C   UNL A   1      44.756  24.702  29.401  1.00  0.00     0.031 C 
ATOM     61  C   UNL A   1      45.325  28.143  34.375  1.00  0.00     0.029 A 
ATOM     62  C   UNL A   1      44.867  27.608  33.182  1.00  0.00     0.049 A 
ATOM     63  H   UNL A   1      43.146  28.113  32.072  1.00  0.00     0.167 HD
ATOM     64  C   UNL A   1      44.895  26.045  31.257  1.00  0.00     0.074 A 
ATOM     65  C   UNL A   1      45.482  24.973  30.477  1.00  0.00     0.031 C 
ATOM     66  C   UNL A   1      45.447  26.560  32.382  1.00  0.00     0.037 A 
BRANCH  53  67
ATOM     67  C   UNL A   1      42.231  31.225  34.839  1.00  0.00     0.057 A 
ATOM     68  C   UNL A   1      41.402  31.003  35.945  1.00  0.00     0.134 A 
ATOM     69  C   UNL A   1      42.920  32.444  34.779  1.00  0.00     0.134 A 
ATOM     70  F   UNL A   1      40.718  29.857  36.064  1.00  0.00    -0.206 F 
ATOM     71  C   UNL A   1      41.260  31.959  36.953  1.00  0.00     0.040 A 
ATOM     72  C   UNL A   1      42.799  33.400  35.790  1.00  0.00     0.040 A 
ATOM     73  F   UNL A   1      43.738  32.714  33.751  1.00  0.00    -0.206 F 
ATOM     74  C   UNL A   1      41.963  33.160  36.879  1.00  0.00     0.006 A 
ENDBRANCH  53  67
BRANCH  54  75
ATOM     75  C   UNL A   1      42.602  24.570  27.428  1.00  0.00     0.057 A 
ATOM     76  C   UNL A   1      42.085  23.282  27.621  1.00  0.00     0.134 A 
ATOM     77  C   UNL A   1      43.159  24.863  26.180  1.00  0.00     0.134 A 
ATOM     78  F   UNL A   1      41.538  22.940  28.798  1.00  0.00    -0.206 F 
ATOM     79  C   UNL A   1      42.138  22.315  26.618  1.00  0.00     0.040 A 
ATOM     80  C   UNL A   1      43.195  23.913  25.158  1.00  0.00     0.040 A 
ATOM     81  F   UNL A   1      43.651  26.085  25.930  1.00  0.00    -0.206 F 
ATOM     82  C   UNL A   1      42.691  22.633  25.379  1.00  0.00     0.006 A 
ENDBRANCH  54  75
BRANCH  66  83
ATOM     83  C   UNL A   1      46.752  25.969  32.824  1.00  0.00     0.057 A 
ATOM     84  C   UNL A   1      46.784  24.899  33.725  1.00  0.00     0.134 A 
ATOM     85  C   UNL A   1      47.976  26.465  32.359  1.00  0.00     0.134 A 
ATOM     86  F   UNL A   1      45.646  24.382  34.212  1.00  0.00    -0.206 F 
ATOM     87  C   UNL A   1      47.991  24.338  34.146  1.00  0.00     0.040 A 
ATOM     88  C   UNL A   1      49.189  25.898  32.754  1.00  0.00     0.040 A 
ATOM     89  F   UNL A   1      48.011  27.480  31.482  1.00  0.00    -0.206 F 
ATOM     90  C   UNL A   1      49.197  24.833  33.653  1.00  0.00     0.006 A 
ENDBRANCH  66  83
ENDBRANCH  40  41
ENDBRANCH  32  35
ENDBRANCH  30  31
ENDBRANCH  29  30
ENDBRANCH   1  29
TORSDOF 13
ENDMDL
