MODEL 1
REMARK VINA RESULT:     -11.9      0.000      0.000
REMARK SMILES CCOC(=O)c1c(NC(=O)[C@@H]2[C@@H]3CC[C@@H](C3)[C@@H]2C(=O)NCCCNC(=O)c2ccc(-c3c4nc(c(-c5c(F)cccc5F)c5ccc([nH]5)c(-c5c(F)cccc5F)c5nc(c(-c6c(F)cccc6F)c6ccc3[nH]6)C=C5)C=C4)cc2)sc2c1CCCC2
REMARK SMILES IDX 18 1 19 2 20 3 17 5 11 6 12 7 13 8 16 9 15 10 14 11 9 12
REMARK SMILES IDX 8 13 10 15 7 16 6 17 83 18 81 19 82 20 84 21 87 22 85 23
REMARK SMILES IDX 86 24 4 25 5 26 3 27 2 28 1 29 21 30 22 31 23 32 24 33 25 34
REMARK SMILES IDX 26 36 27 37 28 38 80 39 29 40 79 41 30 42 31 43 32 44 73 45
REMARK SMILES IDX 33 46 78 47 72 48 74 49 34 50 77 51 71 52 70 53 35 55 61 56
REMARK SMILES IDX 44 57 60 58 45 59 48 60 59 61 75 62 46 63 47 64 58 66 76 67
REMARK SMILES IDX 49 68 36 69 37 70 42 71 38 72 39 73 41 74 43 75 40 76 62 77
REMARK SMILES IDX 63 78 68 79 64 80 65 81 67 82 69 83 66 84 50 85 51 86 56 87
REMARK SMILES IDX 52 88 53 89 55 90 57 91 54 92
REMARK H PARENT 20 4 8 14 24 35 74 54 48 65
REMARK Flexibility Score: inf
ROOT
ATOM      1  C   UNL A   1      32.192  24.559  26.604  1.00  0.00     0.224 C 
ATOM      2  O   UNL A   1      31.614  23.670  27.247  1.00  0.00    -0.275 OA
ATOM      3  N   UNL A   1      31.654  25.785  26.713  1.00  0.00    -0.356 N 
ATOM      4  H   UNL A   1      30.840  25.818  27.267  1.00  0.00     0.163 HD
ENDROOT
BRANCH   1   5
ATOM      5  C   UNL A   1      33.432  24.185  25.801  1.00  0.00     0.094 C 
ATOM      6  C   UNL A   1      33.312  23.611  24.374  1.00  0.00     0.094 C 
ATOM      7  C   UNL A   1      34.527  22.654  24.308  1.00  0.00     0.002 C 
ATOM      8  C   UNL A   1      34.352  21.435  25.230  1.00  0.00     0.005 C 
ATOM      9  C   UNL A   1      35.572  23.469  25.087  1.00  0.00     0.009 C 
ATOM     10  C   UNL A   1      34.710  23.517  26.371  1.00  0.00     0.002 C 
ATOM     11  C   UNL A   1      34.631  22.013  26.621  1.00  0.00     0.005 C 
BRANCH   6  12
ATOM     12  C   UNL A   1      32.019  23.043  23.854  1.00  0.00     0.229 C 
ATOM     13  N   UNL A   1      31.049  23.826  23.323  1.00  0.00    -0.317 N 
ATOM     14  H   UNL A   1      30.282  23.297  23.006  1.00  0.00     0.170 HD
ATOM     15  O   UNL A   1      31.780  21.833  23.848  1.00  0.00    -0.274 OA
BRANCH  13  16
ATOM     16  C   UNL A   1      30.864  25.171  23.118  1.00  0.00     0.110 A 
ATOM     17  C   UNL A   1      31.464  26.277  22.536  1.00  0.00     0.098 A 
ATOM     18  C   UNL A   1      30.590  27.432  22.617  1.00  0.00    -0.017 A 
ATOM     19  S   UNL A   1      29.342  25.571  23.826  1.00  0.00    -0.122 S 
ATOM     20  C   UNL A   1      29.408  27.159  23.266  1.00  0.00     0.011 A 
ATOM     21  C   UNL A   1      30.880  28.790  22.038  1.00  0.00     0.038 C 
ATOM     22  C   UNL A   1      28.300  28.137  23.502  1.00  0.00     0.047 C 
ATOM     23  C   UNL A   1      29.927  29.860  22.588  1.00  0.00     0.005 C 
ATOM     24  C   UNL A   1      28.474  29.367  22.596  1.00  0.00     0.006 C 
BRANCH  17  25
ATOM     25  C   UNL A   1      32.745  26.403  21.859  1.00  0.00     0.341 C 
ATOM     26  O   UNL A   1      32.856  26.259  20.648  1.00  0.00    -0.246 OA
BRANCH  25  27
ATOM     27  O   UNL A   1      33.735  26.863  22.679  1.00  0.00    -0.462 OA
BRANCH  27  28
ATOM     28  C   UNL A   1      34.209  28.188  22.381  1.00  0.00     0.230 C 
ATOM     29  C   UNL A   1      34.031  29.079  23.594  1.00  0.00     0.049 C 
ENDBRANCH  27  28
ENDBRANCH  25  27
ENDBRANCH  17  25
ENDBRANCH  13  16
ENDBRANCH   6  12
ENDBRANCH   1   5
BRANCH   3  30
ATOM     30  C   UNL A   1      32.046  27.064  26.173  1.00  0.00     0.117 C 
BRANCH  30  31
ATOM     31  C   UNL A   1      32.281  28.056  27.298  1.00  0.00     0.042 C 
BRANCH  31  32
ATOM     32  C   UNL A   1      33.695  28.603  27.253  1.00  0.00     0.118 C 
BRANCH  32  33
ATOM     33  N   UNL A   1      33.708  30.026  27.567  1.00  0.00    -0.352 N 
ATOM     34  C   UNL A   1      34.640  30.751  28.269  1.00  0.00     0.251 C 
ATOM     35  H   UNL A   1      32.941  30.542  27.226  1.00  0.00     0.163 HD
ATOM     36  O   UNL A   1      34.345  31.851  28.729  1.00  0.00    -0.269 OA
BRANCH  34  37
ATOM     37  C   UNL A   1      35.999  30.206  28.474  1.00  0.00     0.039 A 
ATOM     38  C   UNL A   1      36.340  29.639  29.705  1.00  0.00     0.014 A 
ATOM     39  C   UNL A   1      36.957  30.304  27.463  1.00  0.00     0.014 A 
ATOM     40  C   UNL A   1      37.631  29.143  29.906  1.00  0.00     0.010 A 
ATOM     41  C   UNL A   1      38.196  29.704  27.619  1.00  0.00     0.010 A 
ATOM     42  C   UNL A   1      38.563  29.158  28.857  1.00  0.00    -0.014 A 
BRANCH  42  43
ATOM     43  C   UNL A   1      39.966  28.713  29.037  1.00  0.00     0.031 A 
ATOM     44  C   UNL A   1      40.972  29.685  29.600  1.00  0.00     0.074 A 
ATOM     45  C   UNL A   1      40.354  27.494  28.622  1.00  0.00     0.049 A 
ATOM     46  N   UNL A   1      42.274  29.585  29.669  1.00  0.00    -0.248 NA
ATOM     47  C   UNL A   1      40.443  30.967  30.100  1.00  0.00     0.031 C 
ATOM     48  C   UNL A   1      39.486  26.485  28.012  1.00  0.00     0.029 A 
ATOM     49  N   UNL A   1      41.592  26.905  28.635  1.00  0.00    -0.354 N 
ATOM     50  C   UNL A   1      42.717  30.804  30.172  1.00  0.00     0.074 A 
ATOM     51  C   UNL A   1      41.554  31.645  30.336  1.00  0.00     0.031 C 
ATOM     52  C   UNL A   1      40.215  25.394  27.726  1.00  0.00     0.029 A 
ATOM     53  C   UNL A   1      41.604  25.639  28.101  1.00  0.00     0.049 A 
ATOM     54  H   UNL A   1      42.395  27.346  28.993  1.00  0.00     0.167 HD
ATOM     55  C   UNL A   1      43.976  31.179  30.497  1.00  0.00     0.037 A 
ATOM     56  C   UNL A   1      42.626  24.782  27.929  1.00  0.00     0.037 A 
ATOM     57  C   UNL A   1      45.117  30.311  30.402  1.00  0.00     0.049 A 
ATOM     58  C   UNL A   1      44.004  25.190  28.373  1.00  0.00     0.074 A 
ATOM     59  C   UNL A   1      46.429  30.565  30.759  1.00  0.00     0.029 A 
ATOM     60  N   UNL A   1      45.070  29.005  29.937  1.00  0.00    -0.354 N 
ATOM     61  N   UNL A   1      44.405  26.333  28.872  1.00  0.00    -0.248 NA
ATOM     62  C   UNL A   1      45.068  24.186  28.239  1.00  0.00     0.031 C 
ATOM     63  C   UNL A   1      47.179  29.412  30.502  1.00  0.00     0.029 A 
ATOM     64  C   UNL A   1      46.328  28.436  30.009  1.00  0.00     0.049 A 
ATOM     65  H   UNL A   1      44.262  28.552  29.606  1.00  0.00     0.167 HD
ATOM     66  C   UNL A   1      45.760  26.182  29.130  1.00  0.00     0.074 A 
ATOM     67  C   UNL A   1      46.110  24.829  28.747  1.00  0.00     0.031 C 
ATOM     68  C   UNL A   1      46.640  27.081  29.635  1.00  0.00     0.037 A 
BRANCH  55  69
ATOM     69  C   UNL A   1      44.169  32.577  31.006  1.00  0.00     0.057 A 
ATOM     70  C   UNL A   1      44.084  32.881  32.373  1.00  0.00     0.134 A 
ATOM     71  C   UNL A   1      44.448  33.629  30.127  1.00  0.00     0.134 A 
ATOM     72  F   UNL A   1      43.801  31.920  33.265  1.00  0.00    -0.206 F 
ATOM     73  C   UNL A   1      44.237  34.185  32.841  1.00  0.00     0.040 A 
ATOM     74  C   UNL A   1      44.631  34.935  30.587  1.00  0.00     0.040 A 
ATOM     75  F   UNL A   1      44.547  33.409  28.808  1.00  0.00    -0.206 F 
ATOM     76  C   UNL A   1      44.517  35.217  31.948  1.00  0.00     0.006 A 
ENDBRANCH  55  69
BRANCH  56  77
ATOM     77  C   UNL A   1      42.379  23.442  27.345  1.00  0.00     0.057 A 
ATOM     78  C   UNL A   1      42.014  22.361  28.157  1.00  0.00     0.134 A 
ATOM     79  C   UNL A   1      42.493  23.208  25.971  1.00  0.00     0.134 A 
ATOM     80  F   UNL A   1      41.904  22.522  29.484  1.00  0.00    -0.206 F 
ATOM     81  C   UNL A   1      41.788  21.091  27.625  1.00  0.00     0.040 A 
ATOM     82  C   UNL A   1      42.250  21.947  25.422  1.00  0.00     0.040 A 
ATOM     83  F   UNL A   1      42.828  24.205  25.140  1.00  0.00    -0.206 F 
ATOM     84  C   UNL A   1      41.903  20.882  26.253  1.00  0.00     0.006 A 
ENDBRANCH  56  77
BRANCH  68  85
ATOM     85  C   UNL A   1      48.050  26.617  29.830  1.00  0.00     0.057 A 
ATOM     86  C   UNL A   1      48.454  25.974  31.006  1.00  0.00     0.134 A 
ATOM     87  C   UNL A   1      48.998  26.774  28.813  1.00  0.00     0.134 A 
ATOM     88  F   UNL A   1      47.591  25.807  32.020  1.00  0.00    -0.206 F 
ATOM     89  C   UNL A   1      49.761  25.517  31.170  1.00  0.00     0.040 A 
ATOM     90  C   UNL A   1      50.303  26.304  28.958  1.00  0.00     0.040 A 
ATOM     91  F   UNL A   1      48.668  27.375  27.660  1.00  0.00    -0.206 F 
ATOM     92  C   UNL A   1      50.689  25.676  30.141  1.00  0.00     0.006 A 
ENDBRANCH  68  85
ENDBRANCH  42  43
ENDBRANCH  34  37
ENDBRANCH  32  33
ENDBRANCH  31  32
ENDBRANCH  30  31
ENDBRANCH   3  30
TORSDOF 15
ENDMDL
MODEL 2
REMARK VINA RESULT:     -11.4      3.045      8.173
REMARK SMILES CCOC(=O)c1c(NC(=O)[C@@H]2[C@@H]3CC[C@@H](C3)[C@@H]2C(=O)NCCCNC(=O)c2ccc(-c3c4nc(c(-c5c(F)cccc5F)c5ccc([nH]5)c(-c5c(F)cccc5F)c5nc(c(-c6c(F)cccc6F)c6ccc3[nH]6)C=C5)C=C4)cc2)sc2c1CCCC2
REMARK SMILES IDX 18 1 19 2 20 3 17 5 11 6 12 7 13 8 16 9 15 10 14 11 9 12
REMARK SMILES IDX 8 13 10 15 7 16 6 17 83 18 81 19 82 20 84 21 87 22 85 23
REMARK SMILES IDX 86 24 4 25 5 26 3 27 2 28 1 29 21 30 22 31 23 32 24 33 25 34
REMARK SMILES IDX 26 36 27 37 28 38 80 39 29 40 79 41 30 42 31 43 32 44 73 45
REMARK SMILES IDX 33 46 78 47 72 48 74 49 34 50 77 51 71 52 70 53 35 55 61 56
REMARK SMILES IDX 44 57 60 58 45 59 48 60 59 61 75 62 46 63 47 64 58 66 76 67
REMARK SMILES IDX 49 68 36 69 37 70 42 71 38 72 39 73 41 74 43 75 40 76 62 77
REMARK SMILES IDX 63 78 68 79 64 80 65 81 67 82 69 83 66 84 50 85 51 86 56 87
REMARK SMILES IDX 52 88 53 89 55 90 57 91 54 92
REMARK H PARENT 20 4 8 14 24 35 74 54 48 65
REMARK Flexibility Score: inf
ROOT
ATOM      1  C   UNL A   1      33.928  25.366  22.897  1.00  0.00     0.224 C 
ATOM      2  O   UNL A   1      33.662  25.864  21.794  1.00  0.00    -0.275 OA
ATOM      3  N   UNL A   1      34.585  24.195  22.853  1.00  0.00    -0.356 N 
ATOM      4  H   UNL A   1      34.742  23.858  21.940  1.00  0.00     0.163 HD
ENDROOT
BRANCH   1   5
ATOM      5  C   UNL A   1      33.519  26.124  24.154  1.00  0.00     0.094 C 
ATOM      6  C   UNL A   1      32.092  26.004  24.727  1.00  0.00     0.094 C 
ATOM      7  C   UNL A   1      31.866  27.411  25.329  1.00  0.00     0.002 C 
ATOM      8  C   UNL A   1      31.755  28.494  24.241  1.00  0.00     0.005 C 
ATOM      9  C   UNL A   1      33.264  27.704  25.897  1.00  0.00     0.009 C 
ATOM     10  C   UNL A   1      33.952  27.568  24.519  1.00  0.00     0.002 C 
ATOM     11  C   UNL A   1      33.210  28.696  23.806  1.00  0.00     0.005 C 
BRANCH   6  12
ATOM     12  C   UNL A   1      30.951  25.467  23.905  1.00  0.00     0.229 C 
ATOM     13  N   UNL A   1      30.774  24.139  23.699  1.00  0.00    -0.317 N 
ATOM     14  H   UNL A   1      29.967  23.955  23.165  1.00  0.00     0.170 HD
ATOM     15  O   UNL A   1      30.094  26.196  23.402  1.00  0.00    -0.274 OA
BRANCH  13  16
ATOM     16  C   UNL A   1      31.435  22.986  24.044  1.00  0.00     0.110 A 
ATOM     17  C   UNL A   1      32.028  22.353  25.125  1.00  0.00     0.098 A 
ATOM     18  C   UNL A   1      32.462  21.018  24.758  1.00  0.00    -0.017 A 
ATOM     19  S   UNL A   1      31.509  22.018  22.618  1.00  0.00    -0.122 S 
ATOM     20  C   UNL A   1      32.206  20.720  23.438  1.00  0.00     0.011 A 
ATOM     21  C   UNL A   1      33.091  20.016  25.686  1.00  0.00     0.038 C 
ATOM     22  C   UNL A   1      32.526  19.425  22.761  1.00  0.00     0.047 C 
ATOM     23  C   UNL A   1      33.736  18.854  24.920  1.00  0.00     0.005 C 
ATOM     24  C   UNL A   1      32.815  18.336  23.806  1.00  0.00     0.006 C 
BRANCH  17  25
ATOM     25  C   UNL A   1      32.212  22.807  26.495  1.00  0.00     0.341 C 
ATOM     26  O   UNL A   1      33.160  23.508  26.824  1.00  0.00    -0.246 OA
BRANCH  25  27
ATOM     27  O   UNL A   1      31.144  22.519  27.296  1.00  0.00    -0.462 OA
BRANCH  27  28
ATOM     28  C   UNL A   1      29.937  23.237  26.987  1.00  0.00     0.230 C 
ATOM     29  C   UNL A   1      28.741  22.481  27.528  1.00  0.00     0.049 C 
ENDBRANCH  27  28
ENDBRANCH  25  27
ENDBRANCH  17  25
ENDBRANCH  13  16
ENDBRANCH   6  12
ENDBRANCH   1   5
BRANCH   3  30
ATOM     30  C   UNL A   1      35.105  23.338  23.891  1.00  0.00     0.117 C 
BRANCH  30  31
ATOM     31  C   UNL A   1      36.622  23.323  23.842  1.00  0.00     0.042 C 
BRANCH  31  32
ATOM     32  C   UNL A   1      37.211  23.687  25.192  1.00  0.00     0.118 C 
BRANCH  32  33
ATOM     33  N   UNL A   1      38.285  22.770  25.553  1.00  0.00    -0.352 N 
ATOM     34  C   UNL A   1      39.499  23.041  26.136  1.00  0.00     0.251 C 
ATOM     35  H   UNL A   1      38.116  21.821  25.350  1.00  0.00     0.163 HD
ATOM     36  O   UNL A   1      40.411  22.223  26.066  1.00  0.00    -0.269 OA
BRANCH  34  37
ATOM     37  C   UNL A   1      39.706  24.320  26.848  1.00  0.00     0.039 A 
ATOM     38  C   UNL A   1      40.393  25.361  26.216  1.00  0.00     0.014 A 
ATOM     39  C   UNL A   1      39.269  24.473  28.165  1.00  0.00     0.014 A 
ATOM     40  C   UNL A   1      40.609  26.562  26.896  1.00  0.00     0.010 A 
ATOM     41  C   UNL A   1      39.374  25.704  28.794  1.00  0.00     0.010 A 
ATOM     42  C   UNL A   1      40.085  26.746  28.185  1.00  0.00    -0.014 A 
BRANCH  42  43
ATOM     43  C   UNL A   1      40.347  27.971  28.980  1.00  0.00     0.031 A 
ATOM     44  C   UNL A   1      41.625  28.065  29.775  1.00  0.00     0.074 A 
ATOM     45  C   UNL A   1      39.420  28.943  29.061  1.00  0.00     0.049 A 
ATOM     46  N   UNL A   1      41.978  28.942  30.679  1.00  0.00    -0.248 NA
ATOM     47  C   UNL A   1      42.614  26.993  29.563  1.00  0.00     0.031 C 
ATOM     48  C   UNL A   1      38.124  28.942  28.382  1.00  0.00     0.029 A 
ATOM     49  N   UNL A   1      39.425  30.115  29.771  1.00  0.00    -0.354 N 
ATOM     50  C   UNL A   1      43.200  28.498  31.173  1.00  0.00     0.074 A 
ATOM     51  C   UNL A   1      43.500  27.249  30.511  1.00  0.00     0.031 C 
ATOM     52  C   UNL A   1      37.465  30.070  28.695  1.00  0.00     0.029 A 
ATOM     53  C   UNL A   1      38.277  30.854  29.620  1.00  0.00     0.049 A 
ATOM     54  H   UNL A   1      40.178  30.401  30.336  1.00  0.00     0.167 HD
ATOM     55  C   UNL A   1      44.015  29.094  32.074  1.00  0.00     0.037 A 
ATOM     56  C   UNL A   1      37.923  32.028  30.173  1.00  0.00     0.037 A 
ATOM     57  C   UNL A   1      43.747  30.373  32.671  1.00  0.00     0.049 A 
ATOM     58  C   UNL A   1      38.880  32.711  31.110  1.00  0.00     0.074 A 
ATOM     59  C   UNL A   1      44.529  31.099  33.551  1.00  0.00     0.029 A 
ATOM     60  N   UNL A   1      42.611  31.129  32.422  1.00  0.00    -0.354 N 
ATOM     61  N   UNL A   1      40.044  32.296  31.547  1.00  0.00    -0.248 NA
ATOM     62  C   UNL A   1      38.481  34.029  31.621  1.00  0.00     0.031 C 
ATOM     63  C   UNL A   1      43.861  32.293  33.841  1.00  0.00     0.029 A 
ATOM     64  C   UNL A   1      42.676  32.320  33.122  1.00  0.00     0.049 A 
ATOM     65  H   UNL A   1      41.869  30.858  31.834  1.00  0.00     0.167 HD
ATOM     66  C   UNL A   1      40.525  33.307  32.368  1.00  0.00     0.074 A 
ATOM     67  C   UNL A   1      39.533  34.363  32.355  1.00  0.00     0.031 C 
ATOM     68  C   UNL A   1      41.680  33.357  33.075  1.00  0.00     0.037 A 
BRANCH  55  69
ATOM     69  C   UNL A   1      45.279  28.374  32.442  1.00  0.00     0.057 A 
ATOM     70  C   UNL A   1      46.467  28.556  31.718  1.00  0.00     0.134 A 
ATOM     71  C   UNL A   1      45.314  27.495  33.530  1.00  0.00     0.134 A 
ATOM     72  F   UNL A   1      46.495  29.370  30.653  1.00  0.00    -0.206 F 
ATOM     73  C   UNL A   1      47.634  27.865  32.045  1.00  0.00     0.040 A 
ATOM     74  C   UNL A   1      46.484  26.819  33.884  1.00  0.00     0.040 A 
ATOM     75  F   UNL A   1      44.215  27.277  34.268  1.00  0.00    -0.206 F 
ATOM     76  C   UNL A   1      47.646  26.997  33.135  1.00  0.00     0.006 A 
ENDBRANCH  55  69
BRANCH  56  77
ATOM     77  C   UNL A   1      36.622  32.648  29.827  1.00  0.00     0.057 A 
ATOM     78  C   UNL A   1      36.498  33.482  28.709  1.00  0.00     0.134 A 
ATOM     79  C   UNL A   1      35.474  32.421  30.593  1.00  0.00     0.134 A 
ATOM     80  F   UNL A   1      37.568  33.748  27.945  1.00  0.00    -0.206 F 
ATOM     81  C   UNL A   1      35.283  34.082  28.375  1.00  0.00     0.040 A 
ATOM     82  C   UNL A   1      34.247  32.999  30.259  1.00  0.00     0.040 A 
ATOM     83  F   UNL A   1      35.525  31.623  31.670  1.00  0.00    -0.206 F 
ATOM     84  C   UNL A   1      34.152  33.838  29.150  1.00  0.00     0.006 A 
ENDBRANCH  56  77
BRANCH  68  85
ATOM     85  C   UNL A   1      41.944  34.606  33.858  1.00  0.00     0.057 A 
ATOM     86  C   UNL A   1      41.566  34.722  35.201  1.00  0.00     0.134 A 
ATOM     87  C   UNL A   1      42.624  35.681  33.276  1.00  0.00     0.134 A 
ATOM     88  F   UNL A   1      40.901  33.728  35.809  1.00  0.00    -0.206 F 
ATOM     89  C   UNL A   1      41.841  35.876  35.934  1.00  0.00     0.040 A 
ATOM     90  C   UNL A   1      42.922  36.832  34.005  1.00  0.00     0.040 A 
ATOM     91  F   UNL A   1      43.019  35.625  31.995  1.00  0.00    -0.206 F 
ATOM     92  C   UNL A   1      42.527  36.933  35.338  1.00  0.00     0.006 A 
ENDBRANCH  68  85
ENDBRANCH  42  43
ENDBRANCH  34  37
ENDBRANCH  32  33
ENDBRANCH  31  32
ENDBRANCH  30  31
ENDBRANCH   3  30
TORSDOF 15
ENDMDL
MODEL 3
REMARK VINA RESULT:     -11.3      2.012      4.127
REMARK SMILES CCOC(=O)c1c(NC(=O)[C@@H]2[C@@H]3CC[C@@H](C3)[C@@H]2C(=O)NCCCNC(=O)c2ccc(-c3c4nc(c(-c5c(F)cccc5F)c5ccc([nH]5)c(-c5c(F)cccc5F)c5nc(c(-c6c(F)cccc6F)c6ccc3[nH]6)C=C5)C=C4)cc2)sc2c1CCCC2
REMARK SMILES IDX 18 1 19 2 20 3 17 5 11 6 12 7 13 8 16 9 15 10 14 11 9 12
REMARK SMILES IDX 8 13 10 15 7 16 6 17 83 18 81 19 82 20 84 21 87 22 85 23
REMARK SMILES IDX 86 24 4 25 5 26 3 27 2 28 1 29 21 30 22 31 23 32 24 33 25 34
REMARK SMILES IDX 26 36 27 37 28 38 80 39 29 40 79 41 30 42 31 43 32 44 73 45
REMARK SMILES IDX 33 46 78 47 72 48 74 49 34 50 77 51 71 52 70 53 35 55 61 56
REMARK SMILES IDX 44 57 60 58 45 59 48 60 59 61 75 62 46 63 47 64 58 66 76 67
REMARK SMILES IDX 49 68 36 69 37 70 42 71 38 72 39 73 41 74 43 75 40 76 62 77
REMARK SMILES IDX 63 78 68 79 64 80 65 81 67 82 69 83 66 84 50 85 51 86 56 87
REMARK SMILES IDX 52 88 53 89 55 90 57 91 54 92
REMARK H PARENT 20 4 8 14 24 35 74 54 48 65
REMARK Flexibility Score: inf
ROOT
ATOM      1  C   UNL A   1      31.745  28.759  24.166  1.00  0.00     0.224 C 
ATOM      2  O   UNL A   1      30.941  29.227  23.347  1.00  0.00    -0.275 OA
ATOM      3  N   UNL A   1      32.833  29.514  24.395  1.00  0.00    -0.356 N 
ATOM      4  H   UNL A   1      32.873  30.334  23.852  1.00  0.00     0.163 HD
ENDROOT
BRANCH   1   5
ATOM      5  C   UNL A   1      31.415  27.427  24.829  1.00  0.00     0.094 C 
ATOM      6  C   UNL A   1      32.269  26.170  24.561  1.00  0.00     0.094 C 
ATOM      7  C   UNL A   1      31.217  25.040  24.655  1.00  0.00     0.002 C 
ATOM      8  C   UNL A   1      30.217  25.082  23.486  1.00  0.00     0.005 C 
ATOM      9  C   UNL A   1      30.346  25.557  25.811  1.00  0.00     0.009 C 
ATOM     10  C   UNL A   1      29.988  26.869  25.073  1.00  0.00     0.002 C 
ATOM     11  C   UNL A   1      29.293  26.243  23.866  1.00  0.00     0.005 C 
BRANCH   6  12
ATOM     12  C   UNL A   1      33.202  26.083  23.383  1.00  0.00     0.229 C 
ATOM     13  N   UNL A   1      33.800  24.922  23.021  1.00  0.00    -0.317 N 
ATOM     14  H   UNL A   1      34.355  25.031  22.216  1.00  0.00     0.170 HD
ATOM     15  O   UNL A   1      33.451  27.050  22.660  1.00  0.00    -0.274 OA
BRANCH  13  16
ATOM     16  C   UNL A   1      33.828  23.633  23.494  1.00  0.00     0.110 A 
ATOM     17  C   UNL A   1      34.328  22.865  24.534  1.00  0.00     0.098 A 
ATOM     18  C   UNL A   1      33.840  21.503  24.441  1.00  0.00    -0.017 A 
ATOM     19  S   UNL A   1      32.890  22.688  22.398  1.00  0.00    -0.122 S 
ATOM     20  C   UNL A   1      33.033  21.301  23.344  1.00  0.00     0.011 A 
ATOM     21  C   UNL A   1      34.123  20.403  25.427  1.00  0.00     0.038 C 
ATOM     22  C   UNL A   1      32.371  20.010  22.978  1.00  0.00     0.047 C 
ATOM     23  C   UNL A   1      33.753  19.023  24.866  1.00  0.00     0.005 C 
ATOM     24  C   UNL A   1      32.382  19.047  24.176  1.00  0.00     0.006 C 
BRANCH  17  25
ATOM     25  C   UNL A   1      35.179  23.239  25.653  1.00  0.00     0.341 C 
ATOM     26  O   UNL A   1      34.787  23.187  26.811  1.00  0.00    -0.246 OA
BRANCH  25  27
ATOM     27  O   UNL A   1      36.473  23.469  25.281  1.00  0.00    -0.462 OA
BRANCH  27  28
ATOM     28  C   UNL A   1      37.286  22.291  25.138  1.00  0.00     0.230 C 
ATOM     29  C   UNL A   1      38.585  22.472  25.897  1.00  0.00     0.049 C 
ENDBRANCH  27  28
ENDBRANCH  25  27
ENDBRANCH  17  25
ENDBRANCH  13  16
ENDBRANCH   6  12
ENDBRANCH   1   5
BRANCH   3  30
ATOM     30  C   UNL A   1      33.954  29.348  25.288  1.00  0.00     0.117 C 
BRANCH  30  31
ATOM     31  C   UNL A   1      33.530  29.645  26.716  1.00  0.00     0.042 C 
BRANCH  31  32
ATOM     32  C   UNL A   1      34.676  29.409  27.682  1.00  0.00     0.118 C 
BRANCH  32  33
ATOM     33  N   UNL A   1      34.762  30.490  28.655  1.00  0.00    -0.352 N 
ATOM     34  C   UNL A   1      35.760  30.767  29.558  1.00  0.00     0.251 C 
ATOM     35  H   UNL A   1      33.997  31.110  28.667  1.00  0.00     0.163 HD
ATOM     36  O   UNL A   1      35.535  31.497  30.519  1.00  0.00    -0.269 OA
BRANCH  34  37
ATOM     37  C   UNL A   1      37.107  30.186  29.372  1.00  0.00     0.039 A 
ATOM     38  C   UNL A   1      37.757  29.586  30.454  1.00  0.00     0.014 A 
ATOM     39  C   UNL A   1      37.751  30.280  28.138  1.00  0.00     0.014 A 
ATOM     40  C   UNL A   1      39.039  29.056  30.285  1.00  0.00     0.010 A 
ATOM     41  C   UNL A   1      38.967  29.647  27.938  1.00  0.00     0.010 A 
ATOM     42  C   UNL A   1      39.645  29.069  29.019  1.00  0.00    -0.014 A 
BRANCH  42  43
ATOM     43  C   UNL A   1      41.031  28.587  28.799  1.00  0.00     0.031 A 
ATOM     44  C   UNL A   1      42.168  29.573  28.887  1.00  0.00     0.074 A 
ATOM     45  C   UNL A   1      41.261  27.311  28.439  1.00  0.00     0.049 A 
ATOM     46  N   UNL A   1      43.424  29.425  28.552  1.00  0.00    -0.248 NA
ATOM     47  C   UNL A   1      41.832  30.926  29.364  1.00  0.00     0.031 C 
ATOM     48  C   UNL A   1      40.239  26.277  28.268  1.00  0.00     0.029 A 
ATOM     49  N   UNL A   1      42.435  26.674  28.133  1.00  0.00    -0.354 N 
ATOM     50  C   UNL A   1      44.009  30.674  28.731  1.00  0.00     0.074 A 
ATOM     51  C   UNL A   1      42.963  31.579  29.148  1.00  0.00     0.031 C 
ATOM     52  C   UNL A   1      40.833  25.129  27.905  1.00  0.00     0.029 A 
ATOM     53  C   UNL A   1      42.270  25.355  27.786  1.00  0.00     0.049 A 
ATOM     54  H   UNL A   1      43.312  27.118  28.159  1.00  0.00     0.167 HD
ATOM     55  C   UNL A   1      45.307  31.028  28.590  1.00  0.00     0.037 A 
ATOM     56  C   UNL A   1      43.180  24.439  27.408  1.00  0.00     0.037 A 
ATOM     57  C   UNL A   1      46.354  30.106  28.248  1.00  0.00     0.049 A 
ATOM     58  C   UNL A   1      44.628  24.835  27.337  1.00  0.00     0.074 A 
ATOM     59  C   UNL A   1      47.712  30.342  28.135  1.00  0.00     0.029 A 
ATOM     60  N   UNL A   1      46.155  28.758  27.989  1.00  0.00    -0.354 N 
ATOM     61  N   UNL A   1      45.173  26.011  27.535  1.00  0.00    -0.248 NA
ATOM     62  C   UNL A   1      45.590  23.777  26.999  1.00  0.00     0.031 C 
ATOM     63  C   UNL A   1      48.336  29.135  27.800  1.00  0.00     0.029 A 
ATOM     64  C   UNL A   1      47.367  28.145  27.729  1.00  0.00     0.049 A 
ATOM     65  H   UNL A   1      45.281  28.305  27.991  1.00  0.00     0.167 HD
ATOM     66  C   UNL A   1      46.539  25.831  27.367  1.00  0.00     0.074 A 
ATOM     67  C   UNL A   1      46.742  24.428  27.066  1.00  0.00     0.031 C 
ATOM     68  C   UNL A   1      47.538  26.744  27.449  1.00  0.00     0.037 A 
BRANCH  55  69
ATOM     69  C   UNL A   1      45.659  32.466  28.831  1.00  0.00     0.057 A 
ATOM     70  C   UNL A   1      46.034  32.929  30.101  1.00  0.00     0.134 A 
ATOM     71  C   UNL A   1      45.629  33.398  27.788  1.00  0.00     0.134 A 
ATOM     72  F   UNL A   1      46.064  32.090  31.147  1.00  0.00    -0.206 F 
ATOM     73  C   UNL A   1      46.334  34.272  30.330  1.00  0.00     0.040 A 
ATOM     74  C   UNL A   1      45.955  34.740  27.998  1.00  0.00     0.040 A 
ATOM     75  F   UNL A   1      45.283  33.023  26.547  1.00  0.00    -0.206 F 
ATOM     76  C   UNL A   1      46.301  35.182  29.275  1.00  0.00     0.006 A 
ENDBRANCH  55  69
BRANCH  56  77
ATOM     77  C   UNL A   1      42.753  23.052  27.106  1.00  0.00     0.057 A 
ATOM     78  C   UNL A   1      42.394  22.171  28.134  1.00  0.00     0.134 A 
ATOM     79  C   UNL A   1      42.686  22.574  25.794  1.00  0.00     0.134 A 
ATOM     80  F   UNL A   1      42.453  22.569  29.413  1.00  0.00    -0.206 F 
ATOM     81  C   UNL A   1      42.000  20.859  27.868  1.00  0.00     0.040 A 
ATOM     82  C   UNL A   1      42.275  21.270  25.511  1.00  0.00     0.040 A 
ATOM     83  F   UNL A   1      43.007  23.372  24.765  1.00  0.00    -0.206 F 
ATOM     84  C   UNL A   1      41.937  20.406  26.552  1.00  0.00     0.006 A 
ENDBRANCH  56  77
BRANCH  68  85
ATOM     85  C   UNL A   1      48.934  26.244  27.244  1.00  0.00     0.057 A 
ATOM     86  C   UNL A   1      49.553  26.292  25.989  1.00  0.00     0.134 A 
ATOM     87  C   UNL A   1      49.680  25.754  28.322  1.00  0.00     0.134 A 
ATOM     88  F   UNL A   1      48.883  26.741  24.917  1.00  0.00    -0.206 F 
ATOM     89  C   UNL A   1      50.864  25.853  25.811  1.00  0.00     0.040 A 
ATOM     90  C   UNL A   1      50.999  25.331  28.159  1.00  0.00     0.040 A 
ATOM     91  F   UNL A   1      49.143  25.692  29.549  1.00  0.00    -0.206 F 
ATOM     92  C   UNL A   1      51.594  25.376  26.899  1.00  0.00     0.006 A 
ENDBRANCH  68  85
ENDBRANCH  42  43
ENDBRANCH  34  37
ENDBRANCH  32  33
ENDBRANCH  31  32
ENDBRANCH  30  31
ENDBRANCH   3  30
TORSDOF 15
ENDMDL
