MODEL 1
REMARK VINA RESULT:     -12.5      0.000      0.000
REMARK SMILES Cc1ccc(S(=O)(=O)Nc2cc(C(=O)NCCCNC(=O)c3ccc(-c4c5nc(c(-c6c(F)cccc6F)c6ccc([nH]6)c(-c6c(F)cccc6F)c6nc(c(-c7c(F)cccc7F)c7ccc4[nH]7)C=C6)C=C5)cc3)cnc2N2CCCC2)c(C)c1
REMARK SMILES IDX 16 1 15 2 13 3 14 4 12 6 10 7 11 8 78 9 77 10 76 11 9 12
REMARK SMILES IDX 6 14 7 15 8 16 5 17 1 18 2 19 3 20 86 21 4 22 84 23 85 24
REMARK SMILES IDX 79 25 80 26 83 27 81 28 82 29 17 30 18 31 19 32 20 33 21 35
REMARK SMILES IDX 22 36 23 37 75 38 24 39 74 40 25 41 26 42 27 43 68 44 28 45
REMARK SMILES IDX 73 46 67 47 69 48 29 49 72 50 66 51 65 52 30 54 56 55 39 56
REMARK SMILES IDX 55 57 40 58 43 59 54 60 70 61 41 62 42 63 53 65 71 66 44 67
REMARK SMILES IDX 31 68 32 69 37 70 33 71 34 72 36 73 38 74 35 75 57 76 58 77
REMARK SMILES IDX 63 78 59 79 60 80 62 81 64 82 61 83 45 84 46 85 51 86 47 87
REMARK SMILES IDX 48 88 50 89 52 90 49 91
REMARK H PARENT 15 5 9 13 19 34 69 53 43 64
REMARK Flexibility Score: inf
ROOT
ATOM      1  C   UNL A   1      31.783  30.691  26.331  1.00  0.00     0.118 C 
ENDROOT
BRANCH   1   2
ATOM      2  N   UNL A   1      31.041  30.433  25.110  1.00  0.00    -0.352 N 
ATOM      3  C   UNL A   1      31.038  29.368  24.244  1.00  0.00     0.252 C 
ATOM      4  O   UNL A   1      30.225  29.384  23.320  1.00  0.00    -0.269 OA
ATOM      5  H   UNL A   1      30.425  31.157  24.856  1.00  0.00     0.163 HD
BRANCH   3   6
ATOM      6  C   UNL A   1      31.917  28.186  24.398  1.00  0.00     0.060 A 
ATOM      7  C   UNL A   1      32.613  26.097  25.347  1.00  0.00     0.092 A 
ATOM      8  C   UNL A   1      31.833  27.246  25.417  1.00  0.00     0.046 A 
ATOM      9  C   UNL A   1      33.625  25.990  24.366  1.00  0.00     0.153 A 
ATOM     10  N   UNL A   1      33.785  26.947  23.432  1.00  0.00    -0.236 NA
ATOM     11  C   UNL A   1      32.914  27.993  23.443  1.00  0.00     0.127 A 
BRANCH   7  12
ATOM     12  N   UNL A   1      32.433  25.008  26.245  1.00  0.00    -0.276 N 
ATOM     13  H   UNL A   1      32.953  25.024  27.081  1.00  0.00     0.180 HD
BRANCH  12  14
ATOM     14  S   UNL A   1      31.421  23.708  26.004  1.00  0.00     0.262 S 
ATOM     15  O   UNL A   1      30.531  24.092  24.920  1.00  0.00    -0.201 OA
ATOM     16  O   UNL A   1      30.913  23.383  27.316  1.00  0.00    -0.201 OA
BRANCH  14  17
ATOM     17  C   UNL A   1      32.302  22.256  25.420  1.00  0.00     0.090 A 
ATOM     18  C   UNL A   1      33.343  18.139  24.661  1.00  0.00     0.044 C 
ATOM     19  C   UNL A   1      33.056  19.597  24.879  1.00  0.00    -0.051 A 
ATOM     20  C   UNL A   1      32.420  20.365  23.901  1.00  0.00     0.005 A 
ATOM     21  C   UNL A   1      33.457  20.220  26.063  1.00  0.00     0.008 A 
ATOM     22  C   UNL A   1      32.063  21.695  24.161  1.00  0.00     0.023 A 
ATOM     23  C   UNL A   1      33.105  21.552  26.343  1.00  0.00    -0.030 A 
ATOM     24  C   UNL A   1      33.634  22.144  27.623  1.00  0.00     0.046 C 
ENDBRANCH  14  17
ENDBRANCH  12  14
ENDBRANCH   7  12
BRANCH   9  25
ATOM     25  N   UNL A   1      34.508  24.944  24.395  1.00  0.00    -0.355 N 
ATOM     26  C   UNL A   1      35.302  24.499  25.523  1.00  0.00     0.118 C 
ATOM     27  C   UNL A   1      34.524  23.984  23.304  1.00  0.00     0.118 C 
ATOM     28  C   UNL A   1      36.414  23.741  24.803  1.00  0.00     0.023 C 
ATOM     29  C   UNL A   1      35.665  23.028  23.679  1.00  0.00     0.023 C 
ENDBRANCH   9  25
ENDBRANCH   3   6
ENDBRANCH   1   2
BRANCH   1  30
ATOM     30  C   UNL A   1      31.471  32.070  26.902  1.00  0.00     0.042 C 
BRANCH  30  31
ATOM     31  C   UNL A   1      32.691  32.977  26.958  1.00  0.00     0.118 C 
BRANCH  31  32
ATOM     32  N   UNL A   1      32.463  34.143  27.799  1.00  0.00    -0.352 N 
ATOM     33  C   UNL A   1      33.150  34.571  28.906  1.00  0.00     0.251 C 
ATOM     34  H   UNL A   1      31.703  34.708  27.533  1.00  0.00     0.163 HD
ATOM     35  O   UNL A   1      32.685  35.479  29.590  1.00  0.00    -0.269 OA
BRANCH  33  36
ATOM     36  C   UNL A   1      34.434  33.943  29.290  1.00  0.00     0.039 A 
ATOM     37  C   UNL A   1      35.581  34.268  28.560  1.00  0.00     0.014 A 
ATOM     38  C   UNL A   1      34.506  33.001  30.320  1.00  0.00     0.014 A 
ATOM     39  C   UNL A   1      36.804  33.677  28.884  1.00  0.00     0.010 A 
ATOM     40  C   UNL A   1      35.738  32.463  30.687  1.00  0.00     0.010 A 
ATOM     41  C   UNL A   1      36.894  32.782  29.961  1.00  0.00    -0.014 A 
BRANCH  41  42
ATOM     42  C   UNL A   1      38.183  32.138  30.312  1.00  0.00     0.031 A 
ATOM     43  C   UNL A   1      39.130  32.817  31.262  1.00  0.00     0.074 A 
ATOM     44  C   UNL A   1      38.524  30.968  29.739  1.00  0.00     0.049 A 
ATOM     45  N   UNL A   1      40.323  32.445  31.649  1.00  0.00    -0.248 NA
ATOM     46  C   UNL A   1      38.687  34.101  31.832  1.00  0.00     0.031 C 
ATOM     47  C   UNL A   1      37.715  30.235  28.763  1.00  0.00     0.029 A 
ATOM     48  N   UNL A   1      39.647  30.196  29.890  1.00  0.00    -0.354 N 
ATOM     49  C   UNL A   1      40.783  33.457  32.482  1.00  0.00     0.074 A 
ATOM     50  C   UNL A   1      39.758  34.478  32.514  1.00  0.00     0.031 C 
ATOM     51  C   UNL A   1      38.359  29.108  28.421  1.00  0.00     0.029 A 
ATOM     52  C   UNL A   1      39.632  29.050  29.132  1.00  0.00     0.049 A 
ATOM     53  H   UNL A   1      40.392  30.438  30.486  1.00  0.00     0.167 HD
ATOM     54  C   UNL A   1      41.945  33.523  33.174  1.00  0.00     0.037 A 
ATOM     55  C   UNL A   1      40.543  28.066  29.028  1.00  0.00     0.037 A 
ATOM     56  C   UNL A   1      42.942  32.486  33.180  1.00  0.00     0.049 A 
ATOM     57  C   UNL A   1      41.802  28.137  29.843  1.00  0.00     0.074 A 
ATOM     58  C   UNL A   1      44.123  32.429  33.899  1.00  0.00     0.029 A 
ATOM     59  N   UNL A   1      42.870  31.321  32.432  1.00  0.00    -0.354 N 
ATOM     60  N   UNL A   1      42.198  29.073  30.669  1.00  0.00    -0.248 NA
ATOM     61  C   UNL A   1      42.736  27.008  29.719  1.00  0.00     0.031 C 
ATOM     62  C   UNL A   1      44.777  31.235  33.570  1.00  0.00     0.029 A 
ATOM     63  C   UNL A   1      43.988  30.539  32.669  1.00  0.00     0.049 A 
ATOM     64  H   UNL A   1      42.133  31.084  31.825  1.00  0.00     0.167 HD
ATOM     65  C   UNL A   1      43.414  28.639  31.181  1.00  0.00     0.074 A 
ATOM     66  C   UNL A   1      43.684  27.349  30.579  1.00  0.00     0.031 C 
ATOM     67  C   UNL A   1      44.233  29.254  32.068  1.00  0.00     0.037 A 
BRANCH  54  68
ATOM     68  C   UNL A   1      42.189  34.755  33.992  1.00  0.00     0.057 A 
ATOM     69  C   UNL A   1      42.777  35.901  33.440  1.00  0.00     0.134 A 
ATOM     70  C   UNL A   1      41.818  34.804  35.341  1.00  0.00     0.134 A 
ATOM     71  F   UNL A   1      43.169  35.913  32.157  1.00  0.00    -0.206 F 
ATOM     72  C   UNL A   1      43.011  37.043  34.208  1.00  0.00     0.040 A 
ATOM     73  C   UNL A   1      42.026  35.948  36.114  1.00  0.00     0.040 A 
ATOM     74  F   UNL A   1      41.248  33.742  35.930  1.00  0.00    -0.206 F 
ATOM     75  C   UNL A   1      42.630  37.070  35.548  1.00  0.00     0.006 A 
ENDBRANCH  54  68
BRANCH  55  76
ATOM     76  C   UNL A   1      40.276  26.905  28.145  1.00  0.00     0.057 A 
ATOM     77  C   UNL A   1      40.828  26.838  26.861  1.00  0.00     0.134 A 
ATOM     78  C   UNL A   1      39.472  25.838  28.561  1.00  0.00     0.134 A 
ATOM     79  F   UNL A   1      41.593  27.840  26.403  1.00  0.00    -0.206 F 
ATOM     80  C   UNL A   1      40.580  25.755  26.015  1.00  0.00     0.040 A 
ATOM     81  C   UNL A   1      39.231  24.741  27.733  1.00  0.00     0.040 A 
ATOM     82  F   UNL A   1      38.920  25.844  29.784  1.00  0.00    -0.206 F 
ATOM     83  C   UNL A   1      39.782  24.701  26.454  1.00  0.00     0.006 A 
ENDBRANCH  55  76
BRANCH  67  84
ATOM     84  C   UNL A   1      45.481  28.525  32.461  1.00  0.00     0.057 A 
ATOM     85  C   UNL A   1      45.498  27.624  33.534  1.00  0.00     0.134 A 
ATOM     86  C   UNL A   1      46.668  28.702  31.741  1.00  0.00     0.134 A 
ATOM     87  F   UNL A   1      44.394  27.423  34.270  1.00  0.00    -0.206 F 
ATOM     88  C   UNL A   1      46.660  26.937  33.886  1.00  0.00     0.040 A 
ATOM     89  C   UNL A   1      47.830  28.006  32.072  1.00  0.00     0.040 A 
ATOM     90  F   UNL A   1      46.713  29.546  30.700  1.00  0.00    -0.206 F 
ATOM     91  C   UNL A   1      47.829  27.124  33.151  1.00  0.00     0.006 A 
ENDBRANCH  67  84
ENDBRANCH  41  42
ENDBRANCH  33  36
ENDBRANCH  31  32
ENDBRANCH  30  31
ENDBRANCH   1  30
TORSDOF 14
ENDMDL
MODEL 2
REMARK VINA RESULT:     -12.4      0.562      5.926
REMARK SMILES Cc1ccc(S(=O)(=O)Nc2cc(C(=O)NCCCNC(=O)c3ccc(-c4c5nc(c(-c6c(F)cccc6F)c6ccc([nH]6)c(-c6c(F)cccc6F)c6nc(c(-c7c(F)cccc7F)c7ccc4[nH]7)C=C6)C=C5)cc3)cnc2N2CCCC2)c(C)c1
REMARK SMILES IDX 16 1 15 2 13 3 14 4 12 6 10 7 11 8 78 9 77 10 76 11 9 12
REMARK SMILES IDX 6 14 7 15 8 16 5 17 1 18 2 19 3 20 86 21 4 22 84 23 85 24
REMARK SMILES IDX 79 25 80 26 83 27 81 28 82 29 17 30 18 31 19 32 20 33 21 35
REMARK SMILES IDX 22 36 23 37 75 38 24 39 74 40 25 41 26 42 27 43 68 44 28 45
REMARK SMILES IDX 73 46 67 47 69 48 29 49 72 50 66 51 65 52 30 54 56 55 39 56
REMARK SMILES IDX 55 57 40 58 43 59 54 60 70 61 41 62 42 63 53 65 71 66 44 67
REMARK SMILES IDX 31 68 32 69 37 70 33 71 34 72 36 73 38 74 35 75 57 76 58 77
REMARK SMILES IDX 63 78 59 79 60 80 62 81 64 82 61 83 45 84 46 85 51 86 47 87
REMARK SMILES IDX 48 88 50 89 52 90 49 91
REMARK H PARENT 15 5 9 13 19 34 69 53 43 64
REMARK Flexibility Score: inf
ROOT
ATOM      1  C   UNL A   1      31.576  30.538  26.122  1.00  0.00     0.118 C 
ENDROOT
BRANCH   1   2
ATOM      2  N   UNL A   1      30.935  30.290  24.843  1.00  0.00    -0.352 N 
ATOM      3  C   UNL A   1      31.023  29.243  23.959  1.00  0.00     0.252 C 
ATOM      4  O   UNL A   1      30.283  29.261  22.975  1.00  0.00    -0.269 OA
ATOM      5  H   UNL A   1      30.325  31.006  24.556  1.00  0.00     0.163 HD
BRANCH   3   6
ATOM      6  C   UNL A   1      31.914  28.076  24.159  1.00  0.00     0.060 A 
ATOM      7  C   UNL A   1      32.647  26.049  25.208  1.00  0.00     0.092 A 
ATOM      8  C   UNL A   1      31.861  27.196  25.232  1.00  0.00     0.046 A 
ATOM      9  C   UNL A   1      33.635  25.892  24.210  1.00  0.00     0.153 A 
ATOM     10  N   UNL A   1      33.765  26.794  23.218  1.00  0.00    -0.236 NA
ATOM     11  C   UNL A   1      32.887  27.834  23.192  1.00  0.00     0.127 A 
BRANCH   7  12
ATOM     12  N   UNL A   1      32.497  25.013  26.172  1.00  0.00    -0.276 N 
ATOM     13  H   UNL A   1      33.045  25.074  26.987  1.00  0.00     0.180 HD
BRANCH  12  14
ATOM     14  S   UNL A   1      31.476  23.705  26.038  1.00  0.00     0.262 S 
ATOM     15  O   UNL A   1      30.534  24.041  24.983  1.00  0.00    -0.201 OA
ATOM     16  O   UNL A   1      31.032  23.440  27.387  1.00  0.00    -0.201 OA
BRANCH  14  17
ATOM     17  C   UNL A   1      32.329  22.227  25.478  1.00  0.00     0.090 A 
ATOM     18  C   UNL A   1      33.325  18.079  24.838  1.00  0.00     0.044 C 
ATOM     19  C   UNL A   1      33.053  19.545  25.011  1.00  0.00    -0.051 A 
ATOM     20  C   UNL A   1      32.385  20.279  24.028  1.00  0.00     0.005 A 
ATOM     21  C   UNL A   1      33.499  20.210  26.156  1.00  0.00     0.008 A 
ATOM     22  C   UNL A   1      32.042  21.620  24.251  1.00  0.00     0.023 A 
ATOM     23  C   UNL A   1      33.162  21.554  26.398  1.00  0.00    -0.030 A 
ATOM     24  C   UNL A   1      33.740  22.190  27.634  1.00  0.00     0.046 C 
ENDBRANCH  14  17
ENDBRANCH  12  14
ENDBRANCH   7  12
BRANCH   9  25
ATOM     25  N   UNL A   1      34.525  24.854  24.276  1.00  0.00    -0.355 N 
ATOM     26  C   UNL A   1      35.351  24.479  25.407  1.00  0.00     0.118 C 
ATOM     27  C   UNL A   1      34.520  23.832  23.242  1.00  0.00     0.118 C 
ATOM     28  C   UNL A   1      36.449  23.686  24.704  1.00  0.00     0.023 C 
ATOM     29  C   UNL A   1      35.677  22.906  23.643  1.00  0.00     0.023 C 
ENDBRANCH   9  25
ENDBRANCH   3   6
ENDBRANCH   1   2
BRANCH   1  30
ATOM     30  C   UNL A   1      31.409  31.988  26.565  1.00  0.00     0.042 C 
BRANCH  30  31
ATOM     31  C   UNL A   1      32.710  32.612  27.047  1.00  0.00     0.118 C 
BRANCH  31  32
ATOM     32  N   UNL A   1      32.494  33.917  27.656  1.00  0.00    -0.352 N 
ATOM     33  C   UNL A   1      33.180  34.535  28.669  1.00  0.00     0.251 C 
ATOM     34  H   UNL A   1      31.744  34.433  27.282  1.00  0.00     0.163 HD
ATOM     35  O   UNL A   1      32.724  35.560  29.169  1.00  0.00    -0.269 OA
BRANCH  33  36
ATOM     36  C   UNL A   1      34.452  33.972  29.174  1.00  0.00     0.039 A 
ATOM     37  C   UNL A   1      35.632  34.262  28.481  1.00  0.00     0.014 A 
ATOM     38  C   UNL A   1      34.486  33.122  30.284  1.00  0.00     0.014 A 
ATOM     39  C   UNL A   1      36.846  33.730  28.920  1.00  0.00     0.010 A 
ATOM     40  C   UNL A   1      35.705  32.648  30.761  1.00  0.00     0.010 A 
ATOM     41  C   UNL A   1      36.894  32.932  30.074  1.00  0.00    -0.014 A 
BRANCH  41  42
ATOM     42  C   UNL A   1      38.173  32.350  30.547  1.00  0.00     0.031 A 
ATOM     43  C   UNL A   1      38.688  31.073  29.941  1.00  0.00     0.074 A 
ATOM     44  C   UNL A   1      38.845  32.939  31.553  1.00  0.00     0.049 A 
ATOM     45  N   UNL A   1      39.752  30.379  30.255  1.00  0.00    -0.248 NA
ATOM     46  C   UNL A   1      37.885  30.484  28.857  1.00  0.00     0.031 C 
ATOM     47  C   UNL A   1      38.423  34.152  32.257  1.00  0.00     0.029 A 
ATOM     48  N   UNL A   1      40.023  32.592  32.163  1.00  0.00    -0.354 N 
ATOM     49  C   UNL A   1      39.731  29.262  29.429  1.00  0.00     0.074 A 
ATOM     50  C   UNL A   1      38.529  29.350  28.628  1.00  0.00     0.031 C 
ATOM     51  C   UNL A   1      39.341  34.459  33.188  1.00  0.00     0.029 A 
ATOM     52  C   UNL A   1      40.400  33.455  33.162  1.00  0.00     0.049 A 
ATOM     53  H   UNL A   1      40.548  31.799  31.908  1.00  0.00     0.167 HD
ATOM     54  C   UNL A   1      40.639  28.263  29.331  1.00  0.00     0.037 A 
ATOM     55  C   UNL A   1      41.482  33.438  33.963  1.00  0.00     0.037 A 
ATOM     56  C   UNL A   1      41.857  28.200  30.094  1.00  0.00     0.049 A 
ATOM     57  C   UNL A   1      42.500  32.346  33.802  1.00  0.00     0.074 A 
ATOM     58  C   UNL A   1      42.874  27.264  30.022  1.00  0.00     0.029 A 
ATOM     59  N   UNL A   1      42.225  29.118  31.066  1.00  0.00    -0.354 N 
ATOM     60  N   UNL A   1      42.495  31.327  32.979  1.00  0.00    -0.248 NA
ATOM     61  C   UNL A   1      43.681  32.409  34.676  1.00  0.00     0.031 C 
ATOM     62  C   UNL A   1      43.850  27.605  30.967  1.00  0.00     0.029 A 
ATOM     63  C   UNL A   1      43.452  28.768  31.605  1.00  0.00     0.049 A 
ATOM     64  H   UNL A   1      41.694  29.902  31.332  1.00  0.00     0.167 HD
ATOM     65  C   UNL A   1      43.678  30.640  33.217  1.00  0.00     0.074 A 
ATOM     66  C   UNL A   1      44.382  31.366  34.255  1.00  0.00     0.031 C 
ATOM     67  C   UNL A   1      44.139  29.509  32.630  1.00  0.00     0.037 A 
BRANCH  54  68
ATOM     68  C   UNL A   1      40.350  27.163  28.354  1.00  0.00     0.057 A 
ATOM     69  C   UNL A   1      40.912  27.150  27.072  1.00  0.00     0.134 A 
ATOM     70  C   UNL A   1      39.514  26.096  28.706  1.00  0.00     0.134 A 
ATOM     71  F   UNL A   1      41.710  28.152  26.669  1.00  0.00    -0.206 F 
ATOM     72  C   UNL A   1      40.632  26.129  26.162  1.00  0.00     0.040 A 
ATOM     73  C   UNL A   1      39.244  25.057  27.813  1.00  0.00     0.040 A 
ATOM     74  F   UNL A   1      38.946  26.046  29.920  1.00  0.00    -0.206 F 
ATOM     75  C   UNL A   1      39.800  25.075  26.535  1.00  0.00     0.006 A 
ENDBRANCH  54  68
BRANCH  55  76
ATOM     76  C   UNL A   1      41.676  34.516  34.962  1.00  0.00     0.057 A 
ATOM     77  C   UNL A   1      42.307  35.714  34.612  1.00  0.00     0.134 A 
ATOM     78  C   UNL A   1      41.235  34.378  36.283  1.00  0.00     0.134 A 
ATOM     79  F   UNL A   1      42.766  35.895  33.364  1.00  0.00    -0.206 F 
ATOM     80  C   UNL A   1      42.504  36.735  35.542  1.00  0.00     0.040 A 
ATOM     81  C   UNL A   1      41.408  35.397  37.219  1.00  0.00     0.040 A 
ATOM     82  F   UNL A   1      40.618  33.253  36.676  1.00  0.00    -0.206 F 
ATOM     83  C   UNL A   1      42.050  36.578  36.850  1.00  0.00     0.006 A 
ENDBRANCH  55  76
BRANCH  67  84
ATOM     84  C   UNL A   1      45.478  29.007  33.077  1.00  0.00     0.057 A 
ATOM     85  C   UNL A   1      45.606  28.087  34.125  1.00  0.00     0.134 A 
ATOM     86  C   UNL A   1      46.647  29.424  32.431  1.00  0.00     0.134 A 
ATOM     87  F   UNL A   1      44.522  27.661  34.791  1.00  0.00    -0.206 F 
ATOM     88  C   UNL A   1      46.854  27.613  34.526  1.00  0.00     0.040 A 
ATOM     89  C   UNL A   1      47.900  28.942  32.810  1.00  0.00     0.040 A 
ATOM     90  F   UNL A   1      46.590  30.300  31.416  1.00  0.00    -0.206 F 
ATOM     91  C   UNL A   1      48.006  28.037  33.864  1.00  0.00     0.006 A 
ENDBRANCH  67  84
ENDBRANCH  41  42
ENDBRANCH  33  36
ENDBRANCH  31  32
ENDBRANCH  30  31
ENDBRANCH   1  30
TORSDOF 14
ENDMDL
MODEL 3
REMARK VINA RESULT:     -12.3      1.448      6.211
REMARK SMILES Cc1ccc(S(=O)(=O)Nc2cc(C(=O)NCCCNC(=O)c3ccc(-c4c5nc(c(-c6c(F)cccc6F)c6ccc([nH]6)c(-c6c(F)cccc6F)c6nc(c(-c7c(F)cccc7F)c7ccc4[nH]7)C=C6)C=C5)cc3)cnc2N2CCCC2)c(C)c1
REMARK SMILES IDX 16 1 15 2 13 3 14 4 12 6 10 7 11 8 78 9 77 10 76 11 9 12
REMARK SMILES IDX 6 14 7 15 8 16 5 17 1 18 2 19 3 20 86 21 4 22 84 23 85 24
REMARK SMILES IDX 79 25 80 26 83 27 81 28 82 29 17 30 18 31 19 32 20 33 21 35
REMARK SMILES IDX 22 36 23 37 75 38 24 39 74 40 25 41 26 42 27 43 68 44 28 45
REMARK SMILES IDX 73 46 67 47 69 48 29 49 72 50 66 51 65 52 30 54 56 55 39 56
REMARK SMILES IDX 55 57 40 58 43 59 54 60 70 61 41 62 42 63 53 65 71 66 44 67
REMARK SMILES IDX 31 68 32 69 37 70 33 71 34 72 36 73 38 74 35 75 57 76 58 77
REMARK SMILES IDX 63 78 59 79 60 80 62 81 64 82 61 83 45 84 46 85 51 86 47 87
REMARK SMILES IDX 48 88 50 89 52 90 49 91
REMARK H PARENT 15 5 9 13 19 34 69 53 43 64
REMARK Flexibility Score: inf
ROOT
ATOM      1  C   UNL A   1      31.743  30.723  26.232  1.00  0.00     0.118 C 
ENDROOT
BRANCH   1   2
ATOM      2  N   UNL A   1      30.964  30.441  25.039  1.00  0.00    -0.352 N 
ATOM      3  C   UNL A   1      30.941  29.362  24.190  1.00  0.00     0.252 C 
ATOM      4  O   UNL A   1      30.100  29.358  23.292  1.00  0.00    -0.269 OA
ATOM      5  H   UNL A   1      30.336  31.157  24.793  1.00  0.00     0.163 HD
BRANCH   3   6
ATOM      6  C   UNL A   1      31.833  28.188  24.336  1.00  0.00     0.060 A 
ATOM      7  C   UNL A   1      32.574  26.120  25.298  1.00  0.00     0.092 A 
ATOM      8  C   UNL A   1      31.789  27.266  25.373  1.00  0.00     0.046 A 
ATOM      9  C   UNL A   1      33.553  26.003  24.286  1.00  0.00     0.153 A 
ATOM     10  N   UNL A   1      33.676  26.943  23.330  1.00  0.00    -0.236 NA
ATOM     11  C   UNL A   1      32.798  27.984  23.352  1.00  0.00     0.127 A 
BRANCH   7  12
ATOM     12  N   UNL A   1      32.431  25.046  26.220  1.00  0.00    -0.276 N 
ATOM     13  H   UNL A   1      32.980  25.079  27.037  1.00  0.00     0.180 HD
BRANCH  12  14
ATOM     14  S   UNL A   1      31.417  23.739  26.038  1.00  0.00     0.262 S 
ATOM     15  O   UNL A   1      30.495  24.096  24.972  1.00  0.00    -0.201 OA
ATOM     16  O   UNL A   1      30.948  23.442  27.371  1.00  0.00    -0.201 OA
BRANCH  14  17
ATOM     17  C   UNL A   1      32.286  22.276  25.461  1.00  0.00     0.090 A 
ATOM     18  C   UNL A   1      33.314  18.147  24.758  1.00  0.00     0.044 C 
ATOM     19  C   UNL A   1      33.030  19.608  24.955  1.00  0.00    -0.051 A 
ATOM     20  C   UNL A   1      32.370  20.356  23.977  1.00  0.00     0.005 A 
ATOM     21  C   UNL A   1      33.459  20.254  26.116  1.00  0.00     0.008 A 
ATOM     22  C   UNL A   1      32.017  21.691  24.220  1.00  0.00     0.023 A 
ATOM     23  C   UNL A   1      33.111  21.591  26.379  1.00  0.00    -0.030 A 
ATOM     24  C   UNL A   1      33.670  22.208  27.634  1.00  0.00     0.046 C 
ENDBRANCH  14  17
ENDBRANCH  12  14
ENDBRANCH   7  12
BRANCH   9  25
ATOM     25  N   UNL A   1      34.443  24.962  24.303  1.00  0.00    -0.355 N 
ATOM     26  C   UNL A   1      35.267  24.533  25.415  1.00  0.00     0.118 C 
ATOM     27  C   UNL A   1      34.439  23.991  23.221  1.00  0.00     0.118 C 
ATOM     28  C   UNL A   1      36.366  23.775  24.677  1.00  0.00     0.023 C 
ATOM     29  C   UNL A   1      35.595  23.047  23.578  1.00  0.00     0.023 C 
ENDBRANCH   9  25
ENDBRANCH   3   6
ENDBRANCH   1   2
BRANCH   1  30
ATOM     30  C   UNL A   1      31.472  32.127  26.764  1.00  0.00     0.042 C 
BRANCH  30  31
ATOM     31  C   UNL A   1      32.746  32.911  27.038  1.00  0.00     0.118 C 
BRANCH  31  32
ATOM     32  N   UNL A   1      32.466  34.214  27.625  1.00  0.00    -0.352 N 
ATOM     33  C   UNL A   1      33.025  34.818  28.722  1.00  0.00     0.251 C 
ATOM     34  H   UNL A   1      31.773  34.740  27.164  1.00  0.00     0.163 HD
ATOM     35  O   UNL A   1      32.519  35.844  29.168  1.00  0.00    -0.269 OA
BRANCH  33  36
ATOM     36  C   UNL A   1      34.218  34.240  29.378  1.00  0.00     0.039 A 
ATOM     37  C   UNL A   1      35.480  34.552  28.862  1.00  0.00     0.014 A 
ATOM     38  C   UNL A   1      34.103  33.356  30.455  1.00  0.00     0.014 A 
ATOM     39  C   UNL A   1      36.626  34.006  29.446  1.00  0.00     0.010 A 
ATOM     40  C   UNL A   1      35.248  32.867  31.080  1.00  0.00     0.010 A 
ATOM     41  C   UNL A   1      36.518  33.172  30.570  1.00  0.00    -0.014 A 
BRANCH  41  42
ATOM     42  C   UNL A   1      37.723  32.576  31.196  1.00  0.00     0.031 A 
ATOM     43  C   UNL A   1      38.395  31.392  30.556  1.00  0.00     0.074 A 
ATOM     44  C   UNL A   1      38.184  33.065  32.362  1.00  0.00     0.049 A 
ATOM     45  N   UNL A   1      39.421  30.696  30.976  1.00  0.00    -0.248 NA
ATOM     46  C   UNL A   1      37.818  30.909  29.291  1.00  0.00     0.031 C 
ATOM     47  C   UNL A   1      37.590  34.177  33.108  1.00  0.00     0.029 A 
ATOM     48  N   UNL A   1      39.254  32.683  33.129  1.00  0.00    -0.354 N 
ATOM     49  C   UNL A   1      39.595  29.681  30.043  1.00  0.00     0.074 A 
ATOM     50  C   UNL A   1      38.545  29.826  29.057  1.00  0.00     0.031 C 
ATOM     51  C   UNL A   1      38.320  34.401  34.213  1.00  0.00     0.029 A 
ATOM     52  C   UNL A   1      39.414  33.436  34.266  1.00  0.00     0.049 A 
ATOM     53  H   UNL A   1      39.853  31.940  32.886  1.00  0.00     0.167 HD
ATOM     54  C   UNL A   1      40.552  28.725  30.000  1.00  0.00     0.037 A 
ATOM     55  C   UNL A   1      40.341  33.358  35.238  1.00  0.00     0.037 A 
ATOM     56  C   UNL A   1      41.623  28.609  30.954  1.00  0.00     0.049 A 
ATOM     57  C   UNL A   1      41.423  32.321  35.142  1.00  0.00     0.074 A 
ATOM     58  C   UNL A   1      42.680  27.716  30.962  1.00  0.00     0.029 A 
ATOM     59  N   UNL A   1      41.774  29.420  32.068  1.00  0.00    -0.354 N 
ATOM     60  N   UNL A   1      41.607  31.403  34.226  1.00  0.00    -0.248 NA
ATOM     61  C   UNL A   1      42.432  32.316  36.212  1.00  0.00     0.031 C 
ATOM     62  C   UNL A   1      43.461  27.973  32.095  1.00  0.00     0.029 A 
ATOM     63  C   UNL A   1      42.906  29.045  32.774  1.00  0.00     0.049 A 
ATOM     64  H   UNL A   1      41.169  30.154  32.320  1.00  0.00     0.167 HD
ATOM     65  C   UNL A   1      42.762  30.726  34.594  1.00  0.00     0.074 A 
ATOM     66  C   UNL A   1      43.242  31.347  35.811  1.00  0.00     0.031 C 
ATOM     67  C   UNL A   1      43.371  29.683  33.978  1.00  0.00     0.037 A 
BRANCH  54  68
ATOM     68  C   UNL A   1      40.488  27.737  28.875  1.00  0.00     0.057 A 
ATOM     69  C   UNL A   1      39.647  26.617  28.924  1.00  0.00     0.134 A 
ATOM     70  C   UNL A   1      41.261  27.915  27.722  1.00  0.00     0.134 A 
ATOM     71  F   UNL A   1      38.892  26.382  30.009  1.00  0.00    -0.206 F 
ATOM     72  C   UNL A   1      39.597  25.695  27.878  1.00  0.00     0.040 A 
ATOM     73  C   UNL A   1      41.204  27.012  26.658  1.00  0.00     0.040 A 
ATOM     74  F   UNL A   1      42.085  28.968  27.609  1.00  0.00    -0.206 F 
ATOM     75  C   UNL A   1      40.374  25.894  26.738  1.00  0.00     0.006 A 
ENDBRANCH  54  68
BRANCH  55  76
ATOM     76  C   UNL A   1      40.310  34.319  36.366  1.00  0.00     0.057 A 
ATOM     77  C   UNL A   1      39.676  33.993  37.570  1.00  0.00     0.134 A 
ATOM     78  C   UNL A   1      40.913  35.578  36.272  1.00  0.00     0.134 A 
ATOM     79  F   UNL A   1      39.066  32.806  37.711  1.00  0.00    -0.206 F 
ATOM     80  C   UNL A   1      39.632  34.889  38.639  1.00  0.00     0.040 A 
ATOM     81  C   UNL A   1      40.893  36.477  37.338  1.00  0.00     0.040 A 
ATOM     82  F   UNL A   1      41.541  35.945  35.145  1.00  0.00    -0.206 F 
ATOM     83  C   UNL A   1      40.246  36.135  38.525  1.00  0.00     0.006 A 
ENDBRANCH  55  76
BRANCH  67  84
ATOM     84  C   UNL A   1      44.635  29.171  34.597  1.00  0.00     0.057 A 
ATOM     85  C   UNL A   1      45.887  29.695  34.250  1.00  0.00     0.134 A 
ATOM     86  C   UNL A   1      44.597  28.166  35.570  1.00  0.00     0.134 A 
ATOM     87  F   UNL A   1      45.988  30.650  33.313  1.00  0.00    -0.206 F 
ATOM     88  C   UNL A   1      47.060  29.223  34.840  1.00  0.00     0.040 A 
ATOM     89  C   UNL A   1      45.761  27.701  36.182  1.00  0.00     0.040 A 
ATOM     90  F   UNL A   1      43.428  27.629  35.949  1.00  0.00    -0.206 F 
ATOM     91  C   UNL A   1      46.998  28.226  35.813  1.00  0.00     0.006 A 
ENDBRANCH  67  84
ENDBRANCH  41  42
ENDBRANCH  33  36
ENDBRANCH  31  32
ENDBRANCH  30  31
ENDBRANCH   1  30
TORSDOF 14
ENDMDL
