MODEL 1
REMARK VINA RESULT:     -13.7      0.000      0.000
REMARK SMILES CC(=O)Nc1cnc(N2CC=C(c3ccccc3C)CC2)c(C(=O)NCCCNC(=O)c2ccc(-c3c4nc(c(-c5c(F)cccc5F)c5ccc([nH]5)c(-c5c(F)cccc5F)c5nc(c(-c6c(F)cccc6F)c6ccc3[nH]6)C=C5)C=C4)cc2)c1
REMARK SMILES IDX 27 1 26 2 25 3 23 4 24 5 22 7 5 8 6 9 86 10 7 11 8 12 4 13
REMARK SMILES IDX 1 14 2 15 3 16 9 18 10 19 21 20 11 21 20 22 12 23 13 24
REMARK SMILES IDX 14 25 18 26 15 27 17 28 19 29 16 30 28 31 29 32 30 33 31 35
REMARK SMILES IDX 32 36 33 37 85 38 34 39 84 40 35 41 36 42 37 43 78 44 38 45
REMARK SMILES IDX 83 46 77 47 79 48 39 49 82 50 76 51 75 52 40 54 66 55 49 56
REMARK SMILES IDX 65 57 50 58 53 59 64 60 80 61 51 62 52 63 63 65 81 66 54 67
REMARK SMILES IDX 41 68 42 69 47 70 43 71 44 72 46 73 48 74 45 75 67 76 68 77
REMARK SMILES IDX 73 78 69 79 70 80 72 81 74 82 71 83 55 84 56 85 61 86 57 87
REMARK SMILES IDX 58 88 60 89 62 90 59 91
REMARK H PARENT 25 6 4 17 29 34 79 53 53 64
REMARK Flexibility Score: inf
ROOT
ATOM      1  C   UNL A   1      33.618  29.913  26.161  1.00  0.00     0.042 C 
ENDROOT
BRANCH   1   2
ATOM      2  C   UNL A   1      33.843  28.485  25.662  1.00  0.00     0.118 C 
BRANCH   2   3
ATOM      3  N   UNL A   1      34.253  28.463  24.267  1.00  0.00    -0.352 N 
ATOM      4  C   UNL A   1      33.618  28.508  23.045  1.00  0.00     0.255 C 
ATOM      5  O   UNL A   1      34.412  28.521  22.104  1.00  0.00    -0.269 OA
ATOM      6  H   UNL A   1      35.231  28.398  24.173  1.00  0.00     0.163 HD
BRANCH   4   7
ATOM      7  C   UNL A   1      32.123  28.541  22.824  1.00  0.00     0.084 A 
ATOM      8  C   UNL A   1      30.108  29.771  22.147  1.00  0.00     0.060 A 
ATOM      9  C   UNL A   1      29.399  28.607  22.350  1.00  0.00     0.139 A 
ATOM     10  C   UNL A   1      31.470  29.724  22.422  1.00  0.00     0.045 A 
ATOM     11  N   UNL A   1      29.966  27.448  22.736  1.00  0.00    -0.236 NA
ATOM     12  C   UNL A   1      31.308  27.395  22.983  1.00  0.00     0.141 A 
BRANCH   8  13
ATOM     13  N   UNL A   1      29.421  30.931  21.750  1.00  0.00    -0.325 N 
ATOM     14  C   UNL A   1      28.371  31.636  23.903  1.00  0.00     0.114 C 
ATOM     15  C   UNL A   1      28.525  31.724  22.409  1.00  0.00     0.221 C 
ATOM     16  O   UNL A   1      27.885  32.559  21.766  1.00  0.00    -0.275 OA
ATOM     17  H   UNL A   1      29.621  31.225  20.833  1.00  0.00     0.169 HD
ENDBRANCH   8  13
BRANCH  12  18
ATOM     18  N   UNL A   1      31.730  26.156  23.394  1.00  0.00    -0.352 N 
ATOM     19  C   UNL A   1      31.767  25.873  24.821  1.00  0.00     0.146 C 
ATOM     20  C   UNL A   1      32.277  25.181  22.458  1.00  0.00     0.123 C 
ATOM     21  C   UNL A   1      32.897  24.947  25.184  1.00  0.00    -0.002 C 
ATOM     22  C   UNL A   1      33.712  24.806  22.850  1.00  0.00     0.057 C 
ATOM     23  C   UNL A   1      33.798  24.460  24.313  1.00  0.00    -0.041 C 
BRANCH  23  24
ATOM     24  C   UNL A   1      34.861  23.539  24.759  1.00  0.00    -0.020 A 
ATOM     25  C   UNL A   1      36.048  24.098  25.267  1.00  0.00     0.008 A 
ATOM     26  C   UNL A   1      34.734  22.136  24.702  1.00  0.00    -0.044 A 
ATOM     27  C   UNL A   1      37.087  23.289  25.725  1.00  0.00     0.001 A 
ATOM     28  C   UNL A   1      35.786  21.334  25.183  1.00  0.00     0.004 A 
ATOM     29  C   UNL A   1      33.503  21.460  24.166  1.00  0.00     0.045 C 
ATOM     30  C   UNL A   1      36.954  21.905  25.687  1.00  0.00     0.000 A 
ENDBRANCH  23  24
ENDBRANCH  12  18
ENDBRANCH   4   7
ENDBRANCH   2   3
ENDBRANCH   1   2
BRANCH   1  31
ATOM     31  C   UNL A   1      33.497  30.019  27.670  1.00  0.00     0.118 C 
BRANCH  31  32
ATOM     32  N   UNL A   1      34.160  31.195  28.231  1.00  0.00    -0.352 N 
ATOM     33  C   UNL A   1      35.458  31.294  28.707  1.00  0.00     0.251 C 
ATOM     34  H   UNL A   1      33.619  32.016  28.275  1.00  0.00     0.163 HD
ATOM     35  O   UNL A   1      35.899  32.350  29.125  1.00  0.00    -0.269 OA
BRANCH  33  36
ATOM     36  C   UNL A   1      36.329  30.106  28.576  1.00  0.00     0.039 A 
ATOM     37  C   UNL A   1      36.580  29.365  29.734  1.00  0.00     0.014 A 
ATOM     38  C   UNL A   1      37.094  29.928  27.424  1.00  0.00     0.014 A 
ATOM     39  C   UNL A   1      37.760  28.636  29.817  1.00  0.00     0.010 A 
ATOM     40  C   UNL A   1      38.305  29.275  27.537  1.00  0.00     0.010 A 
ATOM     41  C   UNL A   1      38.669  28.702  28.761  1.00  0.00    -0.014 A 
BRANCH  41  42
ATOM     42  C   UNL A   1      40.065  28.322  28.919  1.00  0.00     0.031 A 
ATOM     43  C   UNL A   1      40.525  26.979  28.527  1.00  0.00     0.074 A 
ATOM     44  C   UNL A   1      40.951  29.206  29.433  1.00  0.00     0.049 A 
ATOM     45  N   UNL A   1      41.587  26.427  29.010  1.00  0.00    -0.248 NA
ATOM     46  C   UNL A   1      39.783  26.101  27.625  1.00  0.00     0.031 C 
ATOM     47  C   UNL A   1      42.409  29.093  29.449  1.00  0.00     0.029 A 
ATOM     48  N   UNL A   1      40.677  30.281  30.297  1.00  0.00    -0.354 N 
ATOM     49  C   UNL A   1      41.852  25.326  28.241  1.00  0.00     0.074 A 
ATOM     50  C   UNL A   1      40.627  25.067  27.529  1.00  0.00     0.031 C 
ATOM     51  C   UNL A   1      42.885  29.804  30.483  1.00  0.00     0.029 A 
ATOM     52  C   UNL A   1      41.738  30.285  31.233  1.00  0.00     0.049 A 
ATOM     53  H   UNL A   1      39.912  30.898  30.259  1.00  0.00     0.167 HD
ATOM     54  C   UNL A   1      43.134  24.877  28.166  1.00  0.00     0.037 A 
ATOM     55  C   UNL A   1      41.536  30.085  32.563  1.00  0.00     0.037 A 
ATOM     56  C   UNL A   1      43.969  25.442  29.228  1.00  0.00     0.049 A 
ATOM     57  C   UNL A   1      42.337  28.957  33.167  1.00  0.00     0.074 A 
ATOM     58  C   UNL A   1      45.059  26.295  29.256  1.00  0.00     0.029 A 
ATOM     59  N   UNL A   1      43.572  25.278  30.553  1.00  0.00    -0.354 N 
ATOM     60  N   UNL A   1      42.947  28.031  32.481  1.00  0.00    -0.248 NA
ATOM     61  C   UNL A   1      42.479  28.765  34.604  1.00  0.00     0.031 C 
ATOM     62  C   UNL A   1      45.285  26.675  30.610  1.00  0.00     0.029 A 
ATOM     63  C   UNL A   1      44.358  26.024  31.407  1.00  0.00     0.049 A 
ATOM     64  H   UNL A   1      42.825  24.705  30.844  1.00  0.00     0.167 HD
ATOM     65  C   UNL A   1      43.508  27.108  33.335  1.00  0.00     0.074 A 
ATOM     66  C   UNL A   1      43.223  27.646  34.652  1.00  0.00     0.031 C 
ATOM     67  C   UNL A   1      44.121  25.981  32.851  1.00  0.00     0.037 A 
BRANCH  54  68
ATOM     68  C   UNL A   1      43.689  24.065  27.014  1.00  0.00     0.057 A 
ATOM     69  C   UNL A   1      44.292  24.707  25.916  1.00  0.00     0.134 A 
ATOM     70  C   UNL A   1      43.541  22.670  26.855  1.00  0.00     0.134 A 
ATOM     71  F   UNL A   1      44.482  26.034  25.901  1.00  0.00    -0.206 F 
ATOM     72  C   UNL A   1      44.709  24.020  24.764  1.00  0.00     0.040 A 
ATOM     73  C   UNL A   1      44.007  21.966  25.737  1.00  0.00     0.040 A 
ATOM     74  F   UNL A   1      42.877  21.910  27.735  1.00  0.00    -0.206 F 
ATOM     75  C   UNL A   1      44.580  22.642  24.676  1.00  0.00     0.006 A 
ENDBRANCH  54  68
BRANCH  55  76
ATOM     76  C   UNL A   1      40.209  30.536  33.046  1.00  0.00     0.057 A 
ATOM     77  C   UNL A   1      39.966  31.914  33.179  1.00  0.00     0.134 A 
ATOM     78  C   UNL A   1      39.097  29.691  33.041  1.00  0.00     0.134 A 
ATOM     79  F   UNL A   1      40.991  32.781  33.190  1.00  0.00    -0.206 F 
ATOM     80  C   UNL A   1      38.670  32.438  33.203  1.00  0.00     0.040 A 
ATOM     81  C   UNL A   1      37.793  30.203  33.072  1.00  0.00     0.040 A 
ATOM     82  F   UNL A   1      39.247  28.367  32.893  1.00  0.00    -0.206 F 
ATOM     83  C   UNL A   1      37.579  31.580  33.117  1.00  0.00     0.006 A 
ENDBRANCH  55  76
BRANCH  67  84
ATOM     84  C   UNL A   1      44.598  24.746  33.621  1.00  0.00     0.057 A 
ATOM     85  C   UNL A   1      45.922  24.291  33.731  1.00  0.00     0.134 A 
ATOM     86  C   UNL A   1      43.676  23.991  34.397  1.00  0.00     0.134 A 
ATOM     87  F   UNL A   1      46.947  24.924  33.157  1.00  0.00    -0.206 F 
ATOM     88  C   UNL A   1      46.290  23.168  34.493  1.00  0.00     0.040 A 
ATOM     89  C   UNL A   1      44.040  22.901  35.199  1.00  0.00     0.040 A 
ATOM     90  F   UNL A   1      42.370  24.284  34.440  1.00  0.00    -0.206 F 
ATOM     91  C   UNL A   1      45.351  22.473  35.241  1.00  0.00     0.006 A 
ENDBRANCH  67  84
ENDBRANCH  41  42
ENDBRANCH  33  36
ENDBRANCH  31  32
ENDBRANCH   1  31
TORSDOF 13
ENDMDL
MODEL 2
REMARK VINA RESULT:     -13.5      1.581      4.785
REMARK SMILES CC(=O)Nc1cnc(N2CC=C(c3ccccc3C)CC2)c(C(=O)NCCCNC(=O)c2ccc(-c3c4nc(c(-c5c(F)cccc5F)c5ccc([nH]5)c(-c5c(F)cccc5F)c5nc(c(-c6c(F)cccc6F)c6ccc3[nH]6)C=C5)C=C4)cc2)c1
REMARK SMILES IDX 27 1 26 2 25 3 23 4 24 5 22 7 5 8 6 9 86 10 7 11 8 12 4 13
REMARK SMILES IDX 1 14 2 15 3 16 9 18 10 19 21 20 11 21 20 22 12 23 13 24
REMARK SMILES IDX 14 25 18 26 15 27 17 28 19 29 16 30 28 31 29 32 30 33 31 35
REMARK SMILES IDX 32 36 33 37 85 38 34 39 84 40 35 41 36 42 37 43 78 44 38 45
REMARK SMILES IDX 83 46 77 47 79 48 39 49 82 50 76 51 75 52 40 54 66 55 49 56
REMARK SMILES IDX 65 57 50 58 53 59 64 60 80 61 51 62 52 63 63 65 81 66 54 67
REMARK SMILES IDX 41 68 42 69 47 70 43 71 44 72 46 73 48 74 45 75 67 76 68 77
REMARK SMILES IDX 73 78 69 79 70 80 72 81 74 82 71 83 55 84 56 85 61 86 57 87
REMARK SMILES IDX 58 88 60 89 62 90 59 91
REMARK H PARENT 25 6 4 17 29 34 79 53 53 64
REMARK Flexibility Score: inf
ROOT
ATOM      1  C   UNL A   1      33.809  29.844  26.390  1.00  0.00     0.042 C 
ENDROOT
BRANCH   1   2
ATOM      2  C   UNL A   1      34.107  28.428  25.895  1.00  0.00     0.118 C 
BRANCH   2   3
ATOM      3  N   UNL A   1      33.078  27.488  26.309  1.00  0.00    -0.352 N 
ATOM      4  C   UNL A   1      32.782  26.166  26.056  1.00  0.00     0.255 C 
ATOM      5  O   UNL A   1      31.809  25.772  26.701  1.00  0.00    -0.269 OA
ATOM      6  H   UNL A   1      32.429  27.900  26.924  1.00  0.00     0.163 HD
BRANCH   4   7
ATOM      7  C   UNL A   1      33.530  25.256  25.109  1.00  0.00     0.084 A 
ATOM      8  C   UNL A   1      35.110  23.411  24.749  1.00  0.00     0.060 A 
ATOM      9  C   UNL A   1      34.859  23.536  23.399  1.00  0.00     0.139 A 
ATOM     10  C   UNL A   1      34.455  24.306  25.587  1.00  0.00     0.045 A 
ATOM     11  N   UNL A   1      33.988  24.426  22.883  1.00  0.00    -0.236 NA
ATOM     12  C   UNL A   1      33.327  25.289  23.709  1.00  0.00     0.141 A 
BRANCH   8  13
ATOM     13  N   UNL A   1      36.043  22.455  25.186  1.00  0.00    -0.325 N 
ATOM     14  C   UNL A   1      37.913  23.917  25.956  1.00  0.00     0.114 C 
ATOM     15  C   UNL A   1      37.342  22.575  25.590  1.00  0.00     0.221 C 
ATOM     16  O   UNL A   1      38.025  21.556  25.708  1.00  0.00    -0.275 OA
ATOM     17  H   UNL A   1      35.699  21.534  25.204  1.00  0.00     0.169 HD
ENDBRANCH   8  13
BRANCH  12  18
ATOM     18  N   UNL A   1      32.500  26.150  23.034  1.00  0.00    -0.352 N 
ATOM     19  C   UNL A   1      33.044  27.418  22.572  1.00  0.00     0.146 C 
ATOM     20  C   UNL A   1      31.070  25.894  22.900  1.00  0.00     0.123 C 
ATOM     21  C   UNL A   1      32.018  28.519  22.607  1.00  0.00    -0.002 C 
ATOM     22  C   UNL A   1      30.260  27.037  23.526  1.00  0.00     0.057 C 
ATOM     23  C   UNL A   1      30.754  28.375  23.046  1.00  0.00    -0.041 C 
BRANCH  23  24
ATOM     24  C   UNL A   1      29.812  29.510  23.023  1.00  0.00    -0.020 A 
ATOM     25  C   UNL A   1      28.841  29.540  22.005  1.00  0.00     0.008 A 
ATOM     26  C   UNL A   1      29.842  30.550  23.973  1.00  0.00    -0.044 A 
ATOM     27  C   UNL A   1      27.905  30.572  21.933  1.00  0.00     0.001 A 
ATOM     28  C   UNL A   1      28.880  31.576  23.896  1.00  0.00     0.004 A 
ATOM     29  C   UNL A   1      30.852  30.597  25.085  1.00  0.00     0.045 C 
ATOM     30  C   UNL A   1      27.922  31.589  22.882  1.00  0.00     0.000 A 
ENDBRANCH  23  24
ENDBRANCH  12  18
ENDBRANCH   4   7
ENDBRANCH   2   3
ENDBRANCH   1   2
BRANCH   1  31
ATOM     31  C   UNL A   1      33.721  29.955  27.901  1.00  0.00     0.118 C 
BRANCH  31  32
ATOM     32  N   UNL A   1      34.361  31.153  28.440  1.00  0.00    -0.352 N 
ATOM     33  C   UNL A   1      35.676  31.302  28.855  1.00  0.00     0.251 C 
ATOM     34  H   UNL A   1      33.790  31.951  28.517  1.00  0.00     0.163 HD
ATOM     35  O   UNL A   1      36.094  32.373  29.260  1.00  0.00    -0.269 OA
BRANCH  33  36
ATOM     36  C   UNL A   1      36.587  30.152  28.671  1.00  0.00     0.039 A 
ATOM     37  C   UNL A   1      36.799  29.321  29.775  1.00  0.00     0.014 A 
ATOM     38  C   UNL A   1      37.417  30.093  27.552  1.00  0.00     0.014 A 
ATOM     39  C   UNL A   1      37.993  28.616  29.861  1.00  0.00     0.010 A 
ATOM     40  C   UNL A   1      38.639  29.464  27.676  1.00  0.00     0.010 A 
ATOM     41  C   UNL A   1      38.954  28.796  28.865  1.00  0.00    -0.014 A 
BRANCH  41  42
ATOM     42  C   UNL A   1      40.351  28.439  29.067  1.00  0.00     0.031 A 
ATOM     43  C   UNL A   1      40.870  27.146  28.589  1.00  0.00     0.074 A 
ATOM     44  C   UNL A   1      41.182  29.297  29.704  1.00  0.00     0.049 A 
ATOM     45  N   UNL A   1      41.922  26.581  29.080  1.00  0.00    -0.248 NA
ATOM     46  C   UNL A   1      40.204  26.332  27.575  1.00  0.00     0.031 C 
ATOM     47  C   UNL A   1      42.640  29.218  29.791  1.00  0.00     0.029 A 
ATOM     48  N   UNL A   1      40.831  30.285  30.640  1.00  0.00    -0.354 N 
ATOM     49  C   UNL A   1      42.259  25.558  28.236  1.00  0.00     0.074 A 
ATOM     50  C   UNL A   1      41.082  25.331  27.438  1.00  0.00     0.031 C 
ATOM     51  C   UNL A   1      43.039  29.848  30.906  1.00  0.00     0.029 A 
ATOM     52  C   UNL A   1      41.840  30.234  31.629  1.00  0.00     0.049 A 
ATOM     53  H   UNL A   1      40.051  30.884  30.612  1.00  0.00     0.167 HD
ATOM     54  C   UNL A   1      43.556  25.150  28.195  1.00  0.00     0.037 A 
ATOM     55  C   UNL A   1      41.574  29.914  32.925  1.00  0.00     0.037 A 
ATOM     56  C   UNL A   1      44.316  25.641  29.346  1.00  0.00     0.049 A 
ATOM     57  C   UNL A   1      42.374  28.758  33.474  1.00  0.00     0.074 A 
ATOM     58  C   UNL A   1      45.377  26.514  29.507  1.00  0.00     0.029 A 
ATOM     59  N   UNL A   1      43.854  25.352  30.628  1.00  0.00    -0.354 N 
ATOM     60  N   UNL A   1      43.047  27.911  32.746  1.00  0.00    -0.248 NA
ATOM     61  C   UNL A   1      42.446  28.446  34.895  1.00  0.00     0.031 C 
ATOM     62  C   UNL A   1      45.520  26.781  30.899  1.00  0.00     0.029 A 
ATOM     63  C   UNL A   1      44.572  26.040  31.584  1.00  0.00     0.049 A 
ATOM     64  H   UNL A   1      43.111  24.737  30.826  1.00  0.00     0.167 HD
ATOM     65  C   UNL A   1      43.589  26.932  33.547  1.00  0.00     0.074 A 
ATOM     66  C   UNL A   1      43.218  27.346  34.888  1.00  0.00     0.031 C 
ATOM     67  C   UNL A   1      44.260  25.866  33.004  1.00  0.00     0.037 A 
BRANCH  54  68
ATOM     68  C   UNL A   1      44.196  24.454  27.010  1.00  0.00     0.057 A 
ATOM     69  C   UNL A   1      44.097  23.057  26.867  1.00  0.00     0.134 A 
ATOM     70  C   UNL A   1      45.033  25.072  26.056  1.00  0.00     0.134 A 
ATOM     71  F   UNL A   1      43.359  22.319  27.709  1.00  0.00    -0.206 F 
ATOM     72  C   UNL A   1      44.773  22.342  25.865  1.00  0.00     0.040 A 
ATOM     73  C   UNL A   1      45.664  24.378  25.016  1.00  0.00     0.040 A 
ATOM     74  F   UNL A   1      45.350  26.372  26.110  1.00  0.00    -0.206 F 
ATOM     75  C   UNL A   1      45.549  23.003  24.925  1.00  0.00     0.006 A 
ENDBRANCH  54  68
BRANCH  55  76
ATOM     76  C   UNL A   1      40.210  30.289  33.370  1.00  0.00     0.057 A 
ATOM     77  C   UNL A   1      39.932  31.637  33.651  1.00  0.00     0.134 A 
ATOM     78  C   UNL A   1      39.117  29.438  33.190  1.00  0.00     0.134 A 
ATOM     79  F   UNL A   1      40.938  32.508  33.835  1.00  0.00    -0.206 F 
ATOM     80  C   UNL A   1      38.628  32.140  33.654  1.00  0.00     0.040 A 
ATOM     81  C   UNL A   1      37.805  29.928  33.197  1.00  0.00     0.040 A 
ATOM     82  F   UNL A   1      39.301  28.144  32.894  1.00  0.00    -0.206 F 
ATOM     83  C   UNL A   1      37.561  31.287  33.393  1.00  0.00     0.006 A 
ENDBRANCH  55  76
BRANCH  67  84
ATOM     84  C   UNL A   1      44.732  24.582  33.691  1.00  0.00     0.057 A 
ATOM     85  C   UNL A   1      46.061  24.153  33.836  1.00  0.00     0.134 A 
ATOM     86  C   UNL A   1      43.793  23.737  34.345  1.00  0.00     0.134 A 
ATOM     87  F   UNL A   1      47.096  24.860  33.379  1.00  0.00    -0.206 F 
ATOM     88  C   UNL A   1      46.421  22.977  34.520  1.00  0.00     0.040 A 
ATOM     89  C   UNL A   1      44.144  22.591  35.069  1.00  0.00     0.040 A 
ATOM     90  F   UNL A   1      42.477  23.992  34.338  1.00  0.00    -0.206 F 
ATOM     91  C   UNL A   1      45.464  22.196  35.149  1.00  0.00     0.006 A 
ENDBRANCH  67  84
ENDBRANCH  41  42
ENDBRANCH  33  36
ENDBRANCH  31  32
ENDBRANCH   1  31
TORSDOF 13
ENDMDL
MODEL 3
REMARK VINA RESULT:     -13.3      4.123      9.570
REMARK SMILES CC(=O)Nc1cnc(N2CC=C(c3ccccc3C)CC2)c(C(=O)NCCCNC(=O)c2ccc(-c3c4nc(c(-c5c(F)cccc5F)c5ccc([nH]5)c(-c5c(F)cccc5F)c5nc(c(-c6c(F)cccc6F)c6ccc3[nH]6)C=C5)C=C4)cc2)c1
REMARK SMILES IDX 27 1 26 2 25 3 23 4 24 5 22 7 5 8 6 9 86 10 7 11 8 12 4 13
REMARK SMILES IDX 1 14 2 15 3 16 9 18 10 19 21 20 11 21 20 22 12 23 13 24
REMARK SMILES IDX 14 25 18 26 15 27 17 28 19 29 16 30 28 31 29 32 30 33 31 35
REMARK SMILES IDX 32 36 33 37 85 38 34 39 84 40 35 41 36 42 37 43 78 44 38 45
REMARK SMILES IDX 83 46 77 47 79 48 39 49 82 50 76 51 75 52 40 54 66 55 49 56
REMARK SMILES IDX 65 57 50 58 53 59 64 60 80 61 51 62 52 63 63 65 81 66 54 67
REMARK SMILES IDX 41 68 42 69 47 70 43 71 44 72 46 73 48 74 45 75 67 76 68 77
REMARK SMILES IDX 73 78 69 79 70 80 72 81 74 82 71 83 55 84 56 85 61 86 57 87
REMARK SMILES IDX 58 88 60 89 62 90 59 91
REMARK H PARENT 25 6 4 17 29 34 79 53 53 64
REMARK Flexibility Score: inf
ROOT
ATOM      1  C   UNL A   1      38.543  21.726  25.510  1.00  0.00     0.042 C 
ENDROOT
BRANCH   1   2
ATOM      2  C   UNL A   1      37.255  22.323  24.940  1.00  0.00     0.118 C 
BRANCH   2   3
ATOM      3  N   UNL A   1      36.224  22.444  25.958  1.00  0.00    -0.352 N 
ATOM      4  C   UNL A   1      34.996  21.867  26.200  1.00  0.00     0.255 C 
ATOM      5  O   UNL A   1      34.495  22.257  27.256  1.00  0.00    -0.269 OA
ATOM      6  H   UNL A   1      36.463  23.105  26.647  1.00  0.00     0.163 HD
BRANCH   4   7
ATOM      7  C   UNL A   1      34.297  20.865  25.311  1.00  0.00     0.084 A 
ATOM      8  C   UNL A   1      34.029  18.554  24.524  1.00  0.00     0.060 A 
ATOM      9  C   UNL A   1      32.988  19.002  23.740  1.00  0.00     0.139 A 
ATOM     10  C   UNL A   1      34.693  19.513  25.281  1.00  0.00     0.045 A 
ATOM     11  N   UNL A   1      32.566  20.281  23.724  1.00  0.00    -0.236 NA
ATOM     12  C   UNL A   1      33.202  21.218  24.485  1.00  0.00     0.141 A 
BRANCH   8  13
ATOM     13  N   UNL A   1      34.398  17.199  24.464  1.00  0.00    -0.325 N 
ATOM     14  C   UNL A   1      32.609  16.143  25.847  1.00  0.00     0.114 C 
ATOM     15  C   UNL A   1      33.927  16.100  25.124  1.00  0.00     0.221 C 
ATOM     16  O   UNL A   1      34.572  15.051  25.067  1.00  0.00    -0.275 OA
ATOM     17  H   UNL A   1      35.128  17.008  23.832  1.00  0.00     0.169 HD
ENDBRANCH   8  13
BRANCH  12  18
ATOM     18  N   UNL A   1      32.676  22.477  24.339  1.00  0.00    -0.352 N 
ATOM     19  C   UNL A   1      33.327  23.401  23.423  1.00  0.00     0.146 C 
ATOM     20  C   UNL A   1      31.584  22.955  25.180  1.00  0.00     0.123 C 
ATOM     21  C   UNL A   1      33.235  24.826  23.897  1.00  0.00    -0.002 C 
ATOM     22  C   UNL A   1      32.015  24.204  25.960  1.00  0.00     0.057 C 
ATOM     23  C   UNL A   1      32.657  25.215  25.047  1.00  0.00    -0.041 C 
BRANCH  23  24
ATOM     24  C   UNL A   1      32.596  26.641  25.419  1.00  0.00    -0.020 A 
ATOM     25  C   UNL A   1      33.675  27.181  26.143  1.00  0.00     0.008 A 
ATOM     26  C   UNL A   1      31.514  27.477  25.077  1.00  0.00    -0.044 A 
ATOM     27  C   UNL A   1      33.694  28.526  26.512  1.00  0.00     0.001 A 
ATOM     28  C   UNL A   1      31.557  28.836  25.442  1.00  0.00     0.004 A 
ATOM     29  C   UNL A   1      30.320  26.977  24.313  1.00  0.00     0.045 C 
ATOM     30  C   UNL A   1      32.636  29.355  26.157  1.00  0.00     0.000 A 
ENDBRANCH  23  24
ENDBRANCH  12  18
ENDBRANCH   4   7
ENDBRANCH   2   3
ENDBRANCH   1   2
BRANCH   1  31
ATOM     31  C   UNL A   1      39.197  22.592  26.572  1.00  0.00     0.118 C 
BRANCH  31  32
ATOM     32  N   UNL A   1      40.618  22.835  26.337  1.00  0.00    -0.352 N 
ATOM     33  C   UNL A   1      41.300  24.039  26.417  1.00  0.00     0.251 C 
ATOM     34  H   UNL A   1      41.157  22.048  26.094  1.00  0.00     0.163 HD
ATOM     35  O   UNL A   1      42.502  24.100  26.225  1.00  0.00    -0.269 OA
BRANCH  33  36
ATOM     36  C   UNL A   1      40.543  25.227  26.866  1.00  0.00     0.039 A 
ATOM     37  C   UNL A   1      40.774  26.428  26.189  1.00  0.00     0.014 A 
ATOM     38  C   UNL A   1      39.874  25.205  28.090  1.00  0.00     0.014 A 
ATOM     39  C   UNL A   1      40.566  27.625  26.863  1.00  0.00     0.010 A 
ATOM     40  C   UNL A   1      39.749  26.388  28.789  1.00  0.00     0.010 A 
ATOM     41  C   UNL A   1      40.173  27.586  28.201  1.00  0.00    -0.014 A 
BRANCH  41  42
ATOM     42  C   UNL A   1      40.323  28.733  29.084  1.00  0.00     0.031 A 
ATOM     43  C   UNL A   1      39.292  29.784  29.129  1.00  0.00     0.074 A 
ATOM     44  C   UNL A   1      41.420  28.843  29.869  1.00  0.00     0.049 A 
ATOM     45  N   UNL A   1      39.527  30.989  29.526  1.00  0.00    -0.248 NA
ATOM     46  C   UNL A   1      37.925  29.596  28.647  1.00  0.00     0.031 C 
ATOM     47  C   UNL A   1      41.633  29.782  30.970  1.00  0.00     0.029 A 
ATOM     48  N   UNL A   1      42.689  28.283  29.641  1.00  0.00    -0.354 N 
ATOM     49  C   UNL A   1      38.314  31.602  29.691  1.00  0.00     0.074 A 
ATOM     50  C   UNL A   1      37.380  30.776  28.969  1.00  0.00     0.031 C 
ATOM     51  C   UNL A   1      42.951  29.985  31.114  1.00  0.00     0.029 A 
ATOM     52  C   UNL A   1      43.611  29.283  30.028  1.00  0.00     0.049 A 
ATOM     53  H   UNL A   1      42.892  27.387  29.288  1.00  0.00     0.167 HD
ATOM     54  C   UNL A   1      38.221  32.636  30.569  1.00  0.00     0.037 A 
ATOM     55  C   UNL A   1      44.484  29.847  29.150  1.00  0.00     0.037 A 
ATOM     56  C   UNL A   1      39.540  33.162  30.928  1.00  0.00     0.049 A 
ATOM     57  C   UNL A   1      44.416  31.353  29.063  1.00  0.00     0.074 A 
ATOM     58  C   UNL A   1      40.278  33.214  32.097  1.00  0.00     0.029 A 
ATOM     59  N   UNL A   1      40.393  33.586  29.912  1.00  0.00    -0.354 N 
ATOM     60  N   UNL A   1      43.437  32.078  29.527  1.00  0.00    -0.248 NA
ATOM     61  C   UNL A   1      45.439  32.157  28.409  1.00  0.00     0.031 C 
ATOM     62  C   UNL A   1      41.598  33.634  31.765  1.00  0.00     0.029 A 
ATOM     63  C   UNL A   1      41.650  33.872  30.402  1.00  0.00     0.049 A 
ATOM     64  H   UNL A   1      40.133  33.669  28.965  1.00  0.00     0.167 HD
ATOM     65  C   UNL A   1      43.643  33.401  29.208  1.00  0.00     0.074 A 
ATOM     66  C   UNL A   1      44.936  33.395  28.550  1.00  0.00     0.031 C 
ATOM     67  C   UNL A   1      42.699  34.353  29.500  1.00  0.00     0.037 A 
BRANCH  54  68
ATOM     68  C   UNL A   1      36.940  33.060  31.257  1.00  0.00     0.057 A 
ATOM     69  C   UNL A   1      36.621  32.565  32.537  1.00  0.00     0.134 A 
ATOM     70  C   UNL A   1      35.916  33.834  30.669  1.00  0.00     0.134 A 
ATOM     71  F   UNL A   1      37.478  31.793  33.219  1.00  0.00    -0.206 F 
ATOM     72  C   UNL A   1      35.394  32.818  33.170  1.00  0.00     0.040 A 
ATOM     73  C   UNL A   1      34.713  34.143  31.315  1.00  0.00     0.040 A 
ATOM     74  F   UNL A   1      35.985  34.281  29.409  1.00  0.00    -0.206 F 
ATOM     75  C   UNL A   1      34.438  33.622  32.566  1.00  0.00     0.006 A 
ENDBRANCH  54  68
BRANCH  55  76
ATOM     76  C   UNL A   1      44.886  28.951  28.039  1.00  0.00     0.057 A 
ATOM     77  C   UNL A   1      45.849  27.957  28.281  1.00  0.00     0.134 A 
ATOM     78  C   UNL A   1      44.115  28.823  26.880  1.00  0.00     0.134 A 
ATOM     79  F   UNL A   1      46.623  28.021  29.377  1.00  0.00    -0.206 F 
ATOM     80  C   UNL A   1      45.972  26.831  27.463  1.00  0.00     0.040 A 
ATOM     81  C   UNL A   1      44.235  27.702  26.048  1.00  0.00     0.040 A 
ATOM     82  F   UNL A   1      43.159  29.717  26.594  1.00  0.00    -0.206 F 
ATOM     83  C   UNL A   1      45.139  26.687  26.359  1.00  0.00     0.006 A 
ENDBRANCH  55  76
BRANCH  67  84
ATOM     84  C   UNL A   1      42.636  35.812  29.038  1.00  0.00     0.057 A 
ATOM     85  C   UNL A   1      43.336  36.894  29.594  1.00  0.00     0.134 A 
ATOM     86  C   UNL A   1      41.882  36.161  27.884  1.00  0.00     0.134 A 
ATOM     87  F   UNL A   1      44.176  36.753  30.622  1.00  0.00    -0.206 F 
ATOM     88  C   UNL A   1      43.259  38.204  29.087  1.00  0.00     0.040 A 
ATOM     89  C   UNL A   1      41.838  37.452  27.342  1.00  0.00     0.040 A 
ATOM     90  F   UNL A   1      41.163  35.260  27.200  1.00  0.00    -0.206 F 
ATOM     91  C   UNL A   1      42.517  38.487  27.950  1.00  0.00     0.006 A 
ENDBRANCH  67  84
ENDBRANCH  41  42
ENDBRANCH  33  36
ENDBRANCH  31  32
ENDBRANCH   1  31
TORSDOF 13
ENDMDL
