MODEL 1
REMARK VINA RESULT:     -11.3      0.000      0.000
REMARK SMILES CC[C@@H](CNC(=O)NCc1c(C)noc1C)C(=O)NCCCNC(=O)c1ccc(-c2c3nc(c(-c4c(F)cccc4F)c4ccc([nH]4)c(-c4c(F)cccc4F)c4nc(c(-c5c(F)cccc5F)c5ccc2[nH]5)C=C4)C=C3)cc1
REMARK SMILES IDX 20 1 19 2 17 3 18 4 3 6 2 7 1 8 4 9 5 10 6 11 7 13 8 14 9 16
REMARK SMILES IDX 10 17 11 18 15 19 12 20 13 21 14 22 16 23 21 24 22 25 23 26
REMARK SMILES IDX 24 27 25 29 26 30 27 31 79 32 28 33 78 34 29 35 30 36 31 37
REMARK SMILES IDX 72 38 32 39 77 40 71 41 73 42 33 43 76 44 70 45 69 46 34 48
REMARK SMILES IDX 60 49 43 50 59 51 44 52 47 53 58 54 74 55 45 56 46 57 57 59
REMARK SMILES IDX 75 60 48 61 35 62 36 63 41 64 37 65 38 66 40 67 42 68 39 69
REMARK SMILES IDX 61 70 62 71 67 72 63 73 64 74 66 75 68 76 65 77 49 78 50 79
REMARK SMILES IDX 55 80 51 81 52 82 54 83 56 84 53 85
REMARK H PARENT 19 5 5 12 8 15 23 28 73 47 47 58
REMARK Flexibility Score: inf
ROOT
ATOM      1  C   UNL A   1      36.602  21.154  24.740  1.00  0.00     0.117 C 
ENDROOT
BRANCH   1   2
ATOM      2  N   UNL A   1      35.706  21.420  25.853  1.00  0.00    -0.356 N 
ATOM      3  C   UNL A   1      34.422  21.030  26.070  1.00  0.00     0.224 C 
ATOM      4  O   UNL A   1      33.977  21.172  27.214  1.00  0.00    -0.275 OA
ATOM      5  H   UNL A   1      36.094  21.973  26.569  1.00  0.00     0.163 HD
BRANCH   3   6
ATOM      6  C   UNL A   1      33.538  20.431  24.980  1.00  0.00     0.097 C 
BRANCH   6   7
ATOM      7  C   UNL A   1      33.399  18.900  25.089  1.00  0.00     0.012 C 
ATOM      8  C   UNL A   1      32.508  18.283  24.020  1.00  0.00     0.005 C 
ENDBRANCH   6   7
BRANCH   6   9
ATOM      9  C   UNL A   1      32.262  21.244  24.710  1.00  0.00     0.131 C 
BRANCH   9  10
ATOM     10  N   UNL A   1      31.658  21.897  25.854  1.00  0.00    -0.337 N 
ATOM     11  C   UNL A   1      31.049  23.071  26.062  1.00  0.00     0.315 C 
ATOM     12  H   UNL A   1      31.707  21.348  26.669  1.00  0.00     0.165 HD
ATOM     13  O   UNL A   1      30.807  23.378  27.232  1.00  0.00    -0.249 OA
ATOM     14  N   UNL A   1      30.692  23.929  25.108  1.00  0.00    -0.334 N 
ATOM     15  H   UNL A   1      30.394  24.793  25.471  1.00  0.00     0.165 HD
BRANCH  14  16
ATOM     16  C   UNL A   1      30.640  23.889  23.666  1.00  0.00     0.159 C 
BRANCH  16  17
ATOM     17  C   UNL A   1      31.619  24.850  23.087  1.00  0.00     0.037 A 
ATOM     18  C   UNL A   1      32.777  24.516  22.321  1.00  0.00     0.086 A 
ATOM     19  C   UNL A   1      31.663  26.235  23.125  1.00  0.00     0.138 A 
ATOM     20  C   UNL A   1      33.277  23.176  21.933  1.00  0.00     0.071 C 
ATOM     21  N   UNL A   1      33.449  25.605  21.934  1.00  0.00    -0.085 NA
ATOM     22  O   UNL A   1      32.751  26.675  22.440  1.00  0.00    -0.361 OA
ATOM     23  C   UNL A   1      30.838  27.307  23.717  1.00  0.00     0.091 C 
ENDBRANCH  16  17
ENDBRANCH  14  16
ENDBRANCH   9  10
ENDBRANCH   6   9
ENDBRANCH   3   6
ENDBRANCH   1   2
BRANCH   1  24
ATOM     24  C   UNL A   1      37.549  19.995  24.988  1.00  0.00     0.042 C 
BRANCH  24  25
ATOM     25  C   UNL A   1      38.807  20.407  25.735  1.00  0.00     0.118 C 
BRANCH  25  26
ATOM     26  N   UNL A   1      39.806  19.344  25.799  1.00  0.00    -0.352 N 
ATOM     27  C   UNL A   1      41.160  19.388  26.034  1.00  0.00     0.251 C 
ATOM     28  H   UNL A   1      39.448  18.439  25.648  1.00  0.00     0.163 HD
ATOM     29  O   UNL A   1      41.840  18.384  25.882  1.00  0.00    -0.269 OA
BRANCH  27  30
ATOM     30  C   UNL A   1      41.800  20.654  26.446  1.00  0.00     0.039 A 
ATOM     31  C   UNL A   1      42.215  21.558  25.464  1.00  0.00     0.014 A 
ATOM     32  C   UNL A   1      41.995  20.950  27.794  1.00  0.00     0.014 A 
ATOM     33  C   UNL A   1      42.742  22.795  25.841  1.00  0.00     0.010 A 
ATOM     34  C   UNL A   1      42.409  22.222  28.168  1.00  0.00     0.010 A 
ATOM     35  C   UNL A   1      42.796  23.155  27.197  1.00  0.00    -0.014 A 
BRANCH  35  36
ATOM     36  C   UNL A   1      43.268  24.492  27.634  1.00  0.00     0.031 A 
ATOM     37  C   UNL A   1      42.268  25.540  28.040  1.00  0.00     0.074 A 
ATOM     38  C   UNL A   1      44.580  24.790  27.580  1.00  0.00     0.049 A 
ATOM     39  N   UNL A   1      42.463  26.801  28.334  1.00  0.00    -0.248 NA
ATOM     40  C   UNL A   1      40.856  25.127  28.086  1.00  0.00     0.031 C 
ATOM     41  C   UNL A   1      45.641  23.877  27.150  1.00  0.00     0.029 A 
ATOM     42  N   UNL A   1      45.244  25.953  27.876  1.00  0.00    -0.354 N 
ATOM     43  C   UNL A   1      41.202  27.331  28.572  1.00  0.00     0.074 A 
ATOM     44  C   UNL A   1      40.244  26.276  28.330  1.00  0.00     0.031 C 
ATOM     45  C   UNL A   1      46.825  24.505  27.240  1.00  0.00     0.029 A 
ATOM     46  C   UNL A   1      46.603  25.875  27.690  1.00  0.00     0.049 A 
ATOM     47  H   UNL A   1      44.790  26.768  28.192  1.00  0.00     0.167 HD
ATOM     48  C   UNL A   1      40.872  28.577  28.986  1.00  0.00     0.037 A 
ATOM     49  C   UNL A   1      47.561  26.805  27.859  1.00  0.00     0.037 A 
ATOM     50  C   UNL A   1      41.831  29.613  29.265  1.00  0.00     0.049 A 
ATOM     51  C   UNL A   1      47.170  28.179  28.328  1.00  0.00     0.074 A 
ATOM     52  C   UNL A   1      41.606  30.891  29.744  1.00  0.00     0.029 A 
ATOM     53  N   UNL A   1      43.201  29.483  29.094  1.00  0.00    -0.354 N 
ATOM     54  N   UNL A   1      45.978  28.652  28.601  1.00  0.00    -0.248 NA
ATOM     55  C   UNL A   1      48.259  29.148  28.517  1.00  0.00     0.031 C 
ATOM     56  C   UNL A   1      42.837  31.547  29.830  1.00  0.00     0.029 A 
ATOM     57  C   UNL A   1      43.833  30.663  29.446  1.00  0.00     0.049 A 
ATOM     58  H   UNL A   1      43.656  28.672  28.770  1.00  0.00     0.167 HD
ATOM     59  C   UNL A   1      46.175  29.961  29.019  1.00  0.00     0.074 A 
ATOM     60  C   UNL A   1      47.602  30.204  28.976  1.00  0.00     0.031 C 
ATOM     61  C   UNL A   1      45.257  30.881  29.404  1.00  0.00     0.037 A 
BRANCH  48  62
ATOM     62  C   UNL A   1      39.413  28.878  29.174  1.00  0.00     0.057 A 
ATOM     63  C   UNL A   1      38.774  28.690  30.408  1.00  0.00     0.134 A 
ATOM     64  C   UNL A   1      38.642  29.378  28.118  1.00  0.00     0.134 A 
ATOM     65  F   UNL A   1      39.451  28.199  31.456  1.00  0.00    -0.206 F 
ATOM     66  C   UNL A   1      37.415  28.961  30.575  1.00  0.00     0.040 A 
ATOM     67  C   UNL A   1      37.289  29.680  28.280  1.00  0.00     0.040 A 
ATOM     68  F   UNL A   1      39.191  29.586  26.911  1.00  0.00    -0.206 F 
ATOM     69  C   UNL A   1      36.670  29.463  29.511  1.00  0.00     0.006 A 
ENDBRANCH  48  62
BRANCH  49  70
ATOM     70  C   UNL A   1      48.983  26.461  27.614  1.00  0.00     0.057 A 
ATOM     71  C   UNL A   1      49.553  26.625  26.346  1.00  0.00     0.134 A 
ATOM     72  C   UNL A   1      49.806  25.966  28.631  1.00  0.00     0.134 A 
ATOM     73  F   UNL A   1      48.811  27.079  25.325  1.00  0.00    -0.206 F 
ATOM     74  C   UNL A   1      50.885  26.292  26.094  1.00  0.00     0.040 A 
ATOM     75  C   UNL A   1      51.145  25.650  28.399  1.00  0.00     0.040 A 
ATOM     76  F   UNL A   1      49.322  25.795  29.871  1.00  0.00    -0.206 F 
ATOM     77  C   UNL A   1      51.687  25.807  27.125  1.00  0.00     0.006 A 
ENDBRANCH  49  70
BRANCH  61  78
ATOM     78  C   UNL A   1      45.770  32.220  29.842  1.00  0.00     0.057 A 
ATOM     79  C   UNL A   1      45.902  33.289  28.948  1.00  0.00     0.134 A 
ATOM     80  C   UNL A   1      46.093  32.452  31.186  1.00  0.00     0.134 A 
ATOM     81  F   UNL A   1      45.620  33.126  27.647  1.00  0.00    -0.206 F 
ATOM     82  C   UNL A   1      46.356  34.538  29.372  1.00  0.00     0.040 A 
ATOM     83  C   UNL A   1      46.525  33.704  31.624  1.00  0.00     0.040 A 
ATOM     84  F   UNL A   1      45.981  31.472  32.093  1.00  0.00    -0.206 F 
ATOM     85  C   UNL A   1      46.662  34.750  30.715  1.00  0.00     0.006 A 
ENDBRANCH  61  78
ENDBRANCH  35  36
ENDBRANCH  27  30
ENDBRANCH  25  26
ENDBRANCH  24  25
ENDBRANCH   1  24
TORSDOF 15
ENDMDL
MODEL 2
REMARK VINA RESULT:     -11.2      1.548      6.525
REMARK SMILES CC[C@@H](CNC(=O)NCc1c(C)noc1C)C(=O)NCCCNC(=O)c1ccc(-c2c3nc(c(-c4c(F)cccc4F)c4ccc([nH]4)c(-c4c(F)cccc4F)c4nc(c(-c5c(F)cccc5F)c5ccc2[nH]5)C=C4)C=C3)cc1
REMARK SMILES IDX 20 1 19 2 17 3 18 4 3 6 2 7 1 8 4 9 5 10 6 11 7 13 8 14 9 16
REMARK SMILES IDX 10 17 11 18 15 19 12 20 13 21 14 22 16 23 21 24 22 25 23 26
REMARK SMILES IDX 24 27 25 29 26 30 27 31 79 32 28 33 78 34 29 35 30 36 31 37
REMARK SMILES IDX 72 38 32 39 77 40 71 41 73 42 33 43 76 44 70 45 69 46 34 48
REMARK SMILES IDX 60 49 43 50 59 51 44 52 47 53 58 54 74 55 45 56 46 57 57 59
REMARK SMILES IDX 75 60 48 61 35 62 36 63 41 64 37 65 38 66 40 67 42 68 39 69
REMARK SMILES IDX 61 70 62 71 67 72 63 73 64 74 66 75 68 76 65 77 49 78 50 79
REMARK SMILES IDX 55 80 51 81 52 82 54 83 56 84 53 85
REMARK H PARENT 19 5 5 12 8 15 23 28 73 47 47 58
REMARK Flexibility Score: inf
ROOT
ATOM      1  C   UNL A   1      36.616  20.685  24.812  1.00  0.00     0.117 C 
ENDROOT
BRANCH   1   2
ATOM      2  N   UNL A   1      35.331  20.209  25.297  1.00  0.00    -0.356 N 
ATOM      3  C   UNL A   1      34.072  20.675  25.077  1.00  0.00     0.224 C 
ATOM      4  O   UNL A   1      33.136  19.934  25.394  1.00  0.00    -0.275 OA
ATOM      5  H   UNL A   1      35.380  19.418  25.881  1.00  0.00     0.163 HD
BRANCH   3   6
ATOM      6  C   UNL A   1      33.786  22.041  24.461  1.00  0.00     0.097 C 
BRANCH   6   7
ATOM      7  C   UNL A   1      32.842  21.969  23.245  1.00  0.00     0.012 C 
ATOM      8  C   UNL A   1      33.103  23.040  22.195  1.00  0.00     0.005 C 
ENDBRANCH   6   7
BRANCH   6   9
ATOM      9  C   UNL A   1      33.521  23.140  25.502  1.00  0.00     0.131 C 
BRANCH   9  10
ATOM     10  N   UNL A   1      32.349  22.970  26.337  1.00  0.00    -0.337 N 
ATOM     11  C   UNL A   1      31.198  23.634  26.500  1.00  0.00     0.315 C 
ATOM     12  H   UNL A   1      32.415  22.181  26.921  1.00  0.00     0.165 HD
ATOM     13  O   UNL A   1      30.484  23.296  27.447  1.00  0.00    -0.249 OA
ATOM     14  N   UNL A   1      30.771  24.628  25.724  1.00  0.00    -0.334 N 
ATOM     15  H   UNL A   1      29.978  25.080  26.093  1.00  0.00     0.165 HD
BRANCH  14  16
ATOM     16  C   UNL A   1      31.197  25.200  24.469  1.00  0.00     0.159 C 
BRANCH  16  17
ATOM     17  C   UNL A   1      31.274  26.684  24.577  1.00  0.00     0.037 A 
ATOM     18  C   UNL A   1      32.296  27.429  25.240  1.00  0.00     0.086 A 
ATOM     19  C   UNL A   1      30.437  27.675  24.089  1.00  0.00     0.138 A 
ATOM     20  C   UNL A   1      33.488  26.927  25.965  1.00  0.00     0.071 C 
ATOM     21  N   UNL A   1      32.089  28.746  25.151  1.00  0.00    -0.085 NA
ATOM     22  O   UNL A   1      30.926  28.894  24.435  1.00  0.00    -0.361 OA
ATOM     23  C   UNL A   1      29.181  27.716  23.314  1.00  0.00     0.091 C 
ENDBRANCH  16  17
ENDBRANCH  14  16
ENDBRANCH   9  10
ENDBRANCH   6   9
ENDBRANCH   3   6
ENDBRANCH   1   2
BRANCH   1  24
ATOM     24  C   UNL A   1      37.740  19.683  24.991  1.00  0.00     0.042 C 
BRANCH  24  25
ATOM     25  C   UNL A   1      38.953  20.272  25.693  1.00  0.00     0.118 C 
BRANCH  25  26
ATOM     26  N   UNL A   1      40.074  19.340  25.773  1.00  0.00    -0.352 N 
ATOM     27  C   UNL A   1      41.396  19.542  26.090  1.00  0.00     0.251 C 
ATOM     28  H   UNL A   1      39.843  18.406  25.564  1.00  0.00     0.163 HD
ATOM     29  O   UNL A   1      42.206  18.638  25.937  1.00  0.00    -0.269 OA
BRANCH  27  30
ATOM     30  C   UNL A   1      41.847  20.856  26.591  1.00  0.00     0.039 A 
ATOM     31  C   UNL A   1      42.291  21.816  25.677  1.00  0.00     0.014 A 
ATOM     32  C   UNL A   1      41.836  21.143  27.955  1.00  0.00     0.014 A 
ATOM     33  C   UNL A   1      42.638  23.091  26.128  1.00  0.00     0.010 A 
ATOM     34  C   UNL A   1      42.069  22.441  28.389  1.00  0.00     0.010 A 
ATOM     35  C   UNL A   1      42.481  23.428  27.482  1.00  0.00    -0.014 A 
BRANCH  35  36
ATOM     36  C   UNL A   1      42.755  24.796  27.986  1.00  0.00     0.031 A 
ATOM     37  C   UNL A   1      44.152  25.176  28.395  1.00  0.00     0.074 A 
ATOM     38  C   UNL A   1      41.738  25.663  28.158  1.00  0.00     0.049 A 
ATOM     39  N   UNL A   1      44.577  26.271  28.971  1.00  0.00    -0.248 NA
ATOM     40  C   UNL A   1      45.206  24.175  28.159  1.00  0.00     0.031 C 
ATOM     41  C   UNL A   1      40.331  25.393  27.850  1.00  0.00     0.029 A 
ATOM     42  N   UNL A   1      41.730  26.943  28.648  1.00  0.00    -0.354 N 
ATOM     43  C   UNL A   1      45.935  26.079  29.188  1.00  0.00     0.074 A 
ATOM     44  C   UNL A   1      46.253  24.742  28.740  1.00  0.00     0.031 C 
ATOM     45  C   UNL A   1      39.603  26.486  28.130  1.00  0.00     0.029 A 
ATOM     46  C   UNL A   1      40.481  27.515  28.677  1.00  0.00     0.049 A 
ATOM     47  H   UNL A   1      42.542  27.409  28.951  1.00  0.00     0.167 HD
ATOM     48  C   UNL A   1      46.843  26.950  29.689  1.00  0.00     0.037 A 
ATOM     49  C   UNL A   1      40.088  28.730  29.102  1.00  0.00     0.037 A 
ATOM     50  C   UNL A   1      46.531  28.293  30.096  1.00  0.00     0.049 A 
ATOM     51  C   UNL A   1      41.118  29.682  29.644  1.00  0.00     0.074 A 
ATOM     52  C   UNL A   1      47.388  29.275  30.562  1.00  0.00     0.029 A 
ATOM     53  N   UNL A   1      45.258  28.845  30.081  1.00  0.00    -0.354 N 
ATOM     54  N   UNL A   1      42.408  29.508  29.794  1.00  0.00    -0.248 NA
ATOM     55  C   UNL A   1      40.636  31.003  30.072  1.00  0.00     0.031 C 
ATOM     56  C   UNL A   1      46.628  30.410  30.861  1.00  0.00     0.029 A 
ATOM     57  C   UNL A   1      45.305  30.149  30.540  1.00  0.00     0.049 A 
ATOM     58  H   UNL A   1      44.443  28.377  29.785  1.00  0.00     0.167 HD
ATOM     59  C   UNL A   1      42.897  30.701  30.307  1.00  0.00     0.074 A 
ATOM     60  C   UNL A   1      41.765  31.598  30.430  1.00  0.00     0.031 C 
ATOM     61  C   UNL A   1      44.168  31.028  30.647  1.00  0.00     0.037 A 
BRANCH  48  62
ATOM     62  C   UNL A   1      48.263  26.474  29.806  1.00  0.00     0.057 A 
ATOM     63  C   UNL A   1      48.727  25.815  30.954  1.00  0.00     0.134 A 
ATOM     64  C   UNL A   1      49.170  26.657  28.756  1.00  0.00     0.134 A 
ATOM     65  F   UNL A   1      47.913  25.621  32.002  1.00  0.00    -0.206 F 
ATOM     66  C   UNL A   1      50.050  25.384  31.063  1.00  0.00     0.040 A 
ATOM     67  C   UNL A   1      50.488  26.205  28.842  1.00  0.00     0.040 A 
ATOM     68  F   UNL A   1      48.791  27.277  27.628  1.00  0.00    -0.206 F 
ATOM     69  C   UNL A   1      50.933  25.573  30.003  1.00  0.00     0.006 A 
ENDBRANCH  48  62
BRANCH  49  70
ATOM     70  C   UNL A   1      38.662  29.127  29.002  1.00  0.00     0.057 A 
ATOM     71  C   UNL A   1      37.815  29.046  30.113  1.00  0.00     0.134 A 
ATOM     72  C   UNL A   1      38.112  29.598  27.805  1.00  0.00     0.134 A 
ATOM     73  F   UNL A   1      38.280  28.587  31.284  1.00  0.00    -0.206 F 
ATOM     74  C   UNL A   1      36.467  29.402  30.033  1.00  0.00     0.040 A 
ATOM     75  C   UNL A   1      36.772  29.978  27.716  1.00  0.00     0.040 A 
ATOM     76  F   UNL A   1      38.874  29.708  26.706  1.00  0.00    -0.206 F 
ATOM     77  C   UNL A   1      35.944  29.874  28.832  1.00  0.00     0.006 A 
ENDBRANCH  49  70
BRANCH  61  78
ATOM     78  C   UNL A   1      44.407  32.420  31.149  1.00  0.00     0.057 A 
ATOM     79  C   UNL A   1      44.374  32.729  32.513  1.00  0.00     0.134 A 
ATOM     80  C   UNL A   1      44.719  33.453  30.255  1.00  0.00     0.134 A 
ATOM     81  F   UNL A   1      44.069  31.786  33.417  1.00  0.00    -0.206 F 
ATOM     82  C   UNL A   1      44.623  34.024  32.971  1.00  0.00     0.040 A 
ATOM     83  C   UNL A   1      44.995  34.745  30.705  1.00  0.00     0.040 A 
ATOM     84  F   UNL A   1      44.776  33.221  28.936  1.00  0.00    -0.206 F 
ATOM     85  C   UNL A   1      44.943  35.034  32.066  1.00  0.00     0.006 A 
ENDBRANCH  61  78
ENDBRANCH  35  36
ENDBRANCH  27  30
ENDBRANCH  25  26
ENDBRANCH  24  25
ENDBRANCH   1  24
TORSDOF 15
ENDMDL
MODEL 3
REMARK VINA RESULT:     -11.1      1.489      2.185
REMARK SMILES CC[C@@H](CNC(=O)NCc1c(C)noc1C)C(=O)NCCCNC(=O)c1ccc(-c2c3nc(c(-c4c(F)cccc4F)c4ccc([nH]4)c(-c4c(F)cccc4F)c4nc(c(-c5c(F)cccc5F)c5ccc2[nH]5)C=C4)C=C3)cc1
REMARK SMILES IDX 20 1 19 2 17 3 18 4 3 6 2 7 1 8 4 9 5 10 6 11 7 13 8 14 9 16
REMARK SMILES IDX 10 17 11 18 15 19 12 20 13 21 14 22 16 23 21 24 22 25 23 26
REMARK SMILES IDX 24 27 25 29 26 30 27 31 79 32 28 33 78 34 29 35 30 36 31 37
REMARK SMILES IDX 72 38 32 39 77 40 71 41 73 42 33 43 76 44 70 45 69 46 34 48
REMARK SMILES IDX 60 49 43 50 59 51 44 52 47 53 58 54 74 55 45 56 46 57 57 59
REMARK SMILES IDX 75 60 48 61 35 62 36 63 41 64 37 65 38 66 40 67 42 68 39 69
REMARK SMILES IDX 61 70 62 71 67 72 63 73 64 74 66 75 68 76 65 77 49 78 50 79
REMARK SMILES IDX 55 80 51 81 52 82 54 83 56 84 53 85
REMARK H PARENT 19 5 5 12 8 15 23 28 73 47 47 58
REMARK Flexibility Score: inf
ROOT
ATOM      1  C   UNL A   1      36.253  20.232  24.970  1.00  0.00     0.117 C 
ENDROOT
BRANCH   1   2
ATOM      2  N   UNL A   1      35.632  21.069  25.983  1.00  0.00    -0.356 N 
ATOM      3  C   UNL A   1      34.331  21.420  26.167  1.00  0.00     0.224 C 
ATOM      4  O   UNL A   1      34.034  21.927  27.253  1.00  0.00    -0.275 OA
ATOM      5  H   UNL A   1      36.256  21.443  26.646  1.00  0.00     0.163 HD
BRANCH   3   6
ATOM      6  C   UNL A   1      33.253  21.207  25.108  1.00  0.00     0.097 C 
BRANCH   6   7
ATOM      7  C   UNL A   1      32.579  19.824  25.203  1.00  0.00     0.012 C 
ATOM      8  C   UNL A   1      32.598  19.036  23.901  1.00  0.00     0.005 C 
ENDBRANCH   6   7
BRANCH   6   9
ATOM      9  C   UNL A   1      32.344  22.429  24.903  1.00  0.00     0.131 C 
BRANCH   9  10
ATOM     10  N   UNL A   1      31.233  22.569  25.823  1.00  0.00    -0.337 N 
ATOM     11  C   UNL A   1      30.874  23.471  26.744  1.00  0.00     0.315 C 
ATOM     12  H   UNL A   1      30.592  21.825  25.754  1.00  0.00     0.165 HD
ATOM     13  O   UNL A   1      29.931  23.175  27.483  1.00  0.00    -0.249 OA
ATOM     14  N   UNL A   1      31.457  24.654  26.926  1.00  0.00    -0.334 N 
ATOM     15  H   UNL A   1      31.146  25.106  27.743  1.00  0.00     0.165 HD
BRANCH  14  16
ATOM     16  C   UNL A   1      32.440  25.430  26.207  1.00  0.00     0.159 C 
BRANCH  16  17
ATOM     17  C   UNL A   1      31.815  26.657  25.641  1.00  0.00     0.037 A 
ATOM     18  C   UNL A   1      31.034  26.732  24.448  1.00  0.00     0.086 A 
ATOM     19  C   UNL A   1      31.815  27.967  26.093  1.00  0.00     0.138 A 
ATOM     20  C   UNL A   1      30.670  25.646  23.508  1.00  0.00     0.071 C 
ATOM     21  N   UNL A   1      30.603  27.975  24.212  1.00  0.00    -0.085 NA
ATOM     22  O   UNL A   1      31.096  28.743  25.239  1.00  0.00    -0.361 OA
ATOM     23  C   UNL A   1      32.396  28.694  27.239  1.00  0.00     0.091 C 
ENDBRANCH  16  17
ENDBRANCH  14  16
ENDBRANCH   9  10
ENDBRANCH   6   9
ENDBRANCH   3   6
ENDBRANCH   1   2
BRANCH   1  24
ATOM     24  C   UNL A   1      37.674  20.642  24.635  1.00  0.00     0.042 C 
BRANCH  24  25
ATOM     25  C   UNL A   1      38.584  20.682  25.852  1.00  0.00     0.118 C 
BRANCH  25  26
ATOM     26  N   UNL A   1      39.648  19.685  25.802  1.00  0.00    -0.352 N 
ATOM     27  C   UNL A   1      40.996  19.787  26.055  1.00  0.00     0.251 C 
ATOM     28  H   UNL A   1      39.350  18.783  25.541  1.00  0.00     0.163 HD
ATOM     29  O   UNL A   1      41.741  18.853  25.793  1.00  0.00    -0.269 OA
BRANCH  27  30
ATOM     30  C   UNL A   1      41.552  21.033  26.621  1.00  0.00     0.039 A 
ATOM     31  C   UNL A   1      42.000  22.033  25.753  1.00  0.00     0.014 A 
ATOM     32  C   UNL A   1      41.634  21.217  28.000  1.00  0.00     0.014 A 
ATOM     33  C   UNL A   1      42.447  23.250  26.273  1.00  0.00     0.010 A 
ATOM     34  C   UNL A   1      41.968  22.464  28.511  1.00  0.00     0.010 A 
ATOM     35  C   UNL A   1      42.387  23.492  27.654  1.00  0.00    -0.014 A 
BRANCH  35  36
ATOM     36  C   UNL A   1      42.769  24.802  28.238  1.00  0.00     0.031 A 
ATOM     37  C   UNL A   1      41.720  25.858  28.454  1.00  0.00     0.074 A 
ATOM     38  C   UNL A   1      44.065  25.070  28.488  1.00  0.00     0.049 A 
ATOM     39  N   UNL A   1      41.864  27.102  28.834  1.00  0.00    -0.248 NA
ATOM     40  C   UNL A   1      40.327  25.476  28.169  1.00  0.00     0.031 C 
ATOM     41  C   UNL A   1      45.181  24.147  28.268  1.00  0.00     0.029 A 
ATOM     42  N   UNL A   1      44.664  26.206  28.970  1.00  0.00    -0.354 N 
ATOM     43  C   UNL A   1      40.590  27.653  28.807  1.00  0.00     0.074 A 
ATOM     44  C   UNL A   1      39.694  26.630  28.316  1.00  0.00     0.031 C 
ATOM     45  C   UNL A   1      46.325  24.744  28.643  1.00  0.00     0.029 A 
ATOM     46  C   UNL A   1      46.029  26.102  29.087  1.00  0.00     0.049 A 
ATOM     47  H   UNL A   1      44.164  27.019  29.209  1.00  0.00     0.167 HD
ATOM     48  C   UNL A   1      40.196  28.892  29.187  1.00  0.00     0.037 A 
ATOM     49  C   UNL A   1      46.939  27.003  29.500  1.00  0.00     0.037 A 
ATOM     50  C   UNL A   1      41.084  29.893  29.712  1.00  0.00     0.049 A 
ATOM     51  C   UNL A   1      46.475  28.368  29.925  1.00  0.00     0.074 A 
ATOM     52  C   UNL A   1      40.777  31.159  30.180  1.00  0.00     0.029 A 
ATOM     53  N   UNL A   1      42.456  29.738  29.844  1.00  0.00    -0.354 N 
ATOM     54  N   UNL A   1      45.260  28.859  29.946  1.00  0.00    -0.248 NA
ATOM     55  C   UNL A   1      47.509  29.303  30.389  1.00  0.00     0.031 C 
ATOM     56  C   UNL A   1      41.969  31.782  30.563  1.00  0.00     0.029 A 
ATOM     57  C   UNL A   1      43.011  30.889  30.374  1.00  0.00     0.049 A 
ATOM     58  H   UNL A   1      42.959  28.928  29.597  1.00  0.00     0.167 HD
ATOM     59  C   UNL A   1      45.378  30.147  30.449  1.00  0.00     0.074 A 
ATOM     60  C   UNL A   1      46.783  30.358  30.733  1.00  0.00     0.031 C 
ATOM     61  C   UNL A   1      44.412  31.075  30.657  1.00  0.00     0.037 A 
BRANCH  48  62
ATOM     62  C   UNL A   1      38.736  29.220  29.058  1.00  0.00     0.057 A 
ATOM     63  C   UNL A   1      37.879  29.215  30.167  1.00  0.00     0.134 A 
ATOM     64  C   UNL A   1      38.185  29.563  27.818  1.00  0.00     0.134 A 
ATOM     65  F   UNL A   1      38.340  28.881  31.382  1.00  0.00    -0.206 F 
ATOM     66  C   UNL A   1      36.521  29.511  30.042  1.00  0.00     0.040 A 
ATOM     67  C   UNL A   1      36.833  29.888  27.684  1.00  0.00     0.040 A 
ATOM     68  F   UNL A   1      38.949  29.590  26.716  1.00  0.00    -0.206 F 
ATOM     69  C   UNL A   1      35.996  29.855  28.798  1.00  0.00     0.006 A 
ENDBRANCH  48  62
BRANCH  49  70
ATOM     70  C   UNL A   1      48.375  26.634  29.563  1.00  0.00     0.057 A 
ATOM     71  C   UNL A   1      48.910  26.027  30.706  1.00  0.00     0.134 A 
ATOM     72  C   UNL A   1      49.244  26.871  28.492  1.00  0.00     0.134 A 
ATOM     73  F   UNL A   1      48.132  25.789  31.771  1.00  0.00    -0.206 F 
ATOM     74  C   UNL A   1      50.262  25.687  30.789  1.00  0.00     0.040 A 
ATOM     75  C   UNL A   1      50.592  26.516  28.553  1.00  0.00     0.040 A 
ATOM     76  F   UNL A   1      48.790  27.441  27.366  1.00  0.00    -0.206 F 
ATOM     77  C   UNL A   1      51.106  25.927  29.707  1.00  0.00     0.006 A 
ENDBRANCH  49  70
BRANCH  61  78
ATOM     78  C   UNL A   1      44.835  32.385  31.251  1.00  0.00     0.057 A 
ATOM     79  C   UNL A   1      44.897  32.583  32.635  1.00  0.00     0.134 A 
ATOM     80  C   UNL A   1      45.229  33.445  30.424  1.00  0.00     0.134 A 
ATOM     81  F   UNL A   1      44.521  31.610  33.479  1.00  0.00    -0.206 F 
ATOM     82  C   UNL A   1      45.317  33.798  33.177  1.00  0.00     0.040 A 
ATOM     83  C   UNL A   1      45.675  34.656  30.956  1.00  0.00     0.040 A 
ATOM     84  F   UNL A   1      45.201  33.317  29.090  1.00  0.00    -0.206 F 
ATOM     85  C   UNL A   1      45.715  34.836  32.336  1.00  0.00     0.006 A 
ENDBRANCH  61  78
ENDBRANCH  35  36
ENDBRANCH  27  30
ENDBRANCH  25  26
ENDBRANCH  24  25
ENDBRANCH   1  24
TORSDOF 15
ENDMDL
