MODEL 1
REMARK VINA RESULT:     -12.6      0.000      0.000
REMARK SMILES N#C/C(=C\c1ccc(-c2ccc(C(=O)NCCCNC(=O)c3ccc(-c4c5nc(c(-c6c(F)cccc6F)c6ccc([nH]6)c(-c6c(F)cccc6F)c6nc(c(-c7c(F)cccc7F)c7ccc4[nH]7)C=C6)C=C5)cc3)cc2)o1)[C@@H]1N=c2cc(Br)cnc2=N1
REMARK SMILES IDX 16 1 15 2 13 3 14 4 12 6 9 7 10 8 77 9 11 10 76 11 8 12 5 13
REMARK SMILES IDX 6 14 78 15 7 16 4 17 3 18 2 19 1 20 79 21 80 22 88 23 81 24
REMARK SMILES IDX 87 25 82 26 86 27 83 28 85 29 84 30 17 31 18 32 19 33 20 34
REMARK SMILES IDX 21 36 22 37 23 38 75 39 24 40 74 41 25 42 26 43 27 44 68 45
REMARK SMILES IDX 28 46 73 47 67 48 69 49 29 50 72 51 66 52 65 53 30 55 56 56
REMARK SMILES IDX 39 57 55 58 40 59 43 60 54 61 70 62 41 63 42 64 53 66 71 67
REMARK SMILES IDX 44 68 31 69 32 70 37 71 33 72 34 73 36 74 38 75 35 76 57 77
REMARK SMILES IDX 58 78 63 79 59 80 60 81 62 82 64 83 61 84 45 85 46 86 51 87
REMARK SMILES IDX 47 88 48 89 50 90 52 91 49 92
REMARK H PARENT 15 5 19 35 69 54 43 65
REMARK Flexibility Score: inf
ROOT
ATOM      1  C   UNL A   1      41.458  19.609  27.612  1.00  0.00     0.118 C 
ENDROOT
BRANCH   1   2
ATOM      2  N   UNL A   1      41.835  20.878  28.208  1.00  0.00    -0.352 N 
ATOM      3  C   UNL A   1      41.355  22.153  28.049  1.00  0.00     0.251 C 
ATOM      4  O   UNL A   1      41.870  23.043  28.725  1.00  0.00    -0.269 OA
ATOM      5  H   UNL A   1      42.578  20.810  28.850  1.00  0.00     0.163 HD
BRANCH   3   6
ATOM      6  C   UNL A   1      40.212  22.486  27.154  1.00  0.00     0.039 A 
ATOM      7  C   UNL A   1      37.903  23.179  25.705  1.00  0.00     0.017 A 
ATOM      8  C   UNL A   1      38.502  24.117  26.548  1.00  0.00     0.013 A 
ATOM      9  C   UNL A   1      38.508  21.934  25.526  1.00  0.00     0.013 A 
ATOM     10  C   UNL A   1      39.645  23.766  27.278  1.00  0.00     0.014 A 
ATOM     11  C   UNL A   1      39.675  21.609  26.212  1.00  0.00     0.014 A 
BRANCH   7  12
ATOM     12  C   UNL A   1      36.638  23.426  25.053  1.00  0.00     0.134 A 
ATOM     13  C   UNL A   1      34.684  24.444  24.858  1.00  0.00     0.128 A 
ATOM     14  C   UNL A   1      34.910  23.716  23.693  1.00  0.00     0.051 A 
ATOM     15  O   UNL A   1      35.774  24.262  25.681  1.00  0.00    -0.457 OA
ATOM     16  C   UNL A   1      36.143  23.050  23.829  1.00  0.00     0.051 A 
BRANCH  13  17
ATOM     17  C   UNL A   1      33.594  25.287  25.206  1.00  0.00     0.066 C 
ATOM     18  C   UNL A   1      32.579  24.898  26.003  1.00  0.00     0.080 C 
BRANCH  18  19
ATOM     19  C   UNL A   1      32.562  23.618  26.645  1.00  0.00     0.099 C 
ATOM     20  N   UNL A   1      32.520  22.577  27.152  1.00  0.00    -0.193 NA
ENDBRANCH  18  19
BRANCH  18  21
ATOM     21  C   UNL A   1      31.410  25.813  26.284  1.00  0.00     0.265 C 
ATOM     22  N   UNL A   1      30.488  25.837  25.113  1.00  0.00    -0.249 NA
ATOM     23  N   UNL A   1      31.916  27.179  26.583  1.00  0.00    -0.232 NA
ATOM     24  C   UNL A   1      30.544  27.070  24.751  1.00  0.00     0.106 A 
ATOM     25  C   UNL A   1      31.393  27.889  25.644  1.00  0.00     0.175 A 
ATOM     26  C   UNL A   1      29.916  27.737  23.614  1.00  0.00     0.049 A 
ATOM     27  N   UNL A   1      31.610  29.226  25.501  1.00  0.00    -0.234 NA
ATOM     28  C   UNL A   1      30.163  29.046  23.466  1.00  0.00     0.038 A 
ATOM     29  C   UNL A   1      31.029  29.750  24.467  1.00  0.00     0.129 A 
ATOM     30  Br  UNL A   1      29.466  30.050  22.066  1.00  0.00    -0.049 Br
ENDBRANCH  18  21
ENDBRANCH  13  17
ENDBRANCH   7  12
ENDBRANCH   3   6
ENDBRANCH   1   2
BRANCH   1  31
ATOM     31  C   UNL A   1      42.637  18.996  26.858  1.00  0.00     0.042 C 
BRANCH  31  32
ATOM     32  C   UNL A   1      42.625  19.338  25.372  1.00  0.00     0.118 C 
BRANCH  32  33
ATOM     33  N   UNL A   1      43.851  18.904  24.715  1.00  0.00    -0.352 N 
ATOM     34  C   UNL A   1      44.915  19.631  24.257  1.00  0.00     0.251 C 
ATOM     35  H   UNL A   1      43.925  17.932  24.581  1.00  0.00     0.163 HD
ATOM     36  O   UNL A   1      45.719  19.105  23.492  1.00  0.00    -0.269 OA
BRANCH  34  37
ATOM     37  C   UNL A   1      45.108  21.034  24.677  1.00  0.00     0.039 A 
ATOM     38  C   UNL A   1      45.510  21.289  25.990  1.00  0.00     0.014 A 
ATOM     39  C   UNL A   1      44.837  22.095  23.809  1.00  0.00     0.014 A 
ATOM     40  C   UNL A   1      45.665  22.606  26.421  1.00  0.00     0.010 A 
ATOM     41  C   UNL A   1      45.086  23.403  24.210  1.00  0.00     0.010 A 
ATOM     42  C   UNL A   1      45.479  23.673  25.528  1.00  0.00    -0.014 A 
BRANCH  42  43
ATOM     43  C   UNL A   1      45.679  25.075  25.969  1.00  0.00     0.031 A 
ATOM     44  C   UNL A   1      44.527  25.874  26.512  1.00  0.00     0.074 A 
ATOM     45  C   UNL A   1      46.898  25.634  25.854  1.00  0.00     0.049 A 
ATOM     46  N   UNL A   1      44.512  27.109  26.949  1.00  0.00    -0.248 NA
ATOM     47  C   UNL A   1      43.213  25.212  26.545  1.00  0.00     0.031 C 
ATOM     48  C   UNL A   1      48.082  24.971  25.302  1.00  0.00     0.029 A 
ATOM     49  N   UNL A   1      47.347  26.881  26.201  1.00  0.00    -0.354 N 
ATOM     50  C   UNL A   1      43.194  27.367  27.304  1.00  0.00     0.074 A 
ATOM     51  C   UNL A   1      42.426  26.191  26.961  1.00  0.00     0.031 C 
ATOM     52  C   UNL A   1      49.132  25.802  25.391  1.00  0.00     0.029 A 
ATOM     53  C   UNL A   1      48.686  27.071  25.959  1.00  0.00     0.049 A 
ATOM     54  H   UNL A   1      46.766  27.576  26.587  1.00  0.00     0.167 HD
ATOM     55  C   UNL A   1      42.675  28.473  27.889  1.00  0.00     0.037 A 
ATOM     56  C   UNL A   1      49.466  28.147  26.168  1.00  0.00     0.037 A 
ATOM     57  C   UNL A   1      43.448  29.641  28.225  1.00  0.00     0.049 A 
ATOM     58  C   UNL A   1      48.859  29.379  26.778  1.00  0.00     0.074 A 
ATOM     59  C   UNL A   1      43.030  30.801  28.854  1.00  0.00     0.029 A 
ATOM     60  N   UNL A   1      44.797  29.803  27.944  1.00  0.00    -0.354 N 
ATOM     61  N   UNL A   1      47.626  29.586  27.174  1.00  0.00    -0.248 NA
ATOM     62  C   UNL A   1      49.755  30.526  26.978  1.00  0.00     0.031 C 
ATOM     63  C   UNL A   1      44.109  31.690  28.890  1.00  0.00     0.029 A 
ATOM     64  C   UNL A   1      45.220  31.055  28.358  1.00  0.00     0.049 A 
ATOM     65  H   UNL A   1      45.370  29.126  27.514  1.00  0.00     0.167 HD
ATOM     66  C   UNL A   1      47.606  30.870  27.703  1.00  0.00     0.074 A 
ATOM     67  C   UNL A   1      48.954  31.388  27.588  1.00  0.00     0.031 C 
ATOM     68  C   UNL A   1      46.567  31.557  28.240  1.00  0.00     0.037 A 
BRANCH  55  69
ATOM     69  C   UNL A   1      41.201  28.472  28.189  1.00  0.00     0.057 A 
ATOM     70  C   UNL A   1      40.250  28.910  27.255  1.00  0.00     0.134 A 
ATOM     71  C   UNL A   1      40.721  28.013  29.423  1.00  0.00     0.134 A 
ATOM     72  F   UNL A   1      40.638  29.372  26.055  1.00  0.00    -0.206 F 
ATOM     73  C   UNL A   1      38.887  28.932  27.552  1.00  0.00     0.040 A 
ATOM     74  C   UNL A   1      39.356  27.995  29.717  1.00  0.00     0.040 A 
ATOM     75  F   UNL A   1      41.569  27.569  30.362  1.00  0.00    -0.206 F 
ATOM     76  C   UNL A   1      38.436  28.468  28.785  1.00  0.00     0.006 A 
ENDBRANCH  55  69
BRANCH  56  77
ATOM     77  C   UNL A   1      50.911  28.094  25.825  1.00  0.00     0.057 A 
ATOM     78  C   UNL A   1      51.345  28.249  24.504  1.00  0.00     0.134 A 
ATOM     79  C   UNL A   1      51.890  27.892  26.805  1.00  0.00     0.134 A 
ATOM     80  F   UNL A   1      50.457  28.432  23.517  1.00  0.00    -0.206 F 
ATOM     81  C   UNL A   1      52.698  28.179  24.165  1.00  0.00     0.040 A 
ATOM     82  C   UNL A   1      53.248  27.853  26.486  1.00  0.00     0.040 A 
ATOM     83  F   UNL A   1      51.542  27.750  28.093  1.00  0.00    -0.206 F 
ATOM     84  C   UNL A   1      53.655  27.987  25.160  1.00  0.00     0.006 A 
ENDBRANCH  56  77
BRANCH  68  85
ATOM     85  C   UNL A   1      46.856  32.925  28.792  1.00  0.00     0.057 A 
ATOM     86  C   UNL A   1      47.276  33.125  30.114  1.00  0.00     0.134 A 
ATOM     87  C   UNL A   1      46.750  34.056  27.973  1.00  0.00     0.134 A 
ATOM     88  F   UNL A   1      47.389  32.087  30.957  1.00  0.00    -0.206 F 
ATOM     89  C   UNL A   1      47.548  34.402  30.608  1.00  0.00     0.040 A 
ATOM     90  C   UNL A   1      47.054  35.333  28.445  1.00  0.00     0.040 A 
ATOM     91  F   UNL A   1      46.364  33.938  26.693  1.00  0.00    -0.206 F 
ATOM     92  C   UNL A   1      47.445  35.510  29.769  1.00  0.00     0.006 A 
ENDBRANCH  68  85
ENDBRANCH  42  43
ENDBRANCH  34  37
ENDBRANCH  32  33
ENDBRANCH  31  32
ENDBRANCH   1  31
TORSDOF 14
ENDMDL
MODEL 2
REMARK VINA RESULT:     -12.5      0.356      5.893
REMARK SMILES N#C/C(=C\c1ccc(-c2ccc(C(=O)NCCCNC(=O)c3ccc(-c4c5nc(c(-c6c(F)cccc6F)c6ccc([nH]6)c(-c6c(F)cccc6F)c6nc(c(-c7c(F)cccc7F)c7ccc4[nH]7)C=C6)C=C5)cc3)cc2)o1)[C@@H]1N=c2cc(Br)cnc2=N1
REMARK SMILES IDX 16 1 15 2 13 3 14 4 12 6 9 7 10 8 77 9 11 10 76 11 8 12 5 13
REMARK SMILES IDX 6 14 78 15 7 16 4 17 3 18 2 19 1 20 79 21 80 22 88 23 81 24
REMARK SMILES IDX 87 25 82 26 86 27 83 28 85 29 84 30 17 31 18 32 19 33 20 34
REMARK SMILES IDX 21 36 22 37 23 38 75 39 24 40 74 41 25 42 26 43 27 44 68 45
REMARK SMILES IDX 28 46 73 47 67 48 69 49 29 50 72 51 66 52 65 53 30 55 56 56
REMARK SMILES IDX 39 57 55 58 40 59 43 60 54 61 70 62 41 63 42 64 53 66 71 67
REMARK SMILES IDX 44 68 31 69 32 70 37 71 33 72 34 73 36 74 38 75 35 76 57 77
REMARK SMILES IDX 58 78 63 79 59 80 60 81 62 82 64 83 61 84 45 85 46 86 51 87
REMARK SMILES IDX 47 88 48 89 50 90 52 91 49 92
REMARK H PARENT 15 5 19 35 69 54 43 65
REMARK Flexibility Score: inf
ROOT
ATOM      1  C   UNL A   1      41.508  19.380  27.537  1.00  0.00     0.118 C 
ENDROOT
BRANCH   1   2
ATOM      2  N   UNL A   1      41.890  20.648  28.131  1.00  0.00    -0.352 N 
ATOM      3  C   UNL A   1      41.397  21.921  27.992  1.00  0.00     0.251 C 
ATOM      4  O   UNL A   1      41.922  22.810  28.662  1.00  0.00    -0.269 OA
ATOM      5  H   UNL A   1      42.649  20.582  28.754  1.00  0.00     0.163 HD
BRANCH   3   6
ATOM      6  C   UNL A   1      40.230  22.251  27.128  1.00  0.00     0.039 A 
ATOM      7  C   UNL A   1      37.881  22.935  25.740  1.00  0.00     0.017 A 
ATOM      8  C   UNL A   1      38.491  23.870  26.577  1.00  0.00     0.013 A 
ATOM      9  C   UNL A   1      38.494  21.697  25.534  1.00  0.00     0.013 A 
ATOM     10  C   UNL A   1      39.654  23.524  27.276  1.00  0.00     0.014 A 
ATOM     11  C   UNL A   1      39.680  21.377  26.190  1.00  0.00     0.014 A 
BRANCH   7  12
ATOM     12  C   UNL A   1      36.599  23.175  25.119  1.00  0.00     0.134 A 
ATOM     13  C   UNL A   1      34.661  24.226  24.937  1.00  0.00     0.128 A 
ATOM     14  C   UNL A   1      34.829  23.431  23.807  1.00  0.00     0.051 A 
ATOM     15  O   UNL A   1      35.776  24.064  25.731  1.00  0.00    -0.457 OA
ATOM     16  C   UNL A   1      36.052  22.745  23.935  1.00  0.00     0.051 A 
BRANCH  13  17
ATOM     17  C   UNL A   1      33.602  25.111  25.277  1.00  0.00     0.066 C 
ATOM     18  C   UNL A   1      32.650  24.817  26.184  1.00  0.00     0.080 C 
BRANCH  18  19
ATOM     19  C   UNL A   1      32.678  23.610  26.954  1.00  0.00     0.099 C 
ATOM     20  N   UNL A   1      32.671  22.635  27.579  1.00  0.00    -0.193 NA
ENDBRANCH  18  19
BRANCH  18  21
ATOM     21  C   UNL A   1      31.507  25.768  26.454  1.00  0.00     0.265 C 
ATOM     22  N   UNL A   1      30.561  25.770  25.302  1.00  0.00    -0.249 NA
ATOM     23  N   UNL A   1      32.050  27.131  26.694  1.00  0.00    -0.232 NA
ATOM     24  C   UNL A   1      30.636  26.988  24.895  1.00  0.00     0.106 A 
ATOM     25  C   UNL A   1      31.523  27.819  25.740  1.00  0.00     0.175 A 
ATOM     26  C   UNL A   1      30.000  27.628  23.747  1.00  0.00     0.049 A 
ATOM     27  N   UNL A   1      31.766  29.145  25.544  1.00  0.00    -0.234 NA
ATOM     28  C   UNL A   1      30.272  28.925  23.547  1.00  0.00     0.038 A 
ATOM     29  C   UNL A   1      31.175  29.645  24.503  1.00  0.00     0.129 A 
ATOM     30  Br  UNL A   1      29.568  29.894  22.125  1.00  0.00    -0.049 Br
ENDBRANCH  18  21
ENDBRANCH  13  17
ENDBRANCH   7  12
ENDBRANCH   3   6
ENDBRANCH   1   2
BRANCH   1  31
ATOM     31  C   UNL A   1      42.666  18.791  26.734  1.00  0.00     0.042 C 
BRANCH  31  32
ATOM     32  C   UNL A   1      42.678  19.265  25.285  1.00  0.00     0.118 C 
BRANCH  32  33
ATOM     33  N   UNL A   1      43.923  18.909  24.617  1.00  0.00    -0.352 N 
ATOM     34  C   UNL A   1      44.970  19.694  24.218  1.00  0.00     0.251 C 
ATOM     35  H   UNL A   1      44.027  17.950  24.424  1.00  0.00     0.163 HD
ATOM     36  O   UNL A   1      45.796  19.239  23.431  1.00  0.00    -0.269 OA
BRANCH  34  37
ATOM     37  C   UNL A   1      45.117  21.072  24.726  1.00  0.00     0.039 A 
ATOM     38  C   UNL A   1      44.918  22.135  23.842  1.00  0.00     0.014 A 
ATOM     39  C   UNL A   1      45.509  21.322  26.044  1.00  0.00     0.014 A 
ATOM     40  C   UNL A   1      45.085  23.445  24.289  1.00  0.00     0.010 A 
ATOM     41  C   UNL A   1      45.579  22.629  26.513  1.00  0.00     0.010 A 
ATOM     42  C   UNL A   1      45.392  23.704  25.635  1.00  0.00    -0.014 A 
BRANCH  42  43
ATOM     43  C   UNL A   1      45.534  25.096  26.126  1.00  0.00     0.031 A 
ATOM     44  C   UNL A   1      46.873  25.782  26.097  1.00  0.00     0.074 A 
ATOM     45  C   UNL A   1      44.457  25.732  26.623  1.00  0.00     0.049 A 
ATOM     46  N   UNL A   1      47.188  26.994  26.479  1.00  0.00    -0.248 NA
ATOM     47  C   UNL A   1      48.013  24.995  25.598  1.00  0.00     0.031 C 
ATOM     48  C   UNL A   1      43.116  25.155  26.742  1.00  0.00     0.029 A 
ATOM     49  N   UNL A   1      44.316  27.004  27.113  1.00  0.00    -0.354 N 
ATOM     50  C   UNL A   1      48.557  27.111  26.269  1.00  0.00     0.074 A 
ATOM     51  C   UNL A   1      49.023  25.826  25.799  1.00  0.00     0.031 C 
ATOM     52  C   UNL A   1      42.280  26.085  27.227  1.00  0.00     0.029 A 
ATOM     53  C   UNL A   1      43.033  27.305  27.500  1.00  0.00     0.049 A 
ATOM     54  H   UNL A   1      45.063  27.642  27.182  1.00  0.00     0.167 HD
ATOM     55  C   UNL A   1      49.347  28.200  26.426  1.00  0.00     0.037 A 
ATOM     56  C   UNL A   1      42.521  28.437  28.017  1.00  0.00     0.037 A 
ATOM     57  C   UNL A   1      48.873  29.475  26.897  1.00  0.00     0.049 A 
ATOM     58  C   UNL A   1      43.427  29.618  28.224  1.00  0.00     0.074 A 
ATOM     59  C   UNL A   1      49.581  30.653  27.057  1.00  0.00     0.029 A 
ATOM     60  N   UNL A   1      47.570  29.734  27.299  1.00  0.00    -0.354 N 
ATOM     61  N   UNL A   1      44.705  29.739  27.956  1.00  0.00    -0.248 NA
ATOM     62  C   UNL A   1      42.816  30.824  28.799  1.00  0.00     0.031 C 
ATOM     63  C   UNL A   1      48.724  31.604  27.621  1.00  0.00     0.029 A 
ATOM     64  C   UNL A   1      47.461  31.044  27.737  1.00  0.00     0.049 A 
ATOM     65  H   UNL A   1      46.832  29.083  27.276  1.00  0.00     0.167 HD
ATOM     66  C   UNL A   1      45.044  31.043  28.294  1.00  0.00     0.074 A 
ATOM     67  C   UNL A   1      43.832  31.676  28.775  1.00  0.00     0.031 C 
ATOM     68  C   UNL A   1      46.247  31.662  28.210  1.00  0.00     0.037 A 
BRANCH  55  69
ATOM     69  C   UNL A   1      50.807  28.049  26.096  1.00  0.00     0.057 A 
ATOM     70  C   UNL A   1      51.284  28.120  24.778  1.00  0.00     0.134 A 
ATOM     71  C   UNL A   1      51.754  27.843  27.108  1.00  0.00     0.134 A 
ATOM     72  F   UNL A   1      50.433  28.306  23.756  1.00  0.00    -0.206 F 
ATOM     73  C   UNL A   1      52.636  27.950  24.478  1.00  0.00     0.040 A 
ATOM     74  C   UNL A   1      53.114  27.709  26.823  1.00  0.00     0.040 A 
ATOM     75  F   UNL A   1      51.374  27.774  28.393  1.00  0.00    -0.206 F 
ATOM     76  C   UNL A   1      53.557  27.749  25.503  1.00  0.00     0.006 A 
ENDBRANCH  55  69
BRANCH  56  77
ATOM     77  C   UNL A   1      41.074  28.514  28.348  1.00  0.00     0.057 A 
ATOM     78  C   UNL A   1      40.141  28.958  27.405  1.00  0.00     0.134 A 
ATOM     79  C   UNL A   1      40.590  28.145  29.609  1.00  0.00     0.134 A 
ATOM     80  F   UNL A   1      40.542  29.339  26.184  1.00  0.00    -0.206 F 
ATOM     81  C   UNL A   1      38.782  29.057  27.711  1.00  0.00     0.040 A 
ATOM     82  C   UNL A   1      39.231  28.208  29.918  1.00  0.00     0.040 A 
ATOM     83  F   UNL A   1      41.430  27.698  30.554  1.00  0.00    -0.206 F 
ATOM     84  C   UNL A   1      38.323  28.674  28.970  1.00  0.00     0.006 A 
ENDBRANCH  56  77
BRANCH  68  85
ATOM     85  C   UNL A   1      46.305  33.113  28.597  1.00  0.00     0.057 A 
ATOM     86  C   UNL A   1      46.616  33.528  29.899  1.00  0.00     0.134 A 
ATOM     87  C   UNL A   1      46.085  34.111  27.639  1.00  0.00     0.134 A 
ATOM     88  F   UNL A   1      46.828  32.626  30.869  1.00  0.00    -0.206 F 
ATOM     89  C   UNL A   1      46.673  34.881  30.239  1.00  0.00     0.040 A 
ATOM     90  C   UNL A   1      46.175  35.466  27.959  1.00  0.00     0.040 A 
ATOM     91  F   UNL A   1      45.794  33.786  26.370  1.00  0.00    -0.206 F 
ATOM     92  C   UNL A   1      46.460  35.855  29.265  1.00  0.00     0.006 A 
ENDBRANCH  68  85
ENDBRANCH  42  43
ENDBRANCH  34  37
ENDBRANCH  32  33
ENDBRANCH  31  32
ENDBRANCH   1  31
TORSDOF 14
ENDMDL
MODEL 3
REMARK VINA RESULT:     -12.4      6.821     11.934
REMARK SMILES N#C/C(=C\c1ccc(-c2ccc(C(=O)NCCCNC(=O)c3ccc(-c4c5nc(c(-c6c(F)cccc6F)c6ccc([nH]6)c(-c6c(F)cccc6F)c6nc(c(-c7c(F)cccc7F)c7ccc4[nH]7)C=C6)C=C5)cc3)cc2)o1)[C@@H]1N=c2cc(Br)cnc2=N1
REMARK SMILES IDX 16 1 15 2 13 3 14 4 12 6 9 7 10 8 77 9 11 10 76 11 8 12 5 13
REMARK SMILES IDX 6 14 78 15 7 16 4 17 3 18 2 19 1 20 79 21 80 22 88 23 81 24
REMARK SMILES IDX 87 25 82 26 86 27 83 28 85 29 84 30 17 31 18 32 19 33 20 34
REMARK SMILES IDX 21 36 22 37 23 38 75 39 24 40 74 41 25 42 26 43 27 44 68 45
REMARK SMILES IDX 28 46 73 47 67 48 69 49 29 50 72 51 66 52 65 53 30 55 56 56
REMARK SMILES IDX 39 57 55 58 40 59 43 60 54 61 70 62 41 63 42 64 53 66 71 67
REMARK SMILES IDX 44 68 31 69 32 70 37 71 33 72 34 73 36 74 38 75 35 76 57 77
REMARK SMILES IDX 58 78 63 79 59 80 60 81 62 82 64 83 61 84 45 85 46 86 51 87
REMARK SMILES IDX 47 88 48 89 50 90 52 91 49 92
REMARK H PARENT 15 5 19 35 69 54 43 65
REMARK Flexibility Score: inf
ROOT
ATOM      1  C   UNL A   1      34.099  34.982  27.819  1.00  0.00     0.118 C 
ENDROOT
BRANCH   1   2
ATOM      2  N   UNL A   1      35.455  34.561  28.121  1.00  0.00    -0.352 N 
ATOM      3  C   UNL A   1      36.038  33.323  28.228  1.00  0.00     0.251 C 
ATOM      4  O   UNL A   1      37.243  33.281  28.475  1.00  0.00    -0.269 OA
ATOM      5  H   UNL A   1      36.077  35.307  28.280  1.00  0.00     0.163 HD
BRANCH   3   6
ATOM      6  C   UNL A   1      35.296  32.053  27.997  1.00  0.00     0.039 A 
ATOM      7  C   UNL A   1      34.055  29.621  27.319  1.00  0.00     0.017 A 
ATOM      8  C   UNL A   1      35.437  29.666  27.516  1.00  0.00     0.013 A 
ATOM      9  C   UNL A   1      33.293  30.769  27.546  1.00  0.00     0.013 A 
ATOM     10  C   UNL A   1      36.054  30.880  27.841  1.00  0.00     0.014 A 
ATOM     11  C   UNL A   1      33.906  31.961  27.922  1.00  0.00     0.014 A 
BRANCH   7  12
ATOM     12  C   UNL A   1      33.384  28.440  26.827  1.00  0.00     0.134 A 
ATOM     13  C   UNL A   1      33.330  26.496  25.773  1.00  0.00     0.128 A 
ATOM     14  C   UNL A   1      32.108  26.672  26.418  1.00  0.00     0.051 A 
ATOM     15  O   UNL A   1      34.111  27.597  26.052  1.00  0.00    -0.457 OA
ATOM     16  C   UNL A   1      32.136  27.920  27.069  1.00  0.00     0.051 A 
BRANCH  13  17
ATOM     17  C   UNL A   1      33.798  25.403  24.995  1.00  0.00     0.066 C 
ATOM     18  C   UNL A   1      33.376  25.149  23.741  1.00  0.00     0.080 C 
BRANCH  18  19
ATOM     19  C   UNL A   1      32.477  26.022  23.048  1.00  0.00     0.099 C 
ATOM     20  N   UNL A   1      31.763  26.721  22.461  1.00  0.00    -0.193 NA
ENDBRANCH  18  19
BRANCH  18  21
ATOM     21  C   UNL A   1      33.856  23.931  22.986  1.00  0.00     0.265 C 
ATOM     22  N   UNL A   1      32.750  22.938  22.862  1.00  0.00    -0.249 NA
ATOM     23  N   UNL A   1      35.019  23.338  23.698  1.00  0.00    -0.232 NA
ATOM     24  C   UNL A   1      33.219  21.931  23.510  1.00  0.00     0.106 A 
ATOM     25  C   UNL A   1      34.594  22.161  24.006  1.00  0.00     0.175 A 
ATOM     26  C   UNL A   1      32.592  20.650  23.822  1.00  0.00     0.049 A 
ATOM     27  N   UNL A   1      35.331  21.253  24.706  1.00  0.00    -0.234 NA
ATOM     28  C   UNL A   1      33.316  19.778  24.537  1.00  0.00     0.038 A 
ATOM     29  C   UNL A   1      34.710  20.142  24.952  1.00  0.00     0.129 A 
ATOM     30  Br  UNL A   1      32.671  18.109  25.043  1.00  0.00    -0.049 Br
ENDBRANCH  18  21
ENDBRANCH  13  17
ENDBRANCH   7  12
ENDBRANCH   3   6
ENDBRANCH   1   2
BRANCH   1  31
ATOM     31  C   UNL A   1      33.256  35.038  29.092  1.00  0.00     0.042 C 
BRANCH  31  32
ATOM     32  C   UNL A   1      33.350  36.386  29.799  1.00  0.00     0.118 C 
BRANCH  32  33
ATOM     33  N   UNL A   1      32.515  36.422  30.992  1.00  0.00    -0.352 N 
ATOM     34  C   UNL A   1      32.604  35.711  32.157  1.00  0.00     0.251 C 
ATOM     35  H   UNL A   1      31.768  37.062  30.954  1.00  0.00     0.163 HD
ATOM     36  O   UNL A   1      31.646  35.692  32.925  1.00  0.00    -0.269 OA
BRANCH  34  37
ATOM     37  C   UNL A   1      33.837  34.974  32.500  1.00  0.00     0.039 A 
ATOM     38  C   UNL A   1      35.069  35.597  32.286  1.00  0.00     0.014 A 
ATOM     39  C   UNL A   1      33.790  33.658  32.968  1.00  0.00     0.014 A 
ATOM     40  C   UNL A   1      36.248  34.910  32.568  1.00  0.00     0.010 A 
ATOM     41  C   UNL A   1      34.963  33.010  33.341  1.00  0.00     0.010 A 
ATOM     42  C   UNL A   1      36.205  33.620  33.122  1.00  0.00    -0.014 A 
BRANCH  42  43
ATOM     43  C   UNL A   1      37.455  32.897  33.460  1.00  0.00     0.031 A 
ATOM     44  C   UNL A   1      38.200  33.216  34.728  1.00  0.00     0.074 A 
ATOM     45  C   UNL A   1      37.932  31.971  32.609  1.00  0.00     0.049 A 
ATOM     46  N   UNL A   1      39.304  32.687  35.191  1.00  0.00    -0.248 NA
ATOM     47  C   UNL A   1      37.648  34.286  35.573  1.00  0.00     0.031 C 
ATOM     48  C   UNL A   1      37.320  31.607  31.328  1.00  0.00     0.029 A 
ATOM     49  N   UNL A   1      39.034  31.161  32.692  1.00  0.00    -0.354 N 
ATOM     50  C   UNL A   1      39.577  33.361  36.375  1.00  0.00     0.074 A 
ATOM     51  C   UNL A   1      38.568  34.385  36.520  1.00  0.00     0.031 C 
ATOM     52  C   UNL A   1      38.028  30.614  30.769  1.00  0.00     0.029 A 
ATOM     53  C   UNL A   1      39.171  30.306  31.625  1.00  0.00     0.049 A 
ATOM     54  H   UNL A   1      39.669  31.188  33.445  1.00  0.00     0.167 HD
ATOM     55  C   UNL A   1      40.563  33.128  37.275  1.00  0.00     0.037 A 
ATOM     56  C   UNL A   1      40.111  29.380  31.365  1.00  0.00     0.037 A 
ATOM     57  C   UNL A   1      41.565  32.106  37.121  1.00  0.00     0.049 A 
ATOM     58  C   UNL A   1      41.221  29.170  32.356  1.00  0.00     0.074 A 
ATOM     59  C   UNL A   1      42.585  31.760  37.989  1.00  0.00     0.029 A 
ATOM     60  N   UNL A   1      41.682  31.275  36.016  1.00  0.00    -0.354 N 
ATOM     61  N   UNL A   1      41.428  29.765  33.506  1.00  0.00    -0.248 NA
ATOM     62  C   UNL A   1      42.224  28.151  32.017  1.00  0.00     0.031 C 
ATOM     63  C   UNL A   1      43.360  30.769  37.379  1.00  0.00     0.029 A 
ATOM     64  C   UNL A   1      42.777  30.439  36.166  1.00  0.00     0.049 A 
ATOM     65  H   UNL A   1      41.077  31.279  35.239  1.00  0.00     0.167 HD
ATOM     66  C   UNL A   1      42.561  29.170  34.045  1.00  0.00     0.074 A 
ATOM     67  C   UNL A   1      42.988  28.158  33.100  1.00  0.00     0.031 C 
ATOM     68  C   UNL A   1      43.189  29.433  35.218  1.00  0.00     0.037 A 
BRANCH  55  69
ATOM     69  C   UNL A   1      40.606  34.004  38.497  1.00  0.00     0.057 A 
ATOM     70  C   UNL A   1      39.936  33.663  39.682  1.00  0.00     0.134 A 
ATOM     71  C   UNL A   1      41.337  35.199  38.498  1.00  0.00     0.134 A 
ATOM     72  F   UNL A   1      39.207  32.537  39.752  1.00  0.00    -0.206 F 
ATOM     73  C   UNL A   1      39.957  34.495  40.802  1.00  0.00     0.040 A 
ATOM     74  C   UNL A   1      41.397  36.021  39.624  1.00  0.00     0.040 A 
ATOM     75  F   UNL A   1      42.012  35.585  37.405  1.00  0.00    -0.206 F 
ATOM     76  C   UNL A   1      40.695  35.677  40.777  1.00  0.00     0.006 A 
ENDBRANCH  55  69
BRANCH  56  77
ATOM     77  C   UNL A   1      40.027  28.564  30.125  1.00  0.00     0.057 A 
ATOM     78  C   UNL A   1      39.332  27.350  30.105  1.00  0.00     0.134 A 
ATOM     79  C   UNL A   1      40.634  28.978  28.933  1.00  0.00     0.134 A 
ATOM     80  F   UNL A   1      38.740  26.892  31.218  1.00  0.00    -0.206 F 
ATOM     81  C   UNL A   1      39.265  26.564  28.954  1.00  0.00     0.040 A 
ATOM     82  C   UNL A   1      40.548  28.218  27.766  1.00  0.00     0.040 A 
ATOM     83  F   UNL A   1      41.305  30.138  28.880  1.00  0.00    -0.206 F 
ATOM     84  C   UNL A   1      39.870  27.002  27.777  1.00  0.00     0.006 A 
ENDBRANCH  56  77
BRANCH  68  85
ATOM     85  C   UNL A   1      44.375  28.580  35.572  1.00  0.00     0.057 A 
ATOM     86  C   UNL A   1      44.249  27.389  36.299  1.00  0.00     0.134 A 
ATOM     87  C   UNL A   1      45.659  28.940  35.143  1.00  0.00     0.134 A 
ATOM     88  F   UNL A   1      43.051  26.990  36.750  1.00  0.00    -0.206 F 
ATOM     89  C   UNL A   1      45.361  26.605  36.612  1.00  0.00     0.040 A 
ATOM     90  C   UNL A   1      46.772  28.146  35.419  1.00  0.00     0.040 A 
ATOM     91  F   UNL A   1      45.851  30.063  34.433  1.00  0.00    -0.206 F 
ATOM     92  C   UNL A   1      46.627  26.979  36.165  1.00  0.00     0.006 A 
ENDBRANCH  68  85
ENDBRANCH  42  43
ENDBRANCH  34  37
ENDBRANCH  32  33
ENDBRANCH  31  32
ENDBRANCH   1  31
TORSDOF 14
ENDMDL
