MODEL 1
REMARK VINA RESULT:     -11.4      0.000      0.000
REMARK SMILES C[C@@H](C(=O)NCCCNC(=O)c1ccc(-c2c3nc(c(-c4c(F)cccc4F)c4ccc([nH]4)c(-c4c(F)cccc4F)c4nc(c(-c5c(F)cccc5F)c5ccc2[nH]5)C=C4)C=C3)cc1)c1ccn(C(F)F)c(=O)c1
REMARK SMILES IDX 7 1 6 2 5 3 3 4 4 5 2 7 1 8 66 9 67 10 75 11 68 12 73 13
REMARK SMILES IDX 69 14 74 15 70 16 71 17 72 18 8 19 9 20 10 21 11 23 12 24
REMARK SMILES IDX 13 25 65 26 14 27 64 28 15 29 16 30 17 31 58 32 18 33 63 34
REMARK SMILES IDX 57 35 59 36 19 37 62 38 56 39 55 40 20 42 46 43 29 44 45 45
REMARK SMILES IDX 30 46 33 47 44 48 60 49 31 50 32 51 43 53 61 54 34 55 21 56
REMARK SMILES IDX 22 57 27 58 23 59 24 60 26 61 28 62 25 63 47 64 48 65 53 66
REMARK SMILES IDX 49 67 50 68 52 69 54 70 51 71 35 72 36 73 41 74 37 75 38 76
REMARK SMILES IDX 40 77 42 78 39 79
REMARK H PARENT 5 6 9 22 59 41 33 52
REMARK Flexibility Score: inf
ROOT
ATOM      1  C   UNL A   1      38.035  19.982  24.723  1.00  0.00     0.042 C 
ENDROOT
BRANCH   1   2
ATOM      2  C   UNL A   1      37.064  21.154  24.582  1.00  0.00     0.117 C 
BRANCH   2   3
ATOM      3  N   UNL A   1      36.201  21.267  25.741  1.00  0.00    -0.356 N 
ATOM      4  C   UNL A   1      34.841  21.211  25.842  1.00  0.00     0.227 C 
ATOM      5  O   UNL A   1      34.356  21.506  26.936  1.00  0.00    -0.274 OA
ATOM      6  H   UNL A   1      36.672  21.405  26.594  1.00  0.00     0.163 HD
BRANCH   4   7
ATOM      7  C   UNL A   1      33.993  20.790  24.627  1.00  0.00     0.105 C 
ATOM      8  C   UNL A   1      32.781  21.703  24.436  1.00  0.00     0.023 C 
BRANCH   7   9
ATOM      9  C   UNL A   1      33.608  19.321  24.748  1.00  0.00    -0.029 A 
ATOM     10  C   UNL A   1      32.843  18.871  25.897  1.00  0.00     0.023 A 
ATOM     11  C   UNL A   1      33.984  18.410  23.831  1.00  0.00     0.076 A 
ATOM     12  C   UNL A   1      32.528  17.580  26.047  1.00  0.00     0.095 A 
ATOM     13  C   UNL A   1      33.646  16.967  23.986  1.00  0.00     0.255 A 
ATOM     14  N   UNL A   1      32.916  16.637  25.113  1.00  0.00    -0.258 N 
ATOM     15  O   UNL A   1      34.030  16.182  23.121  1.00  0.00    -0.269 OA
BRANCH  14  16
ATOM     16  C   UNL A   1      32.611  15.245  25.315  1.00  0.00     0.451 C 
ATOM     17  F   UNL A   1      33.733  14.527  25.566  1.00  0.00    -0.185 F 
ATOM     18  F   UNL A   1      31.764  15.079  26.360  1.00  0.00    -0.185 F 
ENDBRANCH  14  16
ENDBRANCH   7   9
ENDBRANCH   4   7
ENDBRANCH   2   3
ENDBRANCH   1   2
BRANCH   1  19
ATOM     19  C   UNL A   1      38.959  20.072  25.937  1.00  0.00     0.118 C 
BRANCH  19  20
ATOM     20  N   UNL A   1      40.041  19.101  25.895  1.00  0.00    -0.352 N 
ATOM     21  C   UNL A   1      41.397  19.279  26.012  1.00  0.00     0.251 C 
ATOM     22  H   UNL A   1      39.756  18.168  25.762  1.00  0.00     0.163 HD
ATOM     23  O   UNL A   1      42.151  18.336  25.777  1.00  0.00    -0.269 OA
BRANCH  21  24
ATOM     24  C   UNL A   1      41.965  20.592  26.392  1.00  0.00     0.039 A 
ATOM     25  C   UNL A   1      42.301  21.493  25.376  1.00  0.00     0.014 A 
ATOM     26  C   UNL A   1      42.211  20.927  27.726  1.00  0.00     0.014 A 
ATOM     27  C   UNL A   1      42.819  22.749  25.699  1.00  0.00     0.010 A 
ATOM     28  C   UNL A   1      42.669  22.204  28.051  1.00  0.00     0.010 A 
ATOM     29  C   UNL A   1      42.977  23.130  27.041  1.00  0.00    -0.014 A 
BRANCH  29  30
ATOM     30  C   UNL A   1      43.441  24.494  27.402  1.00  0.00     0.031 A 
ATOM     31  C   UNL A   1      42.458  25.545  27.839  1.00  0.00     0.074 A 
ATOM     32  C   UNL A   1      44.746  24.804  27.280  1.00  0.00     0.049 A 
ATOM     33  N   UNL A   1      42.671  26.805  28.128  1.00  0.00    -0.248 NA
ATOM     34  C   UNL A   1      41.050  25.134  27.944  1.00  0.00     0.031 C 
ATOM     35  C   UNL A   1      45.795  23.888  26.827  1.00  0.00     0.029 A 
ATOM     36  N   UNL A   1      45.413  25.980  27.517  1.00  0.00    -0.354 N 
ATOM     37  C   UNL A   1      41.425  27.338  28.437  1.00  0.00     0.074 A 
ATOM     38  C   UNL A   1      40.457  26.277  28.258  1.00  0.00     0.031 C 
ATOM     39  C   UNL A   1      46.973  24.531  26.835  1.00  0.00     0.029 A 
ATOM     40  C   UNL A   1      46.761  25.911  27.259  1.00  0.00     0.049 A 
ATOM     41  H   UNL A   1      44.968  26.796  27.841  1.00  0.00     0.167 HD
ATOM     42  C   UNL A   1      41.119  28.591  28.850  1.00  0.00     0.037 A 
ATOM     43  C   UNL A   1      47.717  26.855  27.344  1.00  0.00     0.037 A 
ATOM     44  C   UNL A   1      42.085  29.641  29.053  1.00  0.00     0.049 A 
ATOM     45  C   UNL A   1      47.350  28.237  27.804  1.00  0.00     0.074 A 
ATOM     46  C   UNL A   1      41.875  30.926  29.523  1.00  0.00     0.029 A 
ATOM     47  N   UNL A   1      43.442  29.524  28.799  1.00  0.00    -0.354 N 
ATOM     48  N   UNL A   1      46.176  28.710  28.148  1.00  0.00    -0.248 NA
ATOM     49  C   UNL A   1      48.441  29.218  27.893  1.00  0.00     0.031 C 
ATOM     50  C   UNL A   1      43.102  31.599  29.519  1.00  0.00     0.029 A 
ATOM     51  C   UNL A   1      44.081  30.720  29.086  1.00  0.00     0.049 A 
ATOM     52  H   UNL A   1      43.887  28.713  28.464  1.00  0.00     0.167 HD
ATOM     53  C   UNL A   1      46.392  30.031  28.518  1.00  0.00     0.074 A 
ATOM     54  C   UNL A   1      47.810  30.281  28.370  1.00  0.00     0.031 C 
ATOM     55  C   UNL A   1      45.494  30.954  28.941  1.00  0.00     0.037 A 
BRANCH  42  56
ATOM     56  C   UNL A   1      39.676  28.899  29.122  1.00  0.00     0.057 A 
ATOM     57  C   UNL A   1      38.814  29.334  28.109  1.00  0.00     0.134 A 
ATOM     58  C   UNL A   1      39.132  28.713  30.399  1.00  0.00     0.134 A 
ATOM     59  F   UNL A   1      39.276  29.542  26.866  1.00  0.00    -0.206 F 
ATOM     60  C   UNL A   1      37.464  29.592  28.358  1.00  0.00     0.040 A 
ATOM     61  C   UNL A   1      37.780  28.945  30.657  1.00  0.00     0.040 A 
ATOM     62  F   UNL A   1      39.902  28.292  31.414  1.00  0.00    -0.206 F 
ATOM     63  C   UNL A   1      36.943  29.391  29.635  1.00  0.00     0.006 A 
ENDBRANCH  42  56
BRANCH  43  64
ATOM     64  C   UNL A   1      49.122  26.523  27.003  1.00  0.00     0.057 A 
ATOM     65  C   UNL A   1      49.594  26.648  25.692  1.00  0.00     0.134 A 
ATOM     66  C   UNL A   1      50.019  26.059  27.973  1.00  0.00     0.134 A 
ATOM     67  F   UNL A   1      48.775  27.068  24.717  1.00  0.00    -0.206 F 
ATOM     68  C   UNL A   1      50.903  26.304  25.351  1.00  0.00     0.040 A 
ATOM     69  C   UNL A   1      51.338  25.734  27.650  1.00  0.00     0.040 A 
ATOM     70  F   UNL A   1      49.630  25.924  29.249  1.00  0.00    -0.206 F 
ATOM     71  C   UNL A   1      51.781  25.849  26.333  1.00  0.00     0.006 A 
ENDBRANCH  43  64
BRANCH  55  72
ATOM     72  C   UNL A   1      46.025  32.308  29.303  1.00  0.00     0.057 A 
ATOM     73  C   UNL A   1      46.483  32.600  30.595  1.00  0.00     0.134 A 
ATOM     74  C   UNL A   1      46.108  33.323  28.341  1.00  0.00     0.134 A 
ATOM     75  F   UNL A   1      46.416  31.674  31.564  1.00  0.00    -0.206 F 
ATOM     76  C   UNL A   1      46.984  33.860  30.922  1.00  0.00     0.040 A 
ATOM     77  C   UNL A   1      46.631  34.580  28.651  1.00  0.00     0.040 A 
ATOM     78  F   UNL A   1      45.693  33.106  27.085  1.00  0.00    -0.206 F 
ATOM     79  C   UNL A   1      47.065  34.852  29.946  1.00  0.00     0.006 A 
ENDBRANCH  55  72
ENDBRANCH  29  30
ENDBRANCH  21  24
ENDBRANCH  19  20
ENDBRANCH   1  19
TORSDOF 12
ENDMDL
MODEL 2
REMARK VINA RESULT:     -11.4      1.461      6.629
REMARK SMILES C[C@@H](C(=O)NCCCNC(=O)c1ccc(-c2c3nc(c(-c4c(F)cccc4F)c4ccc([nH]4)c(-c4c(F)cccc4F)c4nc(c(-c5c(F)cccc5F)c5ccc2[nH]5)C=C4)C=C3)cc1)c1ccn(C(F)F)c(=O)c1
REMARK SMILES IDX 7 1 6 2 5 3 3 4 4 5 2 7 1 8 66 9 67 10 75 11 68 12 73 13
REMARK SMILES IDX 69 14 74 15 70 16 71 17 72 18 8 19 9 20 10 21 11 23 12 24
REMARK SMILES IDX 13 25 65 26 14 27 64 28 15 29 16 30 17 31 58 32 18 33 63 34
REMARK SMILES IDX 57 35 59 36 19 37 62 38 56 39 55 40 20 42 46 43 29 44 45 45
REMARK SMILES IDX 30 46 33 47 44 48 60 49 31 50 32 51 43 53 61 54 34 55 21 56
REMARK SMILES IDX 22 57 27 58 23 59 24 60 26 61 28 62 25 63 47 64 48 65 53 66
REMARK SMILES IDX 49 67 50 68 52 69 54 70 51 71 35 72 36 73 41 74 37 75 38 76
REMARK SMILES IDX 40 77 42 78 39 79
REMARK H PARENT 5 6 9 22 59 41 33 52
REMARK Flexibility Score: inf
ROOT
ATOM      1  C   UNL A   1      38.021  19.672  24.940  1.00  0.00     0.042 C 
ENDROOT
BRANCH   1   2
ATOM      2  C   UNL A   1      37.025  20.791  24.635  1.00  0.00     0.117 C 
BRANCH   2   3
ATOM      3  N   UNL A   1      36.129  21.019  25.753  1.00  0.00    -0.356 N 
ATOM      4  C   UNL A   1      34.766  21.066  25.799  1.00  0.00     0.227 C 
ATOM      5  O   UNL A   1      34.264  21.444  26.859  1.00  0.00    -0.274 OA
ATOM      6  H   UNL A   1      36.576  21.160  26.618  1.00  0.00     0.163 HD
BRANCH   4   7
ATOM      7  C   UNL A   1      33.936  20.654  24.570  1.00  0.00     0.105 C 
ATOM      8  C   UNL A   1      32.711  21.551  24.384  1.00  0.00     0.023 C 
BRANCH   7   9
ATOM      9  C   UNL A   1      33.572  19.177  24.661  1.00  0.00    -0.029 A 
ATOM     10  C   UNL A   1      32.762  18.704  25.770  1.00  0.00     0.023 A 
ATOM     11  C   UNL A   1      34.008  18.281  23.756  1.00  0.00     0.076 A 
ATOM     12  C   UNL A   1      32.464  17.406  25.894  1.00  0.00     0.095 A 
ATOM     13  C   UNL A   1      33.689  16.831  23.884  1.00  0.00     0.255 A 
ATOM     14  N   UNL A   1      32.913  16.478  24.973  1.00  0.00    -0.258 N 
ATOM     15  O   UNL A   1      34.128  16.059  23.033  1.00  0.00    -0.269 OA
BRANCH  14  16
ATOM     16  C   UNL A   1      32.624  15.079  25.150  1.00  0.00     0.451 C 
ATOM     17  F   UNL A   1      33.692  14.416  25.656  1.00  0.00    -0.185 F 
ATOM     18  F   UNL A   1      31.580  14.901  25.996  1.00  0.00    -0.185 F 
ENDBRANCH  14  16
ENDBRANCH   7   9
ENDBRANCH   4   7
ENDBRANCH   2   3
ENDBRANCH   1   2
BRANCH   1  19
ATOM     19  C   UNL A   1      39.081  20.036  25.978  1.00  0.00     0.118 C 
BRANCH  19  20
ATOM     20  N   UNL A   1      40.284  19.227  25.863  1.00  0.00    -0.352 N 
ATOM     21  C   UNL A   1      41.601  19.567  26.041  1.00  0.00     0.251 C 
ATOM     22  H   UNL A   1      40.128  18.286  25.620  1.00  0.00     0.163 HD
ATOM     23  O   UNL A   1      42.478  18.764  25.728  1.00  0.00    -0.269 OA
BRANCH  21  24
ATOM     24  C   UNL A   1      41.983  20.892  26.581  1.00  0.00     0.039 A 
ATOM     25  C   UNL A   1      42.375  21.890  25.682  1.00  0.00     0.014 A 
ATOM     26  C   UNL A   1      42.001  21.148  27.954  1.00  0.00     0.014 A 
ATOM     27  C   UNL A   1      42.721  23.158  26.154  1.00  0.00     0.010 A 
ATOM     28  C   UNL A   1      42.285  22.432  28.420  1.00  0.00     0.010 A 
ATOM     29  C   UNL A   1      42.647  23.451  27.525  1.00  0.00    -0.014 A 
BRANCH  29  30
ATOM     30  C   UNL A   1      42.923  24.819  28.032  1.00  0.00     0.031 A 
ATOM     31  C   UNL A   1      44.318  25.222  28.425  1.00  0.00     0.074 A 
ATOM     32  C   UNL A   1      41.904  25.685  28.194  1.00  0.00     0.049 A 
ATOM     33  N   UNL A   1      44.736  26.347  28.948  1.00  0.00    -0.248 NA
ATOM     34  C   UNL A   1      45.378  24.222  28.225  1.00  0.00     0.031 C 
ATOM     35  C   UNL A   1      40.500  25.405  27.890  1.00  0.00     0.029 A 
ATOM     36  N   UNL A   1      41.891  26.975  28.664  1.00  0.00    -0.354 N 
ATOM     37  C   UNL A   1      46.102  26.187  29.150  1.00  0.00     0.074 A 
ATOM     38  C   UNL A   1      46.434  24.841  28.733  1.00  0.00     0.031 C 
ATOM     39  C   UNL A   1      39.765  26.494  28.166  1.00  0.00     0.029 A 
ATOM     40  C   UNL A   1      40.637  27.537  28.697  1.00  0.00     0.049 A 
ATOM     41  H   UNL A   1      42.703  27.453  28.951  1.00  0.00     0.167 HD
ATOM     42  C   UNL A   1      47.000  27.085  29.620  1.00  0.00     0.037 A 
ATOM     43  C   UNL A   1      40.234  28.751  29.116  1.00  0.00     0.037 A 
ATOM     44  C   UNL A   1      46.676  28.433  30.011  1.00  0.00     0.049 A 
ATOM     45  C   UNL A   1      41.251  29.727  29.635  1.00  0.00     0.074 A 
ATOM     46  C   UNL A   1      47.528  29.433  30.448  1.00  0.00     0.029 A 
ATOM     47  N   UNL A   1      45.398  28.969  30.010  1.00  0.00    -0.354 N 
ATOM     48  N   UNL A   1      42.547  29.581  29.765  1.00  0.00    -0.248 NA
ATOM     49  C   UNL A   1      40.750  31.042  30.062  1.00  0.00     0.031 C 
ATOM     50  C   UNL A   1      46.760  30.564  30.746  1.00  0.00     0.029 A 
ATOM     51  C   UNL A   1      45.436  30.281  30.457  1.00  0.00     0.049 A 
ATOM     52  H   UNL A   1      44.584  28.490  29.736  1.00  0.00     0.167 HD
ATOM     53  C   UNL A   1      43.018  30.789  30.262  1.00  0.00     0.074 A 
ATOM     54  C   UNL A   1      41.872  31.663  30.397  1.00  0.00     0.031 C 
ATOM     55  C   UNL A   1      44.288  31.141  30.579  1.00  0.00     0.037 A 
BRANCH  42  56
ATOM     56  C   UNL A   1      48.430  26.644  29.731  1.00  0.00     0.057 A 
ATOM     57  C   UNL A   1      48.921  26.031  30.890  1.00  0.00     0.134 A 
ATOM     58  C   UNL A   1      49.311  26.791  28.653  1.00  0.00     0.134 A 
ATOM     59  F   UNL A   1      48.131  25.870  31.962  1.00  0.00    -0.206 F 
ATOM     60  C   UNL A   1      50.245  25.595  30.980  1.00  0.00     0.040 A 
ATOM     61  C   UNL A   1      50.630  26.338  28.722  1.00  0.00     0.040 A 
ATOM     62  F   UNL A   1      48.903  27.364  27.511  1.00  0.00    -0.206 F 
ATOM     63  C   UNL A   1      51.102  25.742  29.890  1.00  0.00     0.006 A 
ENDBRANCH  42  56
BRANCH  43  64
ATOM     64  C   UNL A   1      38.799  29.122  29.048  1.00  0.00     0.057 A 
ATOM     65  C   UNL A   1      37.972  29.012  30.172  1.00  0.00     0.134 A 
ATOM     66  C   UNL A   1      38.218  29.579  27.860  1.00  0.00     0.134 A 
ATOM     67  F   UNL A   1      38.468  28.562  31.333  1.00  0.00    -0.206 F 
ATOM     68  C   UNL A   1      36.613  29.323  30.111  1.00  0.00     0.040 A 
ATOM     69  C   UNL A   1      36.865  29.915  27.791  1.00  0.00     0.040 A 
ATOM     70  F   UNL A   1      38.959  29.712  26.750  1.00  0.00    -0.206 F 
ATOM     71  C   UNL A   1      36.056  29.781  28.918  1.00  0.00     0.006 A 
ENDBRANCH  43  64
BRANCH  55  72
ATOM     72  C   UNL A   1      44.506  32.540  31.072  1.00  0.00     0.057 A 
ATOM     73  C   UNL A   1      44.745  33.604  30.193  1.00  0.00     0.134 A 
ATOM     74  C   UNL A   1      44.445  32.832  32.441  1.00  0.00     0.134 A 
ATOM     75  F   UNL A   1      44.830  33.387  28.872  1.00  0.00    -0.206 F 
ATOM     76  C   UNL A   1      44.938  34.904  30.659  1.00  0.00     0.040 A 
ATOM     77  C   UNL A   1      44.612  34.133  32.917  1.00  0.00     0.040 A 
ATOM     78  F   UNL A   1      44.212  31.860  33.336  1.00  0.00    -0.206 F 
ATOM     79  C   UNL A   1      44.865  35.173  32.025  1.00  0.00     0.006 A 
ENDBRANCH  55  72
ENDBRANCH  29  30
ENDBRANCH  21  24
ENDBRANCH  19  20
ENDBRANCH   1  19
TORSDOF 12
ENDMDL
MODEL 3
REMARK VINA RESULT:     -11.4      1.480      2.433
REMARK SMILES C[C@@H](C(=O)NCCCNC(=O)c1ccc(-c2c3nc(c(-c4c(F)cccc4F)c4ccc([nH]4)c(-c4c(F)cccc4F)c4nc(c(-c5c(F)cccc5F)c5ccc2[nH]5)C=C4)C=C3)cc1)c1ccn(C(F)F)c(=O)c1
REMARK SMILES IDX 7 1 6 2 5 3 3 4 4 5 2 7 1 8 66 9 67 10 75 11 68 12 73 13
REMARK SMILES IDX 69 14 74 15 70 16 71 17 72 18 8 19 9 20 10 21 11 23 12 24
REMARK SMILES IDX 13 25 65 26 14 27 64 28 15 29 16 30 17 31 58 32 18 33 63 34
REMARK SMILES IDX 57 35 59 36 19 37 62 38 56 39 55 40 20 42 46 43 29 44 45 45
REMARK SMILES IDX 30 46 33 47 44 48 60 49 31 50 32 51 43 53 61 54 34 55 21 56
REMARK SMILES IDX 22 57 27 58 23 59 24 60 26 61 28 62 25 63 47 64 48 65 53 66
REMARK SMILES IDX 49 67 50 68 52 69 54 70 51 71 35 72 36 73 41 74 37 75 38 76
REMARK SMILES IDX 40 77 42 78 39 79
REMARK H PARENT 5 6 9 22 59 41 33 52
REMARK Flexibility Score: inf
ROOT
ATOM      1  C   UNL A   1      38.149  19.966  24.720  1.00  0.00     0.042 C 
ENDROOT
BRANCH   1   2
ATOM      2  C   UNL A   1      37.354  21.270  24.667  1.00  0.00     0.117 C 
BRANCH   2   3
ATOM      3  N   UNL A   1      36.369  21.331  25.729  1.00  0.00    -0.356 N 
ATOM      4  C   UNL A   1      35.031  21.065  25.713  1.00  0.00     0.227 C 
ATOM      5  O   UNL A   1      34.397  21.361  26.728  1.00  0.00    -0.274 OA
ATOM      6  H   UNL A   1      36.723  21.607  26.605  1.00  0.00     0.163 HD
BRANCH   4   7
ATOM      7  C   UNL A   1      34.385  20.421  24.471  1.00  0.00     0.105 C 
ATOM      8  C   UNL A   1      33.211  21.249  23.947  1.00  0.00     0.023 C 
BRANCH   7   9
ATOM      9  C   UNL A   1      33.997  18.980  24.777  1.00  0.00    -0.029 A 
ATOM     10  C   UNL A   1      32.712  18.698  25.394  1.00  0.00     0.023 A 
ATOM     11  C   UNL A   1      34.826  17.951  24.520  1.00  0.00     0.076 A 
ATOM     12  C   UNL A   1      32.366  17.445  25.710  1.00  0.00     0.095 A 
ATOM     13  C   UNL A   1      34.456  16.551  24.871  1.00  0.00     0.255 A 
ATOM     14  N   UNL A   1      33.214  16.383  25.456  1.00  0.00    -0.258 N 
ATOM     15  O   UNL A   1      35.261  15.655  24.624  1.00  0.00    -0.269 OA
BRANCH  14  16
ATOM     16  C   UNL A   1      32.845  15.048  25.847  1.00  0.00     0.451 C 
ATOM     17  F   UNL A   1      31.994  15.062  26.902  1.00  0.00    -0.185 F 
ATOM     18  F   UNL A   1      32.238  14.393  24.827  1.00  0.00    -0.185 F 
ENDBRANCH  14  16
ENDBRANCH   7   9
ENDBRANCH   4   7
ENDBRANCH   2   3
ENDBRANCH   1   2
BRANCH   1  19
ATOM     19  C   UNL A   1      38.880  19.727  26.040  1.00  0.00     0.118 C 
BRANCH  19  20
ATOM     20  N   UNL A   1      40.153  19.046  25.865  1.00  0.00    -0.352 N 
ATOM     21  C   UNL A   1      41.436  19.518  25.985  1.00  0.00     0.251 C 
ATOM     22  H   UNL A   1      40.083  18.094  25.622  1.00  0.00     0.163 HD
ATOM     23  O   UNL A   1      42.375  18.810  25.625  1.00  0.00    -0.269 OA
BRANCH  21  24
ATOM     24  C   UNL A   1      41.705  20.874  26.516  1.00  0.00     0.039 A 
ATOM     25  C   UNL A   1      41.643  21.072  27.899  1.00  0.00     0.014 A 
ATOM     26  C   UNL A   1      41.972  21.954  25.671  1.00  0.00     0.014 A 
ATOM     27  C   UNL A   1      41.912  22.333  28.437  1.00  0.00     0.010 A 
ATOM     28  C   UNL A   1      42.303  23.197  26.211  1.00  0.00     0.010 A 
ATOM     29  C   UNL A   1      42.278  23.399  27.600  1.00  0.00    -0.014 A 
BRANCH  29  30
ATOM     30  C   UNL A   1      42.655  24.721  28.163  1.00  0.00     0.031 A 
ATOM     31  C   UNL A   1      41.616  25.786  28.377  1.00  0.00     0.074 A 
ATOM     32  C   UNL A   1      43.949  24.983  28.430  1.00  0.00     0.049 A 
ATOM     33  N   UNL A   1      41.769  27.017  28.796  1.00  0.00    -0.248 NA
ATOM     34  C   UNL A   1      40.225  25.428  28.059  1.00  0.00     0.031 C 
ATOM     35  C   UNL A   1      45.061  24.051  28.228  1.00  0.00     0.029 A 
ATOM     36  N   UNL A   1      44.551  26.115  28.920  1.00  0.00    -0.354 N 
ATOM     37  C   UNL A   1      40.500  27.583  28.780  1.00  0.00     0.074 A 
ATOM     38  C   UNL A   1      39.595  26.575  28.270  1.00  0.00     0.031 C 
ATOM     39  C   UNL A   1      46.205  24.643  28.605  1.00  0.00     0.029 A 
ATOM     40  C   UNL A   1      45.916  26.005  29.043  1.00  0.00     0.049 A 
ATOM     41  H   UNL A   1      44.053  26.930  29.159  1.00  0.00     0.167 HD
ATOM     42  C   UNL A   1      40.121  28.823  29.173  1.00  0.00     0.037 A 
ATOM     43  C   UNL A   1      46.832  26.902  29.452  1.00  0.00     0.037 A 
ATOM     44  C   UNL A   1      41.016  29.819  29.704  1.00  0.00     0.049 A 
ATOM     45  C   UNL A   1      46.384  28.270  29.881  1.00  0.00     0.074 A 
ATOM     46  C   UNL A   1      40.714  31.083  30.180  1.00  0.00     0.029 A 
ATOM     47  N   UNL A   1      42.387  29.660  29.831  1.00  0.00    -0.354 N 
ATOM     48  N   UNL A   1      45.173  28.771  29.915  1.00  0.00    -0.248 NA
ATOM     49  C   UNL A   1      47.430  29.199  30.334  1.00  0.00     0.031 C 
ATOM     50  C   UNL A   1      41.908  31.704  30.562  1.00  0.00     0.029 A 
ATOM     51  C   UNL A   1      42.948  30.812  30.362  1.00  0.00     0.049 A 
ATOM     52  H   UNL A   1      42.888  28.852  29.581  1.00  0.00     0.167 HD
ATOM     53  C   UNL A   1      45.308  30.059  30.416  1.00  0.00     0.074 A 
ATOM     54  C   UNL A   1      46.717  30.259  30.685  1.00  0.00     0.031 C 
ATOM     55  C   UNL A   1      44.350  30.994  30.631  1.00  0.00     0.037 A 
BRANCH  42  56
ATOM     56  C   UNL A   1      38.667  29.175  29.052  1.00  0.00     0.057 A 
ATOM     57  C   UNL A   1      37.801  29.105  30.150  1.00  0.00     0.134 A 
ATOM     58  C   UNL A   1      38.139  29.632  27.838  1.00  0.00     0.134 A 
ATOM     59  F   UNL A   1      38.242  28.665  31.338  1.00  0.00    -0.206 F 
ATOM     60  C   UNL A   1      36.454  29.461  30.041  1.00  0.00     0.040 A 
ATOM     61  C   UNL A   1      36.801  30.013  27.723  1.00  0.00     0.040 A 
ATOM     62  F   UNL A   1      38.916  29.729  26.750  1.00  0.00    -0.206 F 
ATOM     63  C   UNL A   1      35.953  29.924  28.826  1.00  0.00     0.006 A 
ENDBRANCH  42  56
BRANCH  43  64
ATOM     64  C   UNL A   1      48.268  26.532  29.495  1.00  0.00     0.057 A 
ATOM     65  C   UNL A   1      48.813  25.882  30.608  1.00  0.00     0.134 A 
ATOM     66  C   UNL A   1      49.131  26.830  28.434  1.00  0.00     0.134 A 
ATOM     67  F   UNL A   1      48.039  25.588  31.663  1.00  0.00    -0.206 F 
ATOM     68  C   UNL A   1      50.169  25.561  30.675  1.00  0.00     0.040 A 
ATOM     69  C   UNL A   1      50.485  26.495  28.478  1.00  0.00     0.040 A 
ATOM     70  F   UNL A   1      48.668  27.446  27.335  1.00  0.00    -0.206 F 
ATOM     71  C   UNL A   1      51.009  25.864  29.605  1.00  0.00     0.006 A 
ENDBRANCH  43  64
BRANCH  55  72
ATOM     72  C   UNL A   1      44.791  32.302  31.215  1.00  0.00     0.057 A 
ATOM     73  C   UNL A   1      45.141  33.391  30.406  1.00  0.00     0.134 A 
ATOM     74  C   UNL A   1      44.837  32.485  32.603  1.00  0.00     0.134 A 
ATOM     75  F   UNL A   1      45.131  33.275  29.070  1.00  0.00    -0.206 F 
ATOM     76  C   UNL A   1      45.541  34.608  30.957  1.00  0.00     0.040 A 
ATOM     77  C   UNL A   1      45.212  33.706  33.166  1.00  0.00     0.040 A 
ATOM     78  F   UNL A   1      44.508  31.485  33.433  1.00  0.00    -0.206 F 
ATOM     79  C   UNL A   1      45.572  34.770  32.342  1.00  0.00     0.006 A 
ENDBRANCH  55  72
ENDBRANCH  29  30
ENDBRANCH  21  24
ENDBRANCH  19  20
ENDBRANCH   1  19
TORSDOF 12
ENDMDL
