MODEL 1
REMARK VINA RESULT:     -11.7      0.000      0.000
REMARK SMILES [NH3+]Cc1c(-c2ccccc2)c(C(=O)NCCCNC(=O)c2ccc(-c3c4nc(c(-c5c(F)cccc5F)c5ccc([nH]5)c(-c5c(F)cccc5F)c5nc(c(-c6c(F)cccc6F)c6ccc3[nH]6)C=C5)C=C4)cc2)c2ccccn12
REMARK SMILES IDX 16 1 15 2 14 3 12 4 13 5 11 7 3 8 4 9 80 10 75 11 79 12
REMARK SMILES IDX 76 13 78 14 77 15 2 16 1 17 5 21 6 22 10 23 7 24 9 25 8 26
REMARK SMILES IDX 17 27 18 28 19 29 20 31 21 32 22 33 74 34 23 35 73 36 24 37
REMARK SMILES IDX 25 38 26 39 67 40 27 41 72 42 66 43 68 44 28 45 71 46 65 47
REMARK SMILES IDX 64 48 29 50 55 51 38 52 54 53 39 54 42 55 53 56 69 57 40 58
REMARK SMILES IDX 41 59 52 61 70 62 43 63 30 64 31 65 36 66 32 67 33 68 35 69
REMARK SMILES IDX 37 70 34 71 56 72 57 73 62 74 58 75 59 76 61 77 63 78 60 79
REMARK SMILES IDX 44 80 45 81 50 82 46 83 47 84 49 85 51 86 48 87
REMARK H PARENT 14 6 1 18 1 19 1 20 18 30 68 49 42 60
REMARK Flexibility Score: inf
ROOT
ATOM      1  C   UNL A   1      34.049  28.308  26.272  1.00  0.00     0.042 C 
ENDROOT
BRANCH   1   2
ATOM      2  C   UNL A   1      33.732  29.252  25.123  1.00  0.00     0.118 C 
BRANCH   2   3
ATOM      3  N   UNL A   1      34.135  28.788  23.811  1.00  0.00    -0.352 N 
ATOM      4  C   UNL A   1      33.565  27.894  22.932  1.00  0.00     0.254 C 
ATOM      5  O   UNL A   1      34.137  27.788  21.847  1.00  0.00    -0.269 OA
ATOM      6  H   UNL A   1      34.975  29.186  23.488  1.00  0.00     0.163 HD
BRANCH   4   7
ATOM      7  C   UNL A   1      32.406  27.064  23.282  1.00  0.00     0.073 A 
ATOM      8  C   UNL A   1      31.191  25.270  24.100  1.00  0.00     0.086 A 
ATOM      9  C   UNL A   1      32.481  25.720  23.809  1.00  0.00     0.022 A 
ATOM     10  N   UNL A   1      30.331  26.308  23.762  1.00  0.00    -0.314 N 
ATOM     11  C   UNL A   1      31.051  27.290  23.078  1.00  0.00     0.059 A 
ATOM     12  C   UNL A   1      28.954  26.431  24.002  1.00  0.00     0.092 A 
ATOM     13  C   UNL A   1      30.278  28.277  22.387  1.00  0.00     0.027 A 
ATOM     14  C   UNL A   1      28.272  27.471  23.501  1.00  0.00     0.018 A 
ATOM     15  C   UNL A   1      28.959  28.392  22.622  1.00  0.00     0.004 A 
BRANCH   8  16
ATOM     16  C   UNL A   1      30.653  23.956  24.587  1.00  0.00     0.315 C 
BRANCH  16  17
ATOM     17  N   UNL A   1      30.303  23.935  25.997  1.00  0.00    -0.353 N 
ATOM     18  H   UNL A   1      31.007  24.445  26.531  1.00  0.00     0.344 HD
ATOM     19  H   UNL A   1      30.264  22.969  26.322  1.00  0.00     0.344 HD
ATOM     20  H   UNL A   1      29.392  24.375  26.128  1.00  0.00     0.344 HD
ENDBRANCH  16  17
ENDBRANCH   8  16
BRANCH   9  21
ATOM     21  C   UNL A   1      33.670  24.899  23.978  1.00  0.00    -0.016 A 
ATOM     22  C   UNL A   1      34.108  24.056  22.951  1.00  0.00     0.009 A 
ATOM     23  C   UNL A   1      34.386  24.952  25.183  1.00  0.00     0.009 A 
ATOM     24  C   UNL A   1      35.258  23.282  23.125  1.00  0.00     0.001 A 
ATOM     25  C   UNL A   1      35.539  24.183  25.350  1.00  0.00     0.001 A 
ATOM     26  C   UNL A   1      35.974  23.348  24.321  1.00  0.00     0.000 A 
ENDBRANCH   9  21
ENDBRANCH   4   7
ENDBRANCH   2   3
ENDBRANCH   1   2
BRANCH   1  27
ATOM     27  C   UNL A   1      33.473  28.694  27.626  1.00  0.00     0.118 C 
BRANCH  27  28
ATOM     28  N   UNL A   1      33.630  30.103  27.962  1.00  0.00    -0.352 N 
ATOM     29  C   UNL A   1      34.710  30.835  28.403  1.00  0.00     0.251 C 
ATOM     30  H   UNL A   1      32.807  30.633  27.854  1.00  0.00     0.163 HD
ATOM     31  O   UNL A   1      34.545  32.007  28.721  1.00  0.00    -0.269 OA
BRANCH  29  32
ATOM     32  C   UNL A   1      36.055  30.226  28.546  1.00  0.00     0.039 A 
ATOM     33  C   UNL A   1      36.915  30.226  27.440  1.00  0.00     0.014 A 
ATOM     34  C   UNL A   1      36.477  29.633  29.733  1.00  0.00     0.014 A 
ATOM     35  C   UNL A   1      38.217  29.727  27.561  1.00  0.00     0.010 A 
ATOM     36  C   UNL A   1      37.805  29.247  29.889  1.00  0.00     0.010 A 
ATOM     37  C   UNL A   1      38.693  29.284  28.804  1.00  0.00    -0.014 A 
BRANCH  37  38
ATOM     38  C   UNL A   1      40.099  28.836  28.997  1.00  0.00     0.031 A 
ATOM     39  C   UNL A   1      41.124  29.790  29.555  1.00  0.00     0.074 A 
ATOM     40  C   UNL A   1      40.475  27.604  28.598  1.00  0.00     0.049 A 
ATOM     41  N   UNL A   1      42.421  29.642  29.666  1.00  0.00    -0.248 NA
ATOM     42  C   UNL A   1      40.632  31.100  30.015  1.00  0.00     0.031 C 
ATOM     43  C   UNL A   1      39.597  26.599  27.996  1.00  0.00     0.029 A 
ATOM     44  N   UNL A   1      41.704  26.992  28.623  1.00  0.00    -0.354 N 
ATOM     45  C   UNL A   1      42.895  30.839  30.187  1.00  0.00     0.074 A 
ATOM     46  C   UNL A   1      41.761  31.728  30.310  1.00  0.00     0.031 C 
ATOM     47  C   UNL A   1      40.308  25.490  27.732  1.00  0.00     0.029 A 
ATOM     48  C   UNL A   1      41.699  25.718  28.104  1.00  0.00     0.049 A 
ATOM     49  H   UNL A   1      42.514  27.424  28.981  1.00  0.00     0.167 HD
ATOM     50  C   UNL A   1      44.155  31.163  30.561  1.00  0.00     0.037 A 
ATOM     51  C   UNL A   1      42.706  24.840  27.936  1.00  0.00     0.037 A 
ATOM     52  C   UNL A   1      45.278  30.269  30.480  1.00  0.00     0.049 A 
ATOM     53  C   UNL A   1      44.096  25.224  28.365  1.00  0.00     0.074 A 
ATOM     54  C   UNL A   1      46.588  30.490  30.869  1.00  0.00     0.029 A 
ATOM     55  N   UNL A   1      45.220  28.974  29.989  1.00  0.00    -0.354 N 
ATOM     56  N   UNL A   1      44.517  26.346  28.895  1.00  0.00    -0.248 NA
ATOM     57  C   UNL A   1      45.150  24.216  28.177  1.00  0.00     0.031 C 
ATOM     58  C   UNL A   1      47.327  29.336  30.590  1.00  0.00     0.029 A 
ATOM     59  C   UNL A   1      46.470  28.385  30.064  1.00  0.00     0.049 A 
ATOM     60  H   UNL A   1      44.409  28.538  29.640  1.00  0.00     0.167 HD
ATOM     61  C   UNL A   1      45.874  26.168  29.134  1.00  0.00     0.074 A 
ATOM     62  C   UNL A   1      46.202  24.824  28.705  1.00  0.00     0.031 C 
ATOM     63  C   UNL A   1      46.770  27.038  29.658  1.00  0.00     0.037 A 
BRANCH  50  64
ATOM     64  C   UNL A   1      44.381  32.536  31.125  1.00  0.00     0.057 A 
ATOM     65  C   UNL A   1      44.288  32.786  32.501  1.00  0.00     0.134 A 
ATOM     66  C   UNL A   1      44.745  33.605  30.297  1.00  0.00     0.134 A 
ATOM     67  F   UNL A   1      43.930  31.807  33.346  1.00  0.00    -0.206 F 
ATOM     68  C   UNL A   1      44.529  34.055  33.030  1.00  0.00     0.040 A 
ATOM     69  C   UNL A   1      45.014  34.872  30.817  1.00  0.00     0.040 A 
ATOM     70  F   UNL A   1      44.859  33.432  28.971  1.00  0.00    -0.206 F 
ATOM     71  C   UNL A   1      44.901  35.100  32.189  1.00  0.00     0.006 A 
ENDBRANCH  50  64
BRANCH  51  72
ATOM     72  C   UNL A   1      42.448  23.499  27.346  1.00  0.00     0.057 A 
ATOM     73  C   UNL A   1      42.075  22.417  28.153  1.00  0.00     0.134 A 
ATOM     74  C   UNL A   1      42.610  23.257  25.978  1.00  0.00     0.134 A 
ATOM     75  F   UNL A   1      41.922  22.581  29.475  1.00  0.00    -0.206 F 
ATOM     76  C   UNL A   1      41.906  21.135  27.626  1.00  0.00     0.040 A 
ATOM     77  C   UNL A   1      42.418  21.986  25.433  1.00  0.00     0.040 A 
ATOM     78  F   UNL A   1      42.958  24.252  25.150  1.00  0.00    -0.206 F 
ATOM     79  C   UNL A   1      42.077  20.918  26.261  1.00  0.00     0.006 A 
ENDBRANCH  51  72
BRANCH  63  80
ATOM     80  C   UNL A   1      48.175  26.548  29.843  1.00  0.00     0.057 A 
ATOM     81  C   UNL A   1      49.152  26.715  28.856  1.00  0.00     0.134 A 
ATOM     82  C   UNL A   1      48.561  25.937  31.043  1.00  0.00     0.134 A 
ATOM     83  F   UNL A   1      48.842  27.281  27.679  1.00  0.00    -0.206 F 
ATOM     84  C   UNL A   1      50.462  26.270  29.046  1.00  0.00     0.040 A 
ATOM     85  C   UNL A   1      49.872  25.511  31.255  1.00  0.00     0.040 A 
ATOM     86  F   UNL A   1      47.673  25.756  32.032  1.00  0.00    -0.206 F 
ATOM     87  C   UNL A   1      50.826  25.671  30.252  1.00  0.00     0.006 A 
ENDBRANCH  63  80
ENDBRANCH  37  38
ENDBRANCH  29  32
ENDBRANCH  27  28
ENDBRANCH   1  27
TORSDOF 13
ENDMDL
MODEL 2
REMARK VINA RESULT:     -11.5      3.521      7.093
REMARK SMILES [NH3+]Cc1c(-c2ccccc2)c(C(=O)NCCCNC(=O)c2ccc(-c3c4nc(c(-c5c(F)cccc5F)c5ccc([nH]5)c(-c5c(F)cccc5F)c5nc(c(-c6c(F)cccc6F)c6ccc3[nH]6)C=C5)C=C4)cc2)c2ccccn12
REMARK SMILES IDX 16 1 15 2 14 3 12 4 13 5 11 7 3 8 4 9 80 10 75 11 79 12
REMARK SMILES IDX 76 13 78 14 77 15 2 16 1 17 5 21 6 22 10 23 7 24 9 25 8 26
REMARK SMILES IDX 17 27 18 28 19 29 20 31 21 32 22 33 74 34 23 35 73 36 24 37
REMARK SMILES IDX 25 38 26 39 67 40 27 41 72 42 66 43 68 44 28 45 71 46 65 47
REMARK SMILES IDX 64 48 29 50 55 51 38 52 54 53 39 54 42 55 53 56 69 57 40 58
REMARK SMILES IDX 41 59 52 61 70 62 43 63 30 64 31 65 36 66 32 67 33 68 35 69
REMARK SMILES IDX 37 70 34 71 56 72 57 73 62 74 58 75 59 76 61 77 63 78 60 79
REMARK SMILES IDX 44 80 45 81 50 82 46 83 47 84 49 85 51 86 48 87
REMARK H PARENT 14 6 1 18 1 19 1 20 18 30 68 49 42 60
REMARK Flexibility Score: inf
ROOT
ATOM      1  C   UNL A   1      32.252  30.078  25.397  1.00  0.00     0.042 C 
ENDROOT
BRANCH   1   2
ATOM      2  C   UNL A   1      33.536  29.266  25.423  1.00  0.00     0.118 C 
BRANCH   2   3
ATOM      3  N   UNL A   1      34.038  28.858  24.127  1.00  0.00    -0.352 N 
ATOM      4  C   UNL A   1      33.553  27.981  23.183  1.00  0.00     0.254 C 
ATOM      5  O   UNL A   1      34.198  27.927  22.136  1.00  0.00    -0.269 OA
ATOM      6  H   UNL A   1      34.887  29.289  23.874  1.00  0.00     0.163 HD
BRANCH   4   7
ATOM      7  C   UNL A   1      32.397  27.110  23.427  1.00  0.00     0.073 A 
ATOM      8  C   UNL A   1      31.185  25.244  24.070  1.00  0.00     0.086 A 
ATOM      9  C   UNL A   1      32.476  25.734  23.864  1.00  0.00     0.022 A 
ATOM     10  N   UNL A   1      30.319  26.288  23.767  1.00  0.00    -0.314 N 
ATOM     11  C   UNL A   1      31.047  27.327  23.182  1.00  0.00     0.059 A 
ATOM     12  C   UNL A   1      28.932  26.372  23.958  1.00  0.00     0.092 A 
ATOM     13  C   UNL A   1      30.284  28.346  22.529  1.00  0.00     0.027 A 
ATOM     14  C   UNL A   1      28.250  27.433  23.501  1.00  0.00     0.018 A 
ATOM     15  C   UNL A   1      28.954  28.424  22.716  1.00  0.00     0.004 A 
BRANCH   8  16
ATOM     16  C   UNL A   1      30.653  23.891  24.443  1.00  0.00     0.315 C 
BRANCH  16  17
ATOM     17  N   UNL A   1      30.342  23.735  25.853  1.00  0.00    -0.353 N 
ATOM     18  H   UNL A   1      29.334  23.635  25.971  1.00  0.00     0.344 HD
ATOM     19  H   UNL A   1      30.664  24.556  26.366  1.00  0.00     0.344 HD
ATOM     20  H   UNL A   1      30.811  22.903  26.215  1.00  0.00     0.344 HD
ENDBRANCH  16  17
ENDBRANCH   8  16
BRANCH   9  21
ATOM     21  C   UNL A   1      33.673  24.923  24.026  1.00  0.00    -0.016 A 
ATOM     22  C   UNL A   1      34.405  24.960  25.217  1.00  0.00     0.009 A 
ATOM     23  C   UNL A   1      34.101  24.096  22.976  1.00  0.00     0.009 A 
ATOM     24  C   UNL A   1      35.546  24.166  25.361  1.00  0.00     0.001 A 
ATOM     25  C   UNL A   1      35.237  23.300  23.126  1.00  0.00     0.001 A 
ATOM     26  C   UNL A   1      35.959  23.336  24.319  1.00  0.00     0.000 A 
ENDBRANCH   9  21
ENDBRANCH   4   7
ENDBRANCH   2   3
ENDBRANCH   1   2
BRANCH   1  27
ATOM     27  C   UNL A   1      31.778  30.614  26.740  1.00  0.00     0.118 C 
BRANCH  27  28
ATOM     28  N   UNL A   1      31.820  32.066  26.852  1.00  0.00    -0.352 N 
ATOM     29  C   UNL A   1      32.734  32.925  27.423  1.00  0.00     0.251 C 
ATOM     30  H   UNL A   1      31.048  32.520  26.443  1.00  0.00     0.163 HD
ATOM     31  O   UNL A   1      32.474  34.121  27.476  1.00  0.00    -0.269 OA
BRANCH  29  32
ATOM     32  C   UNL A   1      34.000  32.429  28.015  1.00  0.00     0.039 A 
ATOM     33  C   UNL A   1      35.059  33.329  28.188  1.00  0.00     0.014 A 
ATOM     34  C   UNL A   1      34.177  31.096  28.376  1.00  0.00     0.014 A 
ATOM     35  C   UNL A   1      36.241  32.913  28.812  1.00  0.00     0.010 A 
ATOM     36  C   UNL A   1      35.301  30.710  29.101  1.00  0.00     0.010 A 
ATOM     37  C   UNL A   1      36.351  31.612  29.326  1.00  0.00    -0.014 A 
BRANCH  37  38
ATOM     38  C   UNL A   1      37.552  31.160  30.079  1.00  0.00     0.031 A 
ATOM     39  C   UNL A   1      38.534  30.215  29.434  1.00  0.00     0.074 A 
ATOM     40  C   UNL A   1      37.722  31.530  31.364  1.00  0.00     0.049 A 
ATOM     41  N   UNL A   1      39.560  29.596  29.963  1.00  0.00    -0.248 NA
ATOM     42  C   UNL A   1      38.312  29.894  28.014  1.00  0.00     0.031 C 
ATOM     43  C   UNL A   1      36.822  32.398  32.126  1.00  0.00     0.029 A 
ATOM     44  N   UNL A   1      38.705  31.205  32.267  1.00  0.00    -0.354 N 
ATOM     45  C   UNL A   1      40.088  28.804  28.951  1.00  0.00     0.074 A 
ATOM     46  C   UNL A   1      39.234  28.968  27.795  1.00  0.00     0.031 C 
ATOM     47  C   UNL A   1      37.307  32.557  33.369  1.00  0.00     0.029 A 
ATOM     48  C   UNL A   1      38.526  31.769  33.508  1.00  0.00     0.049 A 
ATOM     49  H   UNL A   1      39.469  30.624  32.045  1.00  0.00     0.167 HD
ATOM     50  C   UNL A   1      41.200  28.034  28.968  1.00  0.00     0.037 A 
ATOM     51  C   UNL A   1      39.254  31.652  34.634  1.00  0.00     0.037 A 
ATOM     52  C   UNL A   1      42.075  27.900  30.102  1.00  0.00     0.049 A 
ATOM     53  C   UNL A   1      40.489  30.792  34.624  1.00  0.00     0.074 A 
ATOM     54  C   UNL A   1      43.248  27.173  30.207  1.00  0.00     0.029 A 
ATOM     55  N   UNL A   1      41.879  28.523  31.325  1.00  0.00    -0.354 N 
ATOM     56  N   UNL A   1      40.996  30.085  33.645  1.00  0.00    -0.248 NA
ATOM     57  C   UNL A   1      41.258  30.720  35.876  1.00  0.00     0.031 C 
ATOM     58  C   UNL A   1      43.749  27.337  31.502  1.00  0.00     0.029 A 
ATOM     59  C   UNL A   1      42.908  28.196  32.190  1.00  0.00     0.049 A 
ATOM     60  H   UNL A   1      41.121  29.111  31.545  1.00  0.00     0.167 HD
ATOM     61  C   UNL A   1      42.156  29.511  34.150  1.00  0.00     0.074 A 
ATOM     62  C   UNL A   1      42.287  29.966  35.518  1.00  0.00     0.031 C 
ATOM     63  C   UNL A   1      43.034  28.681  33.539  1.00  0.00     0.037 A 
BRANCH  50  64
ATOM     64  C   UNL A   1      41.556  27.298  27.709  1.00  0.00     0.057 A 
ATOM     65  C   UNL A   1      41.128  25.982  27.486  1.00  0.00     0.134 A 
ATOM     66  C   UNL A   1      42.285  27.923  26.690  1.00  0.00     0.134 A 
ATOM     67  F   UNL A   1      40.438  25.323  28.429  1.00  0.00    -0.206 F 
ATOM     68  C   UNL A   1      41.431  25.307  26.302  1.00  0.00     0.040 A 
ATOM     69  C   UNL A   1      42.571  27.267  25.492  1.00  0.00     0.040 A 
ATOM     70  F   UNL A   1      42.718  29.184  26.836  1.00  0.00    -0.206 F 
ATOM     71  C   UNL A   1      42.147  25.952  25.298  1.00  0.00     0.006 A 
ENDBRANCH  50  64
BRANCH  51  72
ATOM     72  C   UNL A   1      38.855  32.373  35.871  1.00  0.00     0.057 A 
ATOM     73  C   UNL A   1      39.208  33.714  36.070  1.00  0.00     0.134 A 
ATOM     74  C   UNL A   1      38.153  31.733  36.899  1.00  0.00     0.134 A 
ATOM     75  F   UNL A   1      39.897  34.376  35.130  1.00  0.00    -0.206 F 
ATOM     76  C   UNL A   1      38.908  34.381  37.259  1.00  0.00     0.040 A 
ATOM     77  C   UNL A   1      37.824  32.397  38.082  1.00  0.00     0.040 A 
ATOM     78  F   UNL A   1      37.778  30.453  36.768  1.00  0.00    -0.206 F 
ATOM     79  C   UNL A   1      38.212  33.722  38.269  1.00  0.00     0.006 A 
ENDBRANCH  51  72
BRANCH  63  80
ATOM     80  C   UNL A   1      44.236  28.252  34.327  1.00  0.00     0.057 A 
ATOM     81  C   UNL A   1      44.243  27.074  35.082  1.00  0.00     0.134 A 
ATOM     82  C   UNL A   1      45.412  29.011  34.295  1.00  0.00     0.134 A 
ATOM     83  F   UNL A   1      43.143  26.311  35.163  1.00  0.00    -0.206 F 
ATOM     84  C   UNL A   1      45.373  26.676  35.798  1.00  0.00     0.040 A 
ATOM     85  C   UNL A   1      46.556  28.611  34.986  1.00  0.00     0.040 A 
ATOM     86  F   UNL A   1      45.473  30.146  33.583  1.00  0.00    -0.206 F 
ATOM     87  C   UNL A   1      46.537  27.443  35.746  1.00  0.00     0.006 A 
ENDBRANCH  63  80
ENDBRANCH  37  38
ENDBRANCH  29  32
ENDBRANCH  27  28
ENDBRANCH   1  27
TORSDOF 13
ENDMDL
MODEL 3
REMARK VINA RESULT:     -11.5      3.596      7.568
REMARK SMILES [NH3+]Cc1c(-c2ccccc2)c(C(=O)NCCCNC(=O)c2ccc(-c3c4nc(c(-c5c(F)cccc5F)c5ccc([nH]5)c(-c5c(F)cccc5F)c5nc(c(-c6c(F)cccc6F)c6ccc3[nH]6)C=C5)C=C4)cc2)c2ccccn12
REMARK SMILES IDX 16 1 15 2 14 3 12 4 13 5 11 7 3 8 4 9 80 10 75 11 79 12
REMARK SMILES IDX 76 13 78 14 77 15 2 16 1 17 5 21 6 22 10 23 7 24 9 25 8 26
REMARK SMILES IDX 17 27 18 28 19 29 20 31 21 32 22 33 74 34 23 35 73 36 24 37
REMARK SMILES IDX 25 38 26 39 67 40 27 41 72 42 66 43 68 44 28 45 71 46 65 47
REMARK SMILES IDX 64 48 29 50 55 51 38 52 54 53 39 54 42 55 53 56 69 57 40 58
REMARK SMILES IDX 41 59 52 61 70 62 43 63 30 64 31 65 36 66 32 67 33 68 35 69
REMARK SMILES IDX 37 70 34 71 56 72 57 73 62 74 58 75 59 76 61 77 63 78 60 79
REMARK SMILES IDX 44 80 45 81 50 82 46 83 47 84 49 85 51 86 48 87
REMARK H PARENT 14 6 1 18 1 19 1 20 18 30 68 49 42 60
REMARK Flexibility Score: inf
ROOT
ATOM      1  C   UNL A   1      31.510  29.418  26.941  1.00  0.00     0.042 C 
ENDROOT
BRANCH   1   2
ATOM      2  C   UNL A   1      32.036  27.996  26.835  1.00  0.00     0.118 C 
BRANCH   2   3
ATOM      3  N   UNL A   1      31.028  26.957  26.887  1.00  0.00    -0.352 N 
ATOM      4  C   UNL A   1      30.831  25.822  26.132  1.00  0.00     0.254 C 
ATOM      5  O   UNL A   1      29.906  25.100  26.501  1.00  0.00    -0.269 OA
ATOM      6  H   UNL A   1      30.356  27.088  27.594  1.00  0.00     0.163 HD
BRANCH   4   7
ATOM      7  C   UNL A   1      31.613  25.526  24.924  1.00  0.00     0.073 A 
ATOM      8  C   UNL A   1      32.477  25.760  22.789  1.00  0.00     0.086 A 
ATOM      9  C   UNL A   1      31.540  26.273  23.688  1.00  0.00     0.022 A 
ATOM     10  N   UNL A   1      33.118  24.716  23.445  1.00  0.00    -0.314 N 
ATOM     11  C   UNL A   1      32.446  24.452  24.641  1.00  0.00     0.059 A 
ATOM     12  C   UNL A   1      34.241  23.976  23.047  1.00  0.00     0.092 A 
ATOM     13  C   UNL A   1      32.773  23.220  25.292  1.00  0.00     0.027 A 
ATOM     14  C   UNL A   1      34.652  22.928  23.776  1.00  0.00     0.018 A 
ATOM     15  C   UNL A   1      33.852  22.514  24.908  1.00  0.00     0.004 A 
BRANCH   8  16
ATOM     16  C   UNL A   1      32.797  26.076  21.357  1.00  0.00     0.315 C 
BRANCH  16  17
ATOM     17  N   UNL A   1      31.778  25.661  20.407  1.00  0.00    -0.353 N 
ATOM     18  H   UNL A   1      31.284  24.847  20.772  1.00  0.00     0.344 HD
ATOM     19  H   UNL A   1      32.219  25.421  19.519  1.00  0.00     0.344 HD
ATOM     20  H   UNL A   1      31.116  26.425  20.263  1.00  0.00     0.344 HD
ENDBRANCH  16  17
ENDBRANCH   8  16
BRANCH   9  21
ATOM     21  C   UNL A   1      30.624  27.354  23.359  1.00  0.00    -0.016 A 
ATOM     22  C   UNL A   1      29.241  27.166  23.436  1.00  0.00     0.009 A 
ATOM     23  C   UNL A   1      31.133  28.598  22.958  1.00  0.00     0.009 A 
ATOM     24  C   UNL A   1      28.374  28.218  23.126  1.00  0.00     0.001 A 
ATOM     25  C   UNL A   1      30.265  29.649  22.657  1.00  0.00     0.001 A 
ATOM     26  C   UNL A   1      28.886  29.458  22.741  1.00  0.00     0.000 A 
ENDBRANCH   9  21
ENDBRANCH   4   7
ENDBRANCH   2   3
ENDBRANCH   1   2
BRANCH   1  27
ATOM     27  C   UNL A   1      32.193  30.447  26.052  1.00  0.00     0.118 C 
BRANCH  27  28
ATOM     28  N   UNL A   1      32.025  31.825  26.493  1.00  0.00    -0.352 N 
ATOM     29  C   UNL A   1      32.772  32.627  27.327  1.00  0.00     0.251 C 
ATOM     30  H   UNL A   1      31.226  32.267  26.125  1.00  0.00     0.163 HD
ATOM     31  O   UNL A   1      32.346  33.737  27.624  1.00  0.00    -0.269 OA
BRANCH  29  32
ATOM     32  C   UNL A   1      34.055  32.162  27.909  1.00  0.00     0.039 A 
ATOM     33  C   UNL A   1      35.108  33.076  28.035  1.00  0.00     0.014 A 
ATOM     34  C   UNL A   1      34.250  30.842  28.307  1.00  0.00     0.014 A 
ATOM     35  C   UNL A   1      36.305  32.689  28.648  1.00  0.00     0.010 A 
ATOM     36  C   UNL A   1      35.392  30.488  29.022  1.00  0.00     0.010 A 
ATOM     37  C   UNL A   1      36.437  31.406  29.199  1.00  0.00    -0.014 A 
BRANCH  37  38
ATOM     38  C   UNL A   1      37.657  30.987  29.943  1.00  0.00     0.031 A 
ATOM     39  C   UNL A   1      38.647  30.051  29.299  1.00  0.00     0.074 A 
ATOM     40  C   UNL A   1      37.837  31.381  31.220  1.00  0.00     0.049 A 
ATOM     41  N   UNL A   1      39.691  29.459  29.824  1.00  0.00    -0.248 NA
ATOM     42  C   UNL A   1      38.412  29.703  27.887  1.00  0.00     0.031 C 
ATOM     43  C   UNL A   1      36.932  32.245  31.980  1.00  0.00     0.029 A 
ATOM     44  N   UNL A   1      38.839  31.089  32.113  1.00  0.00    -0.354 N 
ATOM     45  C   UNL A   1      40.219  28.660  28.817  1.00  0.00     0.074 A 
ATOM     46  C   UNL A   1      39.347  28.790  27.671  1.00  0.00     0.031 C 
ATOM     47  C   UNL A   1      37.431  32.433  33.213  1.00  0.00     0.029 A 
ATOM     48  C   UNL A   1      38.666  31.669  33.348  1.00  0.00     0.049 A 
ATOM     49  H   UNL A   1      39.610  30.518  31.890  1.00  0.00     0.167 HD
ATOM     50  C   UNL A   1      41.346  27.910  28.831  1.00  0.00     0.037 A 
ATOM     51  C   UNL A   1      39.412  31.583  34.466  1.00  0.00     0.037 A 
ATOM     52  C   UNL A   1      42.238  27.811  29.955  1.00  0.00     0.049 A 
ATOM     53  C   UNL A   1      40.662  30.746  34.452  1.00  0.00     0.074 A 
ATOM     54  C   UNL A   1      43.426  27.107  30.055  1.00  0.00     0.029 A 
ATOM     55  N   UNL A   1      42.048  28.449  31.170  1.00  0.00    -0.354 N 
ATOM     56  N   UNL A   1      41.168  30.032  33.477  1.00  0.00    -0.248 NA
ATOM     57  C   UNL A   1      41.448  30.708  35.694  1.00  0.00     0.031 C 
ATOM     58  C   UNL A   1      43.941  27.300  31.340  1.00  0.00     0.029 A 
ATOM     59  C   UNL A   1      43.095  28.155  32.026  1.00  0.00     0.049 A 
ATOM     60  H   UNL A   1      41.282  29.027  31.391  1.00  0.00     0.167 HD
ATOM     61  C   UNL A   1      42.345  29.488  33.975  1.00  0.00     0.074 A 
ATOM     62  C   UNL A   1      42.486  29.967  35.334  1.00  0.00     0.031 C 
ATOM     63  C   UNL A   1      43.230  28.664  33.365  1.00  0.00     0.037 A 
BRANCH  50  64
ATOM     64  C   UNL A   1      41.697  27.161  27.579  1.00  0.00     0.057 A 
ATOM     65  C   UNL A   1      42.431  27.763  26.548  1.00  0.00     0.134 A 
ATOM     66  C   UNL A   1      41.346  25.814  27.422  1.00  0.00     0.134 A 
ATOM     67  F   UNL A   1      42.786  29.054  26.631  1.00  0.00    -0.206 F 
ATOM     68  C   UNL A   1      42.785  27.058  25.396  1.00  0.00     0.040 A 
ATOM     69  C   UNL A   1      41.718  25.092  26.287  1.00  0.00     0.040 A 
ATOM     70  F   UNL A   1      40.650  25.176  28.374  1.00  0.00    -0.206 F 
ATOM     71  C   UNL A   1      42.436  25.716  25.267  1.00  0.00     0.006 A 
ENDBRANCH  50  64
BRANCH  51  72
ATOM     72  C   UNL A   1      39.016  32.317  35.696  1.00  0.00     0.057 A 
ATOM     73  C   UNL A   1      38.199  31.716  36.662  1.00  0.00     0.134 A 
ATOM     74  C   UNL A   1      39.403  33.643  35.915  1.00  0.00     0.134 A 
ATOM     75  F   UNL A   1      37.778  30.454  36.500  1.00  0.00    -0.206 F 
ATOM     76  C   UNL A   1      37.754  32.419  37.784  1.00  0.00     0.040 A 
ATOM     77  C   UNL A   1      38.988  34.349  37.046  1.00  0.00     0.040 A 
ATOM     78  F   UNL A   1      40.192  34.274  35.033  1.00  0.00    -0.206 F 
ATOM     79  C   UNL A   1      38.150  33.739  37.979  1.00  0.00     0.006 A 
ENDBRANCH  51  72
BRANCH  63  80
ATOM     80  C   UNL A   1      44.450  28.270  34.143  1.00  0.00     0.057 A 
ATOM     81  C   UNL A   1      44.487  27.107  34.921  1.00  0.00     0.134 A 
ATOM     82  C   UNL A   1      45.614  29.046  34.078  1.00  0.00     0.134 A 
ATOM     83  F   UNL A   1      43.400  26.329  35.034  1.00  0.00    -0.206 F 
ATOM     84  C   UNL A   1      45.634  26.741  35.627  1.00  0.00     0.040 A 
ATOM     85  C   UNL A   1      46.774  28.677  34.758  1.00  0.00     0.040 A 
ATOM     86  F   UNL A   1      45.646  30.167  33.342  1.00  0.00    -0.206 F 
ATOM     87  C   UNL A   1      46.785  27.525  35.542  1.00  0.00     0.006 A 
ENDBRANCH  63  80
ENDBRANCH  37  38
ENDBRANCH  29  32
ENDBRANCH  27  28
ENDBRANCH   1  27
TORSDOF 13
ENDMDL
