MODEL 1
REMARK VINA RESULT:     -11.0      0.000      0.000
REMARK SMILES CC1(C(=O)N2CC[C@H](C(=O)NCCCNC(=O)c3ccc(-c4c5nc(c(-c6c(F)cccc6F)c6ccc([nH]6)c(-c6c(F)cccc6F)c6nc(c(-c7c(F)cccc7F)c7ccc4[nH]7)C=C6)C=C5)cc3)C2)CCCC1
REMARK SMILES IDX 13 1 12 2 11 3 9 4 10 5 8 7 5 8 6 9 72 10 7 11 3 12 4 13
REMARK SMILES IDX 2 14 1 15 73 16 76 17 74 18 75 19 14 20 15 21 16 22 17 24
REMARK SMILES IDX 18 25 19 26 71 27 20 28 70 29 21 30 22 31 23 32 64 33 24 34
REMARK SMILES IDX 69 35 63 36 65 37 25 38 68 39 62 40 61 41 26 43 52 44 35 45
REMARK SMILES IDX 51 46 36 47 39 48 50 49 66 50 37 51 38 52 49 54 67 55 40 56
REMARK SMILES IDX 27 57 28 58 33 59 29 60 30 61 32 62 34 63 31 64 53 65 54 66
REMARK SMILES IDX 59 67 55 68 56 69 58 70 60 71 57 72 41 73 42 74 47 75 43 76
REMARK SMILES IDX 44 77 46 78 48 79 45 80
REMARK H PARENT 11 6 15 23 65 42 39 53
REMARK Flexibility Score: inf
ROOT
ATOM      1  C   UNL A   1      33.797  28.611  25.567  1.00  0.00     0.042 C 
ENDROOT
BRANCH   1   2
ATOM      2  C   UNL A   1      33.024  27.454  24.953  1.00  0.00     0.117 C 
BRANCH   2   3
ATOM      3  N   UNL A   1      33.468  27.125  23.612  1.00  0.00    -0.356 N 
ATOM      4  C   UNL A   1      33.371  25.971  22.900  1.00  0.00     0.224 C 
ATOM      5  O   UNL A   1      33.825  25.983  21.752  1.00  0.00    -0.275 OA
ATOM      6  H   UNL A   1      33.915  27.864  23.137  1.00  0.00     0.163 HD
BRANCH   4   7
ATOM      7  C   UNL A   1      32.780  24.689  23.469  1.00  0.00     0.099 C 
ATOM      8  N   UNL A   1      33.942  22.759  24.214  1.00  0.00    -0.341 N 
ATOM      9  C   UNL A   1      33.009  22.305  23.204  1.00  0.00     0.120 C 
ATOM     10  C   UNL A   1      33.554  24.097  24.648  1.00  0.00     0.133 C 
ATOM     11  C   UNL A   1      32.660  23.567  22.434  1.00  0.00     0.037 C 
BRANCH   8  12
ATOM     12  C   UNL A   1      34.858  22.036  24.951  1.00  0.00     0.228 C 
ATOM     13  O   UNL A   1      34.464  21.406  25.939  1.00  0.00    -0.274 OA
BRANCH  12  14
ATOM     14  C   UNL A   1      36.381  22.241  24.711  1.00  0.00     0.047 C 
ATOM     15  C   UNL A   1      36.791  22.719  23.314  1.00  0.00     0.022 C 
ATOM     16  C   UNL A   1      37.170  20.954  25.057  1.00  0.00     0.016 C 
ATOM     17  C   UNL A   1      36.914  23.194  25.798  1.00  0.00     0.016 C 
ATOM     18  C   UNL A   1      38.558  21.422  25.492  1.00  0.00     0.001 C 
ATOM     19  C   UNL A   1      38.377  22.838  26.024  1.00  0.00     0.001 C 
ENDBRANCH  12  14
ENDBRANCH   8  12
ENDBRANCH   4   7
ENDBRANCH   2   3
ENDBRANCH   1   2
BRANCH   1  20
ATOM     20  C   UNL A   1      33.751  28.642  27.085  1.00  0.00     0.118 C 
BRANCH  20  21
ATOM     21  N   UNL A   1      33.754  30.000  27.617  1.00  0.00    -0.352 N 
ATOM     22  C   UNL A   1      34.709  30.676  28.332  1.00  0.00     0.251 C 
ATOM     23  H   UNL A   1      32.935  30.515  27.433  1.00  0.00     0.163 HD
ATOM     24  O   UNL A   1      34.427  31.755  28.853  1.00  0.00    -0.269 OA
BRANCH  22  25
ATOM     25  C   UNL A   1      36.065  30.113  28.504  1.00  0.00     0.039 A 
ATOM     26  C   UNL A   1      36.978  30.209  27.450  1.00  0.00     0.014 A 
ATOM     27  C   UNL A   1      36.436  29.479  29.691  1.00  0.00     0.014 A 
ATOM     28  C   UNL A   1      38.283  29.739  27.618  1.00  0.00     0.010 A 
ATOM     29  C   UNL A   1      37.760  29.109  29.894  1.00  0.00     0.010 A 
ATOM     30  C   UNL A   1      38.697  29.226  28.858  1.00  0.00    -0.014 A 
BRANCH  30  31
ATOM     31  C   UNL A   1      40.100  28.804  29.095  1.00  0.00     0.031 A 
ATOM     32  C   UNL A   1      41.088  29.766  29.697  1.00  0.00     0.074 A 
ATOM     33  C   UNL A   1      40.507  27.586  28.691  1.00  0.00     0.049 A 
ATOM     34  N   UNL A   1      42.372  29.616  29.898  1.00  0.00    -0.248 NA
ATOM     35  C   UNL A   1      40.569  31.085  30.091  1.00  0.00     0.031 C 
ATOM     36  C   UNL A   1      39.662  26.585  28.035  1.00  0.00     0.029 A 
ATOM     37  N   UNL A   1      41.741  26.989  28.753  1.00  0.00    -0.354 N 
ATOM     38  C   UNL A   1      42.815  30.823  30.423  1.00  0.00     0.074 A 
ATOM     39  C   UNL A   1      41.677  31.716  30.447  1.00  0.00     0.031 C 
ATOM     40  C   UNL A   1      40.398  25.495  27.771  1.00  0.00     0.029 A 
ATOM     41  C   UNL A   1      41.773  25.733  28.199  1.00  0.00     0.049 A 
ATOM     42  H   UNL A   1      42.529  27.420  29.157  1.00  0.00     0.167 HD
ATOM     43  C   UNL A   1      44.051  31.151  30.870  1.00  0.00     0.037 A 
ATOM     44  C   UNL A   1      42.797  24.873  28.038  1.00  0.00     0.037 A 
ATOM     45  C   UNL A   1      45.176  30.254  30.860  1.00  0.00     0.049 A 
ATOM     46  C   UNL A   1      44.160  25.254  28.543  1.00  0.00     0.074 A 
ATOM     47  C   UNL A   1      46.453  30.464  31.350  1.00  0.00     0.029 A 
ATOM     48  N   UNL A   1      45.160  28.975  30.320  1.00  0.00    -0.354 N 
ATOM     49  N   UNL A   1      44.547  26.369  29.113  1.00  0.00    -0.248 NA
ATOM     50  C   UNL A   1      45.225  24.253  28.394  1.00  0.00     0.031 C 
ATOM     51  C   UNL A   1      47.224  29.333  31.058  1.00  0.00     0.029 A 
ATOM     52  C   UNL A   1      46.413  28.396  30.441  1.00  0.00     0.049 A 
ATOM     53  H   UNL A   1      44.375  28.543  29.913  1.00  0.00     0.167 HD
ATOM     54  C   UNL A   1      45.893  26.199  29.409  1.00  0.00     0.074 A 
ATOM     55  C   UNL A   1      46.250  24.865  28.971  1.00  0.00     0.031 C 
ATOM     56  C   UNL A   1      46.755  27.067  29.994  1.00  0.00     0.037 A 
BRANCH  43  57
ATOM     57  C   UNL A   1      44.241  32.544  31.403  1.00  0.00     0.057 A 
ATOM     58  C   UNL A   1      44.016  32.863  32.749  1.00  0.00     0.134 A 
ATOM     59  C   UNL A   1      44.656  33.583  30.559  1.00  0.00     0.134 A 
ATOM     60  F   UNL A   1      43.605  31.920  33.612  1.00  0.00    -0.206 F 
ATOM     61  C   UNL A   1      44.151  34.168  33.226  1.00  0.00     0.040 A 
ATOM     62  C   UNL A   1      44.828  34.885  31.031  1.00  0.00     0.040 A 
ATOM     63  F   UNL A   1      44.899  33.351  29.260  1.00  0.00    -0.206 F 
ATOM     64  C   UNL A   1      44.562  35.183  32.367  1.00  0.00     0.006 A 
ENDBRANCH  43  57
BRANCH  44  65
ATOM     65  C   UNL A   1      42.559  23.564  27.382  1.00  0.00     0.057 A 
ATOM     66  C   UNL A   1      42.725  23.402  26.002  1.00  0.00     0.134 A 
ATOM     67  C   UNL A   1      42.184  22.435  28.122  1.00  0.00     0.134 A 
ATOM     68  F   UNL A   1      43.068  24.449  25.237  1.00  0.00    -0.206 F 
ATOM     69  C   UNL A   1      42.516  22.171  25.379  1.00  0.00     0.040 A 
ATOM     70  C   UNL A   1      41.997  21.192  27.516  1.00  0.00     0.040 A 
ATOM     71  F   UNL A   1      42.020  22.521  29.451  1.00  0.00    -0.206 F 
ATOM     72  C   UNL A   1      42.157  21.059  26.139  1.00  0.00     0.006 A 
ENDBRANCH  44  65
BRANCH  56  73
ATOM     73  C   UNL A   1      48.162  26.594  30.219  1.00  0.00     0.057 A 
ATOM     74  C   UNL A   1      49.187  26.849  29.299  1.00  0.00     0.134 A 
ATOM     75  C   UNL A   1      48.503  25.907  31.392  1.00  0.00     0.134 A 
ATOM     76  F   UNL A   1      48.925  27.489  28.149  1.00  0.00    -0.206 F 
ATOM     77  C   UNL A   1      50.496  26.420  29.527  1.00  0.00     0.040 A 
ATOM     78  C   UNL A   1      49.813  25.499  31.644  1.00  0.00     0.040 A 
ATOM     79  F   UNL A   1      47.572  25.637  32.319  1.00  0.00    -0.206 F 
ATOM     80  C   UNL A   1      50.813  25.749  30.707  1.00  0.00     0.006 A 
ENDBRANCH  56  73
ENDBRANCH  30  31
ENDBRANCH  22  25
ENDBRANCH  20  21
ENDBRANCH   1  20
TORSDOF 12
ENDMDL
MODEL 2
REMARK VINA RESULT:     -10.9      1.932      7.613
REMARK SMILES CC1(C(=O)N2CC[C@H](C(=O)NCCCNC(=O)c3ccc(-c4c5nc(c(-c6c(F)cccc6F)c6ccc([nH]6)c(-c6c(F)cccc6F)c6nc(c(-c7c(F)cccc7F)c7ccc4[nH]7)C=C6)C=C5)cc3)C2)CCCC1
REMARK SMILES IDX 13 1 12 2 11 3 9 4 10 5 8 7 5 8 6 9 72 10 7 11 3 12 4 13
REMARK SMILES IDX 2 14 1 15 73 16 76 17 74 18 75 19 14 20 15 21 16 22 17 24
REMARK SMILES IDX 18 25 19 26 71 27 20 28 70 29 21 30 22 31 23 32 64 33 24 34
REMARK SMILES IDX 69 35 63 36 65 37 25 38 68 39 62 40 61 41 26 43 52 44 35 45
REMARK SMILES IDX 51 46 36 47 39 48 50 49 66 50 37 51 38 52 49 54 67 55 40 56
REMARK SMILES IDX 27 57 28 58 33 59 29 60 30 61 32 62 34 63 31 64 53 65 54 66
REMARK SMILES IDX 59 67 55 68 56 69 58 70 60 71 57 72 41 73 42 74 47 75 43 76
REMARK SMILES IDX 44 77 46 78 48 79 45 80
REMARK H PARENT 11 6 15 23 65 42 39 53
REMARK Flexibility Score: inf
ROOT
ATOM      1  C   UNL A   1      37.902  19.852  24.616  1.00  0.00     0.042 C 
ENDROOT
BRANCH   1   2
ATOM      2  C   UNL A   1      36.434  19.921  25.005  1.00  0.00     0.117 C 
BRANCH   2   3
ATOM      3  N   UNL A   1      36.114  21.090  25.803  1.00  0.00    -0.356 N 
ATOM      4  C   UNL A   1      35.296  22.145  25.547  1.00  0.00     0.224 C 
ATOM      5  O   UNL A   1      35.196  23.001  26.432  1.00  0.00    -0.275 OA
ATOM      6  H   UNL A   1      36.565  21.123  26.678  1.00  0.00     0.163 HD
BRANCH   4   7
ATOM      7  C   UNL A   1      34.558  22.327  24.229  1.00  0.00     0.099 C 
ATOM      8  N   UNL A   1      33.528  24.296  23.398  1.00  0.00    -0.341 N 
ATOM      9  C   UNL A   1      32.501  23.277  23.410  1.00  0.00     0.120 C 
ATOM     10  C   UNL A   1      34.833  23.654  23.520  1.00  0.00     0.133 C 
ATOM     11  C   UNL A   1      33.036  22.228  24.368  1.00  0.00     0.037 C 
BRANCH   8  12
ATOM     12  C   UNL A   1      33.448  25.620  23.016  1.00  0.00     0.228 C 
ATOM     13  O   UNL A   1      33.941  25.958  21.934  1.00  0.00    -0.274 OA
BRANCH  12  14
ATOM     14  C   UNL A   1      33.003  26.700  24.043  1.00  0.00     0.047 C 
ATOM     15  C   UNL A   1      31.494  26.925  24.182  1.00  0.00     0.022 C 
ATOM     16  C   UNL A   1      33.693  28.055  23.751  1.00  0.00     0.016 C 
ATOM     17  C   UNL A   1      33.637  26.354  25.405  1.00  0.00     0.016 C 
ATOM     18  C   UNL A   1      33.801  28.766  25.099  1.00  0.00     0.001 C 
ATOM     19  C   UNL A   1      33.826  27.667  26.153  1.00  0.00     0.001 C 
ENDBRANCH  12  14
ENDBRANCH   8  12
ENDBRANCH   4   7
ENDBRANCH   2   3
ENDBRANCH   1   2
BRANCH   1  20
ATOM     20  C   UNL A   1      38.854  20.182  25.753  1.00  0.00     0.118 C 
BRANCH  20  21
ATOM     21  N   UNL A   1      39.990  19.269  25.813  1.00  0.00    -0.352 N 
ATOM     22  C   UNL A   1      41.312  19.506  26.095  1.00  0.00     0.251 C 
ATOM     23  H   UNL A   1      39.773  18.329  25.619  1.00  0.00     0.163 HD
ATOM     24  O   UNL A   1      42.143  18.620  25.900  1.00  0.00    -0.269 OA
BRANCH  22  25
ATOM     25  C   UNL A   1      41.751  20.822  26.608  1.00  0.00     0.039 A 
ATOM     26  C   UNL A   1      42.252  21.768  25.709  1.00  0.00     0.014 A 
ATOM     27  C   UNL A   1      41.683  21.122  27.969  1.00  0.00     0.014 A 
ATOM     28  C   UNL A   1      42.612  23.037  26.167  1.00  0.00     0.010 A 
ATOM     29  C   UNL A   1      41.940  22.416  28.407  1.00  0.00     0.010 A 
ATOM     30  C   UNL A   1      42.416  23.387  27.513  1.00  0.00    -0.014 A 
BRANCH  30  31
ATOM     31  C   UNL A   1      42.701  24.756  28.010  1.00  0.00     0.031 A 
ATOM     32  C   UNL A   1      44.088  25.124  28.461  1.00  0.00     0.074 A 
ATOM     33  C   UNL A   1      41.694  25.641  28.139  1.00  0.00     0.049 A 
ATOM     34  N   UNL A   1      44.513  26.234  29.008  1.00  0.00    -0.248 NA
ATOM     35  C   UNL A   1      45.126  24.093  28.309  1.00  0.00     0.031 C 
ATOM     36  C   UNL A   1      40.293  25.384  27.798  1.00  0.00     0.029 A 
ATOM     37  N   UNL A   1      41.691  26.930  28.609  1.00  0.00    -0.354 N 
ATOM     38  C   UNL A   1      45.860  26.027  29.281  1.00  0.00     0.074 A 
ATOM     39  C   UNL A   1      46.163  24.665  28.901  1.00  0.00     0.031 C 
ATOM     40  C   UNL A   1      39.570  26.485  28.056  1.00  0.00     0.029 A 
ATOM     41  C   UNL A   1      40.445  27.509  28.618  1.00  0.00     0.049 A 
ATOM     42  H   UNL A   1      42.504  27.395  28.912  1.00  0.00     0.167 HD
ATOM     43  C   UNL A   1      46.768  26.901  29.777  1.00  0.00     0.037 A 
ATOM     44  C   UNL A   1      40.048  28.723  29.044  1.00  0.00     0.037 A 
ATOM     45  C   UNL A   1      46.464  28.261  30.138  1.00  0.00     0.049 A 
ATOM     46  C   UNL A   1      41.071  29.679  29.589  1.00  0.00     0.074 A 
ATOM     47  C   UNL A   1      47.324  29.248  30.587  1.00  0.00     0.029 A 
ATOM     48  N   UNL A   1      45.195  28.823  30.100  1.00  0.00    -0.354 N 
ATOM     49  N   UNL A   1      42.358  29.500  29.765  1.00  0.00    -0.248 NA
ATOM     50  C   UNL A   1      40.590  31.010  29.984  1.00  0.00     0.031 C 
ATOM     51  C   UNL A   1      46.567  30.390  30.873  1.00  0.00     0.029 A 
ATOM     52  C   UNL A   1      45.246  30.134  30.545  1.00  0.00     0.049 A 
ATOM     53  H   UNL A   1      44.381  28.359  29.801  1.00  0.00     0.167 HD
ATOM     54  C   UNL A   1      42.845  30.698  30.271  1.00  0.00     0.074 A 
ATOM     55  C   UNL A   1      41.716  31.603  30.356  1.00  0.00     0.031 C 
ATOM     56  C   UNL A   1      44.112  31.022  30.629  1.00  0.00     0.037 A 
BRANCH  43  57
ATOM     57  C   UNL A   1      48.174  26.401  29.960  1.00  0.00     0.057 A 
ATOM     58  C   UNL A   1      48.600  25.799  31.152  1.00  0.00     0.134 A 
ATOM     59  C   UNL A   1      49.116  26.522  28.930  1.00  0.00     0.134 A 
ATOM     60  F   UNL A   1      47.754  25.661  32.185  1.00  0.00    -0.206 F 
ATOM     61  C   UNL A   1      49.919  25.378  31.330  1.00  0.00     0.040 A 
ATOM     62  C   UNL A   1      50.429  26.073  29.083  1.00  0.00     0.040 A 
ATOM     63  F   UNL A   1      48.778  27.079  27.757  1.00  0.00    -0.206 F 
ATOM     64  C   UNL A   1      50.837  25.511  30.291  1.00  0.00     0.006 A 
ENDBRANCH  43  57
BRANCH  44  65
ATOM     65  C   UNL A   1      38.616  29.100  28.953  1.00  0.00     0.057 A 
ATOM     66  C   UNL A   1      37.770  29.010  30.064  1.00  0.00     0.134 A 
ATOM     67  C   UNL A   1      38.064  29.582  27.759  1.00  0.00     0.134 A 
ATOM     68  F   UNL A   1      38.236  28.541  31.231  1.00  0.00    -0.206 F 
ATOM     69  C   UNL A   1      36.424  29.375  29.990  1.00  0.00     0.040 A 
ATOM     70  C   UNL A   1      36.727  29.975  27.679  1.00  0.00     0.040 A 
ATOM     71  F   UNL A   1      38.825  29.704  26.662  1.00  0.00    -0.206 F 
ATOM     72  C   UNL A   1      35.901  29.866  28.795  1.00  0.00     0.006 A 
ENDBRANCH  44  65
BRANCH  56  73
ATOM     73  C   UNL A   1      44.352  32.420  31.122  1.00  0.00     0.057 A 
ATOM     74  C   UNL A   1      44.310  32.745  32.483  1.00  0.00     0.134 A 
ATOM     75  C   UNL A   1      44.669  33.447  30.222  1.00  0.00     0.134 A 
ATOM     76  F   UNL A   1      43.998  31.811  33.396  1.00  0.00    -0.206 F 
ATOM     77  C   UNL A   1      44.553  34.044  32.931  1.00  0.00     0.040 A 
ATOM     78  C   UNL A   1      44.942  34.743  30.661  1.00  0.00     0.040 A 
ATOM     79  F   UNL A   1      44.735  33.203  28.905  1.00  0.00    -0.206 F 
ATOM     80  C   UNL A   1      44.878  35.046  32.019  1.00  0.00     0.006 A 
ENDBRANCH  56  73
ENDBRANCH  30  31
ENDBRANCH  22  25
ENDBRANCH  20  21
ENDBRANCH   1  20
TORSDOF 12
ENDMDL
MODEL 3
REMARK VINA RESULT:     -10.9      2.533      7.295
REMARK SMILES CC1(C(=O)N2CC[C@H](C(=O)NCCCNC(=O)c3ccc(-c4c5nc(c(-c6c(F)cccc6F)c6ccc([nH]6)c(-c6c(F)cccc6F)c6nc(c(-c7c(F)cccc7F)c7ccc4[nH]7)C=C6)C=C5)cc3)C2)CCCC1
REMARK SMILES IDX 13 1 12 2 11 3 9 4 10 5 8 7 5 8 6 9 72 10 7 11 3 12 4 13
REMARK SMILES IDX 2 14 1 15 73 16 76 17 74 18 75 19 14 20 15 21 16 22 17 24
REMARK SMILES IDX 18 25 19 26 71 27 20 28 70 29 21 30 22 31 23 32 64 33 24 34
REMARK SMILES IDX 69 35 63 36 65 37 25 38 68 39 62 40 61 41 26 43 52 44 35 45
REMARK SMILES IDX 51 46 36 47 39 48 50 49 66 50 37 51 38 52 49 54 67 55 40 56
REMARK SMILES IDX 27 57 28 58 33 59 29 60 30 61 32 62 34 63 31 64 53 65 54 66
REMARK SMILES IDX 59 67 55 68 56 69 58 70 60 71 57 72 41 73 42 74 47 75 43 76
REMARK SMILES IDX 44 77 46 78 48 79 45 80
REMARK H PARENT 11 6 15 23 65 42 39 53
REMARK Flexibility Score: inf
ROOT
ATOM      1  C   UNL A   1      37.724  19.793  24.951  1.00  0.00     0.042 C 
ENDROOT
BRANCH   1   2
ATOM      2  C   UNL A   1      36.537  20.739  25.041  1.00  0.00     0.117 C 
BRANCH   2   3
ATOM      3  N   UNL A   1      35.285  20.055  25.300  1.00  0.00    -0.356 N 
ATOM      4  C   UNL A   1      34.005  20.394  24.994  1.00  0.00     0.224 C 
ATOM      5  O   UNL A   1      33.121  19.598  25.324  1.00  0.00    -0.275 OA
ATOM      6  H   UNL A   1      35.379  19.199  25.779  1.00  0.00     0.163 HD
BRANCH   4   7
ATOM      7  C   UNL A   1      33.630  21.706  24.319  1.00  0.00     0.099 C 
ATOM      8  N   UNL A   1      32.370  23.500  25.226  1.00  0.00    -0.341 N 
ATOM      9  C   UNL A   1      31.694  23.106  24.009  1.00  0.00     0.120 C 
ATOM     10  C   UNL A   1      33.717  22.938  25.223  1.00  0.00     0.133 C 
ATOM     11  C   UNL A   1      32.213  21.705  23.738  1.00  0.00     0.037 C 
BRANCH   8  12
ATOM     12  C   UNL A   1      32.040  24.486  26.135  1.00  0.00     0.228 C 
ATOM     13  O   UNL A   1      31.408  24.174  27.149  1.00  0.00    -0.274 OA
BRANCH  12  14
ATOM     14  C   UNL A   1      32.214  25.983  25.752  1.00  0.00     0.047 C 
ATOM     15  C   UNL A   1      31.643  26.409  24.395  1.00  0.00     0.022 C 
ATOM     16  C   UNL A   1      33.703  26.401  25.828  1.00  0.00     0.016 C 
ATOM     17  C   UNL A   1      31.627  26.840  26.891  1.00  0.00     0.016 C 
ATOM     18  C   UNL A   1      33.700  27.892  26.161  1.00  0.00     0.001 C 
ATOM     19  C   UNL A   1      32.393  28.156  26.897  1.00  0.00     0.001 C 
ENDBRANCH  12  14
ENDBRANCH   8  12
ENDBRANCH   4   7
ENDBRANCH   2   3
ENDBRANCH   1   2
BRANCH   1  20
ATOM     20  C   UNL A   1      38.942  20.261  25.728  1.00  0.00     0.118 C 
BRANCH  20  21
ATOM     21  N   UNL A   1      39.962  19.225  25.846  1.00  0.00    -0.352 N 
ATOM     22  C   UNL A   1      41.308  19.322  26.090  1.00  0.00     0.251 C 
ATOM     23  H   UNL A   1      39.630  18.305  25.731  1.00  0.00     0.163 HD
ATOM     24  O   UNL A   1      42.023  18.329  25.955  1.00  0.00    -0.269 OA
BRANCH  22  25
ATOM     25  C   UNL A   1      41.913  20.610  26.490  1.00  0.00     0.039 A 
ATOM     26  C   UNL A   1      42.401  21.468  25.500  1.00  0.00     0.014 A 
ATOM     27  C   UNL A   1      42.014  20.971  27.835  1.00  0.00     0.014 A 
ATOM     28  C   UNL A   1      42.917  22.716  25.856  1.00  0.00     0.010 A 
ATOM     29  C   UNL A   1      42.428  22.252  28.179  1.00  0.00     0.010 A 
ATOM     30  C   UNL A   1      42.893  23.137  27.195  1.00  0.00    -0.014 A 
BRANCH  30  31
ATOM     31  C   UNL A   1      43.348  24.492  27.593  1.00  0.00     0.031 A 
ATOM     32  C   UNL A   1      42.345  25.550  27.961  1.00  0.00     0.074 A 
ATOM     33  C   UNL A   1      44.659  24.797  27.539  1.00  0.00     0.049 A 
ATOM     34  N   UNL A   1      42.539  26.812  28.247  1.00  0.00    -0.248 NA
ATOM     35  C   UNL A   1      40.931  25.143  27.973  1.00  0.00     0.031 C 
ATOM     36  C   UNL A   1      45.726  23.878  27.135  1.00  0.00     0.029 A 
ATOM     37  N   UNL A   1      45.316  25.971  27.807  1.00  0.00    -0.354 N 
ATOM     38  C   UNL A   1      41.276  27.351  28.454  1.00  0.00     0.074 A 
ATOM     39  C   UNL A   1      40.320  26.296  28.196  1.00  0.00     0.031 C 
ATOM     40  C   UNL A   1      46.904  24.519  27.197  1.00  0.00     0.029 A 
ATOM     41  C   UNL A   1      46.673  25.902  27.603  1.00  0.00     0.049 A 
ATOM     42  H   UNL A   1      44.858  26.787  28.115  1.00  0.00     0.167 HD
ATOM     43  C   UNL A   1      40.942  28.603  28.850  1.00  0.00     0.037 A 
ATOM     44  C   UNL A   1      47.623  26.848  27.716  1.00  0.00     0.037 A 
ATOM     45  C   UNL A   1      41.898  29.644  29.122  1.00  0.00     0.049 A 
ATOM     46  C   UNL A   1      47.234  28.230  28.159  1.00  0.00     0.074 A 
ATOM     47  C   UNL A   1      41.669  30.925  29.592  1.00  0.00     0.029 A 
ATOM     48  N   UNL A   1      43.269  29.524  28.937  1.00  0.00    -0.354 N 
ATOM     49  N   UNL A   1      46.043  28.704  28.432  1.00  0.00    -0.248 NA
ATOM     50  C   UNL A   1      48.321  29.205  28.322  1.00  0.00     0.031 C 
ATOM     51  C   UNL A   1      42.895  31.598  29.639  1.00  0.00     0.029 A 
ATOM     52  C   UNL A   1      43.894  30.718  29.257  1.00  0.00     0.049 A 
ATOM     53  H   UNL A   1      43.728  28.711  28.626  1.00  0.00     0.167 HD
ATOM     54  C   UNL A   1      46.236  30.024  28.818  1.00  0.00     0.074 A 
ATOM     55  C   UNL A   1      47.663  30.269  28.760  1.00  0.00     0.031 C 
ATOM     56  C   UNL A   1      45.317  30.949  29.190  1.00  0.00     0.037 A 
BRANCH  43  57
ATOM     57  C   UNL A   1      39.478  28.906  29.006  1.00  0.00     0.057 A 
ATOM     58  C   UNL A   1      38.814  28.758  30.232  1.00  0.00     0.134 A 
ATOM     59  C   UNL A   1      38.720  29.352  27.916  1.00  0.00     0.134 A 
ATOM     60  F   UNL A   1      39.476  28.323  31.316  1.00  0.00    -0.206 F 
ATOM     61  C   UNL A   1      37.445  28.999  30.358  1.00  0.00     0.040 A 
ATOM     62  C   UNL A   1      37.356  29.629  28.037  1.00  0.00     0.040 A 
ATOM     63  F   UNL A   1      39.289  29.525  26.713  1.00  0.00    -0.206 F 
ATOM     64  C   UNL A   1      36.712  29.440  29.258  1.00  0.00     0.006 A 
ENDBRANCH  43  57
BRANCH  44  65
ATOM     65  C   UNL A   1      49.037  26.507  27.417  1.00  0.00     0.057 A 
ATOM     66  C   UNL A   1      49.586  26.735  26.151  1.00  0.00     0.134 A 
ATOM     67  C   UNL A   1      49.879  25.968  28.399  1.00  0.00     0.134 A 
ATOM     68  F   UNL A   1      48.826  27.234  25.166  1.00  0.00    -0.206 F 
ATOM     69  C   UNL A   1      50.918  26.428  25.866  1.00  0.00     0.040 A 
ATOM     70  C   UNL A   1      51.220  25.682  28.135  1.00  0.00     0.040 A 
ATOM     71  F   UNL A   1      49.416  25.738  29.636  1.00  0.00    -0.206 F 
ATOM     72  C   UNL A   1      51.741  25.906  26.862  1.00  0.00     0.006 A 
ENDBRANCH  44  65
BRANCH  56  73
ATOM     73  C   UNL A   1      45.826  32.304  29.588  1.00  0.00     0.057 A 
ATOM     74  C   UNL A   1      45.945  33.353  28.667  1.00  0.00     0.134 A 
ATOM     75  C   UNL A   1      46.164  32.573  30.922  1.00  0.00     0.134 A 
ATOM     76  F   UNL A   1      45.651  33.158  27.373  1.00  0.00    -0.206 F 
ATOM     77  C   UNL A   1      46.402  34.614  29.053  1.00  0.00     0.040 A 
ATOM     78  C   UNL A   1      46.594  33.838  31.324  1.00  0.00     0.040 A 
ATOM     79  F   UNL A   1      46.065  31.617  31.856  1.00  0.00    -0.206 F 
ATOM     80  C   UNL A   1      46.721  34.861  30.388  1.00  0.00     0.006 A 
ENDBRANCH  56  73
ENDBRANCH  30  31
ENDBRANCH  22  25
ENDBRANCH  20  21
ENDBRANCH   1  20
TORSDOF 12
ENDMDL
