MODEL 1
REMARK VINA RESULT:     -12.1      0.000      0.000
REMARK SMILES C[C@@H](C(=O)NCCCNC(=O)c1ccc(-c2c3nc(c(-c4c(F)cccc4F)c4ccc([nH]4)c(-c4c(F)cccc4F)c4nc(c(-c5c(F)cccc5F)c5ccc2[nH]5)C=C4)C=C3)cc1)c1ccc(-c2ccn(C(F)F)c(=O)c2)cc1
REMARK SMILES IDX 6 1 5 2 3 3 4 4 2 6 1 7 66 8 67 9 81 10 68 11 80 12 69 13
REMARK SMILES IDX 70 14 71 15 79 16 72 17 77 18 73 19 78 20 74 21 75 22 76 23
REMARK SMILES IDX 7 24 8 25 9 26 10 27 11 29 12 30 13 31 65 32 14 33 64 34
REMARK SMILES IDX 15 35 16 36 17 37 58 38 18 39 63 40 57 41 59 42 19 43 62 44
REMARK SMILES IDX 56 45 55 46 20 48 46 49 29 50 45 51 30 52 33 53 44 54 60 55
REMARK SMILES IDX 31 56 32 57 43 59 61 60 34 61 21 62 22 63 27 64 23 65 24 66
REMARK SMILES IDX 26 67 28 68 25 69 47 70 48 71 53 72 49 73 50 74 52 75 54 76
REMARK SMILES IDX 51 77 35 78 36 79 41 80 37 81 38 82 40 83 42 84 39 85
REMARK H PARENT 5 5 9 28 59 47 33 58
REMARK Flexibility Score: inf
ROOT
ATOM      1  C   UNL A   1      31.344  30.780  26.573  1.00  0.00     0.117 C 
ENDROOT
BRANCH   1   2
ATOM      2  N   UNL A   1      31.908  30.217  25.360  1.00  0.00    -0.356 N 
ATOM      3  C   UNL A   1      32.807  29.203  25.183  1.00  0.00     0.227 C 
ATOM      4  O   UNL A   1      33.251  29.058  24.042  1.00  0.00    -0.274 OA
ATOM      5  H   UNL A   1      31.592  30.636  24.527  1.00  0.00     0.163 HD
BRANCH   3   6
ATOM      6  C   UNL A   1      33.196  28.294  26.365  1.00  0.00     0.105 C 
ATOM      7  C   UNL A   1      34.545  28.744  26.933  1.00  0.00     0.023 C 
BRANCH   6   8
ATOM      8  C   UNL A   1      33.150  26.804  25.996  1.00  0.00    -0.036 A 
ATOM      9  C   UNL A   1      34.291  26.079  25.616  1.00  0.00     0.005 A 
ATOM     10  C   UNL A   1      31.928  26.112  26.065  1.00  0.00     0.005 A 
ATOM     11  C   UNL A   1      34.211  24.722  25.293  1.00  0.00     0.009 A 
ATOM     12  C   UNL A   1      31.843  24.756  25.729  1.00  0.00     0.009 A 
ATOM     13  C   UNL A   1      32.987  24.052  25.344  1.00  0.00    -0.018 A 
BRANCH  13  14
ATOM     14  C   UNL A   1      32.899  22.629  24.980  1.00  0.00    -0.011 A 
ATOM     15  C   UNL A   1      33.310  21.566  25.876  1.00  0.00     0.027 A 
ATOM     16  C   UNL A   1      32.416  22.315  23.766  1.00  0.00     0.080 A 
ATOM     17  C   UNL A   1      33.224  20.287  25.494  1.00  0.00     0.095 A 
ATOM     18  C   UNL A   1      32.309  20.897  23.331  1.00  0.00     0.255 A 
ATOM     19  N   UNL A   1      32.738  19.948  24.243  1.00  0.00    -0.258 N 
ATOM     20  O   UNL A   1      31.860  20.661  22.211  1.00  0.00    -0.269 OA
BRANCH  19  21
ATOM     21  C   UNL A   1      32.668  18.570  23.834  1.00  0.00     0.451 C 
ATOM     22  F   UNL A   1      33.905  18.060  23.614  1.00  0.00    -0.185 F 
ATOM     23  F   UNL A   1      32.065  17.812  24.783  1.00  0.00    -0.185 F 
ENDBRANCH  19  21
ENDBRANCH  13  14
ENDBRANCH   6   8
ENDBRANCH   3   6
ENDBRANCH   1   2
BRANCH   1  24
ATOM     24  C   UNL A   1      31.369  32.309  26.548  1.00  0.00     0.042 C 
BRANCH  24  25
ATOM     25  C   UNL A   1      32.690  32.930  26.989  1.00  0.00     0.118 C 
BRANCH  25  26
ATOM     26  N   UNL A   1      32.515  34.215  27.641  1.00  0.00    -0.352 N 
ATOM     27  C   UNL A   1      33.149  34.734  28.741  1.00  0.00     0.251 C 
ATOM     28  H   UNL A   1      31.839  34.802  27.232  1.00  0.00     0.163 HD
ATOM     29  O   UNL A   1      32.729  35.782  29.231  1.00  0.00    -0.269 OA
BRANCH  27  30
ATOM     30  C   UNL A   1      34.314  34.057  29.356  1.00  0.00     0.039 A 
ATOM     31  C   UNL A   1      35.595  34.434  28.939  1.00  0.00     0.014 A 
ATOM     32  C   UNL A   1      34.166  33.014  30.276  1.00  0.00     0.014 A 
ATOM     33  C   UNL A   1      36.720  33.786  29.456  1.00  0.00     0.010 A 
ATOM     34  C   UNL A   1      35.291  32.414  30.842  1.00  0.00     0.010 A 
ATOM     35  C   UNL A   1      36.578  32.776  30.419  1.00  0.00    -0.014 A 
BRANCH  35  36
ATOM     36  C   UNL A   1      37.766  32.054  30.942  1.00  0.00     0.031 A 
ATOM     37  C   UNL A   1      38.303  32.375  32.310  1.00  0.00     0.074 A 
ATOM     38  C   UNL A   1      38.380  31.128  30.181  1.00  0.00     0.049 A 
ATOM     39  N   UNL A   1      39.338  31.871  32.933  1.00  0.00    -0.248 NA
ATOM     40  C   UNL A   1      37.596  33.420  33.069  1.00  0.00     0.031 C 
ATOM     41  C   UNL A   1      37.991  30.757  28.821  1.00  0.00     0.029 A 
ATOM     42  N   UNL A   1      39.466  30.332  30.447  1.00  0.00    -0.354 N 
ATOM     43  C   UNL A   1      39.415  32.546  34.146  1.00  0.00     0.074 A 
ATOM     44  C   UNL A   1      38.355  33.530  34.149  1.00  0.00     0.031 C 
ATOM     45  C   UNL A   1      38.814  29.792  28.376  1.00  0.00     0.029 A 
ATOM     46  C   UNL A   1      39.799  29.492  29.413  1.00  0.00     0.049 A 
ATOM     47  H   UNL A   1      39.960  30.362  31.298  1.00  0.00     0.167 HD
ATOM     48  C   UNL A   1      40.274  32.350  35.175  1.00  0.00     0.037 A 
ATOM     49  C   UNL A   1      40.782  28.578  29.315  1.00  0.00     0.037 A 
ATOM     50  C   UNL A   1      41.311  31.353  35.187  1.00  0.00     0.049 A 
ATOM     51  C   UNL A   1      41.696  28.348  30.484  1.00  0.00     0.074 A 
ATOM     52  C   UNL A   1      42.208  31.052  36.197  1.00  0.00     0.029 A 
ATOM     53  N   UNL A   1      41.583  30.487  34.139  1.00  0.00    -0.354 N 
ATOM     54  N   UNL A   1      41.725  28.958  31.644  1.00  0.00    -0.248 NA
ATOM     55  C   UNL A   1      42.704  27.287  30.339  1.00  0.00     0.031 C 
ATOM     56  C   UNL A   1      43.039  30.016  35.750  1.00  0.00     0.029 A 
ATOM     57  C   UNL A   1      42.634  29.652  34.476  1.00  0.00     0.049 A 
ATOM     58  H   UNL A   1      41.100  30.470  33.281  1.00  0.00     0.167 HD
ATOM     59  C   UNL A   1      42.732  28.342  32.374  1.00  0.00     0.074 A 
ATOM     60  C   UNL A   1      43.283  27.300  31.531  1.00  0.00     0.031 C 
ATOM     61  C   UNL A   1      43.163  28.614  33.630  1.00  0.00     0.037 A 
BRANCH  48  62
ATOM     62  C   UNL A   1      40.113  33.233  36.377  1.00  0.00     0.057 A 
ATOM     63  C   UNL A   1      40.858  34.411  36.530  1.00  0.00     0.134 A 
ATOM     64  C   UNL A   1      39.200  32.910  37.388  1.00  0.00     0.134 A 
ATOM     65  F   UNL A   1      41.760  34.769  35.604  1.00  0.00    -0.206 F 
ATOM     66  C   UNL A   1      40.722  35.219  37.660  1.00  0.00     0.040 A 
ATOM     67  C   UNL A   1      39.037  33.723  38.511  1.00  0.00     0.040 A 
ATOM     68  F   UNL A   1      38.452  31.800  37.302  1.00  0.00    -0.206 F 
ATOM     69  C   UNL A   1      39.806  34.878  38.652  1.00  0.00     0.006 A 
ENDBRANCH  48  62
BRANCH  49  70
ATOM     70  C   UNL A   1      40.925  27.782  28.072  1.00  0.00     0.057 A 
ATOM     71  C   UNL A   1      40.299  26.537  27.937  1.00  0.00     0.134 A 
ATOM     72  C   UNL A   1      41.681  28.247  26.990  1.00  0.00     0.134 A 
ATOM     73  F   UNL A   1      39.575  26.034  28.947  1.00  0.00    -0.206 F 
ATOM     74  C   UNL A   1      40.433  25.776  26.775  1.00  0.00     0.040 A 
ATOM     75  C   UNL A   1      41.808  27.505  25.815  1.00  0.00     0.040 A 
ATOM     76  F   UNL A   1      42.298  29.436  27.057  1.00  0.00    -0.206 F 
ATOM     77  C   UNL A   1      41.186  26.262  25.708  1.00  0.00     0.006 A 
ENDBRANCH  49  70
BRANCH  61  78
ATOM     78  C   UNL A   1      44.257  27.749  34.180  1.00  0.00     0.057 A 
ATOM     79  C   UNL A   1      43.985  26.538  34.828  1.00  0.00     0.134 A 
ATOM     80  C   UNL A   1      45.600  28.120  34.030  1.00  0.00     0.134 A 
ATOM     81  F   UNL A   1      42.720  26.135  35.013  1.00  0.00    -0.206 F 
ATOM     82  C   UNL A   1      45.012  25.736  35.330  1.00  0.00     0.040 A 
ATOM     83  C   UNL A   1      46.635  27.315  34.508  1.00  0.00     0.040 A 
ATOM     84  F   UNL A   1      45.926  29.264  33.412  1.00  0.00    -0.206 F 
ATOM     85  C   UNL A   1      46.342  26.122  35.165  1.00  0.00     0.006 A 
ENDBRANCH  61  78
ENDBRANCH  35  36
ENDBRANCH  27  30
ENDBRANCH  25  26
ENDBRANCH  24  25
ENDBRANCH   1  24
TORSDOF 13
ENDMDL
MODEL 2
REMARK VINA RESULT:     -11.7      4.509      9.900
REMARK SMILES C[C@@H](C(=O)NCCCNC(=O)c1ccc(-c2c3nc(c(-c4c(F)cccc4F)c4ccc([nH]4)c(-c4c(F)cccc4F)c4nc(c(-c5c(F)cccc5F)c5ccc2[nH]5)C=C4)C=C3)cc1)c1ccc(-c2ccn(C(F)F)c(=O)c2)cc1
REMARK SMILES IDX 6 1 5 2 3 3 4 4 2 6 1 7 66 8 67 9 81 10 68 11 80 12 69 13
REMARK SMILES IDX 70 14 71 15 79 16 72 17 77 18 73 19 78 20 74 21 75 22 76 23
REMARK SMILES IDX 7 24 8 25 9 26 10 27 11 29 12 30 13 31 65 32 14 33 64 34
REMARK SMILES IDX 15 35 16 36 17 37 58 38 18 39 63 40 57 41 59 42 19 43 62 44
REMARK SMILES IDX 56 45 55 46 20 48 46 49 29 50 45 51 30 52 33 53 44 54 60 55
REMARK SMILES IDX 31 56 32 57 43 59 61 60 34 61 21 62 22 63 27 64 23 65 24 66
REMARK SMILES IDX 26 67 28 68 25 69 47 70 48 71 53 72 49 73 50 74 52 75 54 76
REMARK SMILES IDX 51 77 35 78 36 79 41 80 37 81 38 82 40 83 42 84 39 85
REMARK H PARENT 5 5 9 28 59 47 33 58
REMARK Flexibility Score: inf
ROOT
ATOM      1  C   UNL A   1      34.170  21.893  24.087  1.00  0.00     0.117 C 
ENDROOT
BRANCH   1   2
ATOM      2  N   UNL A   1      33.184  22.730  23.429  1.00  0.00    -0.356 N 
ATOM      3  C   UNL A   1      32.150  23.462  23.943  1.00  0.00     0.227 C 
ATOM      4  O   UNL A   1      31.355  23.934  23.128  1.00  0.00    -0.274 OA
ATOM      5  H   UNL A   1      33.274  22.778  22.449  1.00  0.00     0.163 HD
BRANCH   3   6
ATOM      6  C   UNL A   1      32.038  23.687  25.464  1.00  0.00     0.105 C 
ATOM      7  C   UNL A   1      30.661  23.222  25.948  1.00  0.00     0.023 C 
BRANCH   6   8
ATOM      8  C   UNL A   1      32.378  25.128  25.869  1.00  0.00    -0.036 A 
ATOM      9  C   UNL A   1      31.452  25.984  26.486  1.00  0.00     0.005 A 
ATOM     10  C   UNL A   1      33.677  25.621  25.646  1.00  0.00     0.005 A 
ATOM     11  C   UNL A   1      31.800  27.288  26.846  1.00  0.00     0.009 A 
ATOM     12  C   UNL A   1      34.024  26.931  25.993  1.00  0.00     0.009 A 
ATOM     13  C   UNL A   1      33.086  27.772  26.599  1.00  0.00    -0.018 A 
BRANCH  13  14
ATOM     14  C   UNL A   1      33.446  29.154  26.955  1.00  0.00    -0.011 A 
ATOM     15  C   UNL A   1      34.778  29.530  27.383  1.00  0.00     0.027 A 
ATOM     16  C   UNL A   1      32.491  30.097  26.877  1.00  0.00     0.080 A 
ATOM     17  C   UNL A   1      35.052  30.798  27.711  1.00  0.00     0.095 A 
ATOM     18  C   UNL A   1      32.783  31.511  27.232  1.00  0.00     0.255 A 
ATOM     19  N   UNL A   1      34.077  31.778  27.644  1.00  0.00    -0.258 N 
ATOM     20  O   UNL A   1      31.876  32.336  27.142  1.00  0.00    -0.269 OA
BRANCH  19  21
ATOM     21  C   UNL A   1      34.377  33.135  28.018  1.00  0.00     0.451 C 
ATOM     22  F   UNL A   1      34.092  33.358  29.324  1.00  0.00    -0.185 F 
ATOM     23  F   UNL A   1      35.689  33.413  27.821  1.00  0.00    -0.185 F 
ENDBRANCH  19  21
ENDBRANCH  13  14
ENDBRANCH   6   8
ENDBRANCH   3   6
ENDBRANCH   1   2
BRANCH   1  24
ATOM     24  C   UNL A   1      35.474  22.650  24.338  1.00  0.00     0.042 C 
BRANCH  24  25
ATOM     25  C   UNL A   1      36.085  22.424  25.717  1.00  0.00     0.118 C 
BRANCH  25  26
ATOM     26  N   UNL A   1      37.056  21.345  25.728  1.00  0.00    -0.352 N 
ATOM     27  C   UNL A   1      38.408  21.383  25.955  1.00  0.00     0.251 C 
ATOM     28  H   UNL A   1      36.689  20.450  25.544  1.00  0.00     0.163 HD
ATOM     29  O   UNL A   1      39.076  20.370  25.752  1.00  0.00    -0.269 OA
BRANCH  27  30
ATOM     30  C   UNL A   1      39.080  22.617  26.426  1.00  0.00     0.039 A 
ATOM     31  C   UNL A   1      38.590  23.849  25.980  1.00  0.00     0.014 A 
ATOM     32  C   UNL A   1      40.220  22.578  27.236  1.00  0.00     0.014 A 
ATOM     33  C   UNL A   1      39.225  25.035  26.359  1.00  0.00     0.010 A 
ATOM     34  C   UNL A   1      40.812  23.765  27.670  1.00  0.00     0.010 A 
ATOM     35  C   UNL A   1      40.336  25.004  27.215  1.00  0.00    -0.014 A 
BRANCH  35  36
ATOM     36  C   UNL A   1      41.042  26.256  27.588  1.00  0.00     0.031 A 
ATOM     37  C   UNL A   1      42.465  26.479  27.153  1.00  0.00     0.074 A 
ATOM     38  C   UNL A   1      40.418  27.183  28.339  1.00  0.00     0.049 A 
ATOM     39  N   UNL A   1      43.257  27.493  27.396  1.00  0.00    -0.248 NA
ATOM     40  C   UNL A   1      43.090  25.407  26.361  1.00  0.00     0.031 C 
ATOM     41  C   UNL A   1      39.058  27.069  28.866  1.00  0.00     0.029 A 
ATOM     42  N   UNL A   1      40.851  28.404  28.791  1.00  0.00    -0.354 N 
ATOM     43  C   UNL A   1      44.472  27.176  26.801  1.00  0.00     0.074 A 
ATOM     44  C   UNL A   1      44.330  25.853  26.232  1.00  0.00     0.031 C 
ATOM     45  C   UNL A   1      38.760  28.184  29.555  1.00  0.00     0.029 A 
ATOM     46  C   UNL A   1      39.913  29.080  29.533  1.00  0.00     0.049 A 
ATOM     47  H   UNL A   1      41.748  28.762  28.601  1.00  0.00     0.167 HD
ATOM     48  C   UNL A   1      45.597  27.924  26.714  1.00  0.00     0.037 A 
ATOM     49  C   UNL A   1      39.975  30.288  30.123  1.00  0.00     0.037 A 
ATOM     50  C   UNL A   1      45.733  29.251  27.254  1.00  0.00     0.049 A 
ATOM     51  C   UNL A   1      41.217  31.119  29.978  1.00  0.00     0.074 A 
ATOM     52  C   UNL A   1      46.819  30.105  27.186  1.00  0.00     0.029 A 
ATOM     53  N   UNL A   1      44.741  29.920  27.956  1.00  0.00    -0.354 N 
ATOM     54  N   UNL A   1      42.341  30.827  29.370  1.00  0.00    -0.248 NA
ATOM     55  C   UNL A   1      41.194  32.457  30.586  1.00  0.00     0.031 C 
ATOM     56  C   UNL A   1      46.493  31.285  27.867  1.00  0.00     0.029 A 
ATOM     57  C   UNL A   1      45.191  31.176  28.327  1.00  0.00     0.049 A 
ATOM     58  H   UNL A   1      43.850  29.555  28.160  1.00  0.00     0.167 HD
ATOM     59  C   UNL A   1      43.147  31.949  29.498  1.00  0.00     0.074 A 
ATOM     60  C   UNL A   1      42.380  32.934  30.233  1.00  0.00     0.031 C 
ATOM     61  C   UNL A   1      44.411  32.147  29.049  1.00  0.00     0.037 A 
BRANCH  48  62
ATOM     62  C   UNL A   1      46.768  27.319  25.997  1.00  0.00     0.057 A 
ATOM     63  C   UNL A   1      47.734  26.561  26.673  1.00  0.00     0.134 A 
ATOM     64  C   UNL A   1      46.928  27.486  24.616  1.00  0.00     0.134 A 
ATOM     65  F   UNL A   1      47.647  26.376  27.998  1.00  0.00    -0.206 F 
ATOM     66  C   UNL A   1      48.833  26.018  26.006  1.00  0.00     0.040 A 
ATOM     67  C   UNL A   1      48.009  26.927  23.934  1.00  0.00     0.040 A 
ATOM     68  F   UNL A   1      46.037  28.196  23.907  1.00  0.00    -0.206 F 
ATOM     69  C   UNL A   1      48.970  26.196  24.631  1.00  0.00     0.006 A 
ENDBRANCH  48  62
BRANCH  49  70
ATOM     70  C   UNL A   1      38.802  30.801  30.873  1.00  0.00     0.057 A 
ATOM     71  C   UNL A   1      38.647  30.537  32.239  1.00  0.00     0.134 A 
ATOM     72  C   UNL A   1      37.816  31.571  30.247  1.00  0.00     0.134 A 
ATOM     73  F   UNL A   1      39.553  29.791  32.888  1.00  0.00    -0.206 F 
ATOM     74  C   UNL A   1      37.544  31.007  32.952  1.00  0.00     0.040 A 
ATOM     75  C   UNL A   1      36.718  32.064  30.952  1.00  0.00     0.040 A 
ATOM     76  F   UNL A   1      37.913  31.864  28.942  1.00  0.00    -0.206 F 
ATOM     77  C   UNL A   1      36.577  31.778  32.309  1.00  0.00     0.006 A 
ENDBRANCH  49  70
BRANCH  61  78
ATOM     78  C   UNL A   1      45.026  33.490  29.308  1.00  0.00     0.057 A 
ATOM     79  C   UNL A   1      44.889  34.551  28.404  1.00  0.00     0.134 A 
ATOM     80  C   UNL A   1      45.737  33.731  30.490  1.00  0.00     0.134 A 
ATOM     81  F   UNL A   1      44.229  34.379  27.249  1.00  0.00    -0.206 F 
ATOM     82  C   UNL A   1      45.458  35.800  28.658  1.00  0.00     0.040 A 
ATOM     83  C   UNL A   1      46.293  34.981  30.764  1.00  0.00     0.040 A 
ATOM     84  F   UNL A   1      45.898  32.758  31.399  1.00  0.00    -0.206 F 
ATOM     85  C   UNL A   1      46.158  36.019  29.843  1.00  0.00     0.006 A 
ENDBRANCH  61  78
ENDBRANCH  35  36
ENDBRANCH  27  30
ENDBRANCH  25  26
ENDBRANCH  24  25
ENDBRANCH   1  24
TORSDOF 13
ENDMDL
MODEL 3
REMARK VINA RESULT:     -11.7      4.708      8.302
REMARK SMILES C[C@@H](C(=O)NCCCNC(=O)c1ccc(-c2c3nc(c(-c4c(F)cccc4F)c4ccc([nH]4)c(-c4c(F)cccc4F)c4nc(c(-c5c(F)cccc5F)c5ccc2[nH]5)C=C4)C=C3)cc1)c1ccc(-c2ccn(C(F)F)c(=O)c2)cc1
REMARK SMILES IDX 6 1 5 2 3 3 4 4 2 6 1 7 66 8 67 9 81 10 68 11 80 12 69 13
REMARK SMILES IDX 70 14 71 15 79 16 72 17 77 18 73 19 78 20 74 21 75 22 76 23
REMARK SMILES IDX 7 24 8 25 9 26 10 27 11 29 12 30 13 31 65 32 14 33 64 34
REMARK SMILES IDX 15 35 16 36 17 37 58 38 18 39 63 40 57 41 59 42 19 43 62 44
REMARK SMILES IDX 56 45 55 46 20 48 46 49 29 50 45 51 30 52 33 53 44 54 60 55
REMARK SMILES IDX 31 56 32 57 43 59 61 60 34 61 21 62 22 63 27 64 23 65 24 66
REMARK SMILES IDX 26 67 28 68 25 69 47 70 48 71 53 72 49 73 50 74 52 75 54 76
REMARK SMILES IDX 51 77 35 78 36 79 41 80 37 81 38 82 40 83 42 84 39 85
REMARK H PARENT 5 5 9 28 59 47 33 58
REMARK Flexibility Score: inf
ROOT
ATOM      1  C   UNL A   1      35.716  32.092  31.804  1.00  0.00     0.117 C 
ENDROOT
BRANCH   1   2
ATOM      2  N   UNL A   1      37.056  32.641  31.713  1.00  0.00    -0.356 N 
ATOM      3  C   UNL A   1      38.080  32.646  32.617  1.00  0.00     0.227 C 
ATOM      4  O   UNL A   1      39.053  33.351  32.339  1.00  0.00    -0.274 OA
ATOM      5  H   UNL A   1      37.262  33.084  30.857  1.00  0.00     0.163 HD
BRANCH   3   6
ATOM      6  C   UNL A   1      37.998  31.781  33.890  1.00  0.00     0.105 C 
ATOM      7  C   UNL A   1      38.036  32.686  35.126  1.00  0.00     0.023 C 
BRANCH   6   8
ATOM      8  C   UNL A   1      39.055  30.668  33.911  1.00  0.00    -0.036 A 
ATOM      9  C   UNL A   1      40.150  30.674  34.790  1.00  0.00     0.005 A 
ATOM     10  C   UNL A   1      38.922  29.572  33.039  1.00  0.00     0.005 A 
ATOM     11  C   UNL A   1      41.089  29.640  34.783  1.00  0.00     0.009 A 
ATOM     12  C   UNL A   1      39.868  28.542  33.021  1.00  0.00     0.009 A 
ATOM     13  C   UNL A   1      40.957  28.569  33.897  1.00  0.00    -0.018 A 
BRANCH  13  14
ATOM     14  C   UNL A   1      41.959  27.491  33.873  1.00  0.00    -0.011 A 
ATOM     15  C   UNL A   1      43.045  27.454  32.913  1.00  0.00     0.027 A 
ATOM     16  C   UNL A   1      41.853  26.507  34.782  1.00  0.00     0.080 A 
ATOM     17  C   UNL A   1      43.923  26.445  32.922  1.00  0.00     0.095 A 
ATOM     18  C   UNL A   1      42.826  25.383  34.808  1.00  0.00     0.255 A 
ATOM     19  N   UNL A   1      43.822  25.420  33.847  1.00  0.00    -0.258 N 
ATOM     20  O   UNL A   1      42.687  24.508  35.661  1.00  0.00    -0.269 OA
BRANCH  19  21
ATOM     21  C   UNL A   1      44.760  24.330  33.835  1.00  0.00     0.451 C 
ATOM     22  F   UNL A   1      45.327  24.183  32.613  1.00  0.00    -0.185 F 
ATOM     23  F   UNL A   1      45.751  24.533  34.737  1.00  0.00    -0.185 F 
ENDBRANCH  19  21
ENDBRANCH  13  14
ENDBRANCH   6   8
ENDBRANCH   3   6
ENDBRANCH   1   2
BRANCH   1  24
ATOM     24  C   UNL A   1      34.734  32.852  30.912  1.00  0.00     0.042 C 
BRANCH  24  25
ATOM     25  C   UNL A   1      35.008  32.728  29.417  1.00  0.00     0.118 C 
BRANCH  25  26
ATOM     26  N   UNL A   1      34.239  31.666  28.794  1.00  0.00    -0.352 N 
ATOM     27  C   UNL A   1      34.660  30.477  28.255  1.00  0.00     0.251 C 
ATOM     28  H   UNL A   1      33.268  31.823  28.752  1.00  0.00     0.163 HD
ATOM     29  O   UNL A   1      33.857  29.791  27.623  1.00  0.00    -0.269 OA
BRANCH  27  30
ATOM     30  C   UNL A   1      36.058  30.011  28.405  1.00  0.00     0.039 A 
ATOM     31  C   UNL A   1      36.443  29.454  29.629  1.00  0.00     0.014 A 
ATOM     32  C   UNL A   1      37.009  30.177  27.392  1.00  0.00     0.014 A 
ATOM     33  C   UNL A   1      37.765  29.048  29.831  1.00  0.00     0.010 A 
ATOM     34  C   UNL A   1      38.311  29.708  27.569  1.00  0.00     0.010 A 
ATOM     35  C   UNL A   1      38.708  29.163  28.799  1.00  0.00    -0.014 A 
BRANCH  35  36
ATOM     36  C   UNL A   1      40.125  28.772  29.019  1.00  0.00     0.031 A 
ATOM     37  C   UNL A   1      41.072  29.721  29.702  1.00  0.00     0.074 A 
ATOM     38  C   UNL A   1      40.570  27.578  28.584  1.00  0.00     0.049 A 
ATOM     39  N   UNL A   1      42.345  29.573  29.966  1.00  0.00    -0.248 NA
ATOM     40  C   UNL A   1      40.519  31.019  30.122  1.00  0.00     0.031 C 
ATOM     41  C   UNL A   1      39.768  26.587  27.866  1.00  0.00     0.029 A 
ATOM     42  N   UNL A   1      41.809  26.999  28.681  1.00  0.00    -0.354 N 
ATOM     43  C   UNL A   1      42.748  30.760  30.566  1.00  0.00     0.074 A 
ATOM     44  C   UNL A   1      41.597  31.637  30.581  1.00  0.00     0.031 C 
ATOM     45  C   UNL A   1      40.532  25.513  27.603  1.00  0.00     0.029 A 
ATOM     46  C   UNL A   1      41.878  25.749  28.117  1.00  0.00     0.049 A 
ATOM     47  H   UNL A   1      42.577  27.438  29.115  1.00  0.00     0.167 HD
ATOM     48  C   UNL A   1      43.958  31.085  31.081  1.00  0.00     0.037 A 
ATOM     49  C   UNL A   1      42.909  24.887  28.031  1.00  0.00     0.037 A 
ATOM     50  C   UNL A   1      45.096  30.206  31.096  1.00  0.00     0.049 A 
ATOM     51  C   UNL A   1      44.230  25.251  28.647  1.00  0.00     0.074 A 
ATOM     52  C   UNL A   1      46.354  30.429  31.627  1.00  0.00     0.029 A 
ATOM     53  N   UNL A   1      45.110  28.927  30.558  1.00  0.00    -0.354 N 
ATOM     54  N   UNL A   1      44.581  26.357  29.256  1.00  0.00    -0.248 NA
ATOM     55  C   UNL A   1      45.294  24.238  28.580  1.00  0.00     0.031 C 
ATOM     56  C   UNL A   1      47.137  29.292  31.392  1.00  0.00     0.029 A 
ATOM     57  C   UNL A   1      46.354  28.350  30.745  1.00  0.00     0.049 A 
ATOM     58  H   UNL A   1      44.347  28.495  30.110  1.00  0.00     0.167 HD
ATOM     59  C   UNL A   1      45.893  26.165  29.667  1.00  0.00     0.074 A 
ATOM     60  C   UNL A   1      46.273  24.831  29.248  1.00  0.00     0.031 C 
ATOM     61  C   UNL A   1      46.711  27.018  30.331  1.00  0.00     0.037 A 
BRANCH  48  62
ATOM     62  C   UNL A   1      44.100  32.452  31.682  1.00  0.00     0.057 A 
ATOM     63  C   UNL A   1      43.898  32.679  33.051  1.00  0.00     0.134 A 
ATOM     64  C   UNL A   1      44.452  33.552  30.891  1.00  0.00     0.134 A 
ATOM     65  F   UNL A   1      43.545  31.671  33.862  1.00  0.00    -0.206 F 
ATOM     66  C   UNL A   1      44.011  33.956  33.604  1.00  0.00     0.040 A 
ATOM     67  C   UNL A   1      44.593  34.829  31.436  1.00  0.00     0.040 A 
ATOM     68  F   UNL A   1      44.665  33.404  29.574  1.00  0.00    -0.206 F 
ATOM     69  C   UNL A   1      44.364  35.035  32.796  1.00  0.00     0.006 A 
ENDBRANCH  48  62
BRANCH  49  70
ATOM     70  C   UNL A   1      42.717  23.575  27.366  1.00  0.00     0.057 A 
ATOM     71  C   UNL A   1      43.022  23.401  26.011  1.00  0.00     0.134 A 
ATOM     72  C   UNL A   1      42.234  22.465  28.069  1.00  0.00     0.134 A 
ATOM     73  F   UNL A   1      43.473  24.434  25.284  1.00  0.00    -0.206 F 
ATOM     74  C   UNL A   1      42.837  22.174  25.374  1.00  0.00     0.040 A 
ATOM     75  C   UNL A   1      42.064  21.227  27.449  1.00  0.00     0.040 A 
ATOM     76  F   UNL A   1      41.933  22.568  29.371  1.00  0.00    -0.206 F 
ATOM     77  C   UNL A   1      42.362  21.080  26.095  1.00  0.00     0.006 A 
ENDBRANCH  49  70
BRANCH  61  78
ATOM     78  C   UNL A   1      48.083  26.519  30.677  1.00  0.00     0.057 A 
ATOM     79  C   UNL A   1      48.382  26.003  31.944  1.00  0.00     0.134 A 
ATOM     80  C   UNL A   1      49.105  26.528  29.720  1.00  0.00     0.134 A 
ATOM     81  F   UNL A   1      47.449  25.979  32.906  1.00  0.00    -0.206 F 
ATOM     82  C   UNL A   1      49.660  25.534  32.253  1.00  0.00     0.040 A 
ATOM     83  C   UNL A   1      50.380  26.042  30.012  1.00  0.00     0.040 A 
ATOM     84  F   UNL A   1      48.879  27.003  28.486  1.00  0.00    -0.206 F 
ATOM     85  C   UNL A   1      50.662  25.548  31.284  1.00  0.00     0.006 A 
ENDBRANCH  61  78
ENDBRANCH  35  36
ENDBRANCH  27  30
ENDBRANCH  25  26
ENDBRANCH  24  25
ENDBRANCH   1  24
TORSDOF 13
ENDMDL
