MODEL 1
REMARK VINA RESULT:     -11.8      0.000      0.000
REMARK SMILES Cc1ccc(C(=O)[C@@H]2CCC[C@H]2C(=O)NCCCNC(=O)c2ccc(-c3c4nc(c(-c5c(F)cccc5F)c5ccc([nH]5)c(-c5c(F)cccc5F)c5nc(c(-c6c(F)cccc6F)c6ccc3[nH]6)C=C5)C=C4)cc2)c(C)c1
REMARK SMILES IDX 17 1 16 2 15 3 13 4 14 5 12 7 8 8 9 9 10 10 11 11 6 12 7 13
REMARK SMILES IDX 5 14 1 15 2 16 3 17 78 18 4 19 76 20 77 21 18 22 19 23 20 24
REMARK SMILES IDX 21 26 22 27 23 28 75 29 24 30 74 31 25 32 26 33 27 34 68 35
REMARK SMILES IDX 28 36 73 37 67 38 69 39 29 40 72 41 66 42 65 43 30 45 56 46
REMARK SMILES IDX 39 47 55 48 40 49 43 50 54 51 70 52 41 53 42 54 53 56 71 57
REMARK SMILES IDX 44 58 31 59 32 60 37 61 33 62 34 63 36 64 38 65 35 66 57 67
REMARK SMILES IDX 58 68 63 69 59 70 60 71 62 72 64 73 61 74 45 75 46 76 51 77
REMARK SMILES IDX 47 78 48 79 50 80 52 81 49 82
REMARK H PARENT 15 6 19 25 69 44 43 55
REMARK Flexibility Score: inf
ROOT
ATOM      1  C   UNL A   1      37.508  19.430  25.007  1.00  0.00     0.042 C 
ENDROOT
BRANCH   1   2
ATOM      2  C   UNL A   1      36.343  20.366  24.694  1.00  0.00     0.117 C 
BRANCH   2   3
ATOM      3  N   UNL A   1      36.070  21.284  25.785  1.00  0.00    -0.356 N 
ATOM      4  C   UNL A   1      35.251  22.359  25.890  1.00  0.00     0.223 C 
ATOM      5  O   UNL A   1      35.289  22.984  26.954  1.00  0.00    -0.275 OA
ATOM      6  H   UNL A   1      36.579  21.090  26.605  1.00  0.00     0.163 HD
BRANCH   4   7
ATOM      7  C   UNL A   1      34.301  22.809  24.789  1.00  0.00     0.089 C 
ATOM      8  C   UNL A   1      32.846  22.968  25.227  1.00  0.00     0.073 C 
ATOM      9  C   UNL A   1      32.270  24.048  24.314  1.00  0.00     0.013 C 
ATOM     10  C   UNL A   1      33.434  24.983  24.033  1.00  0.00     0.002 C 
ATOM     11  C   UNL A   1      34.700  24.137  24.132  1.00  0.00     0.014 C 
BRANCH   8  12
ATOM     12  C   UNL A   1      31.946  21.731  25.274  1.00  0.00     0.167 C 
ATOM     13  O   UNL A   1      30.793  21.861  25.697  1.00  0.00    -0.294 OA
BRANCH  12  14
ATOM     14  C   UNL A   1      32.366  20.388  24.757  1.00  0.00     0.021 A 
ATOM     15  C   UNL A   1      33.919  16.620  23.304  1.00  0.00     0.044 C 
ATOM     16  C   UNL A   1      33.355  17.912  23.818  1.00  0.00    -0.051 A 
ATOM     17  C   UNL A   1      33.356  18.200  25.180  1.00  0.00     0.004 A 
ATOM     18  C   UNL A   1      32.860  18.868  22.925  1.00  0.00     0.007 A 
ATOM     19  C   UNL A   1      32.879  19.428  25.641  1.00  0.00     0.012 A 
ATOM     20  C   UNL A   1      32.345  20.102  23.374  1.00  0.00    -0.040 A 
ATOM     21  C   UNL A   1      31.858  21.068  22.327  1.00  0.00     0.045 C 
ENDBRANCH  12  14
ENDBRANCH   8  12
ENDBRANCH   4   7
ENDBRANCH   2   3
ENDBRANCH   1   2
BRANCH   1  22
ATOM     22  C   UNL A   1      38.748  20.128  25.557  1.00  0.00     0.118 C 
BRANCH  22  23
ATOM     23  N   UNL A   1      39.885  19.230  25.695  1.00  0.00    -0.352 N 
ATOM     24  C   UNL A   1      41.182  19.487  26.061  1.00  0.00     0.251 C 
ATOM     25  H   UNL A   1      39.693  18.287  25.491  1.00  0.00     0.163 HD
ATOM     26  O   UNL A   1      42.030  18.606  25.926  1.00  0.00    -0.269 OA
BRANCH  24  27
ATOM     27  C   UNL A   1      41.578  20.806  26.600  1.00  0.00     0.039 A 
ATOM     28  C   UNL A   1      42.064  21.772  25.714  1.00  0.00     0.014 A 
ATOM     29  C   UNL A   1      41.520  21.085  27.969  1.00  0.00     0.014 A 
ATOM     30  C   UNL A   1      42.430  23.034  26.188  1.00  0.00     0.010 A 
ATOM     31  C   UNL A   1      41.818  22.365  28.432  1.00  0.00     0.010 A 
ATOM     32  C   UNL A   1      42.277  23.352  27.548  1.00  0.00    -0.014 A 
BRANCH  32  33
ATOM     33  C   UNL A   1      42.591  24.712  28.056  1.00  0.00     0.031 A 
ATOM     34  C   UNL A   1      43.999  25.074  28.443  1.00  0.00     0.074 A 
ATOM     35  C   UNL A   1      41.596  25.606  28.219  1.00  0.00     0.049 A 
ATOM     36  N   UNL A   1      44.452  26.186  28.965  1.00  0.00    -0.248 NA
ATOM     37  C   UNL A   1      45.030  24.045  28.236  1.00  0.00     0.031 C 
ATOM     38  C   UNL A   1      40.182  25.361  27.928  1.00  0.00     0.029 A 
ATOM     39  N   UNL A   1      41.620  26.898  28.682  1.00  0.00    -0.354 N 
ATOM     40  C   UNL A   1      45.813  25.987  29.158  1.00  0.00     0.074 A 
ATOM     41  C   UNL A   1      46.104  24.632  28.743  1.00  0.00     0.031 C 
ATOM     42  C   UNL A   1      39.479  26.472  28.201  1.00  0.00     0.029 A 
ATOM     43  C   UNL A   1      40.383  27.494  28.717  1.00  0.00     0.049 A 
ATOM     44  H   UNL A   1      42.447  27.354  28.962  1.00  0.00     0.167 HD
ATOM     45  C   UNL A   1      46.740  26.860  29.618  1.00  0.00     0.037 A 
ATOM     46  C   UNL A   1      40.019  28.724  29.125  1.00  0.00     0.037 A 
ATOM     47  C   UNL A   1      46.455  28.217  30.008  1.00  0.00     0.049 A 
ATOM     48  C   UNL A   1      41.070  29.674  29.626  1.00  0.00     0.074 A 
ATOM     49  C   UNL A   1      47.336  29.190  30.448  1.00  0.00     0.029 A 
ATOM     50  N   UNL A   1      45.195  28.791  30.001  1.00  0.00    -0.354 N 
ATOM     51  N   UNL A   1      42.361  29.488  29.752  1.00  0.00    -0.248 NA
ATOM     52  C   UNL A   1      40.613  31.011  30.034  1.00  0.00     0.031 C 
ATOM     53  C   UNL A   1      46.603  30.348  30.732  1.00  0.00     0.029 A 
ATOM     54  C   UNL A   1      45.272  30.104  30.436  1.00  0.00     0.049 A 
ATOM     55  H   UNL A   1      44.367  28.335  29.727  1.00  0.00     0.167 HD
ATOM     56  C   UNL A   1      42.873  30.687  30.230  1.00  0.00     0.074 A 
ATOM     57  C   UNL A   1      41.756  31.600  30.353  1.00  0.00     0.031 C 
ATOM     58  C   UNL A   1      44.152  31.002  30.542  1.00  0.00     0.037 A 
BRANCH  45  59
ATOM     59  C   UNL A   1      48.158  26.381  29.710  1.00  0.00     0.057 A 
ATOM     60  C   UNL A   1      49.056  26.546  28.648  1.00  0.00     0.134 A 
ATOM     61  C   UNL A   1      48.647  25.800  30.886  1.00  0.00     0.134 A 
ATOM     62  F   UNL A   1      48.648  27.085  27.489  1.00  0.00    -0.206 F 
ATOM     63  C   UNL A   1      50.387  26.133  28.746  1.00  0.00     0.040 A 
ATOM     64  C   UNL A   1      49.981  25.404  31.005  1.00  0.00     0.040 A 
ATOM     65  F   UNL A   1      47.841  25.620  31.944  1.00  0.00    -0.206 F 
ATOM     66  C   UNL A   1      50.854  25.568  29.931  1.00  0.00     0.006 A 
ENDBRANCH  45  59
BRANCH  46  67
ATOM     67  C   UNL A   1      38.595  29.138  29.066  1.00  0.00     0.057 A 
ATOM     68  C   UNL A   1      38.035  29.625  27.879  1.00  0.00     0.134 A 
ATOM     69  C   UNL A   1      37.770  29.083  30.195  1.00  0.00     0.134 A 
ATOM     70  F   UNL A   1      38.781  29.720  26.769  1.00  0.00    -0.206 F 
ATOM     71  C   UNL A   1      36.712  30.065  27.822  1.00  0.00     0.040 A 
ATOM     72  C   UNL A   1      36.438  29.498  30.146  1.00  0.00     0.040 A 
ATOM     73  F   UNL A   1      38.247  28.621  31.360  1.00  0.00    -0.206 F 
ATOM     74  C   UNL A   1      35.908  29.999  28.960  1.00  0.00     0.006 A 
ENDBRANCH  46  67
BRANCH  58  75
ATOM     75  C   UNL A   1      44.414  32.400  31.016  1.00  0.00     0.057 A 
ATOM     76  C   UNL A   1      44.695  33.441  30.122  1.00  0.00     0.134 A 
ATOM     77  C   UNL A   1      44.359  32.712  32.380  1.00  0.00     0.134 A 
ATOM     78  F   UNL A   1      44.776  33.203  28.805  1.00  0.00    -0.206 F 
ATOM     79  C   UNL A   1      44.935  34.740  30.571  1.00  0.00     0.040 A 
ATOM     80  C   UNL A   1      44.574  34.012  32.839  1.00  0.00     0.040 A 
ATOM     81  F   UNL A   1      44.087  31.762  33.287  1.00  0.00    -0.206 F 
ATOM     82  C   UNL A   1      44.869  35.030  31.933  1.00  0.00     0.006 A 
ENDBRANCH  58  75
ENDBRANCH  32  33
ENDBRANCH  24  27
ENDBRANCH  22  23
ENDBRANCH   1  22
TORSDOF 12
ENDMDL
MODEL 2
REMARK VINA RESULT:     -11.8      4.931      9.289
REMARK SMILES Cc1ccc(C(=O)[C@@H]2CCC[C@H]2C(=O)NCCCNC(=O)c2ccc(-c3c4nc(c(-c5c(F)cccc5F)c5ccc([nH]5)c(-c5c(F)cccc5F)c5nc(c(-c6c(F)cccc6F)c6ccc3[nH]6)C=C5)C=C4)cc2)c(C)c1
REMARK SMILES IDX 17 1 16 2 15 3 13 4 14 5 12 7 8 8 9 9 10 10 11 11 6 12 7 13
REMARK SMILES IDX 5 14 1 15 2 16 3 17 78 18 4 19 76 20 77 21 18 22 19 23 20 24
REMARK SMILES IDX 21 26 22 27 23 28 75 29 24 30 74 31 25 32 26 33 27 34 68 35
REMARK SMILES IDX 28 36 73 37 67 38 69 39 29 40 72 41 66 42 65 43 30 45 56 46
REMARK SMILES IDX 39 47 55 48 40 49 43 50 54 51 70 52 41 53 42 54 53 56 71 57
REMARK SMILES IDX 44 58 31 59 32 60 37 61 33 62 34 63 36 64 38 65 35 66 57 67
REMARK SMILES IDX 58 68 63 69 59 70 60 71 62 72 64 73 61 74 45 75 46 76 51 77
REMARK SMILES IDX 47 78 48 79 50 80 52 81 49 82
REMARK H PARENT 15 6 19 25 69 44 43 55
REMARK Flexibility Score: inf
ROOT
ATOM      1  C   UNL A   1      31.278  31.679  26.157  1.00  0.00     0.042 C 
ENDROOT
BRANCH   1   2
ATOM      2  C   UNL A   1      31.380  30.231  25.684  1.00  0.00     0.117 C 
BRANCH   2   3
ATOM      3  N   UNL A   1      32.639  29.961  25.015  1.00  0.00    -0.356 N 
ATOM      4  C   UNL A   1      33.207  28.815  24.566  1.00  0.00     0.223 C 
ATOM      5  O   UNL A   1      34.340  28.909  24.085  1.00  0.00    -0.275 OA
ATOM      6  H   UNL A   1      33.186  30.764  24.857  1.00  0.00     0.163 HD
BRANCH   4   7
ATOM      7  C   UNL A   1      32.523  27.456  24.617  1.00  0.00     0.089 C 
ATOM      8  C   UNL A   1      32.483  26.712  23.284  1.00  0.00     0.073 C 
ATOM      9  C   UNL A   1      32.474  25.230  23.652  1.00  0.00     0.013 C 
ATOM     10  C   UNL A   1      33.294  25.141  24.929  1.00  0.00     0.002 C 
ATOM     11  C   UNL A   1      33.145  26.487  25.631  1.00  0.00     0.014 C 
BRANCH   8  12
ATOM     12  C   UNL A   1      31.379  27.049  22.278  1.00  0.00     0.167 C 
ATOM     13  O   UNL A   1      31.299  26.375  21.248  1.00  0.00    -0.294 OA
BRANCH  12  14
ATOM     14  C   UNL A   1      30.340  28.102  22.522  1.00  0.00     0.021 A 
ATOM     15  C   UNL A   1      27.554  31.271  23.480  1.00  0.00     0.044 C 
ATOM     16  C   UNL A   1      28.509  30.172  23.119  1.00  0.00    -0.051 A 
ATOM     17  C   UNL A   1      29.654  30.438  22.372  1.00  0.00     0.004 A 
ATOM     18  C   UNL A   1      28.284  28.866  23.568  1.00  0.00     0.007 A 
ATOM     19  C   UNL A   1      30.563  29.417  22.088  1.00  0.00     0.012 A 
ATOM     20  C   UNL A   1      29.175  27.817  23.266  1.00  0.00    -0.040 A 
ATOM     21  C   UNL A   1      28.848  26.455  23.819  1.00  0.00     0.045 C 
ENDBRANCH  12  14
ENDBRANCH   8  12
ENDBRANCH   4   7
ENDBRANCH   2   3
ENDBRANCH   1   2
BRANCH   1  22
ATOM     22  C   UNL A   1      32.511  32.190  26.896  1.00  0.00     0.118 C 
BRANCH  22  23
ATOM     23  N   UNL A   1      32.395  33.587  27.286  1.00  0.00    -0.352 N 
ATOM     24  C   UNL A   1      33.079  34.306  28.232  1.00  0.00     0.251 C 
ATOM     25  H   UNL A   1      31.715  34.098  26.792  1.00  0.00     0.163 HD
ATOM     26  O   UNL A   1      32.686  35.433  28.532  1.00  0.00    -0.269 OA
BRANCH  24  27
ATOM     27  C   UNL A   1      34.270  33.745  28.907  1.00  0.00     0.039 A 
ATOM     28  C   UNL A   1      34.084  32.751  29.874  1.00  0.00     0.014 A 
ATOM     29  C   UNL A   1      35.557  34.216  28.634  1.00  0.00     0.014 A 
ATOM     30  C   UNL A   1      35.189  32.187  30.516  1.00  0.00     0.010 A 
ATOM     31  C   UNL A   1      36.663  33.605  29.222  1.00  0.00     0.010 A 
ATOM     32  C   UNL A   1      36.491  32.586  30.170  1.00  0.00    -0.014 A 
BRANCH  32  33
ATOM     33  C   UNL A   1      37.678  31.945  30.791  1.00  0.00     0.031 A 
ATOM     34  C   UNL A   1      38.423  30.858  30.067  1.00  0.00     0.074 A 
ATOM     35  C   UNL A   1      38.054  32.307  32.033  1.00  0.00     0.049 A 
ATOM     36  N   UNL A   1      39.439  30.140  30.475  1.00  0.00    -0.248 NA
ATOM     37  C   UNL A   1      37.952  30.517  28.715  1.00  0.00     0.031 C 
ATOM     38  C   UNL A   1      37.385  33.314  32.861  1.00  0.00     0.029 A 
ATOM     39  N   UNL A   1      39.085  31.862  32.822  1.00  0.00    -0.354 N 
ATOM     40  C   UNL A   1      39.720  29.259  29.438  1.00  0.00     0.074 A 
ATOM     41  C   UNL A   1      38.739  29.499  28.401  1.00  0.00     0.031 C 
ATOM     42  C   UNL A   1      38.033  33.421  34.032  1.00  0.00     0.029 A 
ATOM     43  C   UNL A   1      39.140  32.471  34.053  1.00  0.00     0.049 A 
ATOM     44  H   UNL A   1      39.724  31.170  32.533  1.00  0.00     0.167 HD
ATOM     45  C   UNL A   1      40.719  28.348  29.347  1.00  0.00     0.037 A 
ATOM     46  C   UNL A   1      39.985  32.279  35.083  1.00  0.00     0.037 A 
ATOM     47  C   UNL A   1      41.711  28.126  30.367  1.00  0.00     0.049 A 
ATOM     48  C   UNL A   1      41.087  31.266  34.953  1.00  0.00     0.074 A 
ATOM     49  C   UNL A   1      42.786  27.255  30.348  1.00  0.00     0.029 A 
ATOM     50  N   UNL A   1      41.750  28.785  31.586  1.00  0.00    -0.354 N 
ATOM     51  N   UNL A   1      41.372  30.479  33.945  1.00  0.00    -0.248 NA
ATOM     52  C   UNL A   1      41.992  31.121  36.103  1.00  0.00     0.031 C 
ATOM     53  C   UNL A   1      43.462  27.367  31.569  1.00  0.00     0.029 A 
ATOM     54  C   UNL A   1      42.826  28.333  32.331  1.00  0.00     0.049 A 
ATOM     55  H   UNL A   1      41.108  29.471  31.878  1.00  0.00     0.167 HD
ATOM     56  C   UNL A   1      42.499  29.764  34.328  1.00  0.00     0.074 A 
ATOM     57  C   UNL A   1      42.857  30.224  35.653  1.00  0.00     0.031 C 
ATOM     58  C   UNL A   1      43.174  28.809  33.644  1.00  0.00     0.037 A 
BRANCH  45  59
ATOM     59  C   UNL A   1      40.801  27.532  28.092  1.00  0.00     0.057 A 
ATOM     60  C   UNL A   1      41.550  27.960  26.988  1.00  0.00     0.134 A 
ATOM     61  C   UNL A   1      40.172  26.285  28.002  1.00  0.00     0.134 A 
ATOM     62  F   UNL A   1      42.167  29.151  27.006  1.00  0.00    -0.206 F 
ATOM     63  C   UNL A   1      41.657  27.184  25.833  1.00  0.00     0.040 A 
ATOM     64  C   UNL A   1      40.291  25.489  26.861  1.00  0.00     0.040 A 
ATOM     65  F   UNL A   1      39.445  25.813  29.026  1.00  0.00    -0.206 F 
ATOM     66  C   UNL A   1      41.032  25.940  25.771  1.00  0.00     0.006 A 
ENDBRANCH  45  59
BRANCH  46  67
ATOM     67  C   UNL A   1      39.834  33.073  36.328  1.00  0.00     0.057 A 
ATOM     68  C   UNL A   1      38.928  32.689  37.323  1.00  0.00     0.134 A 
ATOM     69  C   UNL A   1      40.568  34.246  36.541  1.00  0.00     0.134 A 
ATOM     70  F   UNL A   1      38.182  31.585  37.167  1.00  0.00    -0.206 F 
ATOM     71  C   UNL A   1      38.739  33.454  38.475  1.00  0.00     0.040 A 
ATOM     72  C   UNL A   1      40.407  35.008  37.699  1.00  0.00     0.040 A 
ATOM     73  F   UNL A   1      41.456  34.663  35.626  1.00  0.00    -0.206 F 
ATOM     74  C   UNL A   1      39.484  34.617  38.665  1.00  0.00     0.006 A 
ENDBRANCH  46  67
BRANCH  58  75
ATOM     75  C   UNL A   1      44.385  28.225  34.307  1.00  0.00     0.057 A 
ATOM     76  C   UNL A   1      45.652  28.805  34.171  1.00  0.00     0.134 A 
ATOM     77  C   UNL A   1      44.276  27.082  35.110  1.00  0.00     0.134 A 
ATOM     78  F   UNL A   1      45.824  29.891  33.404  1.00  0.00    -0.206 F 
ATOM     79  C   UNL A   1      46.774  28.255  34.793  1.00  0.00     0.040 A 
ATOM     80  C   UNL A   1      45.386  26.538  35.756  1.00  0.00     0.040 A 
ATOM     81  F   UNL A   1      43.089  26.483  35.287  1.00  0.00    -0.206 F 
ATOM     82  C   UNL A   1      46.641  27.121  35.593  1.00  0.00     0.006 A 
ENDBRANCH  58  75
ENDBRANCH  32  33
ENDBRANCH  24  27
ENDBRANCH  22  23
ENDBRANCH   1  22
TORSDOF 12
ENDMDL
MODEL 3
REMARK VINA RESULT:     -11.7      2.674      7.963
REMARK SMILES Cc1ccc(C(=O)[C@@H]2CCC[C@H]2C(=O)NCCCNC(=O)c2ccc(-c3c4nc(c(-c5c(F)cccc5F)c5ccc([nH]5)c(-c5c(F)cccc5F)c5nc(c(-c6c(F)cccc6F)c6ccc3[nH]6)C=C5)C=C4)cc2)c(C)c1
REMARK SMILES IDX 17 1 16 2 15 3 13 4 14 5 12 7 8 8 9 9 10 10 11 11 6 12 7 13
REMARK SMILES IDX 5 14 1 15 2 16 3 17 78 18 4 19 76 20 77 21 18 22 19 23 20 24
REMARK SMILES IDX 21 26 22 27 23 28 75 29 24 30 74 31 25 32 26 33 27 34 68 35
REMARK SMILES IDX 28 36 73 37 67 38 69 39 29 40 72 41 66 42 65 43 30 45 56 46
REMARK SMILES IDX 39 47 55 48 40 49 43 50 54 51 70 52 41 53 42 54 53 56 71 57
REMARK SMILES IDX 44 58 31 59 32 60 37 61 33 62 34 63 36 64 38 65 35 66 57 67
REMARK SMILES IDX 58 68 63 69 59 70 60 71 62 72 64 73 61 74 45 75 46 76 51 77
REMARK SMILES IDX 47 78 48 79 50 80 52 81 49 82
REMARK H PARENT 15 6 19 25 69 44 43 55
REMARK Flexibility Score: inf
ROOT
ATOM      1  C   UNL A   1      32.257  28.002  27.074  1.00  0.00     0.042 C 
ENDROOT
BRANCH   1   2
ATOM      2  C   UNL A   1      32.207  26.674  26.323  1.00  0.00     0.117 C 
BRANCH   2   3
ATOM      3  N   UNL A   1      33.532  26.159  26.032  1.00  0.00    -0.356 N 
ATOM      4  C   UNL A   1      33.969  25.179  25.203  1.00  0.00     0.223 C 
ATOM      5  O   UNL A   1      35.179  24.932  25.226  1.00  0.00    -0.275 OA
ATOM      6  H   UNL A   1      34.252  26.606  26.533  1.00  0.00     0.163 HD
BRANCH   4   7
ATOM      7  C   UNL A   1      33.062  24.401  24.262  1.00  0.00     0.089 C 
ATOM      8  C   UNL A   1      33.455  24.476  22.788  1.00  0.00     0.073 C 
ATOM      9  C   UNL A   1      32.970  23.163  22.176  1.00  0.00     0.013 C 
ATOM     10  C   UNL A   1      33.104  22.140  23.292  1.00  0.00     0.002 C 
ATOM     11  C   UNL A   1      32.951  22.908  24.602  1.00  0.00     0.014 C 
BRANCH   8  12
ATOM     12  C   UNL A   1      33.006  25.683  21.961  1.00  0.00     0.167 C 
ATOM     13  O   UNL A   1      33.288  25.708  20.760  1.00  0.00    -0.294 OA
BRANCH  12  14
ATOM     14  C   UNL A   1      32.171  26.796  22.518  1.00  0.00     0.021 A 
ATOM     15  C   UNL A   1      29.664  30.084  23.793  1.00  0.00     0.044 C 
ATOM     16  C   UNL A   1      30.529  28.931  23.378  1.00  0.00    -0.051 A 
ATOM     17  C   UNL A   1      29.965  27.711  23.011  1.00  0.00     0.004 A 
ATOM     18  C   UNL A   1      31.918  29.080  23.312  1.00  0.00     0.007 A 
ATOM     19  C   UNL A   1      30.776  26.663  22.575  1.00  0.00     0.012 A 
ATOM     20  C   UNL A   1      32.756  28.023  22.903  1.00  0.00    -0.040 A 
ATOM     21  C   UNL A   1      34.235  28.299  22.847  1.00  0.00     0.045 C 
ENDBRANCH  12  14
ENDBRANCH   8  12
ENDBRANCH   4   7
ENDBRANCH   2   3
ENDBRANCH   1   2
BRANCH   1  22
ATOM     22  C   UNL A   1      33.658  28.587  27.229  1.00  0.00     0.118 C 
BRANCH  22  23
ATOM     23  N   UNL A   1      33.644  29.981  27.643  1.00  0.00    -0.352 N 
ATOM     24  C   UNL A   1      34.593  30.725  28.297  1.00  0.00     0.251 C 
ATOM     25  H   UNL A   1      32.819  30.470  27.420  1.00  0.00     0.163 HD
ATOM     26  O   UNL A   1      34.295  31.841  28.722  1.00  0.00    -0.269 OA
BRANCH  24  27
ATOM     27  C   UNL A   1      35.960  30.203  28.512  1.00  0.00     0.039 A 
ATOM     28  C   UNL A   1      36.866  30.243  27.447  1.00  0.00     0.014 A 
ATOM     29  C   UNL A   1      36.343  29.636  29.730  1.00  0.00     0.014 A 
ATOM     30  C   UNL A   1      38.170  29.774  27.623  1.00  0.00     0.010 A 
ATOM     31  C   UNL A   1      37.664  29.234  29.927  1.00  0.00     0.010 A 
ATOM     32  C   UNL A   1      38.590  29.297  28.876  1.00  0.00    -0.014 A 
BRANCH  32  33
ATOM     33  C   UNL A   1      39.993  28.864  29.099  1.00  0.00     0.031 A 
ATOM     34  C   UNL A   1      40.988  29.799  29.729  1.00  0.00     0.074 A 
ATOM     35  C   UNL A   1      40.384  27.643  28.685  1.00  0.00     0.049 A 
ATOM     36  N   UNL A   1      42.268  29.621  29.944  1.00  0.00    -0.248 NA
ATOM     37  C   UNL A   1      40.486  31.116  30.154  1.00  0.00     0.031 C 
ATOM     38  C   UNL A   1      39.528  26.661  28.016  1.00  0.00     0.029 A 
ATOM     39  N   UNL A   1      41.606  27.023  28.755  1.00  0.00    -0.354 N 
ATOM     40  C   UNL A   1      42.723  30.802  30.517  1.00  0.00     0.074 A 
ATOM     41  C   UNL A   1      41.595  31.707  30.573  1.00  0.00     0.031 C 
ATOM     42  C   UNL A   1      40.246  25.557  27.755  1.00  0.00     0.029 A 
ATOM     43  C   UNL A   1      41.618  25.764  28.205  1.00  0.00     0.049 A 
ATOM     44  H   UNL A   1      42.400  27.442  29.161  1.00  0.00     0.167 HD
ATOM     45  C   UNL A   1      43.963  31.098  30.975  1.00  0.00     0.037 A 
ATOM     46  C   UNL A   1      42.624  24.879  28.073  1.00  0.00     0.037 A 
ATOM     47  C   UNL A   1      45.079  30.190  30.943  1.00  0.00     0.049 A 
ATOM     48  C   UNL A   1      43.988  25.232  28.596  1.00  0.00     0.074 A 
ATOM     49  C   UNL A   1      46.363  30.385  31.422  1.00  0.00     0.029 A 
ATOM     50  N   UNL A   1      45.042  28.913  30.405  1.00  0.00    -0.354 N 
ATOM     51  N   UNL A   1      44.389  26.332  29.184  1.00  0.00    -0.248 NA
ATOM     52  C   UNL A   1      45.039  24.215  28.446  1.00  0.00     0.031 C 
ATOM     53  C   UNL A   1      47.112  29.234  31.150  1.00  0.00     0.029 A 
ATOM     54  C   UNL A   1      46.283  28.312  30.533  1.00  0.00     0.049 A 
ATOM     55  H   UNL A   1      44.251  28.496  29.993  1.00  0.00     0.167 HD
ATOM     56  C   UNL A   1      45.728  26.132  29.493  1.00  0.00     0.074 A 
ATOM     57  C   UNL A   1      46.066  24.798  29.045  1.00  0.00     0.031 C 
ATOM     58  C   UNL A   1      46.599  26.979  30.091  1.00  0.00     0.037 A 
BRANCH  45  59
ATOM     59  C   UNL A   1      44.175  32.459  31.570  1.00  0.00     0.057 A 
ATOM     60  C   UNL A   1      44.017  32.690  32.942  1.00  0.00     0.134 A 
ATOM     61  C   UNL A   1      44.593  33.533  30.776  1.00  0.00     0.134 A 
ATOM     62  F   UNL A   1      43.607  31.705  33.755  1.00  0.00    -0.206 F 
ATOM     63  C   UNL A   1      44.250  33.948  33.502  1.00  0.00     0.040 A 
ATOM     64  C   UNL A   1      44.851  34.790  31.328  1.00  0.00     0.040 A 
ATOM     65  F   UNL A   1      44.770  33.378  29.456  1.00  0.00    -0.206 F 
ATOM     66  C   UNL A   1      44.677  35.000  32.694  1.00  0.00     0.006 A 
ENDBRANCH  45  59
BRANCH  46  67
ATOM     67  C   UNL A   1      42.381  23.564  27.430  1.00  0.00     0.057 A 
ATOM     68  C   UNL A   1      42.037  22.441  28.193  1.00  0.00     0.134 A 
ATOM     69  C   UNL A   1      42.512  23.390  26.048  1.00  0.00     0.134 A 
ATOM     70  F   UNL A   1      41.916  22.541  29.524  1.00  0.00    -0.206 F 
ATOM     71  C   UNL A   1      41.855  21.188  27.607  1.00  0.00     0.040 A 
ATOM     72  C   UNL A   1      42.309  22.147  25.446  1.00  0.00     0.040 A 
ATOM     73  F   UNL A   1      42.834  24.429  25.263  1.00  0.00    -0.206 F 
ATOM     74  C   UNL A   1      41.989  21.040  26.227  1.00  0.00     0.006 A 
ENDBRANCH  46  67
BRANCH  58  75
ATOM     75  C   UNL A   1      47.991  26.473  30.322  1.00  0.00     0.057 A 
ATOM     76  C   UNL A   1      48.347  25.806  31.501  1.00  0.00     0.134 A 
ATOM     77  C   UNL A   1      48.980  26.633  29.343  1.00  0.00     0.134 A 
ATOM     78  F   UNL A   1      47.449  25.634  32.482  1.00  0.00    -0.206 F 
ATOM     79  C   UNL A   1      49.645  25.336  31.707  1.00  0.00     0.040 A 
ATOM     80  C   UNL A   1      50.274  26.147  29.528  1.00  0.00     0.040 A 
ATOM     81  F   UNL A   1      48.701  27.257  28.188  1.00  0.00    -0.206 F 
ATOM     82  C   UNL A   1      50.611  25.501  30.716  1.00  0.00     0.006 A 
ENDBRANCH  58  75
ENDBRANCH  32  33
ENDBRANCH  24  27
ENDBRANCH  22  23
ENDBRANCH   1  22
TORSDOF 12
ENDMDL
