MODEL 1
REMARK VINA RESULT:     -11.1      0.000      0.000
REMARK SMILES CCN(Cc1cn(CC)nc1C)C(=O)c1ccn([C@@H](C)C(=O)NCCCNC(=O)c2ccc(-c3c4nc(c(-c5c(F)cccc5F)c5ccc([nH]5)c(-c5c(F)cccc5F)c5nc(c(-c6c(F)cccc6F)c6ccc3[nH]6)C=C5)C=C4)cc2)n1
REMARK SMILES IDX 21 1 22 2 23 3 19 5 20 6 18 7 15 8 16 9 84 10 17 11 13 12
REMARK SMILES IDX 14 13 3 14 2 15 1 16 4 17 5 18 6 19 11 20 7 21 10 22 12 23
REMARK SMILES IDX 8 24 9 25 24 26 25 27 26 28 27 29 28 30 29 32 30 33 31 34
REMARK SMILES IDX 83 35 32 36 82 37 33 38 34 39 35 40 76 41 36 42 81 43 75 44
REMARK SMILES IDX 77 45 37 46 80 47 74 48 73 49 38 51 64 52 47 53 63 54 48 55
REMARK SMILES IDX 51 56 62 57 78 58 49 59 50 60 61 62 79 63 52 64 39 65 40 66
REMARK SMILES IDX 45 67 41 68 42 69 44 70 46 71 43 72 65 73 66 74 71 75 67 76
REMARK SMILES IDX 68 77 70 78 72 79 69 80 53 81 54 82 59 83 55 84 56 85 58 86
REMARK SMILES IDX 60 87 57 88
REMARK H PARENT 23 4 27 31 77 50 51 61
REMARK Flexibility Score: inf
ROOT
ATOM      1  C   UNL A   1      38.840  22.086  25.989  1.00  0.00     0.244 C 
ATOM      2  O   UNL A   1      38.889  23.317  25.856  1.00  0.00    -0.273 OA
ATOM      3  N   UNL A   1      40.007  21.511  26.407  1.00  0.00    -0.354 N 
ATOM      4  H   UNL A   1      40.730  22.167  26.538  1.00  0.00     0.163 HD
ENDROOT
BRANCH   1   5
ATOM      5  C   UNL A   1      37.515  21.345  25.719  1.00  0.00     0.193 C 
ATOM      6  C   UNL A   1      37.640  20.203  24.718  1.00  0.00     0.044 C 
BRANCH   5   7
ATOM      7  N   UNL A   1      36.427  22.269  25.421  1.00  0.00    -0.260 N 
ATOM      8  C   UNL A   1      34.677  22.968  24.447  1.00  0.00     0.150 A 
ATOM      9  C   UNL A   1      34.485  23.021  25.839  1.00  0.00     0.056 A 
ATOM     10  N   UNL A   1      35.887  22.415  24.186  1.00  0.00    -0.167 NA
ATOM     11  C   UNL A   1      35.764  23.031  26.327  1.00  0.00     0.110 A 
BRANCH   8  12
ATOM     12  C   UNL A   1      33.713  23.426  23.434  1.00  0.00     0.274 C 
ATOM     13  O   UNL A   1      34.008  24.319  22.637  1.00  0.00    -0.267 OA
BRANCH  12  14
ATOM     14  N   UNL A   1      32.436  22.801  23.400  1.00  0.00    -0.333 N 
BRANCH  14  15
ATOM     15  C   UNL A   1      32.421  21.365  23.119  1.00  0.00     0.117 C 
ATOM     16  C   UNL A   1      32.208  20.511  24.362  1.00  0.00     0.027 C 
ENDBRANCH  14  15
BRANCH  14  17
ATOM     17  C   UNL A   1      31.132  23.495  23.373  1.00  0.00     0.159 C 
BRANCH  17  18
ATOM     18  C   UNL A   1      30.929  24.483  24.493  1.00  0.00     0.012 A 
ATOM     19  C   UNL A   1      30.896  25.868  24.348  1.00  0.00     0.114 A 
ATOM     20  C   UNL A   1      30.810  24.305  25.906  1.00  0.00     0.064 A 
ATOM     21  N   UNL A   1      30.959  26.401  25.604  1.00  0.00    -0.272 N 
ATOM     22  N   UNL A   1      30.857  25.473  26.564  1.00  0.00    -0.178 NA
ATOM     23  C   UNL A   1      30.744  23.064  26.712  1.00  0.00     0.069 C 
BRANCH  21  24
ATOM     24  C   UNL A   1      31.379  27.746  25.955  1.00  0.00     0.141 C 
ATOM     25  C   UNL A   1      31.911  27.890  27.366  1.00  0.00     0.029 C 
ENDBRANCH  21  24
ENDBRANCH  17  18
ENDBRANCH  14  17
ENDBRANCH  12  14
ENDBRANCH   8  12
ENDBRANCH   5   7
ENDBRANCH   1   5
BRANCH   3  26
ATOM     26  C   UNL A   1      40.422  20.143  26.702  1.00  0.00     0.117 C 
BRANCH  26  27
ATOM     27  C   UNL A   1      41.600  19.670  25.841  1.00  0.00     0.042 C 
BRANCH  27  28
ATOM     28  C   UNL A   1      42.901  19.557  26.585  1.00  0.00     0.118 C 
BRANCH  28  29
ATOM     29  N   UNL A   1      44.072  19.425  25.720  1.00  0.00    -0.352 N 
ATOM     30  C   UNL A   1      44.693  20.427  24.981  1.00  0.00     0.251 C 
ATOM     31  H   UNL A   1      44.467  18.525  25.654  1.00  0.00     0.163 HD
ATOM     32  O   UNL A   1      45.431  20.152  24.052  1.00  0.00    -0.269 OA
BRANCH  30  33
ATOM     33  C   UNL A   1      44.419  21.834  25.349  1.00  0.00     0.039 A 
ATOM     34  C   UNL A   1      43.456  22.620  24.718  1.00  0.00     0.014 A 
ATOM     35  C   UNL A   1      45.128  22.340  26.428  1.00  0.00     0.014 A 
ATOM     36  C   UNL A   1      43.208  23.892  25.236  1.00  0.00     0.010 A 
ATOM     37  C   UNL A   1      44.622  23.384  27.133  1.00  0.00     0.010 A 
ATOM     38  C   UNL A   1      43.799  24.254  26.459  1.00  0.00    -0.014 A 
BRANCH  38  39
ATOM     39  C   UNL A   1      43.539  25.510  27.136  1.00  0.00     0.031 A 
ATOM     40  C   UNL A   1      44.503  26.565  26.768  1.00  0.00     0.074 A 
ATOM     41  C   UNL A   1      42.415  25.762  27.845  1.00  0.00     0.049 A 
ATOM     42  N   UNL A   1      45.518  26.945  27.463  1.00  0.00    -0.248 NA
ATOM     43  C   UNL A   1      44.475  27.101  25.400  1.00  0.00     0.031 C 
ATOM     44  C   UNL A   1      41.210  24.934  28.009  1.00  0.00     0.029 A 
ATOM     45  N   UNL A   1      42.086  26.887  28.534  1.00  0.00    -0.354 N 
ATOM     46  C   UNL A   1      46.110  27.961  26.730  1.00  0.00     0.074 A 
ATOM     47  C   UNL A   1      45.585  27.844  25.394  1.00  0.00     0.031 C 
ATOM     48  C   UNL A   1      40.218  25.671  28.562  1.00  0.00     0.029 A 
ATOM     49  C   UNL A   1      40.758  26.959  28.951  1.00  0.00     0.049 A 
ATOM     50  H   UNL A   1      42.738  27.600  28.722  1.00  0.00     0.167 HD
ATOM     51  C   UNL A   1      46.750  28.977  27.368  1.00  0.00     0.037 A 
ATOM     52  C   UNL A   1      40.165  28.016  29.564  1.00  0.00     0.037 A 
ATOM     53  C   UNL A   1      46.953  28.653  28.763  1.00  0.00     0.049 A 
ATOM     54  C   UNL A   1      41.253  28.854  30.131  1.00  0.00     0.074 A 
ATOM     55  C   UNL A   1      47.608  27.645  29.444  1.00  0.00     0.029 A 
ATOM     56  N   UNL A   1      46.069  29.202  29.662  1.00  0.00    -0.354 N 
ATOM     57  N   UNL A   1      42.012  28.476  31.122  1.00  0.00    -0.248 NA
ATOM     58  C   UNL A   1      41.812  29.891  29.277  1.00  0.00     0.031 C 
ATOM     59  C   UNL A   1      46.760  27.331  30.548  1.00  0.00     0.029 A 
ATOM     60  C   UNL A   1      45.681  28.218  30.535  1.00  0.00     0.049 A 
ATOM     61  H   UNL A   1      45.768  30.139  29.678  1.00  0.00     0.167 HD
ATOM     62  C   UNL A   1      43.289  28.877  30.758  1.00  0.00     0.074 A 
ATOM     63  C   UNL A   1      43.092  29.814  29.652  1.00  0.00     0.031 C 
ATOM     64  C   UNL A   1      44.387  28.182  31.178  1.00  0.00     0.037 A 
BRANCH  51  65
ATOM     65  C   UNL A   1      46.811  30.399  26.873  1.00  0.00     0.057 A 
ATOM     66  C   UNL A   1      48.043  31.076  26.927  1.00  0.00     0.134 A 
ATOM     67  C   UNL A   1      45.690  31.218  26.632  1.00  0.00     0.134 A 
ATOM     68  F   UNL A   1      49.186  30.408  27.153  1.00  0.00    -0.206 F 
ATOM     69  C   UNL A   1      48.140  32.468  26.843  1.00  0.00     0.040 A 
ATOM     70  C   UNL A   1      45.781  32.605  26.495  1.00  0.00     0.040 A 
ATOM     71  F   UNL A   1      44.438  30.749  26.621  1.00  0.00    -0.206 F 
ATOM     72  C   UNL A   1      47.004  33.240  26.636  1.00  0.00     0.006 A 
ENDBRANCH  51  65
BRANCH  52  73
ATOM     73  C   UNL A   1      38.777  28.523  29.448  1.00  0.00     0.057 A 
ATOM     74  C   UNL A   1      37.941  28.622  30.572  1.00  0.00     0.134 A 
ATOM     75  C   UNL A   1      38.345  29.211  28.300  1.00  0.00     0.134 A 
ATOM     76  F   UNL A   1      38.282  28.032  31.727  1.00  0.00    -0.206 F 
ATOM     77  C   UNL A   1      36.767  29.390  30.567  1.00  0.00     0.040 A 
ATOM     78  C   UNL A   1      37.175  29.980  28.282  1.00  0.00     0.040 A 
ATOM     79  F   UNL A   1      39.096  29.237  27.190  1.00  0.00    -0.206 F 
ATOM     80  C   UNL A   1      36.389  30.085  29.423  1.00  0.00     0.006 A 
ENDBRANCH  52  73
BRANCH  64  81
ATOM     81  C   UNL A   1      44.195  27.149  32.259  1.00  0.00     0.057 A 
ATOM     82  C   UNL A   1      44.087  25.767  32.034  1.00  0.00     0.134 A 
ATOM     83  C   UNL A   1      44.262  27.565  33.593  1.00  0.00     0.134 A 
ATOM     84  F   UNL A   1      44.111  25.258  30.796  1.00  0.00    -0.206 F 
ATOM     85  C   UNL A   1      44.006  24.851  33.089  1.00  0.00     0.040 A 
ATOM     86  C   UNL A   1      44.216  26.658  34.654  1.00  0.00     0.040 A 
ATOM     87  F   UNL A   1      44.417  28.865  33.886  1.00  0.00    -0.206 F 
ATOM     88  C   UNL A   1      44.077  25.296  34.404  1.00  0.00     0.006 A 
ENDBRANCH  64  81
ENDBRANCH  38  39
ENDBRANCH  30  33
ENDBRANCH  28  29
ENDBRANCH  27  28
ENDBRANCH  26  27
ENDBRANCH   3  26
TORSDOF 17
ENDMDL
MODEL 2
REMARK VINA RESULT:     -11.0      2.648      4.088
REMARK SMILES CCN(Cc1cn(CC)nc1C)C(=O)c1ccn([C@@H](C)C(=O)NCCCNC(=O)c2ccc(-c3c4nc(c(-c5c(F)cccc5F)c5ccc([nH]5)c(-c5c(F)cccc5F)c5nc(c(-c6c(F)cccc6F)c6ccc3[nH]6)C=C5)C=C4)cc2)n1
REMARK SMILES IDX 21 1 22 2 23 3 19 5 20 6 18 7 15 8 16 9 84 10 17 11 13 12
REMARK SMILES IDX 14 13 3 14 2 15 1 16 4 17 5 18 6 19 11 20 7 21 10 22 12 23
REMARK SMILES IDX 8 24 9 25 24 26 25 27 26 28 27 29 28 30 29 32 30 33 31 34
REMARK SMILES IDX 83 35 32 36 82 37 33 38 34 39 35 40 76 41 36 42 81 43 75 44
REMARK SMILES IDX 77 45 37 46 80 47 74 48 73 49 38 51 64 52 47 53 63 54 48 55
REMARK SMILES IDX 51 56 62 57 78 58 49 59 50 60 61 62 79 63 52 64 39 65 40 66
REMARK SMILES IDX 45 67 41 68 42 69 44 70 46 71 43 72 65 73 66 74 71 75 67 76
REMARK SMILES IDX 68 77 70 78 72 79 69 80 53 81 54 82 59 83 55 84 56 85 58 86
REMARK SMILES IDX 60 87 57 88
REMARK H PARENT 23 4 27 31 77 50 51 61
REMARK Flexibility Score: inf
ROOT
ATOM      1  C   UNL A   1      36.211  23.043  23.719  1.00  0.00     0.244 C 
ATOM      2  O   UNL A   1      36.296  23.030  22.483  1.00  0.00    -0.273 OA
ATOM      3  N   UNL A   1      37.412  23.057  24.372  1.00  0.00    -0.354 N 
ATOM      4  H   UNL A   1      38.181  23.050  23.756  1.00  0.00     0.163 HD
ENDROOT
BRANCH   1   5
ATOM      5  C   UNL A   1      34.821  23.076  24.386  1.00  0.00     0.193 C 
ATOM      6  C   UNL A   1      33.994  21.819  24.148  1.00  0.00     0.044 C 
BRANCH   5   7
ATOM      7  N   UNL A   1      34.107  24.312  24.090  1.00  0.00    -0.260 N 
ATOM      8  C   UNL A   1      33.843  26.406  23.876  1.00  0.00     0.150 A 
ATOM      9  C   UNL A   1      33.447  25.765  22.689  1.00  0.00     0.056 A 
ATOM     10  N   UNL A   1      34.337  25.482  24.737  1.00  0.00    -0.167 NA
ATOM     11  C   UNL A   1      33.197  24.484  23.098  1.00  0.00     0.110 A 
BRANCH   8  12
ATOM     12  C   UNL A   1      33.752  27.852  24.138  1.00  0.00     0.274 C 
ATOM     13  O   UNL A   1      34.094  28.671  23.284  1.00  0.00    -0.267 OA
BRANCH  12  14
ATOM     14  N   UNL A   1      33.252  28.269  25.402  1.00  0.00    -0.333 N 
BRANCH  14  15
ATOM     15  C   UNL A   1      34.234  28.411  26.477  1.00  0.00     0.117 C 
ATOM     16  C   UNL A   1      34.223  29.791  27.123  1.00  0.00     0.027 C 
ENDBRANCH  14  15
BRANCH  14  17
ATOM     17  C   UNL A   1      31.828  28.327  25.792  1.00  0.00     0.159 C 
BRANCH  17  18
ATOM     18  C   UNL A   1      30.862  28.271  24.636  1.00  0.00     0.012 A 
ATOM     19  C   UNL A   1      30.440  29.367  23.887  1.00  0.00     0.114 A 
ATOM     20  C   UNL A   1      30.107  27.193  24.081  1.00  0.00     0.064 A 
ATOM     21  N   UNL A   1      29.388  28.947  23.124  1.00  0.00    -0.272 N 
ATOM     22  N   UNL A   1      29.202  27.622  23.189  1.00  0.00    -0.178 NA
ATOM     23  C   UNL A   1      30.116  25.748  24.410  1.00  0.00     0.069 C 
BRANCH  21  24
ATOM     24  C   UNL A   1      28.363  29.782  22.525  1.00  0.00     0.141 C 
ATOM     25  C   UNL A   1      27.856  30.894  23.420  1.00  0.00     0.029 C 
ENDBRANCH  21  24
ENDBRANCH  17  18
ENDBRANCH  14  17
ENDBRANCH  12  14
ENDBRANCH   8  12
ENDBRANCH   5   7
ENDBRANCH   1   5
BRANCH   3  26
ATOM     26  C   UNL A   1      37.809  23.082  25.776  1.00  0.00     0.117 C 
BRANCH  26  27
ATOM     27  C   UNL A   1      38.874  22.032  26.121  1.00  0.00     0.042 C 
BRANCH  27  28
ATOM     28  C   UNL A   1      39.970  22.538  27.016  1.00  0.00     0.118 C 
BRANCH  28  29
ATOM     29  N   UNL A   1      41.317  22.231  26.539  1.00  0.00    -0.352 N 
ATOM     30  C   UNL A   1      42.300  23.133  26.145  1.00  0.00     0.251 C 
ATOM     31  H   UNL A   1      41.557  21.276  26.493  1.00  0.00     0.163 HD
ATOM     32  O   UNL A   1      43.240  22.773  25.460  1.00  0.00    -0.269 OA
BRANCH  30  33
ATOM     33  C   UNL A   1      42.160  24.543  26.573  1.00  0.00     0.039 A 
ATOM     34  C   UNL A   1      41.434  25.494  25.857  1.00  0.00     0.014 A 
ATOM     35  C   UNL A   1      42.737  24.881  27.787  1.00  0.00     0.014 A 
ATOM     36  C   UNL A   1      41.276  26.760  26.426  1.00  0.00     0.010 A 
ATOM     37  C   UNL A   1      42.265  25.949  28.481  1.00  0.00     0.010 A 
ATOM     38  C   UNL A   1      41.694  26.965  27.752  1.00  0.00    -0.014 A 
BRANCH  38  39
ATOM     39  C   UNL A   1      41.495  28.207  28.474  1.00  0.00     0.031 A 
ATOM     40  C   UNL A   1      42.538  29.209  28.181  1.00  0.00     0.074 A 
ATOM     41  C   UNL A   1      40.367  28.505  29.158  1.00  0.00     0.049 A 
ATOM     42  N   UNL A   1      43.553  29.491  28.922  1.00  0.00    -0.248 NA
ATOM     43  C   UNL A   1      42.591  29.801  26.836  1.00  0.00     0.031 C 
ATOM     44  C   UNL A   1      39.106  27.754  29.251  1.00  0.00     0.029 A 
ATOM     45  N   UNL A   1      40.090  29.620  29.884  1.00  0.00    -0.354 N 
ATOM     46  C   UNL A   1      44.234  30.494  28.251  1.00  0.00     0.074 A 
ATOM     47  C   UNL A   1      43.747  30.467  26.896  1.00  0.00     0.031 C 
ATOM     48  C   UNL A   1      38.147  28.532  29.805  1.00  0.00     0.029 A 
ATOM     49  C   UNL A   1      38.757  29.764  30.264  1.00  0.00     0.049 A 
ATOM     50  H   UNL A   1      40.781  30.280  30.123  1.00  0.00     0.167 HD
ATOM     51  C   UNL A   1      44.918  31.438  28.951  1.00  0.00     0.037 A 
ATOM     52  C   UNL A   1      38.215  30.833  30.903  1.00  0.00     0.037 A 
ATOM     53  C   UNL A   1      45.053  31.045  30.336  1.00  0.00     0.049 A 
ATOM     54  C   UNL A   1      39.337  31.573  31.538  1.00  0.00     0.074 A 
ATOM     55  C   UNL A   1      45.618  29.969  30.993  1.00  0.00     0.029 A 
ATOM     56  N   UNL A   1      44.178  31.615  31.231  1.00  0.00    -0.354 N 
ATOM     57  N   UNL A   1      40.035  31.105  32.534  1.00  0.00    -0.248 NA
ATOM     58  C   UNL A   1      39.991  32.604  30.747  1.00  0.00     0.031 C 
ATOM     59  C   UNL A   1      44.714  29.668  32.056  1.00  0.00     0.029 A 
ATOM     60  C   UNL A   1      43.698  30.625  32.049  1.00  0.00     0.049 A 
ATOM     61  H   UNL A   1      43.939  32.569  31.278  1.00  0.00     0.167 HD
ATOM     62  C   UNL A   1      41.347  31.434  32.227  1.00  0.00     0.074 A 
ATOM     63  C   UNL A   1      41.250  32.426  31.156  1.00  0.00     0.031 C 
ATOM     64  C   UNL A   1      42.383  30.650  32.650  1.00  0.00     0.037 A 
BRANCH  51  65
ATOM     65  C   UNL A   1      45.089  32.872  28.519  1.00  0.00     0.057 A 
ATOM     66  C   UNL A   1      43.936  33.654  28.324  1.00  0.00     0.134 A 
ATOM     67  C   UNL A   1      46.279  33.424  28.005  1.00  0.00     0.134 A 
ATOM     68  F   UNL A   1      42.738  33.237  28.765  1.00  0.00    -0.206 F 
ATOM     69  C   UNL A   1      43.952  34.847  27.594  1.00  0.00     0.040 A 
ATOM     70  C   UNL A   1      46.316  34.640  27.319  1.00  0.00     0.040 A 
ATOM     71  F   UNL A   1      47.451  32.780  28.041  1.00  0.00    -0.206 F 
ATOM     72  C   UNL A   1      45.144  35.339  27.079  1.00  0.00     0.006 A 
ENDBRANCH  51  65
BRANCH  52  73
ATOM     73  C   UNL A   1      36.868  31.437  30.767  1.00  0.00     0.057 A 
ATOM     74  C   UNL A   1      36.050  31.654  31.888  1.00  0.00     0.134 A 
ATOM     75  C   UNL A   1      36.481  32.097  29.588  1.00  0.00     0.134 A 
ATOM     76  F   UNL A   1      36.354  31.098  33.070  1.00  0.00    -0.206 F 
ATOM     77  C   UNL A   1      34.936  32.506  31.849  1.00  0.00     0.040 A 
ATOM     78  C   UNL A   1      35.371  32.950  29.536  1.00  0.00     0.040 A 
ATOM     79  F   UNL A   1      37.223  32.012  28.475  1.00  0.00    -0.206 F 
ATOM     80  C   UNL A   1      34.604  33.171  30.673  1.00  0.00     0.006 A 
ENDBRANCH  52  73
BRANCH  64  81
ATOM     81  C   UNL A   1      42.088  29.589  33.679  1.00  0.00     0.057 A 
ATOM     82  C   UNL A   1      41.751  28.259  33.383  1.00  0.00     0.134 A 
ATOM     83  C   UNL A   1      42.290  29.899  35.028  1.00  0.00     0.134 A 
ATOM     84  F   UNL A   1      41.628  27.836  32.118  1.00  0.00    -0.206 F 
ATOM     85  C   UNL A   1      41.582  27.298  34.386  1.00  0.00     0.040 A 
ATOM     86  C   UNL A   1      42.159  28.942  36.036  1.00  0.00     0.040 A 
ATOM     87  F   UNL A   1      42.665  31.137  35.386  1.00  0.00    -0.206 F 
ATOM     88  C   UNL A   1      41.792  27.638  35.718  1.00  0.00     0.006 A 
ENDBRANCH  64  81
ENDBRANCH  38  39
ENDBRANCH  30  33
ENDBRANCH  28  29
ENDBRANCH  27  28
ENDBRANCH  26  27
ENDBRANCH   3  26
TORSDOF 17
ENDMDL
MODEL 3
REMARK VINA RESULT:     -10.8      2.477      3.784
REMARK SMILES CCN(Cc1cn(CC)nc1C)C(=O)c1ccn([C@@H](C)C(=O)NCCCNC(=O)c2ccc(-c3c4nc(c(-c5c(F)cccc5F)c5ccc([nH]5)c(-c5c(F)cccc5F)c5nc(c(-c6c(F)cccc6F)c6ccc3[nH]6)C=C5)C=C4)cc2)n1
REMARK SMILES IDX 21 1 22 2 23 3 19 5 20 6 18 7 15 8 16 9 84 10 17 11 13 12
REMARK SMILES IDX 14 13 3 14 2 15 1 16 4 17 5 18 6 19 11 20 7 21 10 22 12 23
REMARK SMILES IDX 8 24 9 25 24 26 25 27 26 28 27 29 28 30 29 32 30 33 31 34
REMARK SMILES IDX 83 35 32 36 82 37 33 38 34 39 35 40 76 41 36 42 81 43 75 44
REMARK SMILES IDX 77 45 37 46 80 47 74 48 73 49 38 51 64 52 47 53 63 54 48 55
REMARK SMILES IDX 51 56 62 57 78 58 49 59 50 60 61 62 79 63 52 64 39 65 40 66
REMARK SMILES IDX 45 67 41 68 42 69 44 70 46 71 43 72 65 73 66 74 71 75 67 76
REMARK SMILES IDX 68 77 70 78 72 79 69 80 53 81 54 82 59 83 55 84 56 85 58 86
REMARK SMILES IDX 60 87 57 88
REMARK H PARENT 23 4 27 31 77 50 51 61
REMARK Flexibility Score: inf
ROOT
ATOM      1  C   UNL A   1      36.398  22.882  24.110  1.00  0.00     0.244 C 
ATOM      2  O   UNL A   1      36.192  23.110  22.910  1.00  0.00    -0.273 OA
ATOM      3  N   UNL A   1      37.533  23.455  24.612  1.00  0.00    -0.354 N 
ATOM      4  H   UNL A   1      38.032  23.969  23.936  1.00  0.00     0.163 HD
ENDROOT
BRANCH   1   5
ATOM      5  C   UNL A   1      35.383  22.039  24.909  1.00  0.00     0.193 C 
ATOM      6  C   UNL A   1      35.718  20.554  24.957  1.00  0.00     0.044 C 
BRANCH   5   7
ATOM      7  N   UNL A   1      34.010  22.317  24.506  1.00  0.00    -0.260 N 
ATOM      8  C   UNL A   1      32.386  23.485  23.800  1.00  0.00     0.150 A 
ATOM      9  C   UNL A   1      32.495  22.322  23.017  1.00  0.00     0.056 A 
ATOM     10  N   UNL A   1      33.402  23.515  24.696  1.00  0.00    -0.167 NA
ATOM     11  C   UNL A   1      33.196  21.470  23.826  1.00  0.00     0.110 A 
BRANCH   8  12
ATOM     12  C   UNL A   1      31.343  24.515  23.659  1.00  0.00     0.274 C 
ATOM     13  O   UNL A   1      30.263  24.253  23.127  1.00  0.00    -0.267 OA
BRANCH  12  14
ATOM     14  N   UNL A   1      31.622  25.816  24.161  1.00  0.00    -0.333 N 
BRANCH  14  15
ATOM     15  C   UNL A   1      30.869  26.232  25.345  1.00  0.00     0.117 C 
ATOM     16  C   UNL A   1      31.370  25.589  26.632  1.00  0.00     0.027 C 
ENDBRANCH  14  15
BRANCH  14  17
ATOM     17  C   UNL A   1      32.399  26.864  23.467  1.00  0.00     0.159 C 
BRANCH  17  18
ATOM     18  C   UNL A   1      32.513  28.161  24.227  1.00  0.00     0.012 A 
ATOM     19  C   UNL A   1      33.591  28.532  25.027  1.00  0.00     0.114 A 
ATOM     20  C   UNL A   1      31.597  29.244  24.400  1.00  0.00     0.064 A 
ATOM     21  N   UNL A   1      33.201  29.632  25.736  1.00  0.00    -0.272 N 
ATOM     22  N   UNL A   1      32.016  30.110  25.335  1.00  0.00    -0.178 NA
ATOM     23  C   UNL A   1      30.268  29.480  23.790  1.00  0.00     0.069 C 
BRANCH  21  24
ATOM     24  C   UNL A   1      33.782  30.116  26.975  1.00  0.00     0.141 C 
ATOM     25  C   UNL A   1      34.863  29.226  27.553  1.00  0.00     0.029 C 
ENDBRANCH  21  24
ENDBRANCH  17  18
ENDBRANCH  14  17
ENDBRANCH  12  14
ENDBRANCH   8  12
ENDBRANCH   5   7
ENDBRANCH   1   5
BRANCH   3  26
ATOM     26  C   UNL A   1      38.169  23.477  25.925  1.00  0.00     0.117 C 
BRANCH  26  27
ATOM     27  C   UNL A   1      38.980  22.209  26.224  1.00  0.00     0.042 C 
BRANCH  27  28
ATOM     28  C   UNL A   1      40.101  22.412  27.204  1.00  0.00     0.118 C 
BRANCH  28  29
ATOM     29  N   UNL A   1      41.429  22.143  26.654  1.00  0.00    -0.352 N 
ATOM     30  C   UNL A   1      42.353  23.072  26.188  1.00  0.00     0.251 C 
ATOM     31  H   UNL A   1      41.699  21.197  26.609  1.00  0.00     0.163 HD
ATOM     32  O   UNL A   1      43.264  22.733  25.454  1.00  0.00    -0.269 OA
BRANCH  30  33
ATOM     33  C   UNL A   1      42.188  24.484  26.600  1.00  0.00     0.039 A 
ATOM     34  C   UNL A   1      41.399  25.400  25.905  1.00  0.00     0.014 A 
ATOM     35  C   UNL A   1      42.809  24.860  27.781  1.00  0.00     0.014 A 
ATOM     36  C   UNL A   1      41.227  26.669  26.462  1.00  0.00     0.010 A 
ATOM     37  C   UNL A   1      42.335  25.924  28.480  1.00  0.00     0.010 A 
ATOM     38  C   UNL A   1      41.698  26.909  27.763  1.00  0.00    -0.014 A 
BRANCH  38  39
ATOM     39  C   UNL A   1      41.493  28.156  28.475  1.00  0.00     0.031 A 
ATOM     40  C   UNL A   1      42.534  29.158  28.179  1.00  0.00     0.074 A 
ATOM     41  C   UNL A   1      40.361  28.456  29.152  1.00  0.00     0.049 A 
ATOM     42  N   UNL A   1      43.545  29.449  28.922  1.00  0.00    -0.248 NA
ATOM     43  C   UNL A   1      42.591  29.740  26.830  1.00  0.00     0.031 C 
ATOM     44  C   UNL A   1      39.102  27.702  29.245  1.00  0.00     0.029 A 
ATOM     45  N   UNL A   1      40.078  29.576  29.868  1.00  0.00    -0.354 N 
ATOM     46  C   UNL A   1      44.226  30.449  28.246  1.00  0.00     0.074 A 
ATOM     47  C   UNL A   1      43.745  30.410  26.889  1.00  0.00     0.031 C 
ATOM     48  C   UNL A   1      38.138  28.482  29.789  1.00  0.00     0.029 A 
ATOM     49  C   UNL A   1      38.743  29.720  30.241  1.00  0.00     0.049 A 
ATOM     50  H   UNL A   1      40.766  30.240  30.105  1.00  0.00     0.167 HD
ATOM     51  C   UNL A   1      44.905  31.400  28.941  1.00  0.00     0.037 A 
ATOM     52  C   UNL A   1      38.195  30.791  30.870  1.00  0.00     0.037 A 
ATOM     53  C   UNL A   1      45.035  31.019  30.330  1.00  0.00     0.049 A 
ATOM     54  C   UNL A   1      39.312  31.539  31.504  1.00  0.00     0.074 A 
ATOM     55  C   UNL A   1      45.600  29.949  30.998  1.00  0.00     0.029 A 
ATOM     56  N   UNL A   1      44.154  31.593  31.217  1.00  0.00    -0.354 N 
ATOM     57  N   UNL A   1      40.008  31.081  32.507  1.00  0.00    -0.248 NA
ATOM     58  C   UNL A   1      39.966  32.566  30.707  1.00  0.00     0.031 C 
ATOM     59  C   UNL A   1      44.693  29.654  32.059  1.00  0.00     0.029 A 
ATOM     60  C   UNL A   1      43.673  30.607  32.040  1.00  0.00     0.049 A 
ATOM     61  H   UNL A   1      43.912  32.546  31.255  1.00  0.00     0.167 HD
ATOM     62  C   UNL A   1      41.320  31.411  32.202  1.00  0.00     0.074 A 
ATOM     63  C   UNL A   1      41.224  32.395  31.123  1.00  0.00     0.031 C 
ATOM     64  C   UNL A   1      42.356  30.633  32.636  1.00  0.00     0.037 A 
BRANCH  51  65
ATOM     65  C   UNL A   1      45.073  32.832  28.499  1.00  0.00     0.057 A 
ATOM     66  C   UNL A   1      43.921  33.621  28.332  1.00  0.00     0.134 A 
ATOM     67  C   UNL A   1      46.253  33.374  27.952  1.00  0.00     0.134 A 
ATOM     68  F   UNL A   1      42.733  33.214  28.807  1.00  0.00    -0.206 F 
ATOM     69  C   UNL A   1      43.925  34.810  27.597  1.00  0.00     0.040 A 
ATOM     70  C   UNL A   1      46.280  34.587  27.260  1.00  0.00     0.040 A 
ATOM     71  F   UNL A   1      47.421  32.722  27.959  1.00  0.00    -0.206 F 
ATOM     72  C   UNL A   1      45.107  35.292  27.048  1.00  0.00     0.006 A 
ENDBRANCH  51  65
BRANCH  52  73
ATOM     73  C   UNL A   1      36.847  31.391  30.723  1.00  0.00     0.057 A 
ATOM     74  C   UNL A   1      36.023  31.613  31.839  1.00  0.00     0.134 A 
ATOM     75  C   UNL A   1      36.463  32.041  29.538  1.00  0.00     0.134 A 
ATOM     76  F   UNL A   1      36.324  31.067  33.026  1.00  0.00    -0.206 F 
ATOM     77  C   UNL A   1      34.908  32.462  31.789  1.00  0.00     0.040 A 
ATOM     78  C   UNL A   1      35.352  32.890  29.475  1.00  0.00     0.040 A 
ATOM     79  F   UNL A   1      37.211  31.950  28.429  1.00  0.00    -0.206 F 
ATOM     80  C   UNL A   1      34.578  33.117  30.607  1.00  0.00     0.006 A 
ENDBRANCH  52  73
BRANCH  64  81
ATOM     81  C   UNL A   1      42.059  29.580  33.672  1.00  0.00     0.057 A 
ATOM     82  C   UNL A   1      41.742  28.242  33.385  1.00  0.00     0.134 A 
ATOM     83  C   UNL A   1      42.240  29.906  35.020  1.00  0.00     0.134 A 
ATOM     84  F   UNL A   1      41.641  27.806  32.123  1.00  0.00    -0.206 F 
ATOM     85  C   UNL A   1      41.571  27.290  34.395  1.00  0.00     0.040 A 
ATOM     86  C   UNL A   1      42.107  28.958  36.036  1.00  0.00     0.040 A 
ATOM     87  F   UNL A   1      42.596  31.152  35.370  1.00  0.00    -0.206 F 
ATOM     88  C   UNL A   1      41.759  27.646  35.726  1.00  0.00     0.006 A 
ENDBRANCH  64  81
ENDBRANCH  38  39
ENDBRANCH  30  33
ENDBRANCH  28  29
ENDBRANCH  27  28
ENDBRANCH  26  27
ENDBRANCH   3  26
TORSDOF 17
ENDMDL
