MODEL 1
REMARK VINA RESULT:     -10.8      0.000      0.000
REMARK SMILES C[C@@H](NC(=O)NCCC(=O)NC1CC1)C(=O)NCCCNC(=O)c1ccc(-c2c3nc(c(-c4c(F)cccc4F)c4ccc([nH]4)c(-c4c(F)cccc4F)c4nc(c(-c5c(F)cccc5F)c5ccc2[nH]5)C=C4)C=C3)cc1
REMARK SMILES IDX 15 1 16 2 17 3 2 5 1 6 3 7 4 8 5 10 6 11 7 13 8 14 9 15
REMARK SMILES IDX 10 16 11 17 12 19 13 20 14 21 18 22 19 23 20 24 21 25 22 26
REMARK SMILES IDX 23 28 24 29 25 30 77 31 26 32 76 33 27 34 28 35 29 36 70 37
REMARK SMILES IDX 30 38 75 39 69 40 71 41 31 42 74 43 68 44 67 45 32 47 58 48
REMARK SMILES IDX 41 49 57 50 42 51 45 52 56 53 72 54 43 55 44 56 55 58 73 59
REMARK SMILES IDX 46 60 33 61 34 62 39 63 35 64 36 65 38 66 40 67 37 68 59 69
REMARK SMILES IDX 60 70 65 71 61 72 62 73 64 74 66 75 63 76 47 77 48 78 53 79
REMARK SMILES IDX 49 80 50 81 52 82 54 83 51 84
REMARK H PARENT 17 4 3 9 6 12 11 18 21 27 71 46 45 57
REMARK Flexibility Score: inf
ROOT
ATOM      1  C   UNL A   1      36.099  23.197  25.644  1.00  0.00     0.242 C 
ATOM      2  O   UNL A   1      36.580  24.286  25.973  1.00  0.00    -0.273 OA
ATOM      3  N   UNL A   1      36.952  22.140  25.573  1.00  0.00    -0.354 N 
ATOM      4  H   UNL A   1      37.893  22.344  25.777  1.00  0.00     0.163 HD
ENDROOT
BRANCH   1   5
ATOM      5  C   UNL A   1      34.638  23.103  25.171  1.00  0.00     0.170 C 
ATOM      6  C   UNL A   1      33.861  24.133  26.002  1.00  0.00     0.041 C 
BRANCH   5   7
ATOM      7  N   UNL A   1      34.368  23.343  23.758  1.00  0.00    -0.327 N 
ATOM      8  C   UNL A   1      33.511  22.839  22.873  1.00  0.00     0.315 C 
ATOM      9  H   UNL A   1      34.953  24.035  23.372  1.00  0.00     0.166 HD
ATOM     10  O   UNL A   1      33.516  23.318  21.739  1.00  0.00    -0.249 OA
ATOM     11  N   UNL A   1      32.726  21.788  23.096  1.00  0.00    -0.338 N 
ATOM     12  H   UNL A   1      32.328  21.447  22.262  1.00  0.00     0.165 HD
BRANCH  11  13
ATOM     13  C   UNL A   1      32.304  21.012  24.249  1.00  0.00     0.127 C 
BRANCH  13  14
ATOM     14  C   UNL A   1      33.076  19.702  24.374  1.00  0.00     0.121 C 
BRANCH  14  15
ATOM     15  C   UNL A   1      32.561  18.618  23.450  1.00  0.00     0.221 C 
ATOM     16  O   UNL A   1      32.154  18.892  22.319  1.00  0.00    -0.275 OA
ATOM     17  N   UNL A   1      32.534  17.315  23.870  1.00  0.00    -0.353 N 
ATOM     18  H   UNL A   1      32.284  16.657  23.182  1.00  0.00     0.163 HD
BRANCH  17  19
ATOM     19  C   UNL A   1      32.817  16.772  25.159  1.00  0.00     0.082 C 
ATOM     20  C   UNL A   1      32.560  15.299  25.375  1.00  0.00     0.027 C 
ATOM     21  C   UNL A   1      33.961  15.829  25.399  1.00  0.00     0.027 C 
ENDBRANCH  17  19
ENDBRANCH  14  15
ENDBRANCH  13  14
ENDBRANCH  11  13
ENDBRANCH   5   7
ENDBRANCH   1   5
BRANCH   3  22
ATOM     22  C   UNL A   1      36.674  20.753  25.241  1.00  0.00     0.117 C 
BRANCH  22  23
ATOM     23  C   UNL A   1      37.932  20.017  24.823  1.00  0.00     0.042 C 
BRANCH  23  24
ATOM     24  C   UNL A   1      39.103  20.302  25.751  1.00  0.00     0.118 C 
BRANCH  24  25
ATOM     25  N   UNL A   1      40.029  19.182  25.865  1.00  0.00    -0.352 N 
ATOM     26  C   UNL A   1      41.382  19.211  26.117  1.00  0.00     0.251 C 
ATOM     27  H   UNL A   1      39.635  18.287  25.746  1.00  0.00     0.163 HD
ATOM     28  O   UNL A   1      42.057  18.189  26.052  1.00  0.00    -0.269 OA
BRANCH  26  29
ATOM     29  C   UNL A   1      42.020  20.509  26.421  1.00  0.00     0.039 A 
ATOM     30  C   UNL A   1      42.285  21.396  25.377  1.00  0.00     0.014 A 
ATOM     31  C   UNL A   1      42.267  20.877  27.745  1.00  0.00     0.014 A 
ATOM     32  C   UNL A   1      42.712  22.693  25.670  1.00  0.00     0.010 A 
ATOM     33  C   UNL A   1      42.593  22.197  28.039  1.00  0.00     0.010 A 
ATOM     34  C   UNL A   1      42.820  23.119  27.006  1.00  0.00    -0.014 A 
BRANCH  34  35
ATOM     35  C   UNL A   1      43.174  24.521  27.344  1.00  0.00     0.031 A 
ATOM     36  C   UNL A   1      44.611  24.964  27.291  1.00  0.00     0.074 A 
ATOM     37  C   UNL A   1      42.220  25.373  27.768  1.00  0.00     0.049 A 
ATOM     38  N   UNL A   1      45.134  26.118  27.621  1.00  0.00    -0.248 NA
ATOM     39  C   UNL A   1      45.596  23.967  26.842  1.00  0.00     0.031 C 
ATOM     40  C   UNL A   1      40.800  25.052  27.925  1.00  0.00     0.029 A 
ATOM     41  N   UNL A   1      42.305  26.688  28.155  1.00  0.00    -0.354 N 
ATOM     42  C   UNL A   1      46.503  25.976  27.438  1.00  0.00     0.074 A 
ATOM     43  C   UNL A   1      46.738  24.610  27.031  1.00  0.00     0.031 C 
ATOM     44  C   UNL A   1      40.144  26.145  28.344  1.00  0.00     0.029 A 
ATOM     45  C   UNL A   1      41.099  27.235  28.522  1.00  0.00     0.049 A 
ATOM     46  H   UNL A   1      43.151  27.192  28.170  1.00  0.00     0.167 HD
ATOM     47  C   UNL A   1      47.477  26.908  27.570  1.00  0.00     0.037 A 
ATOM     48  C   UNL A   1      40.798  28.475  28.953  1.00  0.00     0.037 A 
ATOM     49  C   UNL A   1      47.239  28.278  27.937  1.00  0.00     0.049 A 
ATOM     50  C   UNL A   1      41.894  29.496  29.079  1.00  0.00     0.074 A 
ATOM     51  C   UNL A   1      48.148  29.317  28.025  1.00  0.00     0.029 A 
ATOM     52  N   UNL A   1      46.000  28.798  28.276  1.00  0.00    -0.354 N 
ATOM     53  N   UNL A   1      43.175  29.367  28.831  1.00  0.00    -0.248 NA
ATOM     54  C   UNL A   1      41.502  30.835  29.540  1.00  0.00     0.031 C 
ATOM     55  C   UNL A   1      47.464  30.459  28.454  1.00  0.00     0.029 A 
ATOM     56  C   UNL A   1      46.123  30.141  28.593  1.00  0.00     0.049 A 
ATOM     57  H   UNL A   1      45.157  28.290  28.288  1.00  0.00     0.167 HD
ATOM     58  C   UNL A   1      43.738  30.612  29.082  1.00  0.00     0.074 A 
ATOM     59  C   UNL A   1      42.656  31.486  29.486  1.00  0.00     0.031 C 
ATOM     60  C   UNL A   1      45.033  30.996  28.988  1.00  0.00     0.037 A 
BRANCH  47  61
ATOM     61  C   UNL A   1      48.887  26.473  27.299  1.00  0.00     0.057 A 
ATOM     62  C   UNL A   1      49.446  26.540  26.016  1.00  0.00     0.134 A 
ATOM     63  C   UNL A   1      49.701  26.000  28.336  1.00  0.00     0.134 A 
ATOM     64  F   UNL A   1      48.713  26.969  24.977  1.00  0.00    -0.206 F 
ATOM     65  C   UNL A   1      50.755  26.125  25.768  1.00  0.00     0.040 A 
ATOM     66  C   UNL A   1      51.021  25.608  28.105  1.00  0.00     0.040 A 
ATOM     67  F   UNL A   1      49.230  25.914  29.588  1.00  0.00    -0.206 F 
ATOM     68  C   UNL A   1      51.549  25.663  26.815  1.00  0.00     0.006 A 
ENDBRANCH  47  61
BRANCH  48  69
ATOM     69  C   UNL A   1      39.393  28.832  29.273  1.00  0.00     0.057 A 
ATOM     70  C   UNL A   1      38.876  28.637  30.560  1.00  0.00     0.134 A 
ATOM     71  C   UNL A   1      38.530  29.361  28.306  1.00  0.00     0.134 A 
ATOM     72  F   UNL A   1      39.648  28.116  31.525  1.00  0.00    -0.206 F 
ATOM     73  C   UNL A   1      37.548  28.938  30.870  1.00  0.00     0.040 A 
ATOM     74  C   UNL A   1      37.206  29.687  28.608  1.00  0.00     0.040 A 
ATOM     75  F   UNL A   1      38.966  29.577  27.057  1.00  0.00    -0.206 F 
ATOM     76  C   UNL A   1      36.710  29.469  29.891  1.00  0.00     0.006 A 
ENDBRANCH  48  69
BRANCH  60  77
ATOM     77  C   UNL A   1      45.348  32.429  29.302  1.00  0.00     0.057 A 
ATOM     78  C   UNL A   1      45.707  32.839  30.592  1.00  0.00     0.134 A 
ATOM     79  C   UNL A   1      45.334  33.400  28.293  1.00  0.00     0.134 A 
ATOM     80  F   UNL A   1      45.725  31.960  31.605  1.00  0.00    -0.206 F 
ATOM     81  C   UNL A   1      46.019  34.170  30.872  1.00  0.00     0.040 A 
ATOM     82  C   UNL A   1      45.670  34.729  28.555  1.00  0.00     0.040 A 
ATOM     83  F   UNL A   1      45.009  33.070  27.034  1.00  0.00    -0.206 F 
ATOM     84  C   UNL A   1      46.009  35.117  29.849  1.00  0.00     0.006 A 
ENDBRANCH  60  77
ENDBRANCH  34  35
ENDBRANCH  26  29
ENDBRANCH  24  25
ENDBRANCH  23  24
ENDBRANCH  22  23
ENDBRANCH   3  22
TORSDOF 15
ENDMDL
MODEL 2
REMARK VINA RESULT:     -10.7      1.965      3.674
REMARK SMILES C[C@@H](NC(=O)NCCC(=O)NC1CC1)C(=O)NCCCNC(=O)c1ccc(-c2c3nc(c(-c4c(F)cccc4F)c4ccc([nH]4)c(-c4c(F)cccc4F)c4nc(c(-c5c(F)cccc5F)c5ccc2[nH]5)C=C4)C=C3)cc1
REMARK SMILES IDX 15 1 16 2 17 3 2 5 1 6 3 7 4 8 5 10 6 11 7 13 8 14 9 15
REMARK SMILES IDX 10 16 11 17 12 19 13 20 14 21 18 22 19 23 20 24 21 25 22 26
REMARK SMILES IDX 23 28 24 29 25 30 77 31 26 32 76 33 27 34 28 35 29 36 70 37
REMARK SMILES IDX 30 38 75 39 69 40 71 41 31 42 74 43 68 44 67 45 32 47 58 48
REMARK SMILES IDX 41 49 57 50 42 51 45 52 56 53 72 54 43 55 44 56 55 58 73 59
REMARK SMILES IDX 46 60 33 61 34 62 39 63 35 64 36 65 38 66 40 67 37 68 59 69
REMARK SMILES IDX 60 70 65 71 61 72 62 73 64 74 66 75 63 76 47 77 48 78 53 79
REMARK SMILES IDX 49 80 50 81 52 82 54 83 51 84
REMARK H PARENT 17 4 3 9 6 12 11 18 21 27 71 46 45 57
REMARK Flexibility Score: inf
ROOT
ATOM      1  C   UNL A   1      33.988  20.316  25.056  1.00  0.00     0.242 C 
ATOM      2  O   UNL A   1      33.239  19.337  25.136  1.00  0.00    -0.273 OA
ATOM      3  N   UNL A   1      35.308  20.107  25.309  1.00  0.00    -0.354 N 
ATOM      4  H   UNL A   1      35.550  19.184  25.553  1.00  0.00     0.163 HD
ENDROOT
BRANCH   1   5
ATOM      5  C   UNL A   1      33.408  21.725  24.851  1.00  0.00     0.170 C 
ATOM      6  C   UNL A   1      32.604  21.663  23.546  1.00  0.00     0.041 C 
BRANCH   5   7
ATOM      7  N   UNL A   1      32.550  22.262  25.902  1.00  0.00    -0.327 N 
ATOM      8  C   UNL A   1      32.448  23.441  26.511  1.00  0.00     0.315 C 
ATOM      9  H   UNL A   1      31.900  21.602  26.236  1.00  0.00     0.166 HD
ATOM     10  O   UNL A   1      31.552  23.575  27.346  1.00  0.00    -0.249 OA
ATOM     11  N   UNL A   1      33.304  24.448  26.358  1.00  0.00    -0.338 N 
ATOM     12  H   UNL A   1      33.175  25.144  27.042  1.00  0.00     0.165 HD
BRANCH  11  13
ATOM     13  C   UNL A   1      34.382  24.786  25.445  1.00  0.00     0.127 C 
BRANCH  13  14
ATOM     14  C   UNL A   1      34.003  25.928  24.507  1.00  0.00     0.121 C 
BRANCH  14  15
ATOM     15  C   UNL A   1      33.246  25.463  23.280  1.00  0.00     0.221 C 
ATOM     16  O   UNL A   1      33.810  24.818  22.395  1.00  0.00    -0.275 OA
ATOM     17  N   UNL A   1      31.918  25.767  23.139  1.00  0.00    -0.353 N 
ATOM     18  H   UNL A   1      31.470  25.345  22.370  1.00  0.00     0.163 HD
BRANCH  17  19
ATOM     19  C   UNL A   1      31.088  26.603  23.945  1.00  0.00     0.082 C 
ATOM     20  C   UNL A   1      29.591  26.450  23.810  1.00  0.00     0.027 C 
ATOM     21  C   UNL A   1      30.275  26.065  25.086  1.00  0.00     0.027 C 
ENDBRANCH  17  19
ENDBRANCH  14  15
ENDBRANCH  13  14
ENDBRANCH  11  13
ENDBRANCH   5   7
ENDBRANCH   1   5
BRANCH   3  22
ATOM     22  C   UNL A   1      36.414  21.048  25.269  1.00  0.00     0.117 C 
BRANCH  22  23
ATOM     23  C   UNL A   1      37.694  20.387  24.795  1.00  0.00     0.042 C 
BRANCH  23  24
ATOM     24  C   UNL A   1      38.845  20.593  25.769  1.00  0.00     0.118 C 
BRANCH  24  25
ATOM     25  N   UNL A   1      39.819  19.510  25.741  1.00  0.00    -0.352 N 
ATOM     26  C   UNL A   1      41.158  19.554  26.056  1.00  0.00     0.251 C 
ATOM     27  H   UNL A   1      39.474  18.631  25.461  1.00  0.00     0.163 HD
ATOM     28  O   UNL A   1      41.884  18.586  25.858  1.00  0.00    -0.269 OA
BRANCH  26  29
ATOM     29  C   UNL A   1      41.720  20.809  26.597  1.00  0.00     0.039 A 
ATOM     30  C   UNL A   1      42.233  21.759  25.712  1.00  0.00     0.014 A 
ATOM     31  C   UNL A   1      41.651  21.079  27.965  1.00  0.00     0.014 A 
ATOM     32  C   UNL A   1      42.593  23.020  26.192  1.00  0.00     0.010 A 
ATOM     33  C   UNL A   1      41.912  22.366  28.423  1.00  0.00     0.010 A 
ATOM     34  C   UNL A   1      42.386  23.350  27.543  1.00  0.00    -0.014 A 
BRANCH  34  35
ATOM     35  C   UNL A   1      42.665  24.715  28.057  1.00  0.00     0.031 A 
ATOM     36  C   UNL A   1      44.063  25.090  28.467  1.00  0.00     0.074 A 
ATOM     37  C   UNL A   1      41.655  25.592  28.225  1.00  0.00     0.049 A 
ATOM     38  N   UNL A   1      44.497  26.200  29.008  1.00  0.00    -0.248 NA
ATOM     39  C   UNL A   1      45.106  24.070  28.276  1.00  0.00     0.031 C 
ATOM     40  C   UNL A   1      40.245  25.332  27.926  1.00  0.00     0.029 A 
ATOM     41  N   UNL A   1      41.659  26.881  28.699  1.00  0.00    -0.354 N 
ATOM     42  C   UNL A   1      45.852  26.001  29.239  1.00  0.00     0.074 A 
ATOM     43  C   UNL A   1      46.157  24.646  28.839  1.00  0.00     0.031 C 
ATOM     44  C   UNL A   1      39.527  26.435  28.194  1.00  0.00     0.029 A 
ATOM     45  C   UNL A   1      40.417  27.467  28.717  1.00  0.00     0.049 A 
ATOM     46  H   UNL A   1      42.476  27.341  28.998  1.00  0.00     0.167 HD
ATOM     47  C   UNL A   1      46.769  26.877  29.714  1.00  0.00     0.037 A 
ATOM     48  C   UNL A   1      40.038  28.697  29.112  1.00  0.00     0.037 A 
ATOM     49  C   UNL A   1      46.474  28.237  30.075  1.00  0.00     0.049 A 
ATOM     50  C   UNL A   1      41.076  29.657  29.625  1.00  0.00     0.074 A 
ATOM     51  C   UNL A   1      47.346  29.225  30.496  1.00  0.00     0.029 A 
ATOM     52  N   UNL A   1      45.208  28.800  30.055  1.00  0.00    -0.354 N 
ATOM     53  N   UNL A   1      42.367  29.478  29.767  1.00  0.00    -0.248 NA
ATOM     54  C   UNL A   1      40.606  30.990  30.027  1.00  0.00     0.031 C 
ATOM     55  C   UNL A   1      46.601  30.377  30.768  1.00  0.00     0.029 A 
ATOM     56  C   UNL A   1      45.271  30.119  30.476  1.00  0.00     0.049 A 
ATOM     57  H   UNL A   1      44.385  28.334  29.783  1.00  0.00     0.167 HD
ATOM     58  C   UNL A   1      42.867  30.680  30.251  1.00  0.00     0.074 A 
ATOM     59  C   UNL A   1      41.741  31.586  30.363  1.00  0.00     0.031 C 
ATOM     60  C   UNL A   1      44.141  31.006  30.576  1.00  0.00     0.037 A 
BRANCH  47  61
ATOM     61  C   UNL A   1      48.180  26.388  29.855  1.00  0.00     0.057 A 
ATOM     62  C   UNL A   1      49.114  26.521  28.820  1.00  0.00     0.134 A 
ATOM     63  C   UNL A   1      48.616  25.793  31.046  1.00  0.00     0.134 A 
ATOM     64  F   UNL A   1      48.756  27.068  27.648  1.00  0.00    -0.206 F 
ATOM     65  C   UNL A   1      50.423  26.056  28.952  1.00  0.00     0.040 A 
ATOM     66  C   UNL A   1      49.930  25.349  31.200  1.00  0.00     0.040 A 
ATOM     67  F   UNL A   1      47.774  25.638  32.078  1.00  0.00    -0.206 F 
ATOM     68  C   UNL A   1      50.836  25.473  30.148  1.00  0.00     0.006 A 
ENDBRANCH  47  61
BRANCH  48  69
ATOM     69  C   UNL A   1      38.615  29.106  29.015  1.00  0.00     0.057 A 
ATOM     70  C   UNL A   1      38.083  29.586  27.811  1.00  0.00     0.134 A 
ATOM     71  C   UNL A   1      37.754  29.042  30.118  1.00  0.00     0.134 A 
ATOM     72  F   UNL A   1      38.864  29.688  26.725  1.00  0.00    -0.206 F 
ATOM     73  C   UNL A   1      36.756  30.004  27.710  1.00  0.00     0.040 A 
ATOM     74  C   UNL A   1      36.418  29.436  30.026  1.00  0.00     0.040 A 
ATOM     75  F   UNL A   1      38.200  28.587  31.298  1.00  0.00    -0.206 F 
ATOM     76  C   UNL A   1      35.917  29.926  28.821  1.00  0.00     0.006 A 
ENDBRANCH  48  69
BRANCH  60  77
ATOM     77  C   UNL A   1      44.391  32.404  31.057  1.00  0.00     0.057 A 
ATOM     78  C   UNL A   1      44.656  33.454  30.169  1.00  0.00     0.134 A 
ATOM     79  C   UNL A   1      44.322  32.711  32.422  1.00  0.00     0.134 A 
ATOM     80  F   UNL A   1      44.748  33.222  28.851  1.00  0.00    -0.206 F 
ATOM     81  C   UNL A   1      44.866  34.756  30.624  1.00  0.00     0.040 A 
ATOM     82  C   UNL A   1      44.505  34.014  32.886  1.00  0.00     0.040 A 
ATOM     83  F   UNL A   1      44.062  31.752  33.325  1.00  0.00    -0.206 F 
ATOM     84  C   UNL A   1      44.783  35.040  31.986  1.00  0.00     0.006 A 
ENDBRANCH  60  77
ENDBRANCH  34  35
ENDBRANCH  26  29
ENDBRANCH  24  25
ENDBRANCH  23  24
ENDBRANCH  22  23
ENDBRANCH   3  22
TORSDOF 15
ENDMDL
MODEL 3
REMARK VINA RESULT:     -10.6      6.032     10.859
REMARK SMILES C[C@@H](NC(=O)NCCC(=O)NC1CC1)C(=O)NCCCNC(=O)c1ccc(-c2c3nc(c(-c4c(F)cccc4F)c4ccc([nH]4)c(-c4c(F)cccc4F)c4nc(c(-c5c(F)cccc5F)c5ccc2[nH]5)C=C4)C=C3)cc1
REMARK SMILES IDX 15 1 16 2 17 3 2 5 1 6 3 7 4 8 5 10 6 11 7 13 8 14 9 15
REMARK SMILES IDX 10 16 11 17 12 19 13 20 14 21 18 22 19 23 20 24 21 25 22 26
REMARK SMILES IDX 23 28 24 29 25 30 77 31 26 32 76 33 27 34 28 35 29 36 70 37
REMARK SMILES IDX 30 38 75 39 69 40 71 41 31 42 74 43 68 44 67 45 32 47 58 48
REMARK SMILES IDX 41 49 57 50 42 51 45 52 56 53 72 54 43 55 44 56 55 58 73 59
REMARK SMILES IDX 46 60 33 61 34 62 39 63 35 64 36 65 38 66 40 67 37 68 59 69
REMARK SMILES IDX 60 70 65 71 61 72 62 73 64 74 66 75 63 76 47 77 48 78 53 79
REMARK SMILES IDX 49 80 50 81 52 82 54 83 51 84
REMARK H PARENT 17 4 3 9 6 12 11 18 21 27 71 46 45 57
REMARK Flexibility Score: inf
ROOT
ATOM      1  C   UNL A   1      33.565  28.894  26.485  1.00  0.00     0.242 C 
ATOM      2  O   UNL A   1      34.725  28.664  26.843  1.00  0.00    -0.273 OA
ATOM      3  N   UNL A   1      32.944  29.964  27.050  1.00  0.00    -0.354 N 
ATOM      4  H   UNL A   1      33.476  30.458  27.715  1.00  0.00     0.163 HD
ENDROOT
BRANCH   1   5
ATOM      5  C   UNL A   1      32.819  27.900  25.578  1.00  0.00     0.170 C 
ATOM      6  C   UNL A   1      33.897  26.986  24.983  1.00  0.00     0.041 C 
BRANCH   5   7
ATOM      7  N   UNL A   1      31.788  27.069  26.189  1.00  0.00    -0.327 N 
ATOM      8  C   UNL A   1      30.658  26.515  25.755  1.00  0.00     0.315 C 
ATOM      9  H   UNL A   1      31.969  26.875  27.137  1.00  0.00     0.166 HD
ATOM     10  O   UNL A   1      30.030  25.809  26.546  1.00  0.00    -0.249 OA
ATOM     11  N   UNL A   1      30.107  26.752  24.568  1.00  0.00    -0.338 N 
ATOM     12  H   UNL A   1      29.183  26.417  24.521  1.00  0.00     0.165 HD
BRANCH  11  13
ATOM     13  C   UNL A   1      30.516  27.378  23.322  1.00  0.00     0.127 C 
BRANCH  13  14
ATOM     14  C   UNL A   1      30.027  28.819  23.215  1.00  0.00     0.121 C 
BRANCH  14  15
ATOM     15  C   UNL A   1      28.551  28.922  22.889  1.00  0.00     0.221 C 
ATOM     16  O   UNL A   1      27.770  28.022  23.201  1.00  0.00    -0.275 OA
ATOM     17  N   UNL A   1      28.069  30.023  22.232  1.00  0.00    -0.353 N 
ATOM     18  H   UNL A   1      27.090  30.067  22.147  1.00  0.00     0.163 HD
BRANCH  17  19
ATOM     19  C   UNL A   1      28.781  31.117  21.654  1.00  0.00     0.082 C 
ATOM     20  C   UNL A   1      28.041  32.003  20.680  1.00  0.00     0.027 C 
ATOM     21  C   UNL A   1      28.479  32.546  22.006  1.00  0.00     0.027 C 
ENDBRANCH  17  19
ENDBRANCH  14  15
ENDBRANCH  13  14
ENDBRANCH  11  13
ENDBRANCH   5   7
ENDBRANCH   1   5
BRANCH   3  22
ATOM     22  C   UNL A   1      31.609  30.485  26.812  1.00  0.00     0.117 C 
BRANCH  22  23
ATOM     23  C   UNL A   1      31.631  31.978  26.546  1.00  0.00     0.042 C 
BRANCH  23  24
ATOM     24  C   UNL A   1      32.700  32.693  27.359  1.00  0.00     0.118 C 
BRANCH  24  25
ATOM     25  N   UNL A   1      32.362  34.080  27.655  1.00  0.00    -0.352 N 
ATOM     26  C   UNL A   1      32.962  34.935  28.551  1.00  0.00     0.251 C 
ATOM     27  H   UNL A   1      31.606  34.453  27.147  1.00  0.00     0.163 HD
ATOM     28  O   UNL A   1      32.481  36.038  28.787  1.00  0.00    -0.269 OA
BRANCH  26  29
ATOM     29  C   UNL A   1      34.174  34.482  29.263  1.00  0.00     0.039 A 
ATOM     30  C   UNL A   1      34.037  33.829  30.489  1.00  0.00     0.014 A 
ATOM     31  C   UNL A   1      35.432  34.623  28.671  1.00  0.00     0.014 A 
ATOM     32  C   UNL A   1      35.154  33.234  31.078  1.00  0.00     0.010 A 
ATOM     33  C   UNL A   1      36.520  33.943  29.207  1.00  0.00     0.010 A 
ATOM     34  C   UNL A   1      36.394  33.242  30.416  1.00  0.00    -0.014 A 
BRANCH  34  35
ATOM     35  C   UNL A   1      37.573  32.530  30.972  1.00  0.00     0.031 A 
ATOM     36  C   UNL A   1      38.221  33.026  32.235  1.00  0.00     0.074 A 
ATOM     37  C   UNL A   1      38.105  31.485  30.306  1.00  0.00     0.049 A 
ATOM     38  N   UNL A   1      39.299  32.592  32.838  1.00  0.00    -0.248 NA
ATOM     39  C   UNL A   1      37.595  34.186  32.889  1.00  0.00     0.031 C 
ATOM     40  C   UNL A   1      37.611  30.943  29.038  1.00  0.00     0.029 A 
ATOM     41  N   UNL A   1      39.189  30.695  30.602  1.00  0.00    -0.354 N 
ATOM     42  C   UNL A   1      39.488  33.437  33.924  1.00  0.00     0.074 A 
ATOM     43  C   UNL A   1      38.454  34.445  33.863  1.00  0.00     0.031 C 
ATOM     44  C   UNL A   1      38.369  29.894  28.682  1.00  0.00     0.029 A 
ATOM     45  C   UNL A   1      39.424  29.709  29.674  1.00  0.00     0.049 A 
ATOM     46  H   UNL A   1      39.746  30.824  31.403  1.00  0.00     0.167 HD
ATOM     47  C   UNL A   1      40.422  33.364  34.902  1.00  0.00     0.037 A 
ATOM     48  C   UNL A   1      40.383  28.765  29.628  1.00  0.00     0.037 A 
ATOM     49  C   UNL A   1      41.426  32.339  34.985  1.00  0.00     0.049 A 
ATOM     50  C   UNL A   1      41.401  28.696  30.732  1.00  0.00     0.074 A 
ATOM     51  C   UNL A   1      42.370  32.135  35.976  1.00  0.00     0.029 A 
ATOM     52  N   UNL A   1      41.614  31.344  34.039  1.00  0.00    -0.354 N 
ATOM     53  N   UNL A   1      41.522  29.457  31.793  1.00  0.00    -0.248 NA
ATOM     54  C   UNL A   1      42.413  27.635  30.636  1.00  0.00     0.031 C 
ATOM     55  C   UNL A   1      43.155  31.037  35.609  1.00  0.00     0.029 A 
ATOM     56  C   UNL A   1      42.674  30.532  34.412  1.00  0.00     0.049 A 
ATOM     57  H   UNL A   1      41.076  31.229  33.223  1.00  0.00     0.167 HD
ATOM     58  C   UNL A   1      42.604  28.954  32.502  1.00  0.00     0.074 A 
ATOM     59  C   UNL A   1      43.096  27.812  31.758  1.00  0.00     0.031 C 
ATOM     60  C   UNL A   1      43.145  29.397  33.662  1.00  0.00     0.037 A 
BRANCH  47  61
ATOM     61  C   UNL A   1      40.385  34.419  35.968  1.00  0.00     0.057 A 
ATOM     62  C   UNL A   1      39.605  34.275  37.123  1.00  0.00     0.134 A 
ATOM     63  C   UNL A   1      41.152  35.585  35.848  1.00  0.00     0.134 A 
ATOM     64  F   UNL A   1      38.835  33.189  37.291  1.00  0.00    -0.206 F 
ATOM     65  C   UNL A   1      39.567  35.264  38.107  1.00  0.00     0.040 A 
ATOM     66  C   UNL A   1      41.144  36.568  36.839  1.00  0.00     0.040 A 
ATOM     67  F   UNL A   1      41.924  35.785  34.770  1.00  0.00    -0.206 F 
ATOM     68  C   UNL A   1      40.343  36.412  37.970  1.00  0.00     0.006 A 
ENDBRANCH  47  61
BRANCH  48  69
ATOM     69  C   UNL A   1      40.412  27.787  28.512  1.00  0.00     0.057 A 
ATOM     70  C   UNL A   1      41.119  28.060  27.333  1.00  0.00     0.134 A 
ATOM     71  C   UNL A   1      39.730  26.566  28.584  1.00  0.00     0.134 A 
ATOM     72  F   UNL A   1      41.777  29.221  27.197  1.00  0.00    -0.206 F 
ATOM     73  C   UNL A   1      41.131  27.166  26.262  1.00  0.00     0.040 A 
ATOM     74  C   UNL A   1      39.752  25.652  27.529  1.00  0.00     0.040 A 
ATOM     75  F   UNL A   1      39.040  26.243  29.688  1.00  0.00    -0.206 F 
ATOM     76  C   UNL A   1      40.449  25.955  26.361  1.00  0.00     0.006 A 
ENDBRANCH  48  69
BRANCH  60  77
ATOM     77  C   UNL A   1      44.311  28.632  34.212  1.00  0.00     0.057 A 
ATOM     78  C   UNL A   1      44.137  27.509  35.031  1.00  0.00     0.134 A 
ATOM     79  C   UNL A   1      45.623  28.997  33.883  1.00  0.00     0.134 A 
ATOM     80  F   UNL A   1      42.907  27.117  35.393  1.00  0.00    -0.206 F 
ATOM     81  C   UNL A   1      45.227  26.790  35.521  1.00  0.00     0.040 A 
ATOM     82  C   UNL A   1      46.720  28.270  34.346  1.00  0.00     0.040 A 
ATOM     83  F   UNL A   1      45.858  30.057  33.094  1.00  0.00    -0.206 F 
ATOM     84  C   UNL A   1      46.523  27.166  35.172  1.00  0.00     0.006 A 
ENDBRANCH  60  77
ENDBRANCH  34  35
ENDBRANCH  26  29
ENDBRANCH  24  25
ENDBRANCH  23  24
ENDBRANCH  22  23
ENDBRANCH   3  22
TORSDOF 15
ENDMDL
