MODEL 1
REMARK VINA RESULT:     -11.8      0.000      0.000
REMARK SMILES O=Cc1ccc2c(c1)C=C(C(=O)NCCCNC(=O)c1ccc(-c3c4nc(c(-c5c(F)cccc5F)c5ccc([nH]5)c(-c5c(F)cccc5F)c5nc(c(-c6c(F)cccc6F)c6ccc3[nH]6)C=C5)C=C4)cc1)[C@H](C(F)(F)F)O2
REMARK SMILES IDX 15 1 14 2 13 3 11 4 12 5 10 7 3 8 4 9 8 10 5 11 7 12 6 13
REMARK SMILES IDX 9 14 79 15 74 16 2 17 1 18 75 19 76 20 77 21 78 22 16 23
REMARK SMILES IDX 17 24 18 25 19 27 20 28 21 29 73 30 22 31 72 32 23 33 24 34
REMARK SMILES IDX 25 35 66 36 26 37 71 38 65 39 67 40 27 41 70 42 64 43 63 44
REMARK SMILES IDX 28 46 54 47 37 48 53 49 38 50 41 51 52 52 68 53 39 54 40 55
REMARK SMILES IDX 51 57 69 58 42 59 29 60 30 61 35 62 31 63 32 64 34 65 36 66
REMARK SMILES IDX 33 67 55 68 56 69 61 70 57 71 58 72 60 73 62 74 59 75 43 76
REMARK SMILES IDX 44 77 49 78 45 79 46 80 48 81 50 82 47 83
REMARK H PARENT 13 6 17 26 67 45 41 56
REMARK Flexibility Score: inf
ROOT
ATOM      1  C   UNL A   1      33.029  27.925  26.883  1.00  0.00     0.042 C 
ENDROOT
BRANCH   1   2
ATOM      2  C   UNL A   1      31.691  27.548  26.239  1.00  0.00     0.118 C 
BRANCH   2   3
ATOM      3  N   UNL A   1      31.166  26.321  26.818  1.00  0.00    -0.352 N 
ATOM      4  C   UNL A   1      31.446  25.008  26.608  1.00  0.00     0.251 C 
ATOM      5  O   UNL A   1      30.751  24.170  27.175  1.00  0.00    -0.270 OA
ATOM      6  H   UNL A   1      30.470  26.473  27.497  1.00  0.00     0.163 HD
BRANCH   4   7
ATOM      7  C   UNL A   1      32.589  24.551  25.776  1.00  0.00     0.067 C 
ATOM      8  C   UNL A   1      37.013  22.737  25.111  1.00  0.00     0.015 A 
ATOM      9  C   UNL A   1      36.823  22.760  23.727  1.00  0.00     0.015 A 
ATOM     10  C   UNL A   1      36.011  23.195  25.969  1.00  0.00     0.023 A 
ATOM     11  C   UNL A   1      35.617  23.229  23.203  1.00  0.00     0.048 A 
ATOM     12  C   UNL A   1      34.806  23.671  25.438  1.00  0.00     0.018 A 
ATOM     13  C   UNL A   1      34.613  23.684  24.058  1.00  0.00     0.128 A 
ATOM     14  C   UNL A   1      33.726  24.093  26.316  1.00  0.00     0.025 C 
ATOM     15  O   UNL A   1      33.445  24.069  23.472  1.00  0.00    -0.475 OA
ATOM     16  C   UNL A   1      32.470  24.799  24.275  1.00  0.00     0.314 C 
BRANCH   8  17
ATOM     17  C   UNL A   1      38.267  22.209  25.684  1.00  0.00     0.260 C 
ATOM     18  O   UNL A   1      38.935  22.847  26.486  1.00  0.00    -0.298 OA
ENDBRANCH   8  17
BRANCH  16  19
ATOM     19  C   UNL A   1      31.079  24.526  23.658  1.00  0.00     0.429 C 
ATOM     20  F   UNL A   1      30.522  23.380  24.107  1.00  0.00    -0.167 F 
ATOM     21  F   UNL A   1      30.198  25.511  23.980  1.00  0.00    -0.167 F 
ATOM     22  F   UNL A   1      31.123  24.469  22.306  1.00  0.00    -0.167 F 
ENDBRANCH  16  19
ENDBRANCH   4   7
ENDBRANCH   2   3
ENDBRANCH   1   2
BRANCH   1  23
ATOM     23  C   UNL A   1      33.841  28.931  26.068  1.00  0.00     0.118 C 
BRANCH  23  24
ATOM     24  N   UNL A   1      33.769  30.266  26.635  1.00  0.00    -0.352 N 
ATOM     25  C   UNL A   1      34.544  30.862  27.597  1.00  0.00     0.251 C 
ATOM     26  H   UNL A   1      33.051  30.833  26.270  1.00  0.00     0.163 HD
ATOM     27  O   UNL A   1      34.170  31.925  28.084  1.00  0.00    -0.269 OA
BRANCH  25  28
ATOM     28  C   UNL A   1      35.813  30.252  28.061  1.00  0.00     0.039 A 
ATOM     29  C   UNL A   1      35.842  29.677  29.337  1.00  0.00     0.014 A 
ATOM     30  C   UNL A   1      36.989  30.320  27.307  1.00  0.00     0.014 A 
ATOM     31  C   UNL A   1      37.035  29.161  29.847  1.00  0.00     0.010 A 
ATOM     32  C   UNL A   1      38.167  29.748  27.792  1.00  0.00     0.010 A 
ATOM     33  C   UNL A   1      38.207  29.184  29.075  1.00  0.00    -0.014 A 
BRANCH  33  34
ATOM     34  C   UNL A   1      39.486  28.666  29.626  1.00  0.00     0.031 A 
ATOM     35  C   UNL A   1      40.090  29.288  30.856  1.00  0.00     0.074 A 
ATOM     36  C   UNL A   1      40.119  27.651  29.006  1.00  0.00     0.049 A 
ATOM     37  N   UNL A   1      41.203  28.986  31.475  1.00  0.00    -0.248 NA
ATOM     38  C   UNL A   1      39.356  30.413  31.457  1.00  0.00     0.031 C 
ATOM     39  C   UNL A   1      39.662  26.990  27.783  1.00  0.00     0.029 A 
ATOM     40  N   UNL A   1      41.284  27.000  29.323  1.00  0.00    -0.354 N 
ATOM     41  C   UNL A   1      41.313  29.892  32.523  1.00  0.00     0.074 A 
ATOM     42  C   UNL A   1      40.176  30.784  32.429  1.00  0.00     0.031 C 
ATOM     43  C   UNL A   1      40.525  26.012  27.465  1.00  0.00     0.029 A 
ATOM     44  C   UNL A   1      41.606  25.991  28.447  1.00  0.00     0.049 A 
ATOM     45  H   UNL A   1      41.838  27.233  30.103  1.00  0.00     0.167 HD
ATOM     46  C   UNL A   1      42.259  29.964  33.490  1.00  0.00     0.037 A 
ATOM     47  C   UNL A   1      42.649  25.143  28.441  1.00  0.00     0.037 A 
ATOM     48  C   UNL A   1      43.371  29.057  33.604  1.00  0.00     0.049 A 
ATOM     49  C   UNL A   1      43.668  25.218  29.543  1.00  0.00     0.074 A 
ATOM     50  C   UNL A   1      44.356  29.015  34.576  1.00  0.00     0.029 A 
ATOM     51  N   UNL A   1      43.641  28.025  32.718  1.00  0.00    -0.354 N 
ATOM     52  N   UNL A   1      43.726  26.044  30.559  1.00  0.00    -0.248 NA
ATOM     53  C   UNL A   1      44.758  24.232  29.506  1.00  0.00     0.031 C 
ATOM     54  C   UNL A   1      45.238  27.975  34.262  1.00  0.00     0.029 A 
ATOM     55  C   UNL A   1      44.781  27.346  33.115  1.00  0.00     0.049 A 
ATOM     56  H   UNL A   1      43.102  27.808  31.922  1.00  0.00     0.167 HD
ATOM     57  C   UNL A   1      44.840  25.662  31.297  1.00  0.00     0.074 A 
ATOM     58  C   UNL A   1      45.420  24.521  30.618  1.00  0.00     0.031 C 
ATOM     59  C   UNL A   1      45.338  26.206  32.433  1.00  0.00     0.037 A 
BRANCH  46  60
ATOM     60  C   UNL A   1      42.128  31.062  34.504  1.00  0.00     0.057 A 
ATOM     61  C   UNL A   1      41.400  30.887  35.689  1.00  0.00     0.134 A 
ATOM     62  C   UNL A   1      42.755  32.299  34.308  1.00  0.00     0.134 A 
ATOM     63  F   UNL A   1      40.764  29.731  35.931  1.00  0.00    -0.206 F 
ATOM     64  C   UNL A   1      41.276  31.913  36.628  1.00  0.00     0.040 A 
ATOM     65  C   UNL A   1      42.660  33.322  35.252  1.00  0.00     0.040 A 
ATOM     66  F   UNL A   1      43.473  32.530  33.198  1.00  0.00    -0.206 F 
ATOM     67  C   UNL A   1      41.913  33.133  36.413  1.00  0.00     0.006 A 
ENDBRANCH  46  60
BRANCH  47  68
ATOM     68  C   UNL A   1      42.762  24.115  27.377  1.00  0.00     0.057 A 
ATOM     69  C   UNL A   1      43.364  24.413  26.149  1.00  0.00     0.134 A 
ATOM     70  C   UNL A   1      42.272  22.817  27.559  1.00  0.00     0.134 A 
ATOM     71  F   UNL A   1      43.837  25.644  25.911  1.00  0.00    -0.206 F 
ATOM     72  C   UNL A   1      43.457  23.462  25.132  1.00  0.00     0.040 A 
ATOM     73  C   UNL A   1      42.377  21.850  26.559  1.00  0.00     0.040 A 
ATOM     74  F   UNL A   1      41.692  22.469  28.718  1.00  0.00    -0.206 F 
ATOM     75  C   UNL A   1      42.967  22.174  25.337  1.00  0.00     0.006 A 
ENDBRANCH  47  68
BRANCH  59  76
ATOM     76  C   UNL A   1      46.547  25.551  33.030  1.00  0.00     0.057 A 
ATOM     77  C   UNL A   1      46.439  24.535  33.988  1.00  0.00     0.134 A 
ATOM     78  C   UNL A   1      47.834  25.928  32.627  1.00  0.00     0.134 A 
ATOM     79  F   UNL A   1      45.234  24.139  34.425  1.00  0.00    -0.206 F 
ATOM     80  C   UNL A   1      47.570  23.935  34.543  1.00  0.00     0.040 A 
ATOM     81  C   UNL A   1      48.971  25.320  33.158  1.00  0.00     0.040 A 
ATOM     82  F   UNL A   1      48.005  26.890  31.707  1.00  0.00    -0.206 F 
ATOM     83  C   UNL A   1      48.841  24.324  34.124  1.00  0.00     0.006 A 
ENDBRANCH  59  76
ENDBRANCH  33  34
ENDBRANCH  25  28
ENDBRANCH  23  24
ENDBRANCH   1  23
TORSDOF 12
ENDMDL
MODEL 2
REMARK VINA RESULT:     -11.8      2.057      2.632
REMARK SMILES O=Cc1ccc2c(c1)C=C(C(=O)NCCCNC(=O)c1ccc(-c3c4nc(c(-c5c(F)cccc5F)c5ccc([nH]5)c(-c5c(F)cccc5F)c5nc(c(-c6c(F)cccc6F)c6ccc3[nH]6)C=C5)C=C4)cc1)[C@H](C(F)(F)F)O2
REMARK SMILES IDX 15 1 14 2 13 3 11 4 12 5 10 7 3 8 4 9 8 10 5 11 7 12 6 13
REMARK SMILES IDX 9 14 79 15 74 16 2 17 1 18 75 19 76 20 77 21 78 22 16 23
REMARK SMILES IDX 17 24 18 25 19 27 20 28 21 29 73 30 22 31 72 32 23 33 24 34
REMARK SMILES IDX 25 35 66 36 26 37 71 38 65 39 67 40 27 41 70 42 64 43 63 44
REMARK SMILES IDX 28 46 54 47 37 48 53 49 38 50 41 51 52 52 68 53 39 54 40 55
REMARK SMILES IDX 51 57 69 58 42 59 29 60 30 61 35 62 31 63 32 64 34 65 36 66
REMARK SMILES IDX 33 67 55 68 56 69 61 70 57 71 58 72 60 73 62 74 59 75 43 76
REMARK SMILES IDX 44 77 49 78 45 79 46 80 48 81 50 82 47 83
REMARK H PARENT 13 6 17 26 67 45 41 56
REMARK Flexibility Score: inf
ROOT
ATOM      1  C   UNL A   1      33.750  28.767  25.755  1.00  0.00     0.042 C 
ENDROOT
BRANCH   1   2
ATOM      2  C   UNL A   1      32.383  28.421  25.155  1.00  0.00     0.118 C 
BRANCH   2   3
ATOM      3  N   UNL A   1      31.708  27.411  25.953  1.00  0.00    -0.352 N 
ATOM      4  C   UNL A   1      31.811  26.058  26.009  1.00  0.00     0.251 C 
ATOM      5  O   UNL A   1      31.018  25.444  26.717  1.00  0.00    -0.270 OA
ATOM      6  H   UNL A   1      31.045  27.782  26.580  1.00  0.00     0.163 HD
BRANCH   4   7
ATOM      7  C   UNL A   1      32.876  25.301  25.300  1.00  0.00     0.067 C 
ATOM      8  C   UNL A   1      36.988  22.781  25.080  1.00  0.00     0.015 A 
ATOM      9  C   UNL A   1      36.804  22.586  23.709  1.00  0.00     0.015 A 
ATOM     10  C   UNL A   1      36.062  23.522  25.819  1.00  0.00     0.023 A 
ATOM     11  C   UNL A   1      35.680  23.124  23.079  1.00  0.00     0.048 A 
ATOM     12  C   UNL A   1      34.940  24.066  25.180  1.00  0.00     0.018 A 
ATOM     13  C   UNL A   1      34.753  23.863  23.814  1.00  0.00     0.128 A 
ATOM     14  C   UNL A   1      33.933  24.787  25.941  1.00  0.00     0.025 C 
ATOM     15  O   UNL A   1      33.654  24.302  23.140  1.00  0.00    -0.475 OA
ATOM     16  C   UNL A   1      32.795  25.295  23.776  1.00  0.00     0.314 C 
BRANCH   8  17
ATOM     17  C   UNL A   1      38.150  22.188  25.770  1.00  0.00     0.260 C 
ATOM     18  O   UNL A   1      38.951  22.868  26.397  1.00  0.00    -0.298 OA
ENDBRANCH   8  17
BRANCH  16  19
ATOM     19  C   UNL A   1      31.380  25.120  23.179  1.00  0.00     0.429 C 
ATOM     20  F   UNL A   1      30.631  26.241  23.270  1.00  0.00    -0.167 F 
ATOM     21  F   UNL A   1      31.441  24.829  21.853  1.00  0.00    -0.167 F 
ATOM     22  F   UNL A   1      30.698  24.111  23.770  1.00  0.00    -0.167 F 
ENDBRANCH  16  19
ENDBRANCH   4   7
ENDBRANCH   2   3
ENDBRANCH   1   2
BRANCH   1  23
ATOM     23  C   UNL A   1      33.776  28.732  27.283  1.00  0.00     0.118 C 
BRANCH  23  24
ATOM     24  N   UNL A   1      33.780  30.067  27.852  1.00  0.00    -0.352 N 
ATOM     25  C   UNL A   1      34.759  30.730  28.549  1.00  0.00     0.251 C 
ATOM     26  H   UNL A   1      32.950  30.579  27.717  1.00  0.00     0.163 HD
ATOM     27  O   UNL A   1      34.471  31.773  29.128  1.00  0.00    -0.269 OA
BRANCH  25  28
ATOM     28  C   UNL A   1      36.147  30.215  28.618  1.00  0.00     0.039 A 
ATOM     29  C   UNL A   1      36.600  29.697  29.837  1.00  0.00     0.014 A 
ATOM     30  C   UNL A   1      37.032  30.318  27.540  1.00  0.00     0.014 A 
ATOM     31  C   UNL A   1      37.924  29.273  29.971  1.00  0.00     0.010 A 
ATOM     32  C   UNL A   1      38.339  29.837  27.656  1.00  0.00     0.010 A 
ATOM     33  C   UNL A   1      38.803  29.332  28.879  1.00  0.00    -0.014 A 
BRANCH  33  34
ATOM     34  C   UNL A   1      40.221  28.912  29.025  1.00  0.00     0.031 A 
ATOM     35  C   UNL A   1      41.232  29.853  29.624  1.00  0.00     0.074 A 
ATOM     36  C   UNL A   1      40.606  27.694  28.598  1.00  0.00     0.049 A 
ATOM     37  N   UNL A   1      42.514  29.674  29.819  1.00  0.00    -0.248 NA
ATOM     38  C   UNL A   1      40.742  31.177  30.036  1.00  0.00     0.031 C 
ATOM     39  C   UNL A   1      39.734  26.706  27.961  1.00  0.00     0.029 A 
ATOM     40  N   UNL A   1      41.833  27.082  28.635  1.00  0.00    -0.354 N 
ATOM     41  C   UNL A   1      42.985  30.866  30.358  1.00  0.00     0.074 A 
ATOM     42  C   UNL A   1      41.861  31.775  30.416  1.00  0.00     0.031 C 
ATOM     43  C   UNL A   1      40.449  25.603  27.689  1.00  0.00     0.029 A 
ATOM     44  C   UNL A   1      41.832  25.813  28.109  1.00  0.00     0.049 A 
ATOM     45  H   UNL A   1      42.640  27.512  29.003  1.00  0.00     0.167 HD
ATOM     46  C   UNL A   1      44.234  31.170  30.786  1.00  0.00     0.037 A 
ATOM     47  C   UNL A   1      42.829  24.919  27.987  1.00  0.00     0.037 A 
ATOM     48  C   UNL A   1      45.346  30.255  30.760  1.00  0.00     0.049 A 
ATOM     49  C   UNL A   1      44.198  25.266  28.502  1.00  0.00     0.074 A 
ATOM     50  C   UNL A   1      46.638  30.451  31.218  1.00  0.00     0.029 A 
ATOM     51  N   UNL A   1      45.293  28.966  30.253  1.00  0.00    -0.354 N 
ATOM     52  N   UNL A   1      44.613  26.376  29.061  1.00  0.00    -0.248 NA
ATOM     53  C   UNL A   1      45.232  24.228  28.382  1.00  0.00     0.031 C 
ATOM     54  C   UNL A   1      47.374  29.289  30.962  1.00  0.00     0.029 A 
ATOM     55  C   UNL A   1      46.531  28.357  30.380  1.00  0.00     0.049 A 
ATOM     56  H   UNL A   1      44.493  28.545  29.861  1.00  0.00     0.167 HD
ATOM     57  C   UNL A   1      45.947  26.162  29.385  1.00  0.00     0.074 A 
ATOM     58  C   UNL A   1      46.267  24.812  28.971  1.00  0.00     0.031 C 
ATOM     59  C   UNL A   1      46.828  27.008  29.971  1.00  0.00     0.037 A 
BRANCH  46  60
ATOM     60  C   UNL A   1      44.461  32.552  31.325  1.00  0.00     0.057 A 
ATOM     61  C   UNL A   1      44.290  32.851  32.683  1.00  0.00     0.134 A 
ATOM     62  C   UNL A   1      44.879  33.590  30.483  1.00  0.00     0.134 A 
ATOM     63  F   UNL A   1      43.878  31.905  33.541  1.00  0.00    -0.206 F 
ATOM     64  C   UNL A   1      44.498  34.139  33.180  1.00  0.00     0.040 A 
ATOM     65  C   UNL A   1      45.116  34.876  30.973  1.00  0.00     0.040 A 
ATOM     66  F   UNL A   1      45.068  33.371  29.174  1.00  0.00    -0.206 F 
ATOM     67  C   UNL A   1      44.918  35.155  32.324  1.00  0.00     0.006 A 
ENDBRANCH  46  60
BRANCH  47  68
ATOM     68  C   UNL A   1      42.561  23.588  27.389  1.00  0.00     0.057 A 
ATOM     69  C   UNL A   1      42.215  22.494  28.191  1.00  0.00     0.134 A 
ATOM     70  C   UNL A   1      42.646  23.377  26.009  1.00  0.00     0.134 A 
ATOM     71  F   UNL A   1      42.134  22.633  29.522  1.00  0.00    -0.206 F 
ATOM     72  C   UNL A   1      41.982  21.232  27.644  1.00  0.00     0.040 A 
ATOM     73  C   UNL A   1      42.395  22.125  25.445  1.00  0.00     0.040 A 
ATOM     74  F   UNL A   1      42.965  24.388  25.187  1.00  0.00    -0.206 F 
ATOM     75  C   UNL A   1      42.067  21.046  26.266  1.00  0.00     0.006 A 
ENDBRANCH  47  68
BRANCH  59  76
ATOM     76  C   UNL A   1      48.207  26.483  30.233  1.00  0.00     0.057 A 
ATOM     77  C   UNL A   1      48.532  25.818  31.423  1.00  0.00     0.134 A 
ATOM     78  C   UNL A   1      49.218  26.625  29.272  1.00  0.00     0.134 A 
ATOM     79  F   UNL A   1      47.612  25.662  32.386  1.00  0.00    -0.206 F 
ATOM     80  C   UNL A   1      49.821  25.338  31.659  1.00  0.00     0.040 A 
ATOM     81  C   UNL A   1      50.503  26.129  29.489  1.00  0.00     0.040 A 
ATOM     82  F   UNL A   1      48.969  27.245  28.109  1.00  0.00    -0.206 F 
ATOM     83  C   UNL A   1      50.810  25.489  30.688  1.00  0.00     0.006 A 
ENDBRANCH  59  76
ENDBRANCH  33  34
ENDBRANCH  25  28
ENDBRANCH  23  24
ENDBRANCH   1  23
TORSDOF 12
ENDMDL
MODEL 3
REMARK VINA RESULT:     -11.7      2.880      4.722
REMARK SMILES O=Cc1ccc2c(c1)C=C(C(=O)NCCCNC(=O)c1ccc(-c3c4nc(c(-c5c(F)cccc5F)c5ccc([nH]5)c(-c5c(F)cccc5F)c5nc(c(-c6c(F)cccc6F)c6ccc3[nH]6)C=C5)C=C4)cc1)[C@H](C(F)(F)F)O2
REMARK SMILES IDX 15 1 14 2 13 3 11 4 12 5 10 7 3 8 4 9 8 10 5 11 7 12 6 13
REMARK SMILES IDX 9 14 79 15 74 16 2 17 1 18 75 19 76 20 77 21 78 22 16 23
REMARK SMILES IDX 17 24 18 25 19 27 20 28 21 29 73 30 22 31 72 32 23 33 24 34
REMARK SMILES IDX 25 35 66 36 26 37 71 38 65 39 67 40 27 41 70 42 64 43 63 44
REMARK SMILES IDX 28 46 54 47 37 48 53 49 38 50 41 51 52 52 68 53 39 54 40 55
REMARK SMILES IDX 51 57 69 58 42 59 29 60 30 61 35 62 31 63 32 64 34 65 36 66
REMARK SMILES IDX 33 67 55 68 56 69 61 70 57 71 58 72 60 73 62 74 59 75 43 76
REMARK SMILES IDX 44 77 49 78 45 79 46 80 48 81 50 82 47 83
REMARK H PARENT 13 6 17 26 67 45 41 56
REMARK Flexibility Score: inf
ROOT
ATOM      1  C   UNL A   1      33.822  28.480  25.802  1.00  0.00     0.042 C 
ENDROOT
BRANCH   1   2
ATOM      2  C   UNL A   1      33.796  27.038  25.285  1.00  0.00     0.118 C 
BRANCH   2   3
ATOM      3  N   UNL A   1      34.044  26.997  23.852  1.00  0.00    -0.352 N 
ATOM      4  C   UNL A   1      33.235  27.149  22.771  1.00  0.00     0.251 C 
ATOM      5  O   UNL A   1      33.711  26.950  21.658  1.00  0.00    -0.270 OA
ATOM      6  H   UNL A   1      34.985  26.827  23.619  1.00  0.00     0.163 HD
BRANCH   4   7
ATOM      7  C   UNL A   1      31.824  27.602  22.879  1.00  0.00     0.067 C 
ATOM      8  C   UNL A   1      28.268  30.840  22.456  1.00  0.00     0.015 A 
ATOM      9  C   UNL A   1      27.337  29.882  22.864  1.00  0.00     0.015 A 
ATOM     10  C   UNL A   1      29.624  30.516  22.373  1.00  0.00     0.023 A 
ATOM     11  C   UNL A   1      27.765  28.591  23.177  1.00  0.00     0.048 A 
ATOM     12  C   UNL A   1      30.050  29.222  22.695  1.00  0.00     0.018 A 
ATOM     13  C   UNL A   1      29.118  28.264  23.093  1.00  0.00     0.128 A 
ATOM     14  C   UNL A   1      31.447  28.847  22.556  1.00  0.00     0.025 C 
ATOM     15  O   UNL A   1      29.448  26.969  23.356  1.00  0.00    -0.475 OA
ATOM     16  C   UNL A   1      30.855  26.632  23.548  1.00  0.00     0.314 C 
BRANCH   8  17
ATOM     17  C   UNL A   1      27.827  32.199  22.085  1.00  0.00     0.260 C 
ATOM     18  O   UNL A   1      28.555  33.176  22.208  1.00  0.00    -0.298 OA
ENDBRANCH   8  17
BRANCH  16  19
ATOM     19  C   UNL A   1      31.021  25.144  23.163  1.00  0.00     0.429 C 
ATOM     20  F   UNL A   1      29.861  24.454  23.225  1.00  0.00    -0.167 F 
ATOM     21  F   UNL A   1      31.455  25.015  21.882  1.00  0.00    -0.167 F 
ATOM     22  F   UNL A   1      31.927  24.512  23.948  1.00  0.00    -0.167 F 
ENDBRANCH  16  19
ENDBRANCH   4   7
ENDBRANCH   2   3
ENDBRANCH   1   2
BRANCH   1  23
ATOM     23  C   UNL A   1      33.681  28.592  27.319  1.00  0.00     0.118 C 
BRANCH  23  24
ATOM     24  N   UNL A   1      33.691  29.975  27.760  1.00  0.00    -0.352 N 
ATOM     25  C   UNL A   1      34.674  30.695  28.390  1.00  0.00     0.251 C 
ATOM     26  H   UNL A   1      32.863  30.475  27.578  1.00  0.00     0.163 HD
ATOM     27  O   UNL A   1      34.392  31.789  28.870  1.00  0.00    -0.269 OA
BRANCH  25  28
ATOM     28  C   UNL A   1      36.060  30.182  28.505  1.00  0.00     0.039 A 
ATOM     29  C   UNL A   1      36.487  29.706  29.751  1.00  0.00     0.014 A 
ATOM     30  C   UNL A   1      36.968  30.249  27.444  1.00  0.00     0.014 A 
ATOM     31  C   UNL A   1      37.807  29.286  29.927  1.00  0.00     0.010 A 
ATOM     32  C   UNL A   1      38.271  29.771  27.603  1.00  0.00     0.010 A 
ATOM     33  C   UNL A   1      38.710  29.308  28.852  1.00  0.00    -0.014 A 
BRANCH  33  34
ATOM     34  C   UNL A   1      40.124  28.892  29.042  1.00  0.00     0.031 A 
ATOM     35  C   UNL A   1      41.107  29.828  29.693  1.00  0.00     0.074 A 
ATOM     36  C   UNL A   1      40.531  27.685  28.608  1.00  0.00     0.049 A 
ATOM     37  N   UNL A   1      42.383  29.652  29.931  1.00  0.00    -0.248 NA
ATOM     38  C   UNL A   1      40.595  31.142  30.110  1.00  0.00     0.031 C 
ATOM     39  C   UNL A   1      39.688  26.703  27.923  1.00  0.00     0.029 A 
ATOM     40  N   UNL A   1      41.759  27.078  28.679  1.00  0.00    -0.354 N 
ATOM     41  C   UNL A   1      42.827  30.837  30.507  1.00  0.00     0.074 A 
ATOM     42  C   UNL A   1      41.696  31.739  30.541  1.00  0.00     0.031 C 
ATOM     43  C   UNL A   1      40.418  25.609  27.657  1.00  0.00     0.029 A 
ATOM     44  C   UNL A   1      41.784  25.818  28.131  1.00  0.00     0.049 A 
ATOM     45  H   UNL A   1      42.550  27.505  29.083  1.00  0.00     0.167 HD
ATOM     46  C   UNL A   1      44.058  31.139  30.986  1.00  0.00     0.037 A 
ATOM     47  C   UNL A   1      42.790  24.932  28.030  1.00  0.00     0.037 A 
ATOM     48  C   UNL A   1      45.175  30.231  30.983  1.00  0.00     0.049 A 
ATOM     49  C   UNL A   1      44.137  25.276  28.599  1.00  0.00     0.074 A 
ATOM     50  C   UNL A   1      46.448  30.426  31.491  1.00  0.00     0.029 A 
ATOM     51  N   UNL A   1      45.148  28.951  30.453  1.00  0.00    -0.354 N 
ATOM     52  N   UNL A   1      44.526  26.378  29.192  1.00  0.00    -0.248 NA
ATOM     53  C   UNL A   1      45.181  24.246  28.499  1.00  0.00     0.031 C 
ATOM     54  C   UNL A   1      47.200  29.272  31.241  1.00  0.00     0.029 A 
ATOM     55  C   UNL A   1      46.384  28.346  30.613  1.00  0.00     0.049 A 
ATOM     56  H   UNL A   1      44.365  28.533  30.025  1.00  0.00     0.167 HD
ATOM     57  C   UNL A   1      45.848  26.166  29.560  1.00  0.00     0.074 A 
ATOM     58  C   UNL A   1      46.191  24.824  29.135  1.00  0.00     0.031 C 
ATOM     59  C   UNL A   1      46.703  27.006  30.192  1.00  0.00     0.037 A 
BRANCH  46  60
ATOM     60  C   UNL A   1      44.258  32.513  31.556  1.00  0.00     0.057 A 
ATOM     61  C   UNL A   1      44.678  33.587  30.759  1.00  0.00     0.134 A 
ATOM     62  C   UNL A   1      44.004  32.773  32.908  1.00  0.00     0.134 A 
ATOM     63  F   UNL A   1      44.951  33.403  29.458  1.00  0.00    -0.206 F 
ATOM     64  C   UNL A   1      44.866  34.863  31.294  1.00  0.00     0.040 A 
ATOM     65  C   UNL A   1      44.163  34.051  33.448  1.00  0.00     0.040 A 
ATOM     66  F   UNL A   1      43.593  31.792  33.724  1.00  0.00    -0.206 F 
ATOM     67  C   UNL A   1      44.603  35.099  32.641  1.00  0.00     0.006 A 
ENDBRANCH  46  60
BRANCH  47  68
ATOM     68  C   UNL A   1      42.551  23.610  27.399  1.00  0.00     0.057 A 
ATOM     69  C   UNL A   1      42.690  23.435  26.018  1.00  0.00     0.134 A 
ATOM     70  C   UNL A   1      42.177  22.495  28.158  1.00  0.00     0.134 A 
ATOM     71  F   UNL A   1      43.031  24.471  25.238  1.00  0.00    -0.206 F 
ATOM     72  C   UNL A   1      42.449  22.203  25.409  1.00  0.00     0.040 A 
ATOM     73  C   UNL A   1      41.953  21.252  27.566  1.00  0.00     0.040 A 
ATOM     74  F   UNL A   1      42.036  22.598  29.489  1.00  0.00    -0.206 F 
ATOM     75  C   UNL A   1      42.083  21.105  26.186  1.00  0.00     0.006 A 
ENDBRANCH  47  68
BRANCH  59  76
ATOM     76  C   UNL A   1      48.075  26.483  30.494  1.00  0.00     0.057 A 
ATOM     77  C   UNL A   1      49.138  26.632  29.594  1.00  0.00     0.134 A 
ATOM     78  C   UNL A   1      48.341  25.839  31.710  1.00  0.00     0.134 A 
ATOM     79  F   UNL A   1      48.944  27.227  28.407  1.00  0.00    -0.206 F 
ATOM     80  C   UNL A   1      50.410  26.135  29.881  1.00  0.00     0.040 A 
ATOM     81  C   UNL A   1      49.614  25.360  32.018  1.00  0.00     0.040 A 
ATOM     82  F   UNL A   1      47.368  25.672  32.618  1.00  0.00    -0.206 F 
ATOM     83  C   UNL A   1      50.652  25.501  31.098  1.00  0.00     0.006 A 
ENDBRANCH  59  76
ENDBRANCH  33  34
ENDBRANCH  25  28
ENDBRANCH  23  24
ENDBRANCH   1  23
TORSDOF 12
ENDMDL
