MODEL 1
REMARK VINA RESULT:     -11.6      0.000      0.000
REMARK SMILES O=C(C[C@H]1C[C@H]2CC[C@@H](C1)[N@H+]2C[C@@H]1CNC(=O)O1)NCCCNC(=O)c1ccc(-c2c3nc(c(-c4c(F)cccc4F)c4ccc([nH]4)c(-c4c(F)cccc4F)c4nc(c(-c5c(F)cccc5F)c5ccc2[nH]5)C=C4)C=C3)cc1
REMARK SMILES IDX 20 1 19 2 1 3 2 4 3 6 4 7 5 8 10 9 6 10 9 11 7 12 11 13 8 14
REMARK SMILES IDX 12 16 13 17 14 18 18 19 15 20 16 21 17 23 21 24 22 25 23 26
REMARK SMILES IDX 24 27 25 29 26 30 27 31 79 32 28 33 78 34 29 35 30 36 31 37
REMARK SMILES IDX 72 38 32 39 77 40 71 41 73 42 33 43 76 44 70 45 69 46 34 48
REMARK SMILES IDX 60 49 43 50 59 51 44 52 47 53 58 54 74 55 45 56 46 57 57 59
REMARK SMILES IDX 75 60 48 61 35 62 36 63 41 64 37 65 38 66 40 67 42 68 39 69
REMARK SMILES IDX 61 70 62 71 67 72 63 73 64 74 66 75 68 76 65 77 49 78 50 79
REMARK SMILES IDX 55 80 51 81 52 82 54 83 56 84 53 85
REMARK H PARENT 19 5 11 15 15 22 23 28 73 47 47 58
REMARK Flexibility Score: inf
ROOT
ATOM      1  C   UNL A   1      36.393  19.848  24.980  1.00  0.00     0.117 C 
ENDROOT
BRANCH   1   2
ATOM      2  N   UNL A   1      35.394  20.679  25.623  1.00  0.00    -0.356 N 
ATOM      3  O   UNL A   1      33.567  19.930  24.511  1.00  0.00    -0.275 OA
ATOM      4  C   UNL A   1      34.051  20.708  25.335  1.00  0.00     0.220 C 
ATOM      5  H   UNL A   1      35.708  21.283  26.335  1.00  0.00     0.163 HD
BRANCH   4   6
ATOM      6  C   UNL A   1      33.162  21.833  25.932  1.00  0.00     0.104 C 
BRANCH   6   7
ATOM      7  C   UNL A   1      32.699  23.116  25.194  1.00  0.00     0.010 C 
ATOM      8  C   UNL A   1      32.903  24.423  25.935  1.00  0.00     0.069 C 
ATOM      9  C   UNL A   1      33.254  23.257  23.732  1.00  0.00     0.069 C 
ATOM     10  C   UNL A   1      34.281  25.060  25.714  1.00  0.00     0.184 C 
ATOM     11  C   UNL A   1      34.411  24.274  23.538  1.00  0.00     0.184 C 
ATOM     12  C   UNL A   1      35.505  24.112  25.660  1.00  0.00     0.071 C 
ATOM     13  N   UNL A   1      34.299  25.492  24.336  1.00  0.00    -0.327 N 
ATOM     14  C   UNL A   1      35.655  23.683  24.204  1.00  0.00     0.071 C 
ATOM     15  H   UNL A   1      35.095  26.078  24.086  1.00  0.00     0.348 HD
BRANCH  13  16
ATOM     16  C   UNL A   1      33.623  26.713  23.924  1.00  0.00     0.310 C 
BRANCH  16  17
ATOM     17  C   UNL A   1      32.864  27.009  22.600  1.00  0.00     0.252 C 
ATOM     18  C   UNL A   1      31.429  26.535  22.425  1.00  0.00     0.170 C 
ATOM     19  O   UNL A   1      33.569  26.531  21.445  1.00  0.00    -0.438 OA
ATOM     20  N   UNL A   1      31.526  25.624  21.336  1.00  0.00    -0.318 N 
ATOM     21  C   UNL A   1      32.751  25.694  20.747  1.00  0.00     0.407 C 
ATOM     22  H   UNL A   1      30.803  25.022  21.048  1.00  0.00     0.167 HD
ATOM     23  O   UNL A   1      33.080  25.075  19.743  1.00  0.00    -0.225 OA
ENDBRANCH  16  17
ENDBRANCH  13  16
ENDBRANCH   6   7
ENDBRANCH   4   6
ENDBRANCH   1   2
BRANCH   1  24
ATOM     24  C   UNL A   1      37.712  20.607  24.791  1.00  0.00     0.042 C 
BRANCH  24  25
ATOM     25  C   UNL A   1      38.784  20.466  25.879  1.00  0.00     0.118 C 
BRANCH  25  26
ATOM     26  N   UNL A   1      39.862  19.532  25.632  1.00  0.00    -0.352 N 
ATOM     27  C   UNL A   1      41.180  19.607  26.035  1.00  0.00     0.251 C 
ATOM     28  H   UNL A   1      39.623  18.735  25.108  1.00  0.00     0.163 HD
ATOM     29  O   UNL A   1      41.922  18.646  25.851  1.00  0.00    -0.269 OA
BRANCH  27  30
ATOM     30  C   UNL A   1      41.742  20.854  26.614  1.00  0.00     0.039 A 
ATOM     31  C   UNL A   1      42.069  21.880  25.723  1.00  0.00     0.014 A 
ATOM     32  C   UNL A   1      41.963  21.035  27.983  1.00  0.00     0.014 A 
ATOM     33  C   UNL A   1      42.540  23.107  26.204  1.00  0.00     0.010 A 
ATOM     34  C   UNL A   1      42.386  22.284  28.467  1.00  0.00     0.010 A 
ATOM     35  C   UNL A   1      42.660  23.342  27.584  1.00  0.00    -0.014 A 
BRANCH  35  36
ATOM     36  C   UNL A   1      43.000  24.713  28.070  1.00  0.00     0.031 A 
ATOM     37  C   UNL A   1      44.424  25.159  28.262  1.00  0.00     0.074 A 
ATOM     38  C   UNL A   1      42.001  25.582  28.334  1.00  0.00     0.049 A 
ATOM     39  N   UNL A   1      44.881  26.341  28.602  1.00  0.00    -0.248 NA
ATOM     40  C   UNL A   1      45.471  24.147  28.065  1.00  0.00     0.031 C 
ATOM     41  C   UNL A   1      40.572  25.274  28.238  1.00  0.00     0.029 A 
ATOM     42  N   UNL A   1      42.029  26.899  28.724  1.00  0.00    -0.354 N 
ATOM     43  C   UNL A   1      46.265  26.219  28.650  1.00  0.00     0.074 A 
ATOM     44  C   UNL A   1      46.568  24.832  28.360  1.00  0.00     0.031 C 
ATOM     45  C   UNL A   1      39.864  26.379  28.519  1.00  0.00     0.029 A 
ATOM     46  C   UNL A   1      40.782  27.464  28.852  1.00  0.00     0.049 A 
ATOM     47  H   UNL A   1      42.863  27.391  28.897  1.00  0.00     0.167 HD
ATOM     48  C   UNL A   1      47.198  27.174  28.894  1.00  0.00     0.037 A 
ATOM     49  C   UNL A   1      40.410  28.713  29.196  1.00  0.00     0.037 A 
ATOM     50  C   UNL A   1      46.900  28.554  29.191  1.00  0.00     0.049 A 
ATOM     51  C   UNL A   1      41.464  29.746  29.483  1.00  0.00     0.074 A 
ATOM     52  C   UNL A   1      47.784  29.600  29.408  1.00  0.00     0.029 A 
ATOM     53  N   UNL A   1      45.625  29.082  29.330  1.00  0.00    -0.354 N 
ATOM     54  N   UNL A   1      42.769  29.632  29.445  1.00  0.00    -0.248 NA
ATOM     55  C   UNL A   1      40.990  31.088  29.849  1.00  0.00     0.031 C 
ATOM     56  C   UNL A   1      47.046  30.742  29.737  1.00  0.00     0.029 A 
ATOM     57  C   UNL A   1      45.699  30.428  29.656  1.00  0.00     0.049 A 
ATOM     58  H   UNL A   1      44.788  28.575  29.213  1.00  0.00     0.167 HD
ATOM     59  C   UNL A   1      43.270  30.892  29.750  1.00  0.00     0.074 A 
ATOM     60  C   UNL A   1      42.128  31.758  29.948  1.00  0.00     0.031 C 
ATOM     61  C   UNL A   1      44.562  31.292  29.857  1.00  0.00     0.037 A 
BRANCH  48  62
ATOM     62  C   UNL A   1      48.644  26.759  28.858  1.00  0.00     0.057 A 
ATOM     63  C   UNL A   1      49.418  26.871  27.695  1.00  0.00     0.134 A 
ATOM     64  C   UNL A   1      49.286  26.292  30.013  1.00  0.00     0.134 A 
ATOM     65  F   UNL A   1      48.868  27.306  26.551  1.00  0.00    -0.206 F 
ATOM     66  C   UNL A   1      50.767  26.507  27.674  1.00  0.00     0.040 A 
ATOM     67  C   UNL A   1      50.641  25.955  30.013  1.00  0.00     0.040 A 
ATOM     68  F   UNL A   1      48.612  26.173  31.167  1.00  0.00    -0.206 F 
ATOM     69  C   UNL A   1      51.384  26.055  28.839  1.00  0.00     0.006 A 
ENDBRANCH  48  62
BRANCH  49  70
ATOM     70  C   UNL A   1      38.968  29.067  29.273  1.00  0.00     0.057 A 
ATOM     71  C   UNL A   1      38.257  28.967  30.475  1.00  0.00     0.134 A 
ATOM     72  C   UNL A   1      38.260  29.491  28.142  1.00  0.00     0.134 A 
ATOM     73  F   UNL A   1      38.872  28.546  31.591  1.00  0.00    -0.206 F 
ATOM     74  C   UNL A   1      36.891  29.251  30.545  1.00  0.00     0.040 A 
ATOM     75  C   UNL A   1      36.903  29.809  28.202  1.00  0.00     0.040 A 
ATOM     76  F   UNL A   1      38.884  29.613  26.960  1.00  0.00    -0.206 F 
ATOM     77  C   UNL A   1      36.212  29.679  29.406  1.00  0.00     0.006 A 
ENDBRANCH  49  70
BRANCH  61  78
ATOM     78  C   UNL A   1      44.807  32.745  30.160  1.00  0.00     0.057 A 
ATOM     79  C   UNL A   1      44.902  33.715  29.152  1.00  0.00     0.134 A 
ATOM     80  C   UNL A   1      44.950  33.181  31.485  1.00  0.00     0.134 A 
ATOM     81  F   UNL A   1      44.786  33.368  27.862  1.00  0.00    -0.206 F 
ATOM     82  C   UNL A   1      45.177  35.052  29.447  1.00  0.00     0.040 A 
ATOM     83  C   UNL A   1      45.189  34.521  31.794  1.00  0.00     0.040 A 
ATOM     84  F   UNL A   1      44.859  32.313  32.503  1.00  0.00    -0.206 F 
ATOM     85  C   UNL A   1      45.317  35.460  30.771  1.00  0.00     0.006 A 
ENDBRANCH  61  78
ENDBRANCH  35  36
ENDBRANCH  27  30
ENDBRANCH  25  26
ENDBRANCH  24  25
ENDBRANCH   1  24
TORSDOF 13
ENDMDL
MODEL 2
REMARK VINA RESULT:     -11.5      2.511      7.810
REMARK SMILES O=C(C[C@H]1C[C@H]2CC[C@@H](C1)[N@H+]2C[C@@H]1CNC(=O)O1)NCCCNC(=O)c1ccc(-c2c3nc(c(-c4c(F)cccc4F)c4ccc([nH]4)c(-c4c(F)cccc4F)c4nc(c(-c5c(F)cccc5F)c5ccc2[nH]5)C=C4)C=C3)cc1
REMARK SMILES IDX 20 1 19 2 1 3 2 4 3 6 4 7 5 8 10 9 6 10 9 11 7 12 11 13 8 14
REMARK SMILES IDX 12 16 13 17 14 18 18 19 15 20 16 21 17 23 21 24 22 25 23 26
REMARK SMILES IDX 24 27 25 29 26 30 27 31 79 32 28 33 78 34 29 35 30 36 31 37
REMARK SMILES IDX 72 38 32 39 77 40 71 41 73 42 33 43 76 44 70 45 69 46 34 48
REMARK SMILES IDX 60 49 43 50 59 51 44 52 47 53 58 54 74 55 45 56 46 57 57 59
REMARK SMILES IDX 75 60 48 61 35 62 36 63 41 64 37 65 38 66 40 67 42 68 39 69
REMARK SMILES IDX 61 70 62 71 67 72 63 73 64 74 66 75 68 76 65 77 49 78 50 79
REMARK SMILES IDX 55 80 51 81 52 82 54 83 56 84 53 85
REMARK H PARENT 19 5 11 15 15 22 23 28 73 47 47 58
REMARK Flexibility Score: inf
ROOT
ATOM      1  C   UNL A   1      32.230  29.567  26.016  1.00  0.00     0.117 C 
ENDROOT
BRANCH   1   2
ATOM      2  N   UNL A   1      31.500  28.389  25.591  1.00  0.00    -0.356 N 
ATOM      3  O   UNL A   1      31.155  27.454  27.626  1.00  0.00    -0.275 OA
ATOM      4  C   UNL A   1      31.036  27.382  26.402  1.00  0.00     0.220 C 
ATOM      5  H   UNL A   1      31.319  28.301  24.627  1.00  0.00     0.163 HD
BRANCH   4   6
ATOM      6  C   UNL A   1      30.502  26.069  25.767  1.00  0.00     0.104 C 
BRANCH   6   7
ATOM      7  C   UNL A   1      31.238  24.704  25.742  1.00  0.00     0.010 C 
ATOM      8  C   UNL A   1      31.043  23.863  24.496  1.00  0.00     0.069 C 
ATOM      9  C   UNL A   1      32.769  24.788  26.077  1.00  0.00     0.069 C 
ATOM     10  C   UNL A   1      32.041  24.169  23.372  1.00  0.00     0.184 C 
ATOM     11  C   UNL A   1      33.738  24.663  24.870  1.00  0.00     0.184 C 
ATOM     12  C   UNL A   1      32.418  25.653  23.137  1.00  0.00     0.071 C 
ATOM     13  N   UNL A   1      33.324  23.707  23.847  1.00  0.00    -0.327 N 
ATOM     14  C   UNL A   1      33.608  25.944  24.046  1.00  0.00     0.071 C 
ATOM     15  H   UNL A   1      34.060  23.700  23.141  1.00  0.00     0.348 HD
BRANCH  13  16
ATOM     16  C   UNL A   1      33.668  22.293  23.823  1.00  0.00     0.310 C 
BRANCH  16  17
ATOM     17  C   UNL A   1      33.848  21.312  25.015  1.00  0.00     0.252 C 
ATOM     18  C   UNL A   1      34.982  20.298  25.001  1.00  0.00     0.170 C 
ATOM     19  O   UNL A   1      32.660  20.555  25.286  1.00  0.00    -0.438 OA
ATOM     20  N   UNL A   1      34.294  19.052  25.001  1.00  0.00    -0.318 N 
ATOM     21  C   UNL A   1      32.965  19.227  25.237  1.00  0.00     0.407 C 
ATOM     22  H   UNL A   1      34.723  18.180  24.849  1.00  0.00     0.167 HD
ATOM     23  O   UNL A   1      32.153  18.321  25.365  1.00  0.00    -0.225 OA
ENDBRANCH  16  17
ENDBRANCH  13  16
ENDBRANCH   6   7
ENDBRANCH   4   6
ENDBRANCH   1   2
BRANCH   1  24
ATOM     24  C   UNL A   1      33.744  29.325  25.989  1.00  0.00     0.042 C 
BRANCH  24  25
ATOM     25  C   UNL A   1      34.440  28.989  27.314  1.00  0.00     0.118 C 
BRANCH  25  26
ATOM     26  N   UNL A   1      34.515  30.036  28.310  1.00  0.00    -0.352 N 
ATOM     27  C   UNL A   1      35.627  30.539  28.954  1.00  0.00     0.251 C 
ATOM     28  H   UNL A   1      33.657  30.448  28.561  1.00  0.00     0.163 HD
ATOM     29  O   UNL A   1      35.512  31.531  29.670  1.00  0.00    -0.269 OA
BRANCH  27  30
ATOM     30  C   UNL A   1      36.945  29.860  28.865  1.00  0.00     0.039 A 
ATOM     31  C   UNL A   1      37.595  29.888  27.628  1.00  0.00     0.014 A 
ATOM     32  C   UNL A   1      37.544  29.200  29.942  1.00  0.00     0.014 A 
ATOM     33  C   UNL A   1      38.869  29.328  27.489  1.00  0.00     0.010 A 
ATOM     34  C   UNL A   1      38.845  28.684  29.815  1.00  0.00     0.010 A 
ATOM     35  C   UNL A   1      39.531  28.760  28.591  1.00  0.00    -0.014 A 
BRANCH  35  36
ATOM     36  C   UNL A   1      40.953  28.327  28.452  1.00  0.00     0.031 A 
ATOM     37  C   UNL A   1      41.323  26.910  28.102  1.00  0.00     0.074 A 
ATOM     38  C   UNL A   1      41.937  29.233  28.635  1.00  0.00     0.049 A 
ATOM     39  N   UNL A   1      42.509  26.400  27.868  1.00  0.00    -0.248 NA
ATOM     40  C   UNL A   1      40.226  25.937  28.018  1.00  0.00     0.031 C 
ATOM     41  C   UNL A   1      41.730  30.631  29.024  1.00  0.00     0.029 A 
ATOM     42  N   UNL A   1      43.301  29.125  28.509  1.00  0.00    -0.354 N 
ATOM     43  C   UNL A   1      42.302  25.052  27.602  1.00  0.00     0.074 A 
ATOM     44  C   UNL A   1      40.881  24.813  27.758  1.00  0.00     0.031 C 
ATOM     45  C   UNL A   1      42.916  31.256  29.063  1.00  0.00     0.029 A 
ATOM     46  C   UNL A   1      43.973  30.302  28.741  1.00  0.00     0.049 A 
ATOM     47  H   UNL A   1      43.754  28.284  28.275  1.00  0.00     0.167 HD
ATOM     48  C   UNL A   1      43.204  24.104  27.242  1.00  0.00     0.037 A 
ATOM     49  C   UNL A   1      45.289  30.590  28.699  1.00  0.00     0.037 A 
ATOM     50  C   UNL A   1      44.621  24.335  27.093  1.00  0.00     0.049 A 
ATOM     51  C   UNL A   1      46.269  29.515  28.319  1.00  0.00     0.074 A 
ATOM     52  C   UNL A   1      45.602  23.445  26.688  1.00  0.00     0.029 A 
ATOM     53  N   UNL A   1      45.264  25.536  27.355  1.00  0.00    -0.354 N 
ATOM     54  N   UNL A   1      46.046  28.267  27.992  1.00  0.00    -0.248 NA
ATOM     55  C   UNL A   1      47.688  29.898  28.290  1.00  0.00     0.031 C 
ATOM     56  C   UNL A   1      46.843  24.087  26.765  1.00  0.00     0.029 A 
ATOM     57  C   UNL A   1      46.629  25.401  27.148  1.00  0.00     0.049 A 
ATOM     58  H   UNL A   1      44.816  26.365  27.644  1.00  0.00     0.167 HD
ATOM     59  C   UNL A   1      47.288  27.724  27.689  1.00  0.00     0.074 A 
ATOM     60  C   UNL A   1      48.258  28.787  27.849  1.00  0.00     0.031 C 
ATOM     61  C   UNL A   1      47.596  26.458  27.311  1.00  0.00     0.037 A 
BRANCH  48  62
ATOM     62  C   UNL A   1      42.689  22.714  26.988  1.00  0.00     0.057 A 
ATOM     63  C   UNL A   1      42.596  22.182  25.694  1.00  0.00     0.134 A 
ATOM     64  C   UNL A   1      42.331  21.875  28.052  1.00  0.00     0.134 A 
ATOM     65  F   UNL A   1      42.918  22.930  24.627  1.00  0.00    -0.206 F 
ATOM     66  C   UNL A   1      42.140  20.882  25.466  1.00  0.00     0.040 A 
ATOM     67  C   UNL A   1      41.903  20.562  27.840  1.00  0.00     0.040 A 
ATOM     68  F   UNL A   1      42.407  22.311  29.319  1.00  0.00    -0.206 F 
ATOM     69  C   UNL A   1      41.799  20.065  26.543  1.00  0.00     0.006 A 
ENDBRANCH  48  62
BRANCH  49  70
ATOM     70  C   UNL A   1      45.761  31.965  29.011  1.00  0.00     0.057 A 
ATOM     71  C   UNL A   1      45.915  32.927  28.004  1.00  0.00     0.134 A 
ATOM     72  C   UNL A   1      46.091  32.344  30.317  1.00  0.00     0.134 A 
ATOM     73  F   UNL A   1      45.636  32.621  26.728  1.00  0.00    -0.206 F 
ATOM     74  C   UNL A   1      46.404  34.206  28.281  1.00  0.00     0.040 A 
ATOM     75  C   UNL A   1      46.550  33.628  30.615  1.00  0.00     0.040 A 
ATOM     76  F   UNL A   1      45.960  31.472  31.328  1.00  0.00    -0.206 F 
ATOM     77  C   UNL A   1      46.718  34.560  29.592  1.00  0.00     0.006 A 
ENDBRANCH  49  70
BRANCH  61  78
ATOM     78  C   UNL A   1      49.040  26.166  27.003  1.00  0.00     0.057 A 
ATOM     79  C   UNL A   1      49.565  26.273  25.708  1.00  0.00     0.134 A 
ATOM     80  C   UNL A   1      49.919  25.770  28.021  1.00  0.00     0.134 A 
ATOM     81  F   UNL A   1      48.779  26.636  24.683  1.00  0.00    -0.206 F 
ATOM     82  C   UNL A   1      50.896  25.953  25.429  1.00  0.00     0.040 A 
ATOM     83  C   UNL A   1      51.260  25.482  27.760  1.00  0.00     0.040 A 
ATOM     84  F   UNL A   1      49.491  25.657  29.287  1.00  0.00    -0.206 F 
ATOM     85  C   UNL A   1      51.749  25.560  26.457  1.00  0.00     0.006 A 
ENDBRANCH  61  78
ENDBRANCH  35  36
ENDBRANCH  27  30
ENDBRANCH  25  26
ENDBRANCH  24  25
ENDBRANCH   1  24
TORSDOF 13
ENDMDL
MODEL 3
REMARK VINA RESULT:     -11.5      0.831      6.337
REMARK SMILES O=C(C[C@H]1C[C@H]2CC[C@@H](C1)[N@H+]2C[C@@H]1CNC(=O)O1)NCCCNC(=O)c1ccc(-c2c3nc(c(-c4c(F)cccc4F)c4ccc([nH]4)c(-c4c(F)cccc4F)c4nc(c(-c5c(F)cccc5F)c5ccc2[nH]5)C=C4)C=C3)cc1
REMARK SMILES IDX 20 1 19 2 1 3 2 4 3 6 4 7 5 8 10 9 6 10 9 11 7 12 11 13 8 14
REMARK SMILES IDX 12 16 13 17 14 18 18 19 15 20 16 21 17 23 21 24 22 25 23 26
REMARK SMILES IDX 24 27 25 29 26 30 27 31 79 32 28 33 78 34 29 35 30 36 31 37
REMARK SMILES IDX 72 38 32 39 77 40 71 41 73 42 33 43 76 44 70 45 69 46 34 48
REMARK SMILES IDX 60 49 43 50 59 51 44 52 47 53 58 54 74 55 45 56 46 57 57 59
REMARK SMILES IDX 75 60 48 61 35 62 36 63 41 64 37 65 38 66 40 67 42 68 39 69
REMARK SMILES IDX 61 70 62 71 67 72 63 73 64 74 66 75 68 76 65 77 49 78 50 79
REMARK SMILES IDX 55 80 51 81 52 82 54 83 56 84 53 85
REMARK H PARENT 19 5 11 15 15 22 23 28 73 47 47 58
REMARK Flexibility Score: inf
ROOT
ATOM      1  C   UNL A   1      36.484  19.476  24.932  1.00  0.00     0.117 C 
ENDROOT
BRANCH   1   2
ATOM      2  N   UNL A   1      35.423  20.296  25.485  1.00  0.00    -0.356 N 
ATOM      3  O   UNL A   1      33.723  19.579  24.170  1.00  0.00    -0.275 OA
ATOM      4  C   UNL A   1      34.118  20.336  25.057  1.00  0.00     0.220 C 
ATOM      5  H   UNL A   1      35.661  20.883  26.239  1.00  0.00     0.163 HD
BRANCH   4   6
ATOM      6  C   UNL A   1      33.173  21.451  25.582  1.00  0.00     0.104 C 
BRANCH   6   7
ATOM      7  C   UNL A   1      32.820  22.768  24.844  1.00  0.00     0.010 C 
ATOM      8  C   UNL A   1      32.762  24.018  25.700  1.00  0.00     0.069 C 
ATOM      9  C   UNL A   1      33.695  23.051  23.572  1.00  0.00     0.069 C 
ATOM     10  C   UNL A   1      34.110  24.730  25.861  1.00  0.00     0.184 C 
ATOM     11  C   UNL A   1      34.800  24.130  23.733  1.00  0.00     0.184 C 
ATOM     12  C   UNL A   1      35.368  23.844  26.040  1.00  0.00     0.071 C 
ATOM     13  N   UNL A   1      34.428  25.273  24.561  1.00  0.00    -0.327 N 
ATOM     14  C   UNL A   1      35.885  23.542  24.636  1.00  0.00     0.071 C 
ATOM     15  H   UNL A   1      35.223  25.911  24.551  1.00  0.00     0.348 HD
BRANCH  13  16
ATOM     16  C   UNL A   1      33.795  26.493  24.083  1.00  0.00     0.310 C 
BRANCH  16  17
ATOM     17  C   UNL A   1      32.778  26.674  22.921  1.00  0.00     0.252 C 
ATOM     18  C   UNL A   1      31.528  25.810  22.864  1.00  0.00     0.170 C 
ATOM     19  O   UNL A   1      33.393  26.544  21.630  1.00  0.00    -0.438 OA
ATOM     20  N   UNL A   1      31.701  25.080  21.654  1.00  0.00    -0.318 N 
ATOM     21  C   UNL A   1      32.742  25.572  20.930  1.00  0.00     0.407 C 
ATOM     22  H   UNL A   1      31.140  24.319  21.378  1.00  0.00     0.167 HD
ATOM     23  O   UNL A   1      33.065  25.182  19.816  1.00  0.00    -0.225 OA
ENDBRANCH  16  17
ENDBRANCH  13  16
ENDBRANCH   6   7
ENDBRANCH   4   6
ENDBRANCH   1   2
BRANCH   1  24
ATOM     24  C   UNL A   1      37.760  20.294  24.704  1.00  0.00     0.042 C 
BRANCH  24  25
ATOM     25  C   UNL A   1      38.838  20.263  25.795  1.00  0.00     0.118 C 
BRANCH  25  26
ATOM     26  N   UNL A   1      39.863  19.247  25.687  1.00  0.00    -0.352 N 
ATOM     27  C   UNL A   1      41.179  19.299  26.099  1.00  0.00     0.251 C 
ATOM     28  H   UNL A   1      39.583  18.403  25.264  1.00  0.00     0.163 HD
ATOM     29  O   UNL A   1      41.867  18.283  26.051  1.00  0.00    -0.269 OA
BRANCH  27  30
ATOM     30  C   UNL A   1      41.806  20.577  26.523  1.00  0.00     0.039 A 
ATOM     31  C   UNL A   1      42.210  21.456  25.514  1.00  0.00     0.014 A 
ATOM     32  C   UNL A   1      42.015  20.924  27.861  1.00  0.00     0.014 A 
ATOM     33  C   UNL A   1      42.746  22.705  25.841  1.00  0.00     0.010 A 
ATOM     34  C   UNL A   1      42.505  22.200  28.188  1.00  0.00     0.010 A 
ATOM     35  C   UNL A   1      42.858  23.113  27.181  1.00  0.00    -0.014 A 
BRANCH  35  36
ATOM     36  C   UNL A   1      43.272  24.514  27.492  1.00  0.00     0.031 A 
ATOM     37  C   UNL A   1      42.275  25.571  27.885  1.00  0.00     0.074 A 
ATOM     38  C   UNL A   1      44.580  24.841  27.430  1.00  0.00     0.049 A 
ATOM     39  N   UNL A   1      42.488  26.809  28.261  1.00  0.00    -0.248 NA
ATOM     40  C   UNL A   1      40.855  25.197  27.835  1.00  0.00     0.031 C 
ATOM     41  C   UNL A   1      45.655  23.933  27.019  1.00  0.00     0.029 A 
ATOM     42  N   UNL A   1      45.234  26.014  27.721  1.00  0.00    -0.354 N 
ATOM     43  C   UNL A   1      41.235  27.360  28.500  1.00  0.00     0.074 A 
ATOM     44  C   UNL A   1      40.264  26.336  28.173  1.00  0.00     0.031 C 
ATOM     45  C   UNL A   1      46.832  24.569  27.124  1.00  0.00     0.029 A 
ATOM     46  C   UNL A   1      46.599  25.938  27.572  1.00  0.00     0.049 A 
ATOM     47  H   UNL A   1      44.769  26.832  28.009  1.00  0.00     0.167 HD
ATOM     48  C   UNL A   1      40.920  28.595  28.968  1.00  0.00     0.037 A 
ATOM     49  C   UNL A   1      47.561  26.860  27.774  1.00  0.00     0.037 A 
ATOM     50  C   UNL A   1      41.883  29.620  29.288  1.00  0.00     0.049 A 
ATOM     51  C   UNL A   1      47.182  28.228  28.271  1.00  0.00     0.074 A 
ATOM     52  C   UNL A   1      41.656  30.884  29.810  1.00  0.00     0.029 A 
ATOM     53  N   UNL A   1      43.254  29.510  29.106  1.00  0.00    -0.354 N 
ATOM     54  N   UNL A   1      45.999  28.704  28.568  1.00  0.00    -0.248 NA
ATOM     55  C   UNL A   1      48.281  29.184  28.472  1.00  0.00     0.031 C 
ATOM     56  C   UNL A   1      42.880  31.559  29.884  1.00  0.00     0.029 A 
ATOM     57  C   UNL A   1      43.880  30.692  29.477  1.00  0.00     0.049 A 
ATOM     58  H   UNL A   1      43.716  28.710  28.764  1.00  0.00     0.167 HD
ATOM     59  C   UNL A   1      46.212  30.000  29.021  1.00  0.00     0.074 A 
ATOM     60  C   UNL A   1      47.641  30.227  28.979  1.00  0.00     0.031 C 
ATOM     61  C   UNL A   1      45.304  30.919  29.433  1.00  0.00     0.037 A 
BRANCH  48  62
ATOM     62  C   UNL A   1      39.462  28.915  29.158  1.00  0.00     0.057 A 
ATOM     63  C   UNL A   1      38.666  29.398  28.110  1.00  0.00     0.134 A 
ATOM     64  C   UNL A   1      38.832  28.688  30.389  1.00  0.00     0.134 A 
ATOM     65  F   UNL A   1      39.204  29.643  26.905  1.00  0.00    -0.206 F 
ATOM     66  C   UNL A   1      37.308  29.671  28.286  1.00  0.00     0.040 A 
ATOM     67  C   UNL A   1      37.468  28.926  30.570  1.00  0.00     0.040 A 
ATOM     68  F   UNL A   1      39.528  28.213  31.433  1.00  0.00    -0.206 F 
ATOM     69  C   UNL A   1      36.703  29.427  29.518  1.00  0.00     0.006 A 
ENDBRANCH  48  62
BRANCH  49  70
ATOM     70  C   UNL A   1      48.986  26.518  27.522  1.00  0.00     0.057 A 
ATOM     71  C   UNL A   1      49.558  26.672  26.253  1.00  0.00     0.134 A 
ATOM     72  C   UNL A   1      49.803  26.007  28.537  1.00  0.00     0.134 A 
ATOM     73  F   UNL A   1      48.822  27.136  25.232  1.00  0.00    -0.206 F 
ATOM     74  C   UNL A   1      50.882  26.306  25.997  1.00  0.00     0.040 A 
ATOM     75  C   UNL A   1      51.137  25.668  28.305  1.00  0.00     0.040 A 
ATOM     76  F   UNL A   1      49.318  25.840  29.777  1.00  0.00    -0.206 F 
ATOM     77  C   UNL A   1      51.677  25.808  27.027  1.00  0.00     0.006 A 
ENDBRANCH  49  70
BRANCH  61  78
ATOM     78  C   UNL A   1      45.836  32.242  29.915  1.00  0.00     0.057 A 
ATOM     79  C   UNL A   1      46.196  32.462  31.251  1.00  0.00     0.134 A 
ATOM     80  C   UNL A   1      45.989  33.314  29.024  1.00  0.00     0.134 A 
ATOM     81  F   UNL A   1      46.065  31.484  32.161  1.00  0.00    -0.206 F 
ATOM     82  C   UNL A   1      46.644  33.709  31.693  1.00  0.00     0.040 A 
ATOM     83  C   UNL A   1      46.471  34.554  29.447  1.00  0.00     0.040 A 
ATOM     84  F   UNL A   1      45.677  33.174  27.727  1.00  0.00    -0.206 F 
ATOM     85  C   UNL A   1      46.786  34.758  30.789  1.00  0.00     0.006 A 
ENDBRANCH  61  78
ENDBRANCH  35  36
ENDBRANCH  27  30
ENDBRANCH  25  26
ENDBRANCH  24  25
ENDBRANCH   1  24
TORSDOF 13
ENDMDL
