MODEL 1
REMARK VINA RESULT:     -11.7      0.000      0.000
REMARK SMILES COc1ccc(NC(=O)NCc2ccc(C(=O)NCCCNC(=O)c3ccc(-c4c5nc(c(-c6c(F)cccc6F)c6ccc([nH]6)c(-c6c(F)cccc6F)c6nc(c(-c7c(F)cccc7F)c7ccc4[nH]7)C=C6)C=C5)cc3)cc2)c(OC)c1
REMARK SMILES IDX 19 1 18 2 16 3 17 4 15 6 12 7 13 8 80 9 14 10 79 11 11 12
REMARK SMILES IDX 10 13 7 14 8 15 9 17 6 19 3 20 4 21 84 22 5 23 81 24 2 25
REMARK SMILES IDX 1 26 82 27 83 28 20 29 21 30 22 31 23 32 24 34 25 35 26 36
REMARK SMILES IDX 78 37 27 38 77 39 28 40 29 41 30 42 71 43 31 44 76 45 70 46
REMARK SMILES IDX 72 47 32 48 75 49 69 50 68 51 33 53 59 54 42 55 58 56 43 57
REMARK SMILES IDX 46 58 57 59 73 60 44 61 45 62 56 64 74 65 47 66 34 67 35 68
REMARK SMILES IDX 40 69 36 70 37 71 39 72 41 73 38 74 60 75 61 76 66 77 62 78
REMARK SMILES IDX 63 79 65 80 67 81 64 82 48 83 49 84 54 85 50 86 51 87 53 88
REMARK SMILES IDX 55 89 52 90
REMARK H PARENT 18 5 7 16 10 18 22 33 72 52 46 63
REMARK Flexibility Score: inf
ROOT
ATOM      1  C   UNL A   1      37.407  20.627  24.960  1.00  0.00     0.118 C 
ENDROOT
BRANCH   1   2
ATOM      2  N   UNL A   1      37.861  21.824  25.645  1.00  0.00    -0.352 N 
ATOM      3  C   UNL A   1      37.343  23.093  25.712  1.00  0.00     0.251 C 
ATOM      4  O   UNL A   1      37.891  23.901  26.462  1.00  0.00    -0.269 OA
ATOM      5  H   UNL A   1      38.694  21.703  26.155  1.00  0.00     0.163 HD
BRANCH   3   6
ATOM      6  C   UNL A   1      36.118  23.502  24.978  1.00  0.00     0.039 A 
ATOM      7  C   UNL A   1      33.664  24.172  23.769  1.00  0.00    -0.029 A 
ATOM      8  C   UNL A   1      33.879  24.435  25.127  1.00  0.00     0.006 A 
ATOM      9  C   UNL A   1      34.722  23.666  23.001  1.00  0.00     0.006 A 
ATOM     10  C   UNL A   1      35.096  24.100  25.726  1.00  0.00     0.014 A 
ATOM     11  C   UNL A   1      35.945  23.344  23.601  1.00  0.00     0.014 A 
BRANCH   7  12
ATOM     12  C   UNL A   1      32.283  24.291  23.183  1.00  0.00     0.153 C 
BRANCH  12  13
ATOM     13  N   UNL A   1      32.230  24.656  21.788  1.00  0.00    -0.334 N 
ATOM     14  N   UNL A   1      32.159  27.032  21.519  1.00  0.00    -0.305 N 
ATOM     15  C   UNL A   1      32.200  25.775  21.058  1.00  0.00     0.319 C 
ATOM     16  H   UNL A   1      31.904  27.665  20.810  1.00  0.00     0.172 HD
ATOM     17  O   UNL A   1      32.097  25.620  19.835  1.00  0.00    -0.248 OA
ATOM     18  H   UNL A   1      32.211  23.857  21.213  1.00  0.00     0.165 HD
BRANCH  14  19
ATOM     19  C   UNL A   1      32.381  27.689  22.734  1.00  0.00     0.085 A 
ATOM     20  C   UNL A   1      32.559  28.723  25.333  1.00  0.00     0.122 A 
ATOM     21  C   UNL A   1      33.701  28.275  24.667  1.00  0.00     0.049 A 
ATOM     22  C   UNL A   1      31.356  28.809  24.637  1.00  0.00     0.095 A 
ATOM     23  C   UNL A   1      33.614  27.787  23.359  1.00  0.00     0.034 A 
ATOM     24  C   UNL A   1      31.284  28.343  23.322  1.00  0.00     0.146 A 
BRANCH  20  25
ATOM     25  O   UNL A   1      32.745  29.072  26.642  1.00  0.00    -0.497 OA
ATOM     26  C   UNL A   1      33.251  30.383  26.876  1.00  0.00     0.278 C 
ENDBRANCH  20  25
BRANCH  24  27
ATOM     27  O   UNL A   1      30.127  28.436  22.583  1.00  0.00    -0.494 OA
ATOM     28  C   UNL A   1      29.898  29.757  22.086  1.00  0.00     0.278 C 
ENDBRANCH  24  27
ENDBRANCH  14  19
ENDBRANCH  12  13
ENDBRANCH   7  12
ENDBRANCH   3   6
ENDBRANCH   1   2
BRANCH   1  29
ATOM     29  C   UNL A   1      38.464  19.523  24.995  1.00  0.00     0.042 C 
BRANCH  29  30
ATOM     30  C   UNL A   1      39.461  19.645  26.147  1.00  0.00     0.118 C 
BRANCH  30  31
ATOM     31  N   UNL A   1      40.752  19.055  25.833  1.00  0.00    -0.352 N 
ATOM     32  C   UNL A   1      42.004  19.609  25.840  1.00  0.00     0.251 C 
ATOM     33  H   UNL A   1      40.721  18.105  25.574  1.00  0.00     0.163 HD
ATOM     34  O   UNL A   1      42.944  18.964  25.367  1.00  0.00    -0.269 OA
BRANCH  32  35
ATOM     35  C   UNL A   1      42.256  20.965  26.380  1.00  0.00     0.039 A 
ATOM     36  C   UNL A   1      42.187  21.148  27.766  1.00  0.00     0.014 A 
ATOM     37  C   UNL A   1      42.491  22.067  25.551  1.00  0.00     0.014 A 
ATOM     38  C   UNL A   1      42.391  22.414  28.318  1.00  0.00     0.010 A 
ATOM     39  C   UNL A   1      42.759  23.321  26.107  1.00  0.00     0.010 A 
ATOM     40  C   UNL A   1      42.702  23.509  27.495  1.00  0.00    -0.014 A 
BRANCH  40  41
ATOM     41  C   UNL A   1      42.968  24.843  28.093  1.00  0.00     0.031 A 
ATOM     42  C   UNL A   1      44.365  25.253  28.469  1.00  0.00     0.074 A 
ATOM     43  C   UNL A   1      41.940  25.683  28.315  1.00  0.00     0.049 A 
ATOM     44  N   UNL A   1      44.785  26.391  28.965  1.00  0.00    -0.248 NA
ATOM     45  C   UNL A   1      45.426  24.252  28.285  1.00  0.00     0.031 C 
ATOM     46  C   UNL A   1      40.532  25.382  28.050  1.00  0.00     0.029 A 
ATOM     47  N   UNL A   1      41.919  26.962  28.809  1.00  0.00    -0.354 N 
ATOM     48  C   UNL A   1      46.153  26.239  29.159  1.00  0.00     0.074 A 
ATOM     49  C   UNL A   1      46.484  24.884  28.774  1.00  0.00     0.031 C 
ATOM     50  C   UNL A   1      39.788  26.457  28.353  1.00  0.00     0.029 A 
ATOM     51  C   UNL A   1      40.662  27.515  28.851  1.00  0.00     0.049 A 
ATOM     52  H   UNL A   1      42.728  27.440  29.103  1.00  0.00     0.167 HD
ATOM     53  C   UNL A   1      47.055  27.150  29.598  1.00  0.00     0.037 A 
ATOM     54  C   UNL A   1      40.260  28.739  29.238  1.00  0.00     0.037 A 
ATOM     55  C   UNL A   1      46.730  28.505  29.961  1.00  0.00     0.049 A 
ATOM     56  C   UNL A   1      41.282  29.742  29.690  1.00  0.00     0.074 A 
ATOM     57  C   UNL A   1      47.583  29.522  30.359  1.00  0.00     0.029 A 
ATOM     58  N   UNL A   1      45.448  29.033  29.976  1.00  0.00    -0.354 N 
ATOM     59  N   UNL A   1      42.582  29.608  29.794  1.00  0.00    -0.248 NA
ATOM     60  C   UNL A   1      40.782  31.072  30.066  1.00  0.00     0.031 C 
ATOM     61  C   UNL A   1      46.812  30.655  30.646  1.00  0.00     0.029 A 
ATOM     62  C   UNL A   1      45.483  30.355  30.389  1.00  0.00     0.049 A 
ATOM     63  H   UNL A   1      44.632  28.541  29.728  1.00  0.00     0.167 HD
ATOM     64  C   UNL A   1      43.057  30.838  30.229  1.00  0.00     0.074 A 
ATOM     65  C   UNL A   1      41.908  31.712  30.347  1.00  0.00     0.031 C 
ATOM     66  C   UNL A   1      44.330  31.209  30.510  1.00  0.00     0.037 A 
BRANCH  53  67
ATOM     67  C   UNL A   1      48.487  26.709  29.701  1.00  0.00     0.057 A 
ATOM     68  C   UNL A   1      48.968  26.025  30.823  1.00  0.00     0.134 A 
ATOM     69  C   UNL A   1      49.386  26.946  28.654  1.00  0.00     0.134 A 
ATOM     70  F   UNL A   1      48.161  25.775  31.866  1.00  0.00    -0.206 F 
ATOM     71  C   UNL A   1      50.300  25.613  30.914  1.00  0.00     0.040 A 
ATOM     72  C   UNL A   1      50.714  26.517  28.722  1.00  0.00     0.040 A 
ATOM     73  F   UNL A   1      48.990  27.590  27.546  1.00  0.00    -0.206 F 
ATOM     74  C   UNL A   1      51.175  25.854  29.857  1.00  0.00     0.006 A 
ENDBRANCH  53  67
BRANCH  54  75
ATOM     75  C   UNL A   1      38.823  29.101  29.172  1.00  0.00     0.057 A 
ATOM     76  C   UNL A   1      38.007  29.028  30.308  1.00  0.00     0.134 A 
ATOM     77  C   UNL A   1      38.232  29.530  27.978  1.00  0.00     0.134 A 
ATOM     78  F   UNL A   1      38.514  28.606  31.475  1.00  0.00    -0.206 F 
ATOM     79  C   UNL A   1      36.651  29.351  30.255  1.00  0.00     0.040 A 
ATOM     80  C   UNL A   1      36.882  29.879  27.916  1.00  0.00     0.040 A 
ATOM     81  F   UNL A   1      38.963  29.631  26.859  1.00  0.00    -0.206 F 
ATOM     82  C   UNL A   1      36.087  29.783  29.057  1.00  0.00     0.006 A 
ENDBRANCH  54  75
BRANCH  66  83
ATOM     83  C   UNL A   1      44.539  32.626  30.957  1.00  0.00     0.057 A 
ATOM     84  C   UNL A   1      44.570  32.973  32.314  1.00  0.00     0.134 A 
ATOM     85  C   UNL A   1      44.717  33.653  30.021  1.00  0.00     0.134 A 
ATOM     86  F   UNL A   1      44.390  32.037  33.259  1.00  0.00    -0.206 F 
ATOM     87  C   UNL A   1      44.738  34.297  32.724  1.00  0.00     0.040 A 
ATOM     88  C   UNL A   1      44.910  34.976  30.419  1.00  0.00     0.040 A 
ATOM     89  F   UNL A   1      44.705  33.387  28.707  1.00  0.00    -0.206 F 
ATOM     90  C   UNL A   1      44.913  35.302  31.775  1.00  0.00     0.006 A 
ENDBRANCH  66  83
ENDBRANCH  40  41
ENDBRANCH  32  35
ENDBRANCH  30  31
ENDBRANCH  29  30
ENDBRANCH   1  29
TORSDOF 15
ENDMDL
MODEL 2
REMARK VINA RESULT:     -11.6      2.209      3.159
REMARK SMILES COc1ccc(NC(=O)NCc2ccc(C(=O)NCCCNC(=O)c3ccc(-c4c5nc(c(-c6c(F)cccc6F)c6ccc([nH]6)c(-c6c(F)cccc6F)c6nc(c(-c7c(F)cccc7F)c7ccc4[nH]7)C=C6)C=C5)cc3)cc2)c(OC)c1
REMARK SMILES IDX 19 1 18 2 16 3 17 4 15 6 12 7 13 8 80 9 14 10 79 11 11 12
REMARK SMILES IDX 10 13 7 14 8 15 9 17 6 19 3 20 4 21 84 22 5 23 81 24 2 25
REMARK SMILES IDX 1 26 82 27 83 28 20 29 21 30 22 31 23 32 24 34 25 35 26 36
REMARK SMILES IDX 78 37 27 38 77 39 28 40 29 41 30 42 71 43 31 44 76 45 70 46
REMARK SMILES IDX 72 47 32 48 75 49 69 50 68 51 33 53 59 54 42 55 58 56 43 57
REMARK SMILES IDX 46 58 57 59 73 60 44 61 45 62 56 64 74 65 47 66 34 67 35 68
REMARK SMILES IDX 40 69 36 70 37 71 39 72 41 73 38 74 60 75 61 76 66 77 62 78
REMARK SMILES IDX 63 79 65 80 67 81 64 82 48 83 49 84 54 85 50 86 51 87 53 88
REMARK SMILES IDX 55 89 52 90
REMARK H PARENT 18 5 7 16 10 18 22 33 72 52 46 63
REMARK Flexibility Score: inf
ROOT
ATOM      1  C   UNL A   1      35.564  20.418  25.044  1.00  0.00     0.118 C 
ENDROOT
BRANCH   1   2
ATOM      2  N   UNL A   1      34.441  19.575  25.413  1.00  0.00    -0.352 N 
ATOM      3  C   UNL A   1      33.085  19.748  25.287  1.00  0.00     0.251 C 
ATOM      4  O   UNL A   1      32.353  18.809  25.599  1.00  0.00    -0.269 OA
ATOM      5  H   UNL A   1      34.699  18.722  25.831  1.00  0.00     0.163 HD
BRANCH   3   6
ATOM      6  C   UNL A   1      32.480  20.983  24.726  1.00  0.00     0.039 A 
ATOM      7  C   UNL A   1      31.528  23.339  23.511  1.00  0.00    -0.029 A 
ATOM      8  C   UNL A   1      31.967  22.265  22.726  1.00  0.00     0.006 A 
ATOM      9  C   UNL A   1      31.475  23.184  24.902  1.00  0.00     0.006 A 
ATOM     10  C   UNL A   1      32.441  21.099  23.331  1.00  0.00     0.014 A 
ATOM     11  C   UNL A   1      31.938  22.008  25.505  1.00  0.00     0.014 A 
BRANCH   7  12
ATOM     12  C   UNL A   1      31.261  24.680  22.880  1.00  0.00     0.153 C 
BRANCH  12  13
ATOM     13  N   UNL A   1      31.931  24.918  21.624  1.00  0.00    -0.334 N 
ATOM     14  N   UNL A   1      32.789  27.148  21.512  1.00  0.00    -0.305 N 
ATOM     15  C   UNL A   1      32.592  25.914  21.028  1.00  0.00     0.319 C 
ATOM     16  H   UNL A   1      33.089  27.765  20.806  1.00  0.00     0.172 HD
ATOM     17  O   UNL A   1      32.971  25.696  19.871  1.00  0.00    -0.248 OA
ATOM     18  H   UNL A   1      31.888  24.124  21.043  1.00  0.00     0.165 HD
BRANCH  14  19
ATOM     19  C   UNL A   1      32.684  27.797  22.747  1.00  0.00     0.085 A 
ATOM     20  C   UNL A   1      32.183  28.806  25.314  1.00  0.00     0.122 A 
ATOM     21  C   UNL A   1      33.467  28.397  24.948  1.00  0.00     0.049 A 
ATOM     22  C   UNL A   1      31.188  28.867  24.342  1.00  0.00     0.095 A 
ATOM     23  C   UNL A   1      33.721  27.922  23.658  1.00  0.00     0.034 A 
ATOM     24  C   UNL A   1      31.457  28.413  23.047  1.00  0.00     0.146 A 
BRANCH  20  25
ATOM     25  O   UNL A   1      32.029  29.144  26.629  1.00  0.00    -0.497 OA
ATOM     26  C   UNL A   1      31.539  28.118  27.488  1.00  0.00     0.278 C 
ENDBRANCH  20  25
BRANCH  24  27
ATOM     27  O   UNL A   1      30.516  28.483  22.046  1.00  0.00    -0.494 OA
ATOM     28  C   UNL A   1      29.758  29.695  22.089  1.00  0.00     0.278 C 
ENDBRANCH  24  27
ENDBRANCH  14  19
ENDBRANCH  12  13
ENDBRANCH   7  12
ENDBRANCH   3   6
ENDBRANCH   1   2
BRANCH   1  29
ATOM     29  C   UNL A   1      35.576  21.721  25.841  1.00  0.00     0.042 C 
BRANCH  29  30
ATOM     30  C   UNL A   1      36.924  22.442  25.846  1.00  0.00     0.118 C 
BRANCH  30  31
ATOM     31  N   UNL A   1      38.046  21.527  25.982  1.00  0.00    -0.352 N 
ATOM     32  C   UNL A   1      39.356  21.773  26.296  1.00  0.00     0.251 C 
ATOM     33  H   UNL A   1      37.829  20.579  25.825  1.00  0.00     0.163 HD
ATOM     34  O   UNL A   1      40.177  20.858  26.185  1.00  0.00    -0.269 OA
BRANCH  32  35
ATOM     35  C   UNL A   1      39.816  23.108  26.744  1.00  0.00     0.039 A 
ATOM     36  C   UNL A   1      40.625  23.180  27.883  1.00  0.00     0.014 A 
ATOM     37  C   UNL A   1      39.414  24.288  26.109  1.00  0.00     0.014 A 
ATOM     38  C   UNL A   1      41.061  24.419  28.357  1.00  0.00     0.010 A 
ATOM     39  C   UNL A   1      39.902  25.522  26.544  1.00  0.00     0.010 A 
ATOM     40  C   UNL A   1      40.722  25.601  27.679  1.00  0.00    -0.014 A 
BRANCH  40  41
ATOM     41  C   UNL A   1      41.231  26.912  28.159  1.00  0.00     0.031 A 
ATOM     42  C   UNL A   1      42.682  27.277  28.008  1.00  0.00     0.074 A 
ATOM     43  C   UNL A   1      40.381  27.772  28.752  1.00  0.00     0.049 A 
ATOM     44  N   UNL A   1      43.290  28.391  28.335  1.00  0.00    -0.248 NA
ATOM     45  C   UNL A   1      43.570  26.255  27.437  1.00  0.00     0.031 C 
ATOM     46  C   UNL A   1      38.964  27.513  29.013  1.00  0.00     0.029 A 
ATOM     47  N   UNL A   1      40.583  29.038  29.239  1.00  0.00    -0.354 N 
ATOM     48  C   UNL A   1      44.629  28.199  28.016  1.00  0.00     0.074 A 
ATOM     49  C   UNL A   1      44.753  26.847  27.516  1.00  0.00     0.031 C 
ATOM     50  C   UNL A   1      38.416  28.598  29.581  1.00  0.00     0.029 A 
ATOM     51  C   UNL A   1      39.446  29.621  29.744  1.00  0.00     0.049 A 
ATOM     52  H   UNL A   1      41.459  29.487  29.227  1.00  0.00     0.167 HD
ATOM     53  C   UNL A   1      45.658  29.076  28.111  1.00  0.00     0.037 A 
ATOM     54  C   UNL A   1      39.251  30.844  30.269  1.00  0.00     0.037 A 
ATOM     55  C   UNL A   1      45.532  30.429  28.588  1.00  0.00     0.049 A 
ATOM     56  C   UNL A   1      40.401  31.809  30.333  1.00  0.00     0.074 A 
ATOM     57  C   UNL A   1      46.504  31.413  28.664  1.00  0.00     0.029 A 
ATOM     58  N   UNL A   1      44.360  30.988  29.075  1.00  0.00    -0.354 N 
ATOM     59  N   UNL A   1      41.644  31.639  29.956  1.00  0.00    -0.248 NA
ATOM     60  C   UNL A   1      40.115  33.141  30.885  1.00  0.00     0.031 C 
ATOM     61  C   UNL A   1      45.927  32.557  29.229  1.00  0.00     0.029 A 
ATOM     62  C   UNL A   1      44.587  32.298  29.468  1.00  0.00     0.049 A 
ATOM     63  H   UNL A   1      43.494  30.523  29.133  1.00  0.00     0.167 HD
ATOM     64  C   UNL A   1      42.285  32.845  30.207  1.00  0.00     0.074 A 
ATOM     65  C   UNL A   1      41.286  33.745  30.748  1.00  0.00     0.031 C 
ATOM     66  C   UNL A   1      43.585  33.177  30.012  1.00  0.00     0.037 A 
BRANCH  53  67
ATOM     67  C   UNL A   1      47.015  28.597  27.680  1.00  0.00     0.057 A 
ATOM     68  C   UNL A   1      47.926  28.047  28.591  1.00  0.00     0.134 A 
ATOM     69  C   UNL A   1      47.402  28.658  26.336  1.00  0.00     0.134 A 
ATOM     70  F   UNL A   1      47.621  27.969  29.895  1.00  0.00    -0.206 F 
ATOM     71  C   UNL A   1      49.185  27.600  28.185  1.00  0.00     0.040 A 
ATOM     72  C   UNL A   1      48.650  28.191  25.914  1.00  0.00     0.040 A 
ATOM     73  F   UNL A   1      46.576  29.166  25.409  1.00  0.00    -0.206 F 
ATOM     74  C   UNL A   1      49.547  27.665  26.841  1.00  0.00     0.006 A 
ENDBRANCH  53  67
BRANCH  54  75
ATOM     75  C   UNL A   1      37.901  31.243  30.735  1.00  0.00     0.057 A 
ATOM     76  C   UNL A   1      36.955  31.763  29.844  1.00  0.00     0.134 A 
ATOM     77  C   UNL A   1      37.523  31.111  32.076  1.00  0.00     0.134 A 
ATOM     78  F   UNL A   1      37.266  31.927  28.550  1.00  0.00    -0.206 F 
ATOM     79  C   UNL A   1      35.686  32.156  30.272  1.00  0.00     0.040 A 
ATOM     80  C   UNL A   1      36.250  31.479  32.514  1.00  0.00     0.040 A 
ATOM     81  F   UNL A   1      38.382  30.611  32.976  1.00  0.00    -0.206 F 
ATOM     82  C   UNL A   1      35.330  32.009  31.611  1.00  0.00     0.006 A 
ENDBRANCH  54  75
BRANCH  66  83
ATOM     83  C   UNL A   1      43.988  34.576  30.374  1.00  0.00     0.057 A 
ATOM     84  C   UNL A   1      43.905  35.628  29.452  1.00  0.00     0.134 A 
ATOM     85  C   UNL A   1      44.458  34.875  31.659  1.00  0.00     0.134 A 
ATOM     86  F   UNL A   1      43.477  35.403  28.200  1.00  0.00    -0.206 F 
ATOM     87  C   UNL A   1      44.306  36.923  29.786  1.00  0.00     0.040 A 
ATOM     88  C   UNL A   1      44.838  36.171  32.012  1.00  0.00     0.040 A 
ATOM     89  F   UNL A   1      44.555  33.916  32.590  1.00  0.00    -0.206 F 
ATOM     90  C   UNL A   1      44.770  37.197  31.071  1.00  0.00     0.006 A 
ENDBRANCH  66  83
ENDBRANCH  40  41
ENDBRANCH  32  35
ENDBRANCH  30  31
ENDBRANCH  29  30
ENDBRANCH   1  29
TORSDOF 15
ENDMDL
MODEL 3
REMARK VINA RESULT:     -11.6      1.626      3.481
REMARK SMILES COc1ccc(NC(=O)NCc2ccc(C(=O)NCCCNC(=O)c3ccc(-c4c5nc(c(-c6c(F)cccc6F)c6ccc([nH]6)c(-c6c(F)cccc6F)c6nc(c(-c7c(F)cccc7F)c7ccc4[nH]7)C=C6)C=C5)cc3)cc2)c(OC)c1
REMARK SMILES IDX 19 1 18 2 16 3 17 4 15 6 12 7 13 8 80 9 14 10 79 11 11 12
REMARK SMILES IDX 10 13 7 14 8 15 9 17 6 19 3 20 4 21 84 22 5 23 81 24 2 25
REMARK SMILES IDX 1 26 82 27 83 28 20 29 21 30 22 31 23 32 24 34 25 35 26 36
REMARK SMILES IDX 78 37 27 38 77 39 28 40 29 41 30 42 71 43 31 44 76 45 70 46
REMARK SMILES IDX 72 47 32 48 75 49 69 50 68 51 33 53 59 54 42 55 58 56 43 57
REMARK SMILES IDX 46 58 57 59 73 60 44 61 45 62 56 64 74 65 47 66 34 67 35 68
REMARK SMILES IDX 40 69 36 70 37 71 39 72 41 73 38 74 60 75 61 76 66 77 62 78
REMARK SMILES IDX 63 79 65 80 67 81 64 82 48 83 49 84 54 85 50 86 51 87 53 88
REMARK SMILES IDX 55 89 52 90
REMARK H PARENT 18 5 7 16 10 18 22 33 72 52 46 63
REMARK Flexibility Score: inf
ROOT
ATOM      1  C   UNL A   1      37.212  20.757  24.864  1.00  0.00     0.118 C 
ENDROOT
BRANCH   1   2
ATOM      2  N   UNL A   1      37.656  21.909  25.627  1.00  0.00    -0.352 N 
ATOM      3  C   UNL A   1      37.206  23.204  25.676  1.00  0.00     0.251 C 
ATOM      4  O   UNL A   1      37.715  23.961  26.503  1.00  0.00    -0.269 OA
ATOM      5  H   UNL A   1      38.421  21.728  26.219  1.00  0.00     0.163 HD
BRANCH   3   6
ATOM      6  C   UNL A   1      36.092  23.702  24.829  1.00  0.00     0.039 A 
ATOM      7  C   UNL A   1      33.838  24.642  23.426  1.00  0.00    -0.029 A 
ATOM      8  C   UNL A   1      34.217  25.235  24.637  1.00  0.00     0.006 A 
ATOM      9  C   UNL A   1      34.654  23.645  22.876  1.00  0.00     0.006 A 
ATOM     10  C   UNL A   1      35.333  24.766  25.332  1.00  0.00     0.014 A 
ATOM     11  C   UNL A   1      35.780  23.187  23.568  1.00  0.00     0.014 A 
BRANCH   7  12
ATOM     12  C   UNL A   1      32.504  24.966  22.808  1.00  0.00     0.153 C 
BRANCH  12  13
ATOM     13  N   UNL A   1      31.443  25.259  23.740  1.00  0.00    -0.334 N 
ATOM     14  N   UNL A   1      30.851  23.321  25.012  1.00  0.00    -0.305 N 
ATOM     15  C   UNL A   1      30.747  24.615  24.682  1.00  0.00     0.319 C 
ATOM     16  H   UNL A   1      30.084  23.027  25.555  1.00  0.00     0.172 HD
ATOM     17  O   UNL A   1      29.847  25.265  25.229  1.00  0.00    -0.248 OA
ATOM     18  H   UNL A   1      31.148  26.195  23.660  1.00  0.00     0.165 HD
BRANCH  14  19
ATOM     19  C   UNL A   1      31.754  22.274  24.795  1.00  0.00     0.085 A 
ATOM     20  C   UNL A   1      33.377  19.992  24.690  1.00  0.00     0.122 A 
ATOM     21  C   UNL A   1      32.601  20.364  23.591  1.00  0.00     0.049 A 
ATOM     22  C   UNL A   1      33.469  20.854  25.779  1.00  0.00     0.095 A 
ATOM     23  C   UNL A   1      31.815  21.519  23.634  1.00  0.00     0.034 A 
ATOM     24  C   UNL A   1      32.698  22.021  25.804  1.00  0.00     0.146 A 
BRANCH  20  25
ATOM     25  O   UNL A   1      34.015  18.788  24.576  1.00  0.00    -0.497 OA
ATOM     26  C   UNL A   1      33.306  17.653  25.064  1.00  0.00     0.278 C 
ENDBRANCH  20  25
BRANCH  24  27
ATOM     27  O   UNL A   1      32.778  22.919  26.843  1.00  0.00    -0.494 OA
ATOM     28  C   UNL A   1      33.320  22.337  28.031  1.00  0.00     0.278 C 
ENDBRANCH  24  27
ENDBRANCH  14  19
ENDBRANCH  12  13
ENDBRANCH   7  12
ENDBRANCH   3   6
ENDBRANCH   1   2
BRANCH   1  29
ATOM     29  C   UNL A   1      38.194  19.592  24.980  1.00  0.00     0.042 C 
BRANCH  29  30
ATOM     30  C   UNL A   1      39.210  19.737  26.112  1.00  0.00     0.118 C 
BRANCH  30  31
ATOM     31  N   UNL A   1      40.486  19.114  25.801  1.00  0.00    -0.352 N 
ATOM     32  C   UNL A   1      41.758  19.617  25.875  1.00  0.00     0.251 C 
ATOM     33  H   UNL A   1      40.427  18.182  25.488  1.00  0.00     0.163 HD
ATOM     34  O   UNL A   1      42.686  18.962  25.392  1.00  0.00    -0.269 OA
BRANCH  32  35
ATOM     35  C   UNL A   1      42.046  20.930  26.497  1.00  0.00     0.039 A 
ATOM     36  C   UNL A   1      42.415  21.990  25.661  1.00  0.00     0.014 A 
ATOM     37  C   UNL A   1      42.025  21.121  27.882  1.00  0.00     0.014 A 
ATOM     38  C   UNL A   1      42.721  23.239  26.204  1.00  0.00     0.010 A 
ATOM     39  C   UNL A   1      42.268  22.386  28.421  1.00  0.00     0.010 A 
ATOM     40  C   UNL A   1      42.628  23.456  27.589  1.00  0.00    -0.014 A 
BRANCH  40  41
ATOM     41  C   UNL A   1      42.905  24.801  28.156  1.00  0.00     0.031 A 
ATOM     42  C   UNL A   1      44.306  25.210  28.519  1.00  0.00     0.074 A 
ATOM     43  C   UNL A   1      41.882  25.652  28.364  1.00  0.00     0.049 A 
ATOM     44  N   UNL A   1      44.735  26.356  28.990  1.00  0.00    -0.248 NA
ATOM     45  C   UNL A   1      45.359  24.199  28.354  1.00  0.00     0.031 C 
ATOM     46  C   UNL A   1      40.472  25.354  28.111  1.00  0.00     0.029 A 
ATOM     47  N   UNL A   1      41.872  26.941  28.830  1.00  0.00    -0.354 N 
ATOM     48  C   UNL A   1      46.102  26.199  29.182  1.00  0.00     0.074 A 
ATOM     49  C   UNL A   1      46.423  24.834  28.825  1.00  0.00     0.031 C 
ATOM     50  C   UNL A   1      39.736  26.440  28.393  1.00  0.00     0.029 A 
ATOM     51  C   UNL A   1      40.618  27.503  28.865  1.00  0.00     0.049 A 
ATOM     52  H   UNL A   1      42.684  27.420  29.112  1.00  0.00     0.167 HD
ATOM     53  C   UNL A   1      47.011  27.114  29.598  1.00  0.00     0.037 A 
ATOM     54  C   UNL A   1      40.224  28.737  29.228  1.00  0.00     0.037 A 
ATOM     55  C   UNL A   1      46.696  28.478  29.934  1.00  0.00     0.049 A 
ATOM     56  C   UNL A   1      41.255  29.743  29.654  1.00  0.00     0.074 A 
ATOM     57  C   UNL A   1      47.556  29.498  30.307  1.00  0.00     0.029 A 
ATOM     58  N   UNL A   1      45.417  29.014  29.941  1.00  0.00    -0.354 N 
ATOM     59  N   UNL A   1      42.554  29.603  29.757  1.00  0.00    -0.248 NA
ATOM     60  C   UNL A   1      40.764  31.084  30.003  1.00  0.00     0.031 C 
ATOM     61  C   UNL A   1      46.793  30.642  30.572  1.00  0.00     0.029 A 
ATOM     62  C   UNL A   1      45.462  30.345  30.327  1.00  0.00     0.049 A 
ATOM     63  H   UNL A   1      44.597  28.522  29.707  1.00  0.00     0.167 HD
ATOM     64  C   UNL A   1      43.038  30.839  30.164  1.00  0.00     0.074 A 
ATOM     65  C   UNL A   1      41.895  31.723  30.268  1.00  0.00     0.031 C 
ATOM     66  C   UNL A   1      44.314  31.208  30.433  1.00  0.00     0.037 A 
BRANCH  53  67
ATOM     67  C   UNL A   1      48.440  26.666  29.706  1.00  0.00     0.057 A 
ATOM     68  C   UNL A   1      49.359  26.879  28.670  1.00  0.00     0.134 A 
ATOM     69  C   UNL A   1      48.910  26.043  30.868  1.00  0.00     0.134 A 
ATOM     70  F   UNL A   1      48.971  27.461  27.526  1.00  0.00    -0.206 F 
ATOM     71  C   UNL A   1      50.688  26.464  28.776  1.00  0.00     0.040 A 
ATOM     72  C   UNL A   1      50.244  25.646  30.996  1.00  0.00     0.040 A 
ATOM     73  F   UNL A   1      48.086  25.815  31.901  1.00  0.00    -0.206 F 
ATOM     74  C   UNL A   1      51.135  25.852  29.944  1.00  0.00     0.006 A 
ENDBRANCH  53  67
BRANCH  54  75
ATOM     75  C   UNL A   1      38.789  29.106  29.159  1.00  0.00     0.057 A 
ATOM     76  C   UNL A   1      37.969  29.030  30.291  1.00  0.00     0.134 A 
ATOM     77  C   UNL A   1      38.205  29.546  27.965  1.00  0.00     0.134 A 
ATOM     78  F   UNL A   1      38.470  28.600  31.458  1.00  0.00    -0.206 F 
ATOM     79  C   UNL A   1      36.615  29.361  30.236  1.00  0.00     0.040 A 
ATOM     80  C   UNL A   1      36.857  29.901  27.901  1.00  0.00     0.040 A 
ATOM     81  F   UNL A   1      38.940  29.649  26.849  1.00  0.00    -0.206 F 
ATOM     82  C   UNL A   1      36.057  29.802  29.037  1.00  0.00     0.006 A 
ENDBRANCH  54  75
BRANCH  66  83
ATOM     83  C   UNL A   1      44.533  32.633  30.849  1.00  0.00     0.057 A 
ATOM     84  C   UNL A   1      44.762  33.647  29.910  1.00  0.00     0.134 A 
ATOM     85  C   UNL A   1      44.508  32.995  32.202  1.00  0.00     0.134 A 
ATOM     86  F   UNL A   1      44.813  33.362  28.600  1.00  0.00    -0.206 F 
ATOM     87  C   UNL A   1      44.992  34.967  30.304  1.00  0.00     0.040 A 
ATOM     88  C   UNL A   1      44.711  34.315  32.606  1.00  0.00     0.040 A 
ATOM     89  F   UNL A   1      44.287  32.074  33.150  1.00  0.00    -0.206 F 
ATOM     90  C   UNL A   1      44.962  35.304  31.656  1.00  0.00     0.006 A 
ENDBRANCH  66  83
ENDBRANCH  40  41
ENDBRANCH  32  35
ENDBRANCH  30  31
ENDBRANCH  29  30
ENDBRANCH   1  29
TORSDOF 15
ENDMDL
