MODEL 1
REMARK VINA RESULT:     -13.4      0.000      0.000
REMARK SMILES O=C(NCCCNC(=O)c1ccc2nc(-c3c[nH]nc3-c3ccc(F)cc3F)[nH]c2c1)c1ccc(-c2c3nc(c(-c4c(F)cccc4F)c4ccc([nH]4)c(-c4c(F)cccc4F)c4nc(c(-c5c(F)cccc5F)c5ccc2[nH]5)C=C4)C=C3)cc1
REMARK SMILES IDX 5 1 4 2 3 3 1 4 2 5 32 7 33 8 85 9 34 10 84 11 35 12 36 13
REMARK SMILES IDX 37 14 78 15 38 16 83 17 77 18 79 19 39 20 82 21 76 22 75 23
REMARK SMILES IDX 40 25 66 26 49 27 65 28 50 29 53 30 64 31 80 32 51 33 52 34
REMARK SMILES IDX 63 36 81 37 54 38 41 39 42 40 47 41 43 42 44 43 46 44 48 45
REMARK SMILES IDX 45 46 67 47 68 48 73 49 69 50 70 51 72 52 74 53 71 54 55 55
REMARK SMILES IDX 56 56 61 57 57 58 58 59 60 60 62 61 59 62 6 63 7 64 8 65
REMARK SMILES IDX 9 67 10 68 11 69 31 70 12 71 30 72 13 73 29 74 14 75 15 76
REMARK SMILES IDX 16 78 17 79 20 80 18 81 19 82 21 84 22 85 27 86 23 87 26 88
REMARK SMILES IDX 28 89 24 90 25 91
REMARK H PARENT 3 6 79 24 53 35 7 66 29 77 18 83
REMARK Flexibility Score: inf
ROOT
ATOM      1  C   UNL A   1      40.384  22.436  27.615  1.00  0.00     0.042 C 
ENDROOT
BRANCH   1   2
ATOM      2  C   UNL A   1      41.680  23.222  27.501  1.00  0.00     0.118 C 
BRANCH   2   3
ATOM      3  N   UNL A   1      41.757  24.007  26.277  1.00  0.00    -0.352 N 
ATOM      4  O   UNL A   1      41.435  25.784  24.926  1.00  0.00    -0.269 OA
ATOM      5  C   UNL A   1      41.491  25.338  26.070  1.00  0.00     0.251 C 
ATOM      6  H   UNL A   1      42.044  23.509  25.477  1.00  0.00     0.163 HD
BRANCH   5   7
ATOM      7  C   UNL A   1      41.260  26.232  27.223  1.00  0.00     0.039 A 
ATOM      8  C   UNL A   1      42.149  27.272  27.499  1.00  0.00     0.014 A 
ATOM      9  C   UNL A   1      40.126  26.048  28.021  1.00  0.00     0.014 A 
ATOM     10  C   UNL A   1      41.992  28.027  28.652  1.00  0.00     0.010 A 
ATOM     11  C   UNL A   1      39.909  26.884  29.119  1.00  0.00     0.010 A 
ATOM     12  C   UNL A   1      40.849  27.871  29.451  1.00  0.00    -0.014 A 
BRANCH  12  13
ATOM     13  C   UNL A   1      40.604  28.847  30.540  1.00  0.00     0.031 A 
ATOM     14  C   UNL A   1      39.528  29.887  30.441  1.00  0.00     0.074 A 
ATOM     15  C   UNL A   1      41.370  28.757  31.646  1.00  0.00     0.049 A 
ATOM     16  N   UNL A   1      39.197  30.805  31.314  1.00  0.00    -0.248 NA
ATOM     17  C   UNL A   1      38.720  29.910  29.211  1.00  0.00     0.031 C 
ATOM     18  C   UNL A   1      42.454  27.787  31.840  1.00  0.00     0.029 A 
ATOM     19  N   UNL A   1      41.353  29.467  32.818  1.00  0.00    -0.354 N 
ATOM     20  C   UNL A   1      38.157  31.522  30.739  1.00  0.00     0.074 A 
ATOM     21  C   UNL A   1      37.919  30.947  29.432  1.00  0.00     0.031 C 
ATOM     22  C   UNL A   1      42.963  27.932  33.071  1.00  0.00     0.029 A 
ATOM     23  C   UNL A   1      42.301  29.053  33.724  1.00  0.00     0.049 A 
ATOM     24  H   UNL A   1      40.721  30.201  32.995  1.00  0.00     0.167 HD
ATOM     25  C   UNL A   1      37.465  32.561  31.264  1.00  0.00     0.037 A 
ATOM     26  C   UNL A   1      42.628  29.541  34.934  1.00  0.00     0.037 A 
ATOM     27  C   UNL A   1      37.702  33.109  32.576  1.00  0.00     0.049 A 
ATOM     28  C   UNL A   1      41.867  30.717  35.466  1.00  0.00     0.074 A 
ATOM     29  C   UNL A   1      37.016  34.130  33.214  1.00  0.00     0.029 A 
ATOM     30  N   UNL A   1      38.697  32.690  33.446  1.00  0.00    -0.354 N 
ATOM     31  N   UNL A   1      40.855  31.354  34.929  1.00  0.00    -0.248 NA
ATOM     32  C   UNL A   1      42.298  31.254  36.763  1.00  0.00     0.031 C 
ATOM     33  C   UNL A   1      37.633  34.366  34.445  1.00  0.00     0.029 A 
ATOM     34  C   UNL A   1      38.668  33.458  34.599  1.00  0.00     0.049 A 
ATOM     35  H   UNL A   1      39.330  31.957  33.270  1.00  0.00     0.167 HD
ATOM     36  C   UNL A   1      40.524  32.361  35.823  1.00  0.00     0.074 A 
ATOM     37  C   UNL A   1      41.422  32.231  36.953  1.00  0.00     0.031 C 
ATOM     38  C   UNL A   1      39.569  33.314  35.713  1.00  0.00     0.037 A 
BRANCH  25  39
ATOM     39  C   UNL A   1      36.381  33.192  30.442  1.00  0.00     0.057 A 
ATOM     40  C   UNL A   1      35.045  32.804  30.611  1.00  0.00     0.134 A 
ATOM     41  C   UNL A   1      36.670  34.075  29.394  1.00  0.00     0.134 A 
ATOM     42  F   UNL A   1      34.702  31.954  31.590  1.00  0.00    -0.206 F 
ATOM     43  C   UNL A   1      34.041  33.248  29.751  1.00  0.00     0.040 A 
ATOM     44  C   UNL A   1      35.671  34.542  28.539  1.00  0.00     0.040 A 
ATOM     45  F   UNL A   1      37.928  34.489  29.183  1.00  0.00    -0.206 F 
ATOM     46  C   UNL A   1      34.353  34.116  28.706  1.00  0.00     0.006 A 
ENDBRANCH  25  39
BRANCH  26  47
ATOM     47  C   UNL A   1      43.748  28.934  35.697  1.00  0.00     0.057 A 
ATOM     48  C   UNL A   1      43.536  27.851  36.562  1.00  0.00     0.134 A 
ATOM     49  C   UNL A   1      45.053  29.425  35.590  1.00  0.00     0.134 A 
ATOM     50  F   UNL A   1      42.307  27.337  36.716  1.00  0.00    -0.206 F 
ATOM     51  C   UNL A   1      44.576  27.292  37.304  1.00  0.00     0.040 A 
ATOM     52  C   UNL A   1      46.109  28.854  36.302  1.00  0.00     0.040 A 
ATOM     53  F   UNL A   1      45.323  30.450  34.768  1.00  0.00    -0.206 F 
ATOM     54  C   UNL A   1      45.870  27.788  37.168  1.00  0.00     0.006 A 
ENDBRANCH  26  47
BRANCH  38  55
ATOM     55  C   UNL A   1      39.441  34.292  36.842  1.00  0.00     0.057 A 
ATOM     56  C   UNL A   1      40.058  35.548  36.775  1.00  0.00     0.134 A 
ATOM     57  C   UNL A   1      38.761  33.964  38.021  1.00  0.00     0.134 A 
ATOM     58  F   UNL A   1      40.732  35.919  35.676  1.00  0.00    -0.206 F 
ATOM     59  C   UNL A   1      40.016  36.437  37.850  1.00  0.00     0.040 A 
ATOM     60  C   UNL A   1      38.689  34.855  39.091  1.00  0.00     0.040 A 
ATOM     61  F   UNL A   1      38.138  32.782  38.140  1.00  0.00    -0.206 F 
ATOM     62  C   UNL A   1      39.328  36.092  39.011  1.00  0.00     0.006 A 
ENDBRANCH  38  55
ENDBRANCH  12  13
ENDBRANCH   5   7
ENDBRANCH   2   3
ENDBRANCH   1   2
BRANCH   1  63
ATOM     63  C   UNL A   1      39.448  22.631  26.432  1.00  0.00     0.118 C 
BRANCH  63  64
ATOM     64  N   UNL A   1      39.245  21.392  25.698  1.00  0.00    -0.352 N 
ATOM     65  C   UNL A   1      38.093  20.877  25.167  1.00  0.00     0.251 C 
ATOM     66  H   UNL A   1      40.051  20.844  25.564  1.00  0.00     0.163 HD
ATOM     67  O   UNL A   1      38.049  19.703  24.811  1.00  0.00    -0.269 OA
BRANCH  65  68
ATOM     68  C   UNL A   1      36.899  21.732  25.016  1.00  0.00     0.042 A 
ATOM     69  C   UNL A   1      36.713  22.478  23.843  1.00  0.00     0.016 A 
ATOM     70  C   UNL A   1      35.938  21.712  26.041  1.00  0.00     0.042 A 
ATOM     71  C   UNL A   1      35.561  23.249  23.665  1.00  0.00     0.031 A 
ATOM     72  C   UNL A   1      34.802  22.494  25.832  1.00  0.00     0.067 A 
ATOM     73  C   UNL A   1      34.583  23.221  24.666  1.00  0.00     0.089 A 
ATOM     74  N   UNL A   1      33.688  22.741  26.595  1.00  0.00    -0.338 N 
ATOM     75  N   UNL A   1      33.343  23.789  24.674  1.00  0.00    -0.228 NA
ATOM     76  C   UNL A   1      32.814  23.474  25.835  1.00  0.00     0.142 A 
ATOM     77  H   UNL A   1      33.542  22.444  27.522  1.00  0.00     0.168 HD
BRANCH  76  78
ATOM     78  C   UNL A   1      31.427  23.816  26.213  1.00  0.00     0.063 A 
ATOM     79  C   UNL A   1      30.416  22.941  26.523  1.00  0.00     0.117 A 
ATOM     80  C   UNL A   1      30.862  25.118  26.308  1.00  0.00     0.106 A 
ATOM     81  N   UNL A   1      29.360  23.730  26.875  1.00  0.00    -0.284 N 
ATOM     82  N   UNL A   1      29.580  25.043  26.701  1.00  0.00    -0.175 NA
ATOM     83  H   UNL A   1      28.513  23.368  27.225  1.00  0.00     0.189 HD
BRANCH  80  84
ATOM     84  C   UNL A   1      31.462  26.375  25.878  1.00  0.00     0.039 A 
ATOM     85  C   UNL A   1      32.537  26.911  26.611  1.00  0.00     0.016 A 
ATOM     86  C   UNL A   1      30.994  27.070  24.760  1.00  0.00     0.135 A 
ATOM     87  C   UNL A   1      33.119  28.121  26.232  1.00  0.00     0.040 A 
ATOM     88  C   UNL A   1      31.576  28.276  24.374  1.00  0.00     0.079 A 
ATOM     89  F   UNL A   1      29.961  26.605  24.042  1.00  0.00    -0.206 F 
ATOM     90  C   UNL A   1      32.632  28.791  25.115  1.00  0.00     0.126 A 
ATOM     91  F   UNL A   1      33.191  29.952  24.752  1.00  0.00    -0.207 F 
ENDBRANCH  80  84
ENDBRANCH  76  78
ENDBRANCH  65  68
ENDBRANCH  63  64
ENDBRANCH   1  63
TORSDOF 12
ENDMDL
MODEL 2
REMARK VINA RESULT:     -13.2      3.922      7.379
REMARK SMILES O=C(NCCCNC(=O)c1ccc2nc(-c3c[nH]nc3-c3ccc(F)cc3F)[nH]c2c1)c1ccc(-c2c3nc(c(-c4c(F)cccc4F)c4ccc([nH]4)c(-c4c(F)cccc4F)c4nc(c(-c5c(F)cccc5F)c5ccc2[nH]5)C=C4)C=C3)cc1
REMARK SMILES IDX 5 1 4 2 3 3 1 4 2 5 32 7 33 8 85 9 34 10 84 11 35 12 36 13
REMARK SMILES IDX 37 14 78 15 38 16 83 17 77 18 79 19 39 20 82 21 76 22 75 23
REMARK SMILES IDX 40 25 66 26 49 27 65 28 50 29 53 30 64 31 80 32 51 33 52 34
REMARK SMILES IDX 63 36 81 37 54 38 41 39 42 40 47 41 43 42 44 43 46 44 48 45
REMARK SMILES IDX 45 46 67 47 68 48 73 49 69 50 70 51 72 52 74 53 71 54 55 55
REMARK SMILES IDX 56 56 61 57 57 58 58 59 60 60 62 61 59 62 6 63 7 64 8 65
REMARK SMILES IDX 9 67 10 68 11 69 31 70 12 71 30 72 13 73 29 74 14 75 15 76
REMARK SMILES IDX 16 78 17 79 20 80 18 81 19 82 21 84 22 85 27 86 23 87 26 88
REMARK SMILES IDX 28 89 24 90 25 91
REMARK H PARENT 3 6 79 24 53 35 7 66 29 77 18 83
REMARK Flexibility Score: inf
ROOT
ATOM      1  C   UNL A   1      35.569  22.768  25.218  1.00  0.00     0.042 C 
ENDROOT
BRANCH   1   2
ATOM      2  C   UNL A   1      36.812  23.416  25.807  1.00  0.00     0.118 C 
BRANCH   2   3
ATOM      3  N   UNL A   1      37.879  22.459  26.063  1.00  0.00    -0.352 N 
ATOM      4  O   UNL A   1      39.983  21.751  26.458  1.00  0.00    -0.269 OA
ATOM      5  C   UNL A   1      39.171  22.674  26.472  1.00  0.00     0.251 C 
ATOM      6  H   UNL A   1      37.637  21.515  25.922  1.00  0.00     0.163 HD
BRANCH   5   7
ATOM      7  C   UNL A   1      39.590  24.018  26.918  1.00  0.00     0.039 A 
ATOM      8  C   UNL A   1      39.517  24.370  28.267  1.00  0.00     0.014 A 
ATOM      9  C   UNL A   1      40.089  24.930  25.982  1.00  0.00     0.014 A 
ATOM     10  C   UNL A   1      39.793  25.671  28.658  1.00  0.00     0.010 A 
ATOM     11  C   UNL A   1      40.476  26.208  26.397  1.00  0.00     0.010 A 
ATOM     12  C   UNL A   1      40.317  26.592  27.737  1.00  0.00    -0.014 A 
BRANCH  12  13
ATOM     13  C   UNL A   1      40.814  27.896  28.239  1.00  0.00     0.031 A 
ATOM     14  C   UNL A   1      42.275  28.234  28.245  1.00  0.00     0.074 A 
ATOM     15  C   UNL A   1      39.901  28.789  28.673  1.00  0.00     0.049 A 
ATOM     16  N   UNL A   1      42.856  29.335  28.651  1.00  0.00    -0.248 NA
ATOM     17  C   UNL A   1      43.208  27.217  27.735  1.00  0.00     0.031 C 
ATOM     18  C   UNL A   1      38.454  28.555  28.722  1.00  0.00     0.029 A 
ATOM     19  N   UNL A   1      40.041  30.070  29.139  1.00  0.00    -0.354 N 
ATOM     20  C   UNL A   1      44.218  29.141  28.462  1.00  0.00     0.074 A 
ATOM     21  C   UNL A   1      44.382  27.809  27.920  1.00  0.00     0.031 C 
ATOM     22  C   UNL A   1      37.839  29.667  29.144  1.00  0.00     0.029 A 
ATOM     23  C   UNL A   1      38.848  30.665  29.473  1.00  0.00     0.049 A 
ATOM     24  H   UNL A   1      40.912  30.521  29.225  1.00  0.00     0.167 HD
ATOM     25  C   UNL A   1      45.229  30.004  28.715  1.00  0.00     0.037 A 
ATOM     26  C   UNL A   1      38.591  31.868  30.017  1.00  0.00     0.037 A 
ATOM     27  C   UNL A   1      45.046  31.335  29.236  1.00  0.00     0.049 A 
ATOM     28  C   UNL A   1      39.739  32.781  30.321  1.00  0.00     0.074 A 
ATOM     29  C   UNL A   1      46.009  32.301  29.477  1.00  0.00     0.029 A 
ATOM     30  N   UNL A   1      43.826  31.886  29.600  1.00  0.00    -0.354 N 
ATOM     31  N   UNL A   1      41.018  32.600  30.093  1.00  0.00    -0.248 NA
ATOM     32  C   UNL A   1      39.417  34.059  30.969  1.00  0.00     0.031 C 
ATOM     33  C   UNL A   1      45.380  33.414  30.040  1.00  0.00     0.029 A 
ATOM     34  C   UNL A   1      44.018  33.164  30.099  1.00  0.00     0.049 A 
ATOM     35  H   UNL A   1      42.955  31.436  29.517  1.00  0.00     0.167 HD
ATOM     36  C   UNL A   1      41.651  33.741  30.563  1.00  0.00     0.074 A 
ATOM     37  C   UNL A   1      40.614  34.622  31.059  1.00  0.00     0.031 C 
ATOM     38  C   UNL A   1      42.975  34.027  30.589  1.00  0.00     0.037 A 
BRANCH  25  39
ATOM     39  C   UNL A   1      46.637  29.562  28.441  1.00  0.00     0.057 A 
ATOM     40  C   UNL A   1      47.182  29.689  27.156  1.00  0.00     0.134 A 
ATOM     41  C   UNL A   1      47.398  28.889  29.403  1.00  0.00     0.134 A 
ATOM     42  F   UNL A   1      46.501  30.316  26.185  1.00  0.00    -0.206 F 
ATOM     43  C   UNL A   1      48.422  29.137  26.832  1.00  0.00     0.040 A 
ATOM     44  C   UNL A   1      48.648  28.350  29.096  1.00  0.00     0.040 A 
ATOM     45  F   UNL A   1      46.935  28.739  30.653  1.00  0.00    -0.206 F 
ATOM     46  C   UNL A   1      49.157  28.460  27.802  1.00  0.00     0.006 A 
ENDBRANCH  25  39
BRANCH  26  47
ATOM     47  C   UNL A   1      37.192  32.252  30.334  1.00  0.00     0.057 A 
ATOM     48  C   UNL A   1      36.406  32.961  29.416  1.00  0.00     0.134 A 
ATOM     49  C   UNL A   1      36.610  31.929  31.564  1.00  0.00     0.134 A 
ATOM     50  F   UNL A   1      36.907  33.309  28.221  1.00  0.00    -0.206 F 
ATOM     51  C   UNL A   1      35.100  33.350  29.716  1.00  0.00     0.040 A 
ATOM     52  C   UNL A   1      35.293  32.283  31.865  1.00  0.00     0.040 A 
ATOM     53  F   UNL A   1      37.305  31.238  32.479  1.00  0.00    -0.206 F 
ATOM     54  C   UNL A   1      34.537  33.003  30.941  1.00  0.00     0.006 A 
ENDBRANCH  26  47
BRANCH  38  55
ATOM     55  C   UNL A   1      43.379  35.347  31.173  1.00  0.00     0.057 A 
ATOM     56  C   UNL A   1      43.639  36.447  30.346  1.00  0.00     0.134 A 
ATOM     57  C   UNL A   1      43.573  35.509  32.551  1.00  0.00     0.134 A 
ATOM     58  F   UNL A   1      43.481  36.353  29.017  1.00  0.00    -0.206 F 
ATOM     59  C   UNL A   1      44.094  37.658  30.868  1.00  0.00     0.040 A 
ATOM     60  C   UNL A   1      44.002  36.723  33.086  1.00  0.00     0.040 A 
ATOM     61  F   UNL A   1      43.327  34.497  33.395  1.00  0.00    -0.206 F 
ATOM     62  C   UNL A   1      44.275  37.799  32.242  1.00  0.00     0.006 A 
ENDBRANCH  38  55
ENDBRANCH  12  13
ENDBRANCH   5   7
ENDBRANCH   2   3
ENDBRANCH   1   2
BRANCH   1  63
ATOM     63  C   UNL A   1      34.771  21.956  26.227  1.00  0.00     0.118 C 
BRANCH  63  64
ATOM     64  N   UNL A   1      33.956  20.942  25.576  1.00  0.00    -0.352 N 
ATOM     65  C   UNL A   1      32.615  20.950  25.301  1.00  0.00     0.251 C 
ATOM     66  H   UNL A   1      34.439  20.132  25.293  1.00  0.00     0.163 HD
ATOM     67  O   UNL A   1      32.045  19.910  24.986  1.00  0.00    -0.269 OA
BRANCH  65  68
ATOM     68  C   UNL A   1      31.851  22.211  25.378  1.00  0.00     0.042 A 
ATOM     69  C   UNL A   1      31.140  22.530  26.544  1.00  0.00     0.016 A 
ATOM     70  C   UNL A   1      31.923  23.095  24.290  1.00  0.00     0.042 A 
ATOM     71  C   UNL A   1      30.457  23.745  26.651  1.00  0.00     0.031 A 
ATOM     72  C   UNL A   1      31.229  24.297  24.428  1.00  0.00     0.067 A 
ATOM     73  C   UNL A   1      30.539  24.647  25.585  1.00  0.00     0.089 A 
ATOM     74  N   UNL A   1      31.050  25.372  23.593  1.00  0.00    -0.338 N 
ATOM     75  N   UNL A   1      30.061  25.922  25.498  1.00  0.00    -0.228 NA
ATOM     76  C   UNL A   1      30.394  26.347  24.299  1.00  0.00     0.142 A 
ATOM     77  H   UNL A   1      31.341  25.432  22.654  1.00  0.00     0.168 HD
BRANCH  76  78
ATOM     78  C   UNL A   1      30.147  27.726  23.830  1.00  0.00     0.063 A 
ATOM     79  C   UNL A   1      29.300  28.115  22.822  1.00  0.00     0.117 A 
ATOM     80  C   UNL A   1      30.755  28.917  24.314  1.00  0.00     0.106 A 
ATOM     81  N   UNL A   1      29.361  29.479  22.817  1.00  0.00    -0.284 N 
ATOM     82  N   UNL A   1      30.269  29.987  23.664  1.00  0.00    -0.175 NA
ATOM     83  H   UNL A   1      28.788  30.039  22.242  1.00  0.00     0.189 HD
BRANCH  80  84
ATOM     84  C   UNL A   1      31.877  29.023  25.238  1.00  0.00     0.039 A 
ATOM     85  C   UNL A   1      31.712  29.731  26.443  1.00  0.00     0.016 A 
ATOM     86  C   UNL A   1      33.118  28.445  24.959  1.00  0.00     0.135 A 
ATOM     87  C   UNL A   1      32.775  29.863  27.338  1.00  0.00     0.040 A 
ATOM     88  C   UNL A   1      34.181  28.569  25.853  1.00  0.00     0.079 A 
ATOM     89  F   UNL A   1      33.325  27.775  23.816  1.00  0.00    -0.206 F 
ATOM     90  C   UNL A   1      33.998  29.279  27.033  1.00  0.00     0.126 A 
ATOM     91  F   UNL A   1      35.017  29.406  27.893  1.00  0.00    -0.207 F 
ENDBRANCH  80  84
ENDBRANCH  76  78
ENDBRANCH  65  68
ENDBRANCH  63  64
ENDBRANCH   1  63
TORSDOF 12
ENDMDL
MODEL 3
REMARK VINA RESULT:     -13.2      3.941      5.425
REMARK SMILES O=C(NCCCNC(=O)c1ccc2nc(-c3c[nH]nc3-c3ccc(F)cc3F)[nH]c2c1)c1ccc(-c2c3nc(c(-c4c(F)cccc4F)c4ccc([nH]4)c(-c4c(F)cccc4F)c4nc(c(-c5c(F)cccc5F)c5ccc2[nH]5)C=C4)C=C3)cc1
REMARK SMILES IDX 5 1 4 2 3 3 1 4 2 5 32 7 33 8 85 9 34 10 84 11 35 12 36 13
REMARK SMILES IDX 37 14 78 15 38 16 83 17 77 18 79 19 39 20 82 21 76 22 75 23
REMARK SMILES IDX 40 25 66 26 49 27 65 28 50 29 53 30 64 31 80 32 51 33 52 34
REMARK SMILES IDX 63 36 81 37 54 38 41 39 42 40 47 41 43 42 44 43 46 44 48 45
REMARK SMILES IDX 45 46 67 47 68 48 73 49 69 50 70 51 72 52 74 53 71 54 55 55
REMARK SMILES IDX 56 56 61 57 57 58 58 59 60 60 62 61 59 62 6 63 7 64 8 65
REMARK SMILES IDX 9 67 10 68 11 69 31 70 12 71 30 72 13 73 29 74 14 75 15 76
REMARK SMILES IDX 16 78 17 79 20 80 18 81 19 82 21 84 22 85 27 86 23 87 26 88
REMARK SMILES IDX 28 89 24 90 25 91
REMARK H PARENT 3 6 79 24 53 35 7 66 29 77 18 83
REMARK Flexibility Score: inf
ROOT
ATOM      1  C   UNL A   1      35.862  22.420  25.147  1.00  0.00     0.042 C 
ENDROOT
BRANCH   1   2
ATOM      2  C   UNL A   1      37.037  23.119  25.811  1.00  0.00     0.118 C 
BRANCH   2   3
ATOM      3  N   UNL A   1      38.175  22.234  26.021  1.00  0.00    -0.352 N 
ATOM      4  O   UNL A   1      40.333  21.667  26.342  1.00  0.00    -0.269 OA
ATOM      5  C   UNL A   1      39.461  22.532  26.394  1.00  0.00     0.251 C 
ATOM      6  H   UNL A   1      37.993  21.277  25.874  1.00  0.00     0.163 HD
BRANCH   5   7
ATOM      7  C   UNL A   1      39.801  23.896  26.846  1.00  0.00     0.039 A 
ATOM      8  C   UNL A   1      39.756  24.223  28.202  1.00  0.00     0.014 A 
ATOM      9  C   UNL A   1      40.198  24.854  25.907  1.00  0.00     0.014 A 
ATOM     10  C   UNL A   1      39.955  25.535  28.604  1.00  0.00     0.010 A 
ATOM     11  C   UNL A   1      40.510  26.150  26.328  1.00  0.00     0.010 A 
ATOM     12  C   UNL A   1      40.377  26.503  27.680  1.00  0.00    -0.014 A 
BRANCH  12  13
ATOM     13  C   UNL A   1      40.800  27.832  28.184  1.00  0.00     0.031 A 
ATOM     14  C   UNL A   1      39.806  28.842  28.676  1.00  0.00     0.074 A 
ATOM     15  C   UNL A   1      42.121  28.101  28.210  1.00  0.00     0.049 A 
ATOM     16  N   UNL A   1      40.028  30.043  29.147  1.00  0.00    -0.248 NA
ATOM     17  C   UNL A   1      38.383  28.467  28.636  1.00  0.00     0.031 C 
ATOM     18  C   UNL A   1      43.173  27.192  27.743  1.00  0.00     0.029 A 
ATOM     19  N   UNL A   1      42.811  29.197  28.657  1.00  0.00    -0.354 N 
ATOM     20  C   UNL A   1      38.780  30.574  29.446  1.00  0.00     0.074 A 
ATOM     21  C   UNL A   1      37.799  29.572  29.087  1.00  0.00     0.031 C 
ATOM     22  C   UNL A   1      44.370  27.745  27.971  1.00  0.00     0.029 A 
ATOM     23  C   UNL A   1      44.174  29.078  28.524  1.00  0.00     0.049 A 
ATOM     24  H   UNL A   1      42.373  29.992  29.039  1.00  0.00     0.167 HD
ATOM     25  C   UNL A   1      38.491  31.785  29.976  1.00  0.00     0.037 A 
ATOM     26  C   UNL A   1      45.159  29.956  28.785  1.00  0.00     0.037 A 
ATOM     27  C   UNL A   1      39.482  32.764  30.347  1.00  0.00     0.049 A 
ATOM     28  C   UNL A   1      44.798  31.303  29.334  1.00  0.00     0.074 A 
ATOM     29  C   UNL A   1      39.285  34.000  30.939  1.00  0.00     0.029 A 
ATOM     30  N   UNL A   1      40.848  32.622  30.159  1.00  0.00    -0.354 N 
ATOM     31  N   UNL A   1      43.616  31.771  29.654  1.00  0.00    -0.248 NA
ATOM     32  C   UNL A   1      45.900  32.249  29.547  1.00  0.00     0.031 C 
ATOM     33  C   UNL A   1      40.526  34.630  31.057  1.00  0.00     0.029 A 
ATOM     34  C   UNL A   1      41.503  33.766  30.588  1.00  0.00     0.049 A 
ATOM     35  H   UNL A   1      41.287  31.829  29.776  1.00  0.00     0.167 HD
ATOM     36  C   UNL A   1      43.832  33.062  30.111  1.00  0.00     0.074 A 
ATOM     37  C   UNL A   1      45.261  33.293  30.058  1.00  0.00     0.031 C 
ATOM     38  C   UNL A   1      42.925  33.978  30.528  1.00  0.00     0.037 A 
BRANCH  25  39
ATOM     39  C   UNL A   1      37.052  32.147  30.199  1.00  0.00     0.057 A 
ATOM     40  C   UNL A   1      36.347  32.880  29.234  1.00  0.00     0.134 A 
ATOM     41  C   UNL A   1      36.409  31.895  31.417  1.00  0.00     0.134 A 
ATOM     42  F   UNL A   1      36.909  33.163  28.050  1.00  0.00    -0.206 F 
ATOM     43  C   UNL A   1      35.066  33.374  29.484  1.00  0.00     0.040 A 
ATOM     44  C   UNL A   1      35.120  32.366  31.671  1.00  0.00     0.040 A 
ATOM     45  F   UNL A   1      37.027  31.193  32.379  1.00  0.00    -0.206 F 
ATOM     46  C   UNL A   1      34.450  33.122  30.708  1.00  0.00     0.006 A 
ENDBRANCH  25  39
BRANCH  26  47
ATOM     47  C   UNL A   1      46.569  29.591  28.495  1.00  0.00     0.057 A 
ATOM     48  C   UNL A   1      47.375  28.973  29.462  1.00  0.00     0.134 A 
ATOM     49  C   UNL A   1      47.149  29.858  27.251  1.00  0.00     0.134 A 
ATOM     50  F   UNL A   1      46.882  28.697  30.678  1.00  0.00    -0.206 F 
ATOM     51  C   UNL A   1      48.708  28.652  29.209  1.00  0.00     0.040 A 
ATOM     52  C   UNL A   1      48.473  29.513  26.973  1.00  0.00     0.040 A 
ATOM     53  F   UNL A   1      46.427  30.435  26.279  1.00  0.00    -0.206 F 
ATOM     54  C   UNL A   1      49.258  28.914  27.957  1.00  0.00     0.006 A 
ENDBRANCH  26  47
BRANCH  38  55
ATOM     55  C   UNL A   1      43.449  35.314  30.960  1.00  0.00     0.057 A 
ATOM     56  C   UNL A   1      43.747  35.566  32.306  1.00  0.00     0.134 A 
ATOM     57  C   UNL A   1      43.597  36.371  30.053  1.00  0.00     0.134 A 
ATOM     58  F   UNL A   1      43.617  34.598  33.225  1.00  0.00    -0.206 F 
ATOM     59  C   UNL A   1      44.158  36.828  32.736  1.00  0.00     0.040 A 
ATOM     60  C   UNL A   1      44.033  37.629  30.467  1.00  0.00     0.040 A 
ATOM     61  F   UNL A   1      43.342  36.188  28.749  1.00  0.00    -0.206 F 
ATOM     62  C   UNL A   1      44.304  37.863  31.815  1.00  0.00     0.006 A 
ENDBRANCH  38  55
ENDBRANCH  12  13
ENDBRANCH   5   7
ENDBRANCH   2   3
ENDBRANCH   1   2
BRANCH   1  63
ATOM     63  C   UNL A   1      34.848  21.863  26.135  1.00  0.00     0.118 C 
BRANCH  63  64
ATOM     64  N   UNL A   1      33.993  20.860  25.519  1.00  0.00    -0.352 N 
ATOM     65  C   UNL A   1      32.644  20.892  25.288  1.00  0.00     0.251 C 
ATOM     66  H   UNL A   1      34.451  20.039  25.227  1.00  0.00     0.163 HD
ATOM     67  O   UNL A   1      32.044  19.861  25.001  1.00  0.00    -0.269 OA
BRANCH  65  68
ATOM     68  C   UNL A   1      31.907  22.168  25.380  1.00  0.00     0.042 A 
ATOM     69  C   UNL A   1      31.263  22.522  26.575  1.00  0.00     0.016 A 
ATOM     70  C   UNL A   1      31.938  23.030  24.272  1.00  0.00     0.042 A 
ATOM     71  C   UNL A   1      30.608  23.751  26.693  1.00  0.00     0.031 A 
ATOM     72  C   UNL A   1      31.273  24.247  24.423  1.00  0.00     0.067 A 
ATOM     73  C   UNL A   1      30.651  24.632  25.606  1.00  0.00     0.089 A 
ATOM     74  N   UNL A   1      31.069  25.309  23.577  1.00  0.00    -0.338 N 
ATOM     75  N   UNL A   1      30.191  25.913  25.519  1.00  0.00    -0.228 NA
ATOM     76  C   UNL A   1      30.469  26.309  24.298  1.00  0.00     0.142 A 
ATOM     77  H   UNL A   1      31.312  25.347  22.624  1.00  0.00     0.168 HD
BRANCH  76  78
ATOM     78  C   UNL A   1      30.222  27.683  23.815  1.00  0.00     0.063 A 
ATOM     79  C   UNL A   1      29.403  28.060  22.778  1.00  0.00     0.117 A 
ATOM     80  C   UNL A   1      30.801  28.883  24.313  1.00  0.00     0.106 A 
ATOM     81  N   UNL A   1      29.449  29.424  22.769  1.00  0.00    -0.284 N 
ATOM     82  N   UNL A   1      30.324  29.945  23.643  1.00  0.00    -0.175 NA
ATOM     83  H   UNL A   1      28.889  29.975  22.175  1.00  0.00     0.189 HD
BRANCH  80  84
ATOM     84  C   UNL A   1      31.892  29.006  25.272  1.00  0.00     0.039 A 
ATOM     85  C   UNL A   1      31.677  29.708  26.473  1.00  0.00     0.016 A 
ATOM     86  C   UNL A   1      33.150  28.449  25.031  1.00  0.00     0.135 A 
ATOM     87  C   UNL A   1      32.709  29.855  27.401  1.00  0.00     0.040 A 
ATOM     88  C   UNL A   1      34.182  28.588  25.958  1.00  0.00     0.079 A 
ATOM     89  F   UNL A   1      33.404  27.786  23.893  1.00  0.00    -0.206 F 
ATOM     90  C   UNL A   1      33.951  29.292  27.133  1.00  0.00     0.126 A 
ATOM     91  F   UNL A   1      34.940  29.433  28.025  1.00  0.00    -0.207 F 
ENDBRANCH  80  84
ENDBRANCH  76  78
ENDBRANCH  65  68
ENDBRANCH  63  64
ENDBRANCH   1  63
TORSDOF 12
ENDMDL
