MODEL 1
REMARK VINA RESULT:     -13.3      0.000      0.000
REMARK SMILES [NH3+][C@@H](Cc1cn(-c2nc(Cl)nc(N3CCOCC3)n2)c2ccccc12)C(=O)NCCCNC(=O)c1ccc(-c2c3nc(c(-c4c(F)cccc4F)c4ccc([nH]4)c(-c4c(F)cccc4F)c4nc(c(-c5c(F)cccc5F)c5ccc2[nH]5)C=C4)C=C3)cc1
REMARK SMILES IDX 29 1 28 2 26 3 27 4 2 6 1 7 3 11 4 12 5 13 25 14 6 15 20 16
REMARK SMILES IDX 24 17 21 18 23 19 22 20 7 21 8 22 19 23 9 24 12 25 10 26
REMARK SMILES IDX 11 27 13 28 14 29 18 30 15 31 17 32 16 33 30 34 31 35 32 36
REMARK SMILES IDX 33 37 34 39 35 40 36 41 88 42 37 43 87 44 38 45 39 46 40 47
REMARK SMILES IDX 81 48 41 49 86 50 80 51 82 52 42 53 85 54 79 55 78 56 43 58
REMARK SMILES IDX 69 59 52 60 68 61 53 62 56 63 67 64 83 65 54 66 55 67 66 69
REMARK SMILES IDX 84 70 57 71 44 72 45 73 50 74 46 75 47 76 49 77 51 78 48 79
REMARK SMILES IDX 70 80 71 81 76 82 72 83 73 84 75 85 77 86 74 87 58 88 59 89
REMARK SMILES IDX 64 90 60 91 61 92 63 93 65 94 62 95
REMARK H PARENT 28 5 1 8 1 9 1 10 32 38 82 57 56 68
REMARK Flexibility Score: inf
ROOT
ATOM      1  C   UNL A   1      32.505  29.727  25.514  1.00  0.00     0.118 C 
ENDROOT
BRANCH   1   2
ATOM      2  N   UNL A   1      33.408  29.325  24.456  1.00  0.00    -0.351 N 
ATOM      3  C   UNL A   1      33.236  28.640  23.297  1.00  0.00     0.278 C 
ATOM      4  O   UNL A   1      34.222  28.656  22.540  1.00  0.00    -0.268 OA
ATOM      5  H   UNL A   1      34.338  29.608  24.608  1.00  0.00     0.163 HD
BRANCH   3   6
ATOM      6  C   UNL A   1      32.009  27.776  22.881  1.00  0.00     0.275 C 
BRANCH   6   7
ATOM      7  N   UNL A   1      31.080  28.567  22.050  1.00  0.00    -0.347 N 
ATOM      8  H   UNL A   1      30.777  29.391  22.569  1.00  0.00     0.345 HD
ATOM      9  H   UNL A   1      30.268  27.998  21.811  1.00  0.00     0.345 HD
ATOM     10  H   UNL A   1      31.553  28.859  21.195  1.00  0.00     0.345 HD
ENDBRANCH   6   7
BRANCH   6  11
ATOM     11  C   UNL A   1      32.099  26.282  22.546  1.00  0.00     0.113 C 
BRANCH  11  12
ATOM     12  C   UNL A   1      32.211  25.201  23.585  1.00  0.00    -0.015 A 
ATOM     13  C   UNL A   1      33.222  24.253  23.530  1.00  0.00     0.099 A 
ATOM     14  C   UNL A   1      31.433  24.870  24.751  1.00  0.00     0.004 A 
ATOM     15  N   UNL A   1      32.934  23.241  24.410  1.00  0.00    -0.285 N 
ATOM     16  C   UNL A   1      31.834  23.590  25.167  1.00  0.00     0.056 A 
ATOM     17  C   UNL A   1      30.364  25.467  25.456  1.00  0.00     0.010 A 
ATOM     18  C   UNL A   1      31.195  22.897  26.210  1.00  0.00     0.027 A 
ATOM     19  C   UNL A   1      29.732  24.796  26.509  1.00  0.00     0.001 A 
ATOM     20  C   UNL A   1      30.144  23.526  26.876  1.00  0.00     0.002 A 
BRANCH  15  21
ATOM     21  C   UNL A   1      33.681  22.045  24.523  1.00  0.00     0.240 A 
ATOM     22  N   UNL A   1      35.002  22.145  24.611  1.00  0.00    -0.181 NA
ATOM     23  N   UNL A   1      32.985  20.908  24.543  1.00  0.00    -0.176 NA
ATOM     24  C   UNL A   1      35.576  20.973  24.834  1.00  0.00     0.228 A 
ATOM     25  C   UNL A   1      33.699  19.795  24.644  1.00  0.00     0.231 A 
ATOM     26  Cl  UNL A   1      37.271  20.996  25.038  1.00  0.00    -0.041 Cl
ATOM     27  N   UNL A   1      35.000  19.779  24.880  1.00  0.00    -0.182 NA
BRANCH  25  28
ATOM     28  N   UNL A   1      33.083  18.608  24.374  1.00  0.00    -0.336 N 
ATOM     29  C   UNL A   1      32.604  17.774  25.471  1.00  0.00     0.148 C 
ATOM     30  C   UNL A   1      33.256  17.965  23.082  1.00  0.00     0.148 C 
ATOM     31  C   UNL A   1      33.401  16.469  25.540  1.00  0.00     0.181 C 
ATOM     32  C   UNL A   1      34.023  16.641  23.266  1.00  0.00     0.181 C 
ATOM     33  O   UNL A   1      33.415  15.802  24.265  1.00  0.00    -0.378 OA
ENDBRANCH  25  28
ENDBRANCH  15  21
ENDBRANCH  11  12
ENDBRANCH   6  11
ENDBRANCH   3   6
ENDBRANCH   1   2
BRANCH   1  34
ATOM     34  C   UNL A   1      32.814  29.116  26.887  1.00  0.00     0.042 C 
BRANCH  34  35
ATOM     35  C   UNL A   1      34.300  28.964  27.222  1.00  0.00     0.118 C 
BRANCH  35  36
ATOM     36  N   UNL A   1      34.789  29.941  28.175  1.00  0.00    -0.352 N 
ATOM     37  C   UNL A   1      35.961  30.255  28.799  1.00  0.00     0.251 C 
ATOM     38  H   UNL A   1      34.070  30.552  28.452  1.00  0.00     0.163 HD
ATOM     39  O   UNL A   1      35.913  31.274  29.485  1.00  0.00    -0.269 OA
BRANCH  37  40
ATOM     40  C   UNL A   1      37.238  29.489  28.768  1.00  0.00     0.039 A 
ATOM     41  C   UNL A   1      37.726  28.619  29.741  1.00  0.00     0.014 A 
ATOM     42  C   UNL A   1      38.054  29.766  27.651  1.00  0.00     0.014 A 
ATOM     43  C   UNL A   1      39.043  28.139  29.651  1.00  0.00     0.010 A 
ATOM     44  C   UNL A   1      39.357  29.301  27.565  1.00  0.00     0.010 A 
ATOM     45  C   UNL A   1      39.882  28.548  28.607  1.00  0.00    -0.014 A 
BRANCH  45  46
ATOM     46  C   UNL A   1      41.286  28.115  28.560  1.00  0.00     0.031 A 
ATOM     47  C   UNL A   1      41.514  26.805  27.881  1.00  0.00     0.074 A 
ATOM     48  C   UNL A   1      42.313  28.921  28.919  1.00  0.00     0.049 A 
ATOM     49  N   UNL A   1      42.087  25.743  28.347  1.00  0.00    -0.248 NA
ATOM     50  C   UNL A   1      40.937  26.628  26.538  1.00  0.00     0.031 C 
ATOM     51  C   UNL A   1      42.234  30.325  29.343  1.00  0.00     0.029 A 
ATOM     52  N   UNL A   1      43.664  28.701  28.881  1.00  0.00    -0.354 N 
ATOM     53  C   UNL A   1      42.113  24.826  27.294  1.00  0.00     0.074 A 
ATOM     54  C   UNL A   1      41.256  25.362  26.270  1.00  0.00     0.031 C 
ATOM     55  C   UNL A   1      43.464  30.886  29.300  1.00  0.00     0.029 A 
ATOM     56  C   UNL A   1      44.438  29.858  28.978  1.00  0.00     0.049 A 
ATOM     57  H   UNL A   1      44.056  27.802  28.791  1.00  0.00     0.167 HD
ATOM     58  C   UNL A   1      43.028  23.819  27.248  1.00  0.00     0.037 A 
ATOM     59  C   UNL A   1      45.776  29.981  28.776  1.00  0.00     0.037 A 
ATOM     60  C   UNL A   1      43.601  23.581  28.548  1.00  0.00     0.049 A 
ATOM     61  C   UNL A   1      46.370  28.631  28.857  1.00  0.00     0.074 A 
ATOM     62  C   UNL A   1      43.143  23.139  29.771  1.00  0.00     0.029 A 
ATOM     63  N   UNL A   1      44.837  24.124  28.777  1.00  0.00    -0.354 N 
ATOM     64  N   UNL A   1      46.472  27.946  29.959  1.00  0.00    -0.248 NA
ATOM     65  C   UNL A   1      46.509  27.866  27.629  1.00  0.00     0.031 C 
ATOM     66  C   UNL A   1      43.939  23.822  30.738  1.00  0.00     0.029 A 
ATOM     67  C   UNL A   1      44.869  24.607  30.055  1.00  0.00     0.049 A 
ATOM     68  H   UNL A   1      45.578  24.163  28.130  1.00  0.00     0.167 HD
ATOM     69  C   UNL A   1      46.228  26.638  29.575  1.00  0.00     0.074 A 
ATOM     70  C   UNL A   1      46.398  26.631  28.126  1.00  0.00     0.031 C 
ATOM     71  C   UNL A   1      45.631  25.768  30.442  1.00  0.00     0.037 A 
BRANCH  58  72
ATOM     72  C   UNL A   1      43.735  23.360  25.983  1.00  0.00     0.057 A 
ATOM     73  C   UNL A   1      44.625  24.155  25.233  1.00  0.00     0.134 A 
ATOM     74  C   UNL A   1      43.800  21.980  25.705  1.00  0.00     0.134 A 
ATOM     75  F   UNL A   1      44.721  25.479  25.390  1.00  0.00    -0.206 F 
ATOM     76  C   UNL A   1      45.554  23.616  24.338  1.00  0.00     0.040 A 
ATOM     77  C   UNL A   1      44.759  21.426  24.847  1.00  0.00     0.040 A 
ATOM     78  F   UNL A   1      42.996  21.110  26.337  1.00  0.00    -0.206 F 
ATOM     79  C   UNL A   1      45.655  22.245  24.174  1.00  0.00     0.006 A 
ENDBRANCH  58  72
BRANCH  59  80
ATOM     80  C   UNL A   1      46.565  31.140  28.293  1.00  0.00     0.057 A 
ATOM     81  C   UNL A   1      47.321  31.918  29.184  1.00  0.00     0.134 A 
ATOM     82  C   UNL A   1      46.378  31.682  27.011  1.00  0.00     0.134 A 
ATOM     83  F   UNL A   1      47.492  31.535  30.457  1.00  0.00    -0.206 F 
ATOM     84  C   UNL A   1      47.851  33.165  28.829  1.00  0.00     0.040 A 
ATOM     85  C   UNL A   1      46.899  32.931  26.644  1.00  0.00     0.040 A 
ATOM     86  F   UNL A   1      45.631  31.038  26.102  1.00  0.00    -0.206 F 
ATOM     87  C   UNL A   1      47.630  33.682  27.558  1.00  0.00     0.006 A 
ENDBRANCH  59  80
BRANCH  71  88
ATOM     88  C   UNL A   1      45.572  26.181  31.885  1.00  0.00     0.057 A 
ATOM     89  C   UNL A   1      46.639  25.844  32.721  1.00  0.00     0.134 A 
ATOM     90  C   UNL A   1      44.468  26.807  32.482  1.00  0.00     0.134 A 
ATOM     91  F   UNL A   1      47.705  25.193  32.229  1.00  0.00    -0.206 F 
ATOM     92  C   UNL A   1      46.623  26.133  34.087  1.00  0.00     0.040 A 
ATOM     93  C   UNL A   1      44.452  27.133  33.840  1.00  0.00     0.040 A 
ATOM     94  F   UNL A   1      43.360  27.080  31.781  1.00  0.00    -0.206 F 
ATOM     95  C   UNL A   1      45.533  26.792  34.648  1.00  0.00     0.006 A 
ENDBRANCH  71  88
ENDBRANCH  45  46
ENDBRANCH  37  40
ENDBRANCH  35  36
ENDBRANCH  34  35
ENDBRANCH   1  34
TORSDOF 15
ENDMDL
MODEL 2
REMARK VINA RESULT:     -13.2      2.915      8.055
REMARK SMILES [NH3+][C@@H](Cc1cn(-c2nc(Cl)nc(N3CCOCC3)n2)c2ccccc12)C(=O)NCCCNC(=O)c1ccc(-c2c3nc(c(-c4c(F)cccc4F)c4ccc([nH]4)c(-c4c(F)cccc4F)c4nc(c(-c5c(F)cccc5F)c5ccc2[nH]5)C=C4)C=C3)cc1
REMARK SMILES IDX 29 1 28 2 26 3 27 4 2 6 1 7 3 11 4 12 5 13 25 14 6 15 20 16
REMARK SMILES IDX 24 17 21 18 23 19 22 20 7 21 8 22 19 23 9 24 12 25 10 26
REMARK SMILES IDX 11 27 13 28 14 29 18 30 15 31 17 32 16 33 30 34 31 35 32 36
REMARK SMILES IDX 33 37 34 39 35 40 36 41 88 42 37 43 87 44 38 45 39 46 40 47
REMARK SMILES IDX 81 48 41 49 86 50 80 51 82 52 42 53 85 54 79 55 78 56 43 58
REMARK SMILES IDX 69 59 52 60 68 61 53 62 56 63 67 64 83 65 54 66 55 67 66 69
REMARK SMILES IDX 84 70 57 71 44 72 45 73 50 74 46 75 47 76 49 77 51 78 48 79
REMARK SMILES IDX 70 80 71 81 76 82 72 83 73 84 75 85 77 86 74 87 58 88 59 89
REMARK SMILES IDX 64 90 60 91 61 92 63 93 65 94 62 95
REMARK H PARENT 28 5 1 8 1 9 1 10 32 38 82 57 56 68
REMARK Flexibility Score: inf
ROOT
ATOM      1  C   UNL A   1      40.387  19.565  26.135  1.00  0.00     0.118 C 
ENDROOT
BRANCH   1   2
ATOM      2  N   UNL A   1      40.617  20.993  26.187  1.00  0.00    -0.351 N 
ATOM      3  C   UNL A   1      39.791  22.065  26.275  1.00  0.00     0.278 C 
ATOM      4  O   UNL A   1      40.370  23.144  26.494  1.00  0.00    -0.268 OA
ATOM      5  H   UNL A   1      41.570  21.237  26.153  1.00  0.00     0.163 HD
BRANCH   3   6
ATOM      6  C   UNL A   1      38.253  22.098  26.031  1.00  0.00     0.275 C 
BRANCH   6   7
ATOM      7  N   UNL A   1      37.678  23.360  26.539  1.00  0.00    -0.347 N 
ATOM      8  H   UNL A   1      37.176  23.831  25.786  1.00  0.00     0.345 HD
ATOM      9  H   UNL A   1      38.427  23.963  26.878  1.00  0.00     0.345 HD
ATOM     10  H   UNL A   1      37.033  23.156  27.303  1.00  0.00     0.345 HD
ENDBRANCH   6   7
BRANCH   6  11
ATOM     11  C   UNL A   1      37.580  21.511  24.785  1.00  0.00     0.113 C 
BRANCH  11  12
ATOM     12  C   UNL A   1      36.185  21.866  24.347  1.00  0.00    -0.015 A 
ATOM     13  C   UNL A   1      35.928  23.032  23.642  1.00  0.00     0.099 A 
ATOM     14  C   UNL A   1      34.908  21.220  24.507  1.00  0.00     0.004 A 
ATOM     15  N   UNL A   1      34.574  23.250  23.617  1.00  0.00    -0.285 N 
ATOM     16  C   UNL A   1      33.923  22.155  24.150  1.00  0.00     0.056 A 
ATOM     17  C   UNL A   1      34.459  19.974  25.001  1.00  0.00     0.010 A 
ATOM     18  C   UNL A   1      32.548  21.904  24.302  1.00  0.00     0.027 A 
ATOM     19  C   UNL A   1      33.093  19.705  25.139  1.00  0.00     0.001 A 
ATOM     20  C   UNL A   1      32.153  20.661  24.795  1.00  0.00     0.002 A 
BRANCH  15  21
ATOM     21  C   UNL A   1      33.962  24.414  23.095  1.00  0.00     0.240 A 
ATOM     22  N   UNL A   1      33.627  24.415  21.811  1.00  0.00    -0.181 NA
ATOM     23  N   UNL A   1      33.762  25.415  23.952  1.00  0.00    -0.176 NA
ATOM     24  C   UNL A   1      32.956  25.505  21.473  1.00  0.00     0.228 A 
ATOM     25  C   UNL A   1      33.193  26.502  23.447  1.00  0.00     0.231 A 
ATOM     26  Cl  UNL A   1      32.410  25.578  19.857  1.00  0.00    -0.041 Cl
ATOM     27  N   UNL A   1      32.690  26.564  22.226  1.00  0.00    -0.182 NA
BRANCH  25  28
ATOM     28  N   UNL A   1      33.232  27.650  24.183  1.00  0.00    -0.336 N 
ATOM     29  C   UNL A   1      33.657  27.602  25.578  1.00  0.00     0.148 C 
ATOM     30  C   UNL A   1      32.485  28.823  23.759  1.00  0.00     0.148 C 
ATOM     31  C   UNL A   1      32.491  27.953  26.506  1.00  0.00     0.181 C 
ATOM     32  C   UNL A   1      31.371  29.120  24.782  1.00  0.00     0.181 C 
ATOM     33  O   UNL A   1      31.882  29.200  26.125  1.00  0.00    -0.378 OA
ENDBRANCH  25  28
ENDBRANCH  15  21
ENDBRANCH  11  12
ENDBRANCH   6  11
ENDBRANCH   3   6
ENDBRANCH   1   2
BRANCH   1  34
ATOM     34  C   UNL A   1      41.647  18.719  25.907  1.00  0.00     0.042 C 
BRANCH  34  35
ATOM     35  C   UNL A   1      42.975  19.421  26.205  1.00  0.00     0.118 C 
BRANCH  35  36
ATOM     36  N   UNL A   1      43.695  19.839  25.018  1.00  0.00    -0.352 N 
ATOM     37  C   UNL A   1      44.372  20.937  24.573  1.00  0.00     0.251 C 
ATOM     38  H   UNL A   1      43.695  19.127  24.338  1.00  0.00     0.163 HD
ATOM     39  O   UNL A   1      44.922  20.787  23.483  1.00  0.00    -0.269 OA
BRANCH  37  40
ATOM     40  C   UNL A   1      44.474  22.267  25.233  1.00  0.00     0.039 A 
ATOM     41  C   UNL A   1      45.292  22.619  26.306  1.00  0.00     0.014 A 
ATOM     42  C   UNL A   1      43.567  23.230  24.744  1.00  0.00     0.014 A 
ATOM     43  C   UNL A   1      45.115  23.858  26.942  1.00  0.00     0.010 A 
ATOM     44  C   UNL A   1      43.384  24.451  25.377  1.00  0.00     0.010 A 
ATOM     45  C   UNL A   1      44.105  24.736  26.528  1.00  0.00    -0.014 A 
BRANCH  45  46
ATOM     46  C   UNL A   1      43.864  25.994  27.248  1.00  0.00     0.031 A 
ATOM     47  C   UNL A   1      44.839  27.084  26.947  1.00  0.00     0.074 A 
ATOM     48  C   UNL A   1      42.740  26.221  27.969  1.00  0.00     0.049 A 
ATOM     49  N   UNL A   1      45.588  27.746  27.769  1.00  0.00    -0.248 NA
ATOM     50  C   UNL A   1      45.079  27.408  25.531  1.00  0.00     0.031 C 
ATOM     51  C   UNL A   1      41.582  25.328  28.114  1.00  0.00     0.029 A 
ATOM     52  N   UNL A   1      42.333  27.341  28.643  1.00  0.00    -0.354 N 
ATOM     53  C   UNL A   1      46.256  28.699  26.997  1.00  0.00     0.074 A 
ATOM     54  C   UNL A   1      46.028  28.340  25.623  1.00  0.00     0.031 C 
ATOM     55  C   UNL A   1      40.536  26.016  28.624  1.00  0.00     0.029 A 
ATOM     56  C   UNL A   1      40.977  27.356  28.969  1.00  0.00     0.049 A 
ATOM     57  H   UNL A   1      42.947  28.075  28.877  1.00  0.00     0.167 HD
ATOM     58  C   UNL A   1      46.740  29.848  27.545  1.00  0.00     0.037 A 
ATOM     59  C   UNL A   1      40.250  28.397  29.452  1.00  0.00     0.037 A 
ATOM     60  C   UNL A   1      46.864  29.726  28.975  1.00  0.00     0.049 A 
ATOM     61  C   UNL A   1      41.196  29.395  29.992  1.00  0.00     0.074 A 
ATOM     62  C   UNL A   1      47.616  28.967  29.847  1.00  0.00     0.029 A 
ATOM     63  N   UNL A   1      45.865  30.289  29.723  1.00  0.00    -0.354 N 
ATOM     64  N   UNL A   1      41.901  29.220  31.072  1.00  0.00    -0.248 NA
ATOM     65  C   UNL A   1      41.657  30.453  29.108  1.00  0.00     0.031 C 
ATOM     66  C   UNL A   1      46.782  28.771  30.987  1.00  0.00     0.029 A 
ATOM     67  C   UNL A   1      45.586  29.457  30.772  1.00  0.00     0.049 A 
ATOM     68  H   UNL A   1      45.421  31.148  29.538  1.00  0.00     0.167 HD
ATOM     69  C   UNL A   1      43.121  29.810  30.787  1.00  0.00     0.074 A 
ATOM     70  C   UNL A   1      42.866  30.668  29.634  1.00  0.00     0.031 C 
ATOM     71  C   UNL A   1      44.268  29.316  31.338  1.00  0.00     0.037 A 
BRANCH  58  72
ATOM     72  C   UNL A   1      46.673  31.210  26.877  1.00  0.00     0.057 A 
ATOM     73  C   UNL A   1      45.477  31.884  26.555  1.00  0.00     0.134 A 
ATOM     74  C   UNL A   1      47.825  32.023  26.876  1.00  0.00     0.134 A 
ATOM     75  F   UNL A   1      44.287  31.277  26.540  1.00  0.00    -0.206 F 
ATOM     76  C   UNL A   1      45.420  33.262  26.324  1.00  0.00     0.040 A 
ATOM     77  C   UNL A   1      47.771  33.411  26.694  1.00  0.00     0.040 A 
ATOM     78  F   UNL A   1      49.033  31.506  27.150  1.00  0.00    -0.206 F 
ATOM     79  C   UNL A   1      46.560  34.039  26.436  1.00  0.00     0.006 A 
ENDBRANCH  58  72
BRANCH  59  80
ATOM     80  C   UNL A   1      38.811  28.713  29.288  1.00  0.00     0.057 A 
ATOM     81  C   UNL A   1      38.323  29.251  28.086  1.00  0.00     0.134 A 
ATOM     82  C   UNL A   1      37.933  28.762  30.383  1.00  0.00     0.134 A 
ATOM     83  F   UNL A   1      39.106  29.330  27.001  1.00  0.00    -0.206 F 
ATOM     84  C   UNL A   1      37.046  29.815  27.979  1.00  0.00     0.040 A 
ATOM     85  C   UNL A   1      36.653  29.328  30.291  1.00  0.00     0.040 A 
ATOM     86  F   UNL A   1      38.320  28.317  31.587  1.00  0.00    -0.206 F 
ATOM     87  C   UNL A   1      36.210  29.867  29.087  1.00  0.00     0.006 A 
ENDBRANCH  59  80
BRANCH  71  88
ATOM     88  C   UNL A   1      44.112  28.365  32.490  1.00  0.00     0.057 A 
ATOM     89  C   UNL A   1      44.221  28.866  33.790  1.00  0.00     0.134 A 
ATOM     90  C   UNL A   1      43.957  26.978  32.353  1.00  0.00     0.134 A 
ATOM     91  F   UNL A   1      44.427  30.176  33.995  1.00  0.00    -0.206 F 
ATOM     92  C   UNL A   1      44.157  28.031  34.907  1.00  0.00     0.040 A 
ATOM     93  C   UNL A   1      43.856  26.135  33.462  1.00  0.00     0.040 A 
ATOM     94  F   UNL A   1      43.941  26.396  31.147  1.00  0.00    -0.206 F 
ATOM     95  C   UNL A   1      43.960  26.662  34.746  1.00  0.00     0.006 A 
ENDBRANCH  71  88
ENDBRANCH  45  46
ENDBRANCH  37  40
ENDBRANCH  35  36
ENDBRANCH  34  35
ENDBRANCH   1  34
TORSDOF 15
ENDMDL
MODEL 3
REMARK VINA RESULT:     -13.1      5.731     10.940
REMARK SMILES [NH3+][C@@H](Cc1cn(-c2nc(Cl)nc(N3CCOCC3)n2)c2ccccc12)C(=O)NCCCNC(=O)c1ccc(-c2c3nc(c(-c4c(F)cccc4F)c4ccc([nH]4)c(-c4c(F)cccc4F)c4nc(c(-c5c(F)cccc5F)c5ccc2[nH]5)C=C4)C=C3)cc1
REMARK SMILES IDX 29 1 28 2 26 3 27 4 2 6 1 7 3 11 4 12 5 13 25 14 6 15 20 16
REMARK SMILES IDX 24 17 21 18 23 19 22 20 7 21 8 22 19 23 9 24 12 25 10 26
REMARK SMILES IDX 11 27 13 28 14 29 18 30 15 31 17 32 16 33 30 34 31 35 32 36
REMARK SMILES IDX 33 37 34 39 35 40 36 41 88 42 37 43 87 44 38 45 39 46 40 47
REMARK SMILES IDX 81 48 41 49 86 50 80 51 82 52 42 53 85 54 79 55 78 56 43 58
REMARK SMILES IDX 69 59 52 60 68 61 53 62 56 63 67 64 83 65 54 66 55 67 66 69
REMARK SMILES IDX 84 70 57 71 44 72 45 73 50 74 46 75 47 76 49 77 51 78 48 79
REMARK SMILES IDX 70 80 71 81 76 82 72 83 73 84 75 85 77 86 74 87 58 88 59 89
REMARK SMILES IDX 64 90 60 91 61 92 63 93 65 94 62 95
REMARK H PARENT 28 5 1 8 1 9 1 10 32 38 82 57 56 68
REMARK Flexibility Score: inf
ROOT
ATOM      1  C   UNL A   1      33.312  35.979  29.288  1.00  0.00     0.118 C 
ENDROOT
BRANCH   1   2
ATOM      2  N   UNL A   1      32.415  35.986  30.424  1.00  0.00    -0.351 N 
ATOM      3  C   UNL A   1      32.561  36.354  31.722  1.00  0.00     0.278 C 
ATOM      4  O   UNL A   1      31.498  36.401  32.365  1.00  0.00    -0.268 OA
ATOM      5  H   UNL A   1      31.513  35.655  30.211  1.00  0.00     0.163 HD
BRANCH   3   6
ATOM      6  C   UNL A   1      33.891  36.612  32.489  1.00  0.00     0.275 C 
BRANCH   6   7
ATOM      7  N   UNL A   1      34.362  37.993  32.254  1.00  0.00    -0.347 N 
ATOM      8  H   UNL A   1      34.407  38.491  33.143  1.00  0.00     0.345 HD
ATOM      9  H   UNL A   1      33.713  38.471  31.628  1.00  0.00     0.345 HD
ATOM     10  H   UNL A   1      35.289  37.968  31.830  1.00  0.00     0.345 HD
ENDBRANCH   6   7
BRANCH   6  11
ATOM     11  C   UNL A   1      34.199  36.029  33.873  1.00  0.00     0.113 C 
BRANCH  11  12
ATOM     12  C   UNL A   1      34.982  34.762  34.087  1.00  0.00    -0.015 A 
ATOM     13  C   UNL A   1      35.735  34.568  35.235  1.00  0.00     0.099 A 
ATOM     14  C   UNL A   1      35.166  33.572  33.296  1.00  0.00     0.004 A 
ATOM     15  N   UNL A   1      36.555  33.483  35.054  1.00  0.00    -0.285 N 
ATOM     16  C   UNL A   1      36.233  32.858  33.866  1.00  0.00     0.056 A 
ATOM     17  C   UNL A   1      34.613  33.055  32.103  1.00  0.00     0.010 A 
ATOM     18  C   UNL A   1      36.769  31.699  33.277  1.00  0.00     0.027 A 
ATOM     19  C   UNL A   1      35.125  31.891  31.518  1.00  0.00     0.001 A 
ATOM     20  C   UNL A   1      36.191  31.226  32.101  1.00  0.00     0.002 A 
BRANCH  15  21
ATOM     21  C   UNL A   1      37.551  33.074  35.970  1.00  0.00     0.240 A 
ATOM     22  N   UNL A   1      38.765  32.824  35.496  1.00  0.00    -0.181 NA
ATOM     23  N   UNL A   1      37.183  32.986  37.249  1.00  0.00    -0.176 NA
ATOM     24  C   UNL A   1      39.635  32.570  36.461  1.00  0.00     0.228 A 
ATOM     25  C   UNL A   1      38.127  32.596  38.096  1.00  0.00     0.231 A 
ATOM     26  Cl  UNL A   1      41.248  32.306  35.966  1.00  0.00    -0.041 Cl
ATOM     27  N   UNL A   1      39.399  32.458  37.762  1.00  0.00    -0.182 NA
BRANCH  25  28
ATOM     28  N   UNL A   1      37.748  32.204  39.346  1.00  0.00    -0.336 N 
ATOM     29  C   UNL A   1      36.967  30.983  39.517  1.00  0.00     0.148 C 
ATOM     30  C   UNL A   1      37.735  33.155  40.445  1.00  0.00     0.148 C 
ATOM     31  C   UNL A   1      35.560  31.313  40.024  1.00  0.00     0.181 C 
ATOM     32  C   UNL A   1      36.284  33.380  40.914  1.00  0.00     0.181 C 
ATOM     33  O   UNL A   1      35.614  32.139  41.201  1.00  0.00    -0.378 OA
ENDBRANCH  25  28
ENDBRANCH  15  21
ENDBRANCH  11  12
ENDBRANCH   6  11
ENDBRANCH   3   6
ENDBRANCH   1   2
BRANCH   1  34
ATOM     34  C   UNL A   1      33.247  34.712  28.426  1.00  0.00     0.042 C 
BRANCH  34  35
ATOM     35  C   UNL A   1      34.456  33.779  28.532  1.00  0.00     0.118 C 
BRANCH  35  36
ATOM     36  N   UNL A   1      34.285  32.519  27.835  1.00  0.00    -0.352 N 
ATOM     37  C   UNL A   1      34.906  31.306  27.760  1.00  0.00     0.251 C 
ATOM     38  H   UNL A   1      33.497  32.546  27.247  1.00  0.00     0.163 HD
ATOM     39  O   UNL A   1      34.315  30.475  27.072  1.00  0.00    -0.269 OA
BRANCH  37  40
ATOM     40  C   UNL A   1      36.204  30.913  28.374  1.00  0.00     0.039 A 
ATOM     41  C   UNL A   1      37.262  31.750  28.723  1.00  0.00     0.014 A 
ATOM     42  C   UNL A   1      36.378  29.521  28.526  1.00  0.00     0.014 A 
ATOM     43  C   UNL A   1      38.497  31.196  29.099  1.00  0.00     0.010 A 
ATOM     44  C   UNL A   1      37.598  28.972  28.888  1.00  0.00     0.010 A 
ATOM     45  C   UNL A   1      38.686  29.809  29.100  1.00  0.00    -0.014 A 
BRANCH  45  46
ATOM     46  C   UNL A   1      40.001  29.232  29.409  1.00  0.00     0.031 A 
ATOM     47  C   UNL A   1      40.330  29.167  30.864  1.00  0.00     0.074 A 
ATOM     48  C   UNL A   1      40.772  28.624  28.476  1.00  0.00     0.049 A 
ATOM     49  N   UNL A   1      41.348  29.668  31.485  1.00  0.00    -0.248 NA
ATOM     50  C   UNL A   1      39.338  28.544  31.756  1.00  0.00     0.031 C 
ATOM     51  C   UNL A   1      40.436  28.382  27.067  1.00  0.00     0.029 A 
ATOM     52  N   UNL A   1      41.979  27.990  28.603  1.00  0.00    -0.354 N 
ATOM     53  C   UNL A   1      41.224  29.263  32.816  1.00  0.00     0.074 A 
ATOM     54  C   UNL A   1      39.900  28.718  32.952  1.00  0.00     0.031 C 
ATOM     55  C   UNL A   1      41.290  27.475  26.542  1.00  0.00     0.029 A 
ATOM     56  C   UNL A   1      42.314  27.170  27.526  1.00  0.00     0.049 A 
ATOM     57  H   UNL A   1      42.561  28.103  29.390  1.00  0.00     0.167 HD
ATOM     58  C   UNL A   1      42.305  29.184  33.640  1.00  0.00     0.037 A 
ATOM     59  C   UNL A   1      43.333  26.274  27.449  1.00  0.00     0.037 A 
ATOM     60  C   UNL A   1      43.408  29.954  33.123  1.00  0.00     0.049 A 
ATOM     61  C   UNL A   1      44.302  26.601  28.515  1.00  0.00     0.074 A 
ATOM     62  C   UNL A   1      43.662  31.287  32.880  1.00  0.00     0.029 A 
ATOM     63  N   UNL A   1      44.385  29.253  32.469  1.00  0.00    -0.354 N 
ATOM     64  N   UNL A   1      45.061  27.659  28.509  1.00  0.00    -0.248 NA
ATOM     65  C   UNL A   1      44.155  25.944  29.803  1.00  0.00     0.031 C 
ATOM     66  C   UNL A   1      44.526  31.302  31.745  1.00  0.00     0.029 A 
ATOM     67  C   UNL A   1      44.789  29.980  31.384  1.00  0.00     0.049 A 
ATOM     68  H   UNL A   1      44.739  28.373  32.734  1.00  0.00     0.167 HD
ATOM     69  C   UNL A   1      45.108  28.057  29.835  1.00  0.00     0.074 A 
ATOM     70  C   UNL A   1      44.656  26.895  30.595  1.00  0.00     0.031 C 
ATOM     71  C   UNL A   1      45.232  29.379  30.151  1.00  0.00     0.037 A 
BRANCH  58  72
ATOM     72  C   UNL A   1      42.531  28.075  34.654  1.00  0.00     0.057 A 
ATOM     73  C   UNL A   1      42.204  28.167  36.023  1.00  0.00     0.134 A 
ATOM     74  C   UNL A   1      42.751  26.763  34.188  1.00  0.00     0.134 A 
ATOM     75  F   UNL A   1      41.932  29.328  36.625  1.00  0.00    -0.206 F 
ATOM     76  C   UNL A   1      42.038  27.045  36.841  1.00  0.00     0.040 A 
ATOM     77  C   UNL A   1      42.540  25.631  34.987  1.00  0.00     0.040 A 
ATOM     78  F   UNL A   1      43.084  26.533  32.908  1.00  0.00    -0.206 F 
ATOM     79  C   UNL A   1      42.162  25.771  36.315  1.00  0.00     0.006 A 
ENDBRANCH  58  72
BRANCH  59  80
ATOM     80  C   UNL A   1      43.440  25.014  26.674  1.00  0.00     0.057 A 
ATOM     81  C   UNL A   1      44.144  24.973  25.460  1.00  0.00     0.134 A 
ATOM     82  C   UNL A   1      42.630  23.902  26.953  1.00  0.00     0.134 A 
ATOM     83  F   UNL A   1      44.882  26.017  25.056  1.00  0.00    -0.206 F 
ATOM     84  C   UNL A   1      44.041  23.897  24.569  1.00  0.00     0.040 A 
ATOM     85  C   UNL A   1      42.515  22.820  26.068  1.00  0.00     0.040 A 
ATOM     86  F   UNL A   1      41.881  23.866  28.065  1.00  0.00    -0.206 F 
ATOM     87  C   UNL A   1      43.215  22.821  24.865  1.00  0.00     0.006 A 
ENDBRANCH  59  80
BRANCH  71  88
ATOM     88  C   UNL A   1      45.648  30.305  29.044  1.00  0.00     0.057 A 
ATOM     89  C   UNL A   1      46.999  30.640  28.924  1.00  0.00     0.134 A 
ATOM     90  C   UNL A   1      44.754  30.940  28.169  1.00  0.00     0.134 A 
ATOM     91  F   UNL A   1      47.903  30.113  29.765  1.00  0.00    -0.206 F 
ATOM     92  C   UNL A   1      47.449  31.548  27.964  1.00  0.00     0.040 A 
ATOM     93  C   UNL A   1      45.195  31.824  27.181  1.00  0.00     0.040 A 
ATOM     94  F   UNL A   1      43.432  30.757  28.271  1.00  0.00    -0.206 F 
ATOM     95  C   UNL A   1      46.548  32.133  27.079  1.00  0.00     0.006 A 
ENDBRANCH  71  88
ENDBRANCH  45  46
ENDBRANCH  37  40
ENDBRANCH  35  36
ENDBRANCH  34  35
ENDBRANCH   1  34
TORSDOF 15
ENDMDL
