MODEL 1
REMARK VINA RESULT:     -11.0      0.000      0.000
REMARK SMILES CCCN1C(=O)C[C@H](C(=O)NCCCNC(=O)c2ccc(-c3c4nc(c(-c5c(F)cccc5F)c5ccc([nH]5)c(-c5c(F)cccc5F)c5nc(c(-c6c(F)cccc6F)c6ccc3[nH]6)C=C5)C=C4)cc2)[C@@H]1c1cncn1C1CC1
REMARK SMILES IDX 13 1 12 2 11 3 9 4 10 5 8 7 4 8 5 9 72 10 6 11 7 12 3 13
REMARK SMILES IDX 2 14 1 15 73 16 74 17 77 18 75 19 76 20 78 21 79 22 80 23
REMARK SMILES IDX 14 24 15 25 16 26 17 28 18 29 19 30 71 31 20 32 70 33 21 34
REMARK SMILES IDX 22 35 23 36 64 37 24 38 69 39 63 40 65 41 25 42 68 43 62 44
REMARK SMILES IDX 61 45 26 47 52 48 35 49 51 50 36 51 39 52 50 53 66 54 37 55
REMARK SMILES IDX 38 56 49 58 67 59 40 60 27 61 28 62 33 63 29 64 30 65 32 66
REMARK SMILES IDX 34 67 31 68 53 69 54 70 59 71 55 72 56 73 58 74 60 75 57 76
REMARK SMILES IDX 41 77 42 78 47 79 43 80 44 81 46 82 48 83 45 84
REMARK H PARENT 11 6 15 27 65 46 39 57
REMARK Flexibility Score: inf
ROOT
ATOM      1  C   UNL A   1      37.774  19.809  24.879  1.00  0.00     0.042 C 
ENDROOT
BRANCH   1   2
ATOM      2  C   UNL A   1      36.566  20.715  24.932  1.00  0.00     0.117 C 
BRANCH   2   3
ATOM      3  N   UNL A   1      36.832  22.122  24.994  1.00  0.00    -0.356 N 
ATOM      4  C   UNL A   1      36.011  23.082  25.495  1.00  0.00     0.226 C 
ATOM      5  O   UNL A   1      36.536  24.168  25.767  1.00  0.00    -0.275 OA
ATOM      6  H   UNL A   1      37.699  22.424  24.637  1.00  0.00     0.163 HD
BRANCH   4   7
ATOM      7  C   UNL A   1      34.505  22.909  25.681  1.00  0.00     0.116 C 
ATOM      8  N   UNL A   1      32.227  23.443  25.416  1.00  0.00    -0.333 N 
ATOM      9  C   UNL A   1      32.441  23.196  26.774  1.00  0.00     0.224 C 
ATOM     10  C   UNL A   1      33.474  23.467  24.700  1.00  0.00     0.146 C 
ATOM     11  O   UNL A   1      31.576  23.002  27.616  1.00  0.00    -0.275 OA
ATOM     12  C   UNL A   1      33.929  23.211  27.054  1.00  0.00     0.116 C 
BRANCH   8  13
ATOM     13  C   UNL A   1      30.971  23.115  24.742  1.00  0.00     0.120 C 
BRANCH  13  14
ATOM     14  C   UNL A   1      30.365  24.198  23.845  1.00  0.00     0.018 C 
ATOM     15  C   UNL A   1      30.235  25.558  24.520  1.00  0.00     0.006 C 
ENDBRANCH  13  14
ENDBRANCH   8  13
BRANCH  10  16
ATOM     16  C   UNL A   1      33.710  24.735  23.953  1.00  0.00     0.061 A 
ATOM     17  C   UNL A   1      33.750  24.752  22.557  1.00  0.00     0.136 A 
ATOM     18  N   UNL A   1      33.858  26.078  24.297  1.00  0.00    -0.330 N 
ATOM     19  N   UNL A   1      33.888  26.002  22.052  1.00  0.00    -0.245 NA
ATOM     20  C   UNL A   1      33.911  26.777  23.104  1.00  0.00     0.199 A 
BRANCH  18  21
ATOM     21  C   UNL A   1      34.025  26.873  25.517  1.00  0.00     0.088 C 
ATOM     22  C   UNL A   1      33.696  28.313  25.807  1.00  0.00     0.027 C 
ATOM     23  C   UNL A   1      32.924  27.255  26.496  1.00  0.00     0.027 C 
ENDBRANCH  18  21
ENDBRANCH  10  16
ENDBRANCH   4   7
ENDBRANCH   2   3
ENDBRANCH   1   2
BRANCH   1  24
ATOM     24  C   UNL A   1      38.902  20.282  25.778  1.00  0.00     0.118 C 
BRANCH  24  25
ATOM     25  N   UNL A   1      40.037  19.357  25.815  1.00  0.00    -0.352 N 
ATOM     26  C   UNL A   1      41.367  19.548  26.109  1.00  0.00     0.251 C 
ATOM     27  H   UNL A   1      39.805  18.427  25.588  1.00  0.00     0.163 HD
ATOM     28  O   UNL A   1      42.166  18.635  25.918  1.00  0.00    -0.269 OA
BRANCH  26  29
ATOM     29  C   UNL A   1      41.858  20.850  26.609  1.00  0.00     0.039 A 
ATOM     30  C   UNL A   1      42.316  21.806  25.696  1.00  0.00     0.014 A 
ATOM     31  C   UNL A   1      41.866  21.144  27.971  1.00  0.00     0.014 A 
ATOM     32  C   UNL A   1      42.675  23.080  26.142  1.00  0.00     0.010 A 
ATOM     33  C   UNL A   1      42.084  22.446  28.397  1.00  0.00     0.010 A 
ATOM     34  C   UNL A   1      42.502  23.430  27.491  1.00  0.00    -0.014 A 
BRANCH  34  35
ATOM     35  C   UNL A   1      42.768  24.801  27.994  1.00  0.00     0.031 A 
ATOM     36  C   UNL A   1      44.163  25.187  28.414  1.00  0.00     0.074 A 
ATOM     37  C   UNL A   1      41.747  25.663  28.168  1.00  0.00     0.049 A 
ATOM     38  N   UNL A   1      44.578  26.279  29.004  1.00  0.00    -0.248 NA
ATOM     39  C   UNL A   1      45.224  24.194  28.180  1.00  0.00     0.031 C 
ATOM     40  C   UNL A   1      40.341  25.390  27.862  1.00  0.00     0.029 A 
ATOM     41  N   UNL A   1      41.734  26.944  28.660  1.00  0.00    -0.354 N 
ATOM     42  C   UNL A   1      45.933  26.085  29.242  1.00  0.00     0.074 A 
ATOM     43  C   UNL A   1      46.257  24.750  28.794  1.00  0.00     0.031 C 
ATOM     44  C   UNL A   1      39.609  26.481  28.138  1.00  0.00     0.029 A 
ATOM     45  C   UNL A   1      40.484  27.513  28.683  1.00  0.00     0.049 A 
ATOM     46  H   UNL A   1      42.545  27.410  28.967  1.00  0.00     0.167 HD
ATOM     47  C   UNL A   1      46.837  26.953  29.753  1.00  0.00     0.037 A 
ATOM     48  C   UNL A   1      40.088  28.730  29.102  1.00  0.00     0.037 A 
ATOM     49  C   UNL A   1      46.523  28.300  30.149  1.00  0.00     0.049 A 
ATOM     50  C   UNL A   1      41.113  29.685  29.645  1.00  0.00     0.074 A 
ATOM     51  C   UNL A   1      47.376  29.284  30.613  1.00  0.00     0.029 A 
ATOM     52  N   UNL A   1      45.252  28.853  30.116  1.00  0.00    -0.354 N 
ATOM     53  N   UNL A   1      42.403  29.512  29.804  1.00  0.00    -0.248 NA
ATOM     54  C   UNL A   1      40.629  31.010  30.060  1.00  0.00     0.031 C 
ATOM     55  C   UNL A   1      46.615  30.424  30.894  1.00  0.00     0.029 A 
ATOM     56  C   UNL A   1      45.295  30.162  30.564  1.00  0.00     0.049 A 
ATOM     57  H   UNL A   1      44.439  28.384  29.819  1.00  0.00     0.167 HD
ATOM     58  C   UNL A   1      42.889  30.711  30.308  1.00  0.00     0.074 A 
ATOM     59  C   UNL A   1      41.757  31.609  30.415  1.00  0.00     0.031 C 
ATOM     60  C   UNL A   1      44.158  31.042  30.650  1.00  0.00     0.037 A 
BRANCH  47  61
ATOM     61  C   UNL A   1      48.252  26.472  29.896  1.00  0.00     0.057 A 
ATOM     62  C   UNL A   1      48.696  25.818  31.054  1.00  0.00     0.134 A 
ATOM     63  C   UNL A   1      49.179  26.652  28.863  1.00  0.00     0.134 A 
ATOM     64  F   UNL A   1      47.864  25.628  32.089  1.00  0.00    -0.206 F 
ATOM     65  C   UNL A   1      50.018  25.391  31.192  1.00  0.00     0.040 A 
ATOM     66  C   UNL A   1      50.496  26.203  28.977  1.00  0.00     0.040 A 
ATOM     67  F   UNL A   1      48.821  27.266  27.725  1.00  0.00    -0.206 F 
ATOM     68  C   UNL A   1      50.921  25.578  30.148  1.00  0.00     0.006 A 
ENDBRANCH  47  61
BRANCH  48  69
ATOM     69  C   UNL A   1      38.663  29.130  28.990  1.00  0.00     0.057 A 
ATOM     70  C   UNL A   1      37.806  29.049  30.095  1.00  0.00     0.134 A 
ATOM     71  C   UNL A   1      38.120  29.596  27.787  1.00  0.00     0.134 A 
ATOM     72  F   UNL A   1      38.264  28.594  31.271  1.00  0.00    -0.206 F 
ATOM     73  C   UNL A   1      36.457  29.394  30.004  1.00  0.00     0.040 A 
ATOM     74  C   UNL A   1      36.778  29.968  27.687  1.00  0.00     0.040 A 
ATOM     75  F   UNL A   1      38.890  29.708  26.696  1.00  0.00    -0.206 F 
ATOM     76  C   UNL A   1      35.941  29.861  28.796  1.00  0.00     0.006 A 
ENDBRANCH  48  69
BRANCH  60  77
ATOM     77  C   UNL A   1      44.395  32.442  31.131  1.00  0.00     0.057 A 
ATOM     78  C   UNL A   1      44.672  33.492  30.247  1.00  0.00     0.134 A 
ATOM     79  C   UNL A   1      44.308  32.747  32.495  1.00  0.00     0.134 A 
ATOM     80  F   UNL A   1      44.781  33.262  28.930  1.00  0.00    -0.206 F 
ATOM     81  C   UNL A   1      44.873  34.795  30.705  1.00  0.00     0.040 A 
ATOM     82  C   UNL A   1      44.481  34.051  32.963  1.00  0.00     0.040 A 
ATOM     83  F   UNL A   1      44.037  31.788  33.393  1.00  0.00    -0.206 F 
ATOM     84  C   UNL A   1      44.771  35.077  32.067  1.00  0.00     0.006 A 
ENDBRANCH  60  77
ENDBRANCH  34  35
ENDBRANCH  26  29
ENDBRANCH  24  25
ENDBRANCH   1  24
TORSDOF 14
ENDMDL
MODEL 2
REMARK VINA RESULT:     -10.9      2.696      4.452
REMARK SMILES CCCN1C(=O)C[C@H](C(=O)NCCCNC(=O)c2ccc(-c3c4nc(c(-c5c(F)cccc5F)c5ccc([nH]5)c(-c5c(F)cccc5F)c5nc(c(-c6c(F)cccc6F)c6ccc3[nH]6)C=C5)C=C4)cc2)[C@@H]1c1cncn1C1CC1
REMARK SMILES IDX 13 1 12 2 11 3 9 4 10 5 8 7 4 8 5 9 72 10 6 11 7 12 3 13
REMARK SMILES IDX 2 14 1 15 73 16 74 17 77 18 75 19 76 20 78 21 79 22 80 23
REMARK SMILES IDX 14 24 15 25 16 26 17 28 18 29 19 30 71 31 20 32 70 33 21 34
REMARK SMILES IDX 22 35 23 36 64 37 24 38 69 39 63 40 65 41 25 42 68 43 62 44
REMARK SMILES IDX 61 45 26 47 52 48 35 49 51 50 36 51 39 52 50 53 66 54 37 55
REMARK SMILES IDX 38 56 49 58 67 59 40 60 27 61 28 62 33 63 29 64 30 65 32 66
REMARK SMILES IDX 34 67 31 68 53 69 54 70 59 71 55 72 56 73 58 74 60 75 57 76
REMARK SMILES IDX 41 77 42 78 47 79 43 80 44 81 46 82 48 83 45 84
REMARK H PARENT 11 6 15 27 65 46 39 57
REMARK Flexibility Score: inf
ROOT
ATOM      1  C   UNL A   1      36.437  22.786  24.074  1.00  0.00     0.042 C 
ENDROOT
BRANCH   1   2
ATOM      2  C   UNL A   1      34.973  22.682  24.435  1.00  0.00     0.117 C 
BRANCH   2   3
ATOM      3  N   UNL A   1      34.042  22.855  23.359  1.00  0.00    -0.356 N 
ATOM      4  C   UNL A   1      33.712  24.026  22.752  1.00  0.00     0.226 C 
ATOM      5  O   UNL A   1      33.162  23.937  21.649  1.00  0.00    -0.275 OA
ATOM      6  H   UNL A   1      33.596  22.044  23.026  1.00  0.00     0.163 HD
BRANCH   4   7
ATOM      7  C   UNL A   1      33.931  25.404  23.372  1.00  0.00     0.116 C 
ATOM      8  N   UNL A   1      33.499  27.204  24.827  1.00  0.00    -0.333 N 
ATOM      9  C   UNL A   1      33.663  27.736  23.546  1.00  0.00     0.224 C 
ATOM     10  C   UNL A   1      33.468  25.767  24.783  1.00  0.00     0.146 C 
ATOM     11  O   UNL A   1      33.843  28.913  23.272  1.00  0.00    -0.275 OA
ATOM     12  C   UNL A   1      33.576  26.618  22.529  1.00  0.00     0.116 C 
BRANCH   8  13
ATOM     13  C   UNL A   1      33.911  27.917  26.037  1.00  0.00     0.120 C 
BRANCH  13  14
ATOM     14  C   UNL A   1      32.795  28.411  26.962  1.00  0.00     0.018 C 
ATOM     15  C   UNL A   1      31.700  29.193  26.246  1.00  0.00     0.006 C 
ENDBRANCH  13  14
ENDBRANCH   8  13
BRANCH  10  16
ATOM     16  C   UNL A   1      32.235  25.177  25.378  1.00  0.00     0.061 A 
ATOM     17  C   UNL A   1      32.289  24.431  26.556  1.00  0.00     0.136 A 
ATOM     18  N   UNL A   1      30.872  25.220  25.085  1.00  0.00    -0.330 N 
ATOM     19  N   UNL A   1      31.064  24.049  26.992  1.00  0.00    -0.245 NA
ATOM     20  C   UNL A   1      30.235  24.562  26.122  1.00  0.00     0.199 A 
BRANCH  18  21
ATOM     21  C   UNL A   1      30.011  25.697  23.999  1.00  0.00     0.088 C 
ATOM     22  C   UNL A   1      28.753  26.524  24.030  1.00  0.00     0.027 C 
ATOM     23  C   UNL A   1      29.975  27.110  23.437  1.00  0.00     0.027 C 
ENDBRANCH  18  21
ENDBRANCH  10  16
ENDBRANCH   4   7
ENDBRANCH   2   3
ENDBRANCH   1   2
BRANCH   1  24
ATOM     24  C   UNL A   1      37.267  23.428  25.171  1.00  0.00     0.118 C 
BRANCH  24  25
ATOM     25  N   UNL A   1      38.493  22.688  25.475  1.00  0.00    -0.352 N 
ATOM     26  C   UNL A   1      39.639  23.046  26.147  1.00  0.00     0.251 C 
ATOM     27  H   UNL A   1      38.498  21.763  25.137  1.00  0.00     0.163 HD
ATOM     28  O   UNL A   1      40.607  22.289  26.137  1.00  0.00    -0.269 OA
BRANCH  26  29
ATOM     29  C   UNL A   1      39.740  24.347  26.841  1.00  0.00     0.039 A 
ATOM     30  C   UNL A   1      39.169  24.492  28.111  1.00  0.00     0.014 A 
ATOM     31  C   UNL A   1      40.395  25.428  26.257  1.00  0.00     0.014 A 
ATOM     32  C   UNL A   1      39.353  25.677  28.826  1.00  0.00     0.010 A 
ATOM     33  C   UNL A   1      40.700  26.547  27.019  1.00  0.00     0.010 A 
ATOM     34  C   UNL A   1      40.175  26.692  28.310  1.00  0.00    -0.014 A 
BRANCH  34  35
ATOM     35  C   UNL A   1      40.488  27.924  29.077  1.00  0.00     0.031 A 
ATOM     36  C   UNL A   1      41.803  28.040  29.804  1.00  0.00     0.074 A 
ATOM     37  C   UNL A   1      39.559  28.891  29.203  1.00  0.00     0.049 A 
ATOM     38  N   UNL A   1      42.212  28.963  30.635  1.00  0.00    -0.248 NA
ATOM     39  C   UNL A   1      42.768  26.946  29.605  1.00  0.00     0.031 C 
ATOM     40  C   UNL A   1      38.223  28.873  28.603  1.00  0.00     0.029 A 
ATOM     41  N   UNL A   1      39.593  30.077  29.893  1.00  0.00    -0.354 N 
ATOM     42  C   UNL A   1      43.459  28.543  31.081  1.00  0.00     0.074 A 
ATOM     43  C   UNL A   1      43.711  27.252  30.482  1.00  0.00     0.031 C 
ATOM     44  C   UNL A   1      37.580  30.008  28.921  1.00  0.00     0.029 A 
ATOM     45  C   UNL A   1      38.438  30.813  29.783  1.00  0.00     0.049 A 
ATOM     46  H   UNL A   1      40.372  30.372  30.418  1.00  0.00     0.167 HD
ATOM     47  C   UNL A   1      44.333  29.188  31.889  1.00  0.00     0.037 A 
ATOM     48  C   UNL A   1      38.107  32.002  30.321  1.00  0.00     0.037 A 
ATOM     49  C   UNL A   1      44.101  30.496  32.442  1.00  0.00     0.049 A 
ATOM     50  C   UNL A   1      39.103  32.711  31.195  1.00  0.00     0.074 A 
ATOM     51  C   UNL A   1      44.949  31.269  33.213  1.00  0.00     0.029 A 
ATOM     52  N   UNL A   1      42.935  31.227  32.270  1.00  0.00    -0.354 N 
ATOM     53  N   UNL A   1      40.305  32.331  31.556  1.00  0.00    -0.248 NA
ATOM     54  C   UNL A   1      38.700  34.019  31.732  1.00  0.00     0.031 C 
ATOM     55  C   UNL A   1      44.283  32.455  33.538  1.00  0.00     0.029 A 
ATOM     56  C   UNL A   1      43.036  32.438  32.932  1.00  0.00     0.049 A 
ATOM     57  H   UNL A   1      42.152  30.928  31.754  1.00  0.00     0.167 HD
ATOM     58  C   UNL A   1      40.812  33.363  32.336  1.00  0.00     0.074 A 
ATOM     59  C   UNL A   1      39.792  34.391  32.383  1.00  0.00     0.031 C 
ATOM     60  C   UNL A   1      42.015  33.453  32.955  1.00  0.00     0.037 A 
BRANCH  47  61
ATOM     61  C   UNL A   1      45.624  28.491  32.205  1.00  0.00     0.057 A 
ATOM     62  C   UNL A   1      46.759  28.633  31.394  1.00  0.00     0.134 A 
ATOM     63  C   UNL A   1      45.741  27.679  33.340  1.00  0.00     0.134 A 
ATOM     64  F   UNL A   1      46.710  29.383  30.283  1.00  0.00    -0.206 F 
ATOM     65  C   UNL A   1      47.951  27.965  31.680  1.00  0.00     0.040 A 
ATOM     66  C   UNL A   1      46.937  27.031  33.654  1.00  0.00     0.040 A 
ATOM     67  F   UNL A   1      44.697  27.503  34.163  1.00  0.00    -0.206 F 
ATOM     68  C   UNL A   1      48.044  27.166  32.818  1.00  0.00     0.006 A 
ENDBRANCH  47  61
BRANCH  48  69
ATOM     69  C   UNL A   1      36.790  32.617  30.019  1.00  0.00     0.057 A 
ATOM     70  C   UNL A   1      36.639  33.494  28.938  1.00  0.00     0.134 A 
ATOM     71  C   UNL A   1      35.657  32.353  30.798  1.00  0.00     0.134 A 
ATOM     72  F   UNL A   1      37.692  33.799  28.165  1.00  0.00    -0.206 F 
ATOM     73  C   UNL A   1      35.416  34.104  28.654  1.00  0.00     0.040 A 
ATOM     74  C   UNL A   1      34.422  32.936  30.511  1.00  0.00     0.040 A 
ATOM     75  F   UNL A   1      35.733  31.513  31.840  1.00  0.00    -0.206 F 
ATOM     76  C   UNL A   1      34.301  33.820  29.440  1.00  0.00     0.006 A 
ENDBRANCH  48  69
BRANCH  60  77
ATOM     77  C   UNL A   1      42.308  34.720  33.701  1.00  0.00     0.057 A 
ATOM     78  C   UNL A   1      42.878  35.834  33.072  1.00  0.00     0.134 A 
ATOM     79  C   UNL A   1      41.978  34.838  35.056  1.00  0.00     0.134 A 
ATOM     80  F   UNL A   1      43.228  35.780  31.778  1.00  0.00    -0.206 F 
ATOM     81  C   UNL A   1      43.130  37.015  33.772  1.00  0.00     0.040 A 
ATOM     82  C   UNL A   1      42.201  36.022  35.761  1.00  0.00     0.040 A 
ATOM     83  F   UNL A   1      41.421  33.810  35.715  1.00  0.00    -0.206 F 
ATOM     84  C   UNL A   1      42.784  37.112  35.119  1.00  0.00     0.006 A 
ENDBRANCH  60  77
ENDBRANCH  34  35
ENDBRANCH  26  29
ENDBRANCH  24  25
ENDBRANCH   1  24
TORSDOF 14
ENDMDL
MODEL 3
REMARK VINA RESULT:     -10.9      3.227      8.480
REMARK SMILES CCCN1C(=O)C[C@H](C(=O)NCCCNC(=O)c2ccc(-c3c4nc(c(-c5c(F)cccc5F)c5ccc([nH]5)c(-c5c(F)cccc5F)c5nc(c(-c6c(F)cccc6F)c6ccc3[nH]6)C=C5)C=C4)cc2)[C@@H]1c1cncn1C1CC1
REMARK SMILES IDX 13 1 12 2 11 3 9 4 10 5 8 7 4 8 5 9 72 10 6 11 7 12 3 13
REMARK SMILES IDX 2 14 1 15 73 16 74 17 77 18 75 19 76 20 78 21 79 22 80 23
REMARK SMILES IDX 14 24 15 25 16 26 17 28 18 29 19 30 71 31 20 32 70 33 21 34
REMARK SMILES IDX 22 35 23 36 64 37 24 38 69 39 63 40 65 41 25 42 68 43 62 44
REMARK SMILES IDX 61 45 26 47 52 48 35 49 51 50 36 51 39 52 50 53 66 54 37 55
REMARK SMILES IDX 38 56 49 58 67 59 40 60 27 61 28 62 33 63 29 64 30 65 32 66
REMARK SMILES IDX 34 67 31 68 53 69 54 70 59 71 55 72 56 73 58 74 60 75 57 76
REMARK SMILES IDX 41 77 42 78 47 79 43 80 44 81 46 82 48 83 45 84
REMARK H PARENT 11 6 15 27 65 46 39 57
REMARK Flexibility Score: inf
ROOT
ATOM      1  C   UNL A   1      31.322  31.603  26.223  1.00  0.00     0.042 C 
ENDROOT
BRANCH   1   2
ATOM      2  C   UNL A   1      31.571  30.227  25.650  1.00  0.00     0.117 C 
BRANCH   2   3
ATOM      3  N   UNL A   1      32.304  29.319  26.481  1.00  0.00    -0.356 N 
ATOM      4  C   UNL A   1      32.987  28.216  26.072  1.00  0.00     0.226 C 
ATOM      5  O   UNL A   1      33.818  27.759  26.865  1.00  0.00    -0.275 OA
ATOM      6  H   UNL A   1      32.316  29.512  27.446  1.00  0.00     0.163 HD
BRANCH   4   7
ATOM      7  C   UNL A   1      32.746  27.503  24.744  1.00  0.00     0.116 C 
ATOM      8  N   UNL A   1      32.420  25.657  23.318  1.00  0.00    -0.333 N 
ATOM      9  C   UNL A   1      33.382  26.477  22.724  1.00  0.00     0.224 C 
ATOM     10  C   UNL A   1      32.107  26.118  24.644  1.00  0.00     0.146 C 
ATOM     11  O   UNL A   1      33.766  26.413  21.565  1.00  0.00    -0.275 OA
ATOM     12  C   UNL A   1      33.894  27.467  23.749  1.00  0.00     0.116 C 
BRANCH   8  13
ATOM     13  C   UNL A   1      31.458  24.876  22.541  1.00  0.00     0.120 C 
BRANCH  13  14
ATOM     14  C   UNL A   1      31.140  23.467  23.049  1.00  0.00     0.018 C 
ATOM     15  C   UNL A   1      32.292  22.481  22.899  1.00  0.00     0.006 C 
ENDBRANCH  13  14
ENDBRANCH   8  13
BRANCH  10  16
ATOM     16  C   UNL A   1      32.310  25.084  25.699  1.00  0.00     0.061 A 
ATOM     17  C   UNL A   1      31.252  24.658  26.504  1.00  0.00     0.136 A 
ATOM     18  N   UNL A   1      33.375  24.284  26.115  1.00  0.00    -0.330 N 
ATOM     19  N   UNL A   1      31.604  23.656  27.346  1.00  0.00    -0.245 NA
ATOM     20  C   UNL A   1      32.860  23.425  27.069  1.00  0.00     0.199 A 
BRANCH  18  21
ATOM     21  C   UNL A   1      34.814  24.176  25.859  1.00  0.00     0.088 C 
ATOM     22  C   UNL A   1      35.714  22.971  25.791  1.00  0.00     0.027 C 
ATOM     23  C   UNL A   1      35.463  23.743  24.553  1.00  0.00     0.027 C 
ENDBRANCH  18  21
ENDBRANCH  10  16
ENDBRANCH   4   7
ENDBRANCH   2   3
ENDBRANCH   1   2
BRANCH   1  24
ATOM     24  C   UNL A   1      32.482  32.107  27.062  1.00  0.00     0.118 C 
BRANCH  24  25
ATOM     25  N   UNL A   1      32.309  33.489  27.515  1.00  0.00    -0.352 N 
ATOM     26  C   UNL A   1      33.054  34.278  28.361  1.00  0.00     0.251 C 
ATOM     27  H   UNL A   1      31.513  33.936  27.145  1.00  0.00     0.163 HD
ATOM     28  O   UNL A   1      32.614  35.369  28.713  1.00  0.00    -0.269 OA
BRANCH  26  29
ATOM     29  C   UNL A   1      34.354  33.813  28.889  1.00  0.00     0.039 A 
ATOM     30  C   UNL A   1      34.386  33.071  30.075  1.00  0.00     0.014 A 
ATOM     31  C   UNL A   1      35.545  34.095  28.225  1.00  0.00     0.014 A 
ATOM     32  C   UNL A   1      35.592  32.529  30.525  1.00  0.00     0.010 A 
ATOM     33  C   UNL A   1      36.713  33.442  28.590  1.00  0.00     0.010 A 
ATOM     34  C   UNL A   1      36.756  32.658  29.751  1.00  0.00    -0.014 A 
BRANCH  34  35
ATOM     35  C   UNL A   1      38.036  32.010  30.132  1.00  0.00     0.031 A 
ATOM     36  C   UNL A   1      38.993  32.727  31.049  1.00  0.00     0.074 A 
ATOM     37  C   UNL A   1      38.384  30.832  29.580  1.00  0.00     0.049 A 
ATOM     38  N   UNL A   1      40.213  32.401  31.392  1.00  0.00    -0.248 NA
ATOM     39  C   UNL A   1      38.534  34.004  31.620  1.00  0.00     0.031 C 
ATOM     40  C   UNL A   1      37.576  30.066  28.628  1.00  0.00     0.029 A 
ATOM     41  N   UNL A   1      39.519  30.075  29.731  1.00  0.00    -0.354 N 
ATOM     42  C   UNL A   1      40.673  33.445  32.184  1.00  0.00     0.074 A 
ATOM     43  C   UNL A   1      39.630  34.445  32.217  1.00  0.00     0.031 C 
ATOM     44  C   UNL A   1      38.224  28.935  28.308  1.00  0.00     0.029 A 
ATOM     45  C   UNL A   1      39.510  28.915  28.995  1.00  0.00     0.049 A 
ATOM     46  H   UNL A   1      40.269  30.340  30.311  1.00  0.00     0.167 HD
ATOM     47  C   UNL A   1      41.845  33.549  32.855  1.00  0.00     0.037 A 
ATOM     48  C   UNL A   1      40.439  27.947  28.884  1.00  0.00     0.037 A 
ATOM     49  C   UNL A   1      42.859  32.530  32.863  1.00  0.00     0.049 A 
ATOM     50  C   UNL A   1      41.722  28.073  29.657  1.00  0.00     0.074 A 
ATOM     51  C   UNL A   1      44.051  32.504  33.564  1.00  0.00     0.029 A 
ATOM     52  N   UNL A   1      42.793  31.349  32.139  1.00  0.00    -0.354 N 
ATOM     53  N   UNL A   1      42.117  29.037  30.453  1.00  0.00    -0.248 NA
ATOM     54  C   UNL A   1      42.688  26.972  29.520  1.00  0.00     0.031 C 
ATOM     55  C   UNL A   1      44.723  31.321  33.238  1.00  0.00     0.029 A 
ATOM     56  C   UNL A   1      43.929  30.592  32.366  1.00  0.00     0.049 A 
ATOM     57  H   UNL A   1      42.049  31.088  31.550  1.00  0.00     0.167 HD
ATOM     58  C   UNL A   1      43.360  28.646  30.936  1.00  0.00     0.074 A 
ATOM     59  C   UNL A   1      43.646  27.351  30.353  1.00  0.00     0.031 C 
ATOM     60  C   UNL A   1      44.188  29.299  31.787  1.00  0.00     0.037 A 
BRANCH  47  61
ATOM     61  C   UNL A   1      42.078  34.804  33.646  1.00  0.00     0.057 A 
ATOM     62  C   UNL A   1      41.656  34.928  34.976  1.00  0.00     0.134 A 
ATOM     63  C   UNL A   1      42.744  35.897  33.077  1.00  0.00     0.134 A 
ATOM     64  F   UNL A   1      40.997  33.925  35.577  1.00  0.00    -0.206 F 
ATOM     65  C   UNL A   1      41.856  36.104  35.701  1.00  0.00     0.040 A 
ATOM     66  C   UNL A   1      42.977  37.067  33.801  1.00  0.00     0.040 A 
ATOM     67  F   UNL A   1      43.181  35.845  31.810  1.00  0.00    -0.206 F 
ATOM     68  C   UNL A   1      42.525  37.177  35.115  1.00  0.00     0.006 A 
ENDBRANCH  47  61
BRANCH  48  69
ATOM     69  C   UNL A   1      40.177  26.755  28.040  1.00  0.00     0.057 A 
ATOM     70  C   UNL A   1      39.401  25.692  28.519  1.00  0.00     0.134 A 
ATOM     71  C   UNL A   1      40.692  26.642  26.743  1.00  0.00     0.134 A 
ATOM     72  F   UNL A   1      38.893  25.735  29.760  1.00  0.00    -0.206 F 
ATOM     73  C   UNL A   1      39.166  24.551  27.751  1.00  0.00     0.040 A 
ATOM     74  C   UNL A   1      40.444  25.517  25.954  1.00  0.00     0.040 A 
ATOM     75  F   UNL A   1      41.433  27.629  26.221  1.00  0.00    -0.206 F 
ATOM     76  C   UNL A   1      39.685  24.464  26.461  1.00  0.00     0.006 A 
ENDBRANCH  48  69
BRANCH  60  77
ATOM     77  C   UNL A   1      45.462  28.606  32.169  1.00  0.00     0.057 A 
ATOM     78  C   UNL A   1      45.528  27.726  33.256  1.00  0.00     0.134 A 
ATOM     79  C   UNL A   1      46.626  28.795  31.414  1.00  0.00     0.134 A 
ATOM     80  F   UNL A   1      44.450  27.513  34.026  1.00  0.00    -0.206 F 
ATOM     81  C   UNL A   1      46.715  27.074  33.592  1.00  0.00     0.040 A 
ATOM     82  C   UNL A   1      47.812  28.128  31.724  1.00  0.00     0.040 A 
ATOM     83  F   UNL A   1      46.627  29.619  30.355  1.00  0.00    -0.206 F 
ATOM     84  C   UNL A   1      47.859  27.269  32.820  1.00  0.00     0.006 A 
ENDBRANCH  60  77
ENDBRANCH  34  35
ENDBRANCH  26  29
ENDBRANCH  24  25
ENDBRANCH   1  24
TORSDOF 14
ENDMDL
