MODEL 1
REMARK VINA RESULT:     -12.3      0.000      0.000
REMARK SMILES O=C(NCCCNC(=O)c1cc(-c2ccc(F)c(C(F)(F)F)c2)cnc1O)c1ccc(-c2c3nc(c(-c4c(F)cccc4F)c4ccc([nH]4)c(-c4c(F)cccc4F)c4nc(c(-c5c(F)cccc5F)c5ccc2[nH]5)C=C4)C=C3)cc1
REMARK SMILES IDX 5 1 4 2 3 3 1 4 2 5 28 7 29 8 81 9 30 10 80 11 31 12 32 13
REMARK SMILES IDX 33 14 74 15 34 16 79 17 73 18 75 19 35 20 78 21 72 22 71 23
REMARK SMILES IDX 36 25 62 26 45 27 61 28 46 29 49 30 60 31 76 32 47 33 48 34
REMARK SMILES IDX 59 36 77 37 50 38 37 39 38 40 43 41 39 42 40 43 42 44 44 45
REMARK SMILES IDX 41 46 63 47 64 48 69 49 65 50 66 51 68 52 70 53 67 54 51 55
REMARK SMILES IDX 52 56 57 57 53 58 54 59 56 60 58 61 55 62 6 63 7 64 8 65
REMARK SMILES IDX 9 67 10 68 11 69 26 70 12 71 25 72 24 73 27 74 13 76 14 77
REMARK SMILES IDX 23 78 15 79 18 80 16 81 17 82 19 83 20 84 21 85 22 86
REMARK H PARENT 3 6 75 24 49 35 7 66 27 75
REMARK Flexibility Score: inf
ROOT
ATOM      1  C   UNL A   1      33.883  28.460  25.854  1.00  0.00     0.042 C 
ENDROOT
BRANCH   1   2
ATOM      2  C   UNL A   1      33.491  28.665  27.309  1.00  0.00     0.118 C 
BRANCH   2   3
ATOM      3  N   UNL A   1      33.573  30.059  27.720  1.00  0.00    -0.352 N 
ATOM      4  O   UNL A   1      34.348  31.882  28.768  1.00  0.00    -0.269 OA
ATOM      5  C   UNL A   1      34.583  30.758  28.329  1.00  0.00     0.251 C 
ATOM      6  H   UNL A   1      32.767  30.589  27.529  1.00  0.00     0.163 HD
BRANCH   5   7
ATOM      7  C   UNL A   1      35.942  30.189  28.466  1.00  0.00     0.039 A 
ATOM      8  C   UNL A   1      36.306  29.606  29.685  1.00  0.00     0.014 A 
ATOM      9  C   UNL A   1      36.888  30.299  27.445  1.00  0.00     0.014 A 
ATOM     10  C   UNL A   1      37.603  29.121  29.869  1.00  0.00     0.010 A 
ATOM     11  C   UNL A   1      38.146  29.723  27.590  1.00  0.00     0.010 A 
ATOM     12  C   UNL A   1      38.532  29.168  28.819  1.00  0.00    -0.014 A 
BRANCH  12  13
ATOM     13  C   UNL A   1      39.943  28.750  29.018  1.00  0.00     0.031 A 
ATOM     14  C   UNL A   1      40.910  29.701  29.677  1.00  0.00     0.074 A 
ATOM     15  C   UNL A   1      40.367  27.544  28.595  1.00  0.00     0.049 A 
ATOM     16  N   UNL A   1      42.198  29.574  29.874  1.00  0.00    -0.248 NA
ATOM     17  C   UNL A   1      40.357  30.980  30.155  1.00  0.00     0.031 C 
ATOM     18  C   UNL A   1      39.538  26.538  27.929  1.00  0.00     0.029 A 
ATOM     19  N   UNL A   1      41.607  26.961  28.662  1.00  0.00    -0.354 N 
ATOM     20  C   UNL A   1      42.605  30.757  30.482  1.00  0.00     0.074 A 
ATOM     21  C   UNL A   1      41.445  31.617  30.557  1.00  0.00     0.031 C 
ATOM     22  C   UNL A   1      40.287  25.452  27.674  1.00  0.00     0.029 A 
ATOM     23  C   UNL A   1      41.654  25.701  28.119  1.00  0.00     0.049 A 
ATOM     24  H   UNL A   1      42.390  27.405  29.063  1.00  0.00     0.167 HD
ATOM     25  C   UNL A   1      43.825  31.088  30.967  1.00  0.00     0.037 A 
ATOM     26  C   UNL A   1      42.690  24.850  27.987  1.00  0.00     0.037 A 
ATOM     27  C   UNL A   1      44.972  30.223  30.922  1.00  0.00     0.049 A 
ATOM     28  C   UNL A   1      44.048  25.262  28.494  1.00  0.00     0.074 A 
ATOM     29  C   UNL A   1      46.244  30.449  31.415  1.00  0.00     0.029 A 
ATOM     30  N   UNL A   1      44.981  28.959  30.352  1.00  0.00    -0.354 N 
ATOM     31  N   UNL A   1      44.407  26.366  29.102  1.00  0.00    -0.248 NA
ATOM     32  C   UNL A   1      45.143  24.303  28.293  1.00  0.00     0.031 C 
ATOM     33  C   UNL A   1      47.036  29.338  31.107  1.00  0.00     0.029 A 
ATOM     34  C   UNL A   1      46.243  28.400  30.463  1.00  0.00     0.049 A 
ATOM     35  H   UNL A   1      44.205  28.523  29.930  1.00  0.00     0.167 HD
ATOM     36  C   UNL A   1      45.761  26.223  29.382  1.00  0.00     0.074 A 
ATOM     37  C   UNL A   1      46.151  24.915  28.897  1.00  0.00     0.031 C 
ATOM     38  C   UNL A   1      46.609  27.094  29.981  1.00  0.00     0.037 A 
BRANCH  25  39
ATOM     39  C   UNL A   1      43.970  32.443  31.598  1.00  0.00     0.057 A 
ATOM     40  C   UNL A   1      44.313  33.561  30.827  1.00  0.00     0.134 A 
ATOM     41  C   UNL A   1      43.787  32.639  32.974  1.00  0.00     0.134 A 
ATOM     42  F   UNL A   1      44.507  33.444  29.505  1.00  0.00    -0.206 F 
ATOM     43  C   UNL A   1      44.466  34.824  31.402  1.00  0.00     0.040 A 
ATOM     44  C   UNL A   1      43.909  33.903  33.555  1.00  0.00     0.040 A 
ATOM     45  F   UNL A   1      43.443  31.613  33.768  1.00  0.00    -0.206 F 
ATOM     46  C   UNL A   1      44.256  34.999  32.768  1.00  0.00     0.006 A 
ENDBRANCH  25  39
BRANCH  26  47
ATOM     47  C   UNL A   1      42.502  23.520  27.351  1.00  0.00     0.057 A 
ATOM     48  C   UNL A   1      42.688  23.332  25.977  1.00  0.00     0.134 A 
ATOM     49  C   UNL A   1      42.188  22.392  28.119  1.00  0.00     0.134 A 
ATOM     50  F   UNL A   1      42.984  24.373  25.184  1.00  0.00    -0.206 F 
ATOM     51  C   UNL A   1      42.576  22.070  25.390  1.00  0.00     0.040 A 
ATOM     52  C   UNL A   1      42.102  21.120  27.550  1.00  0.00     0.040 A 
ATOM     53  F   UNL A   1      42.018  22.504  29.445  1.00  0.00    -0.206 F 
ATOM     54  C   UNL A   1      42.295  20.957  26.180  1.00  0.00     0.006 A 
ENDBRANCH  26  47
BRANCH  38  55
ATOM     55  C   UNL A   1      48.027  26.643  30.176  1.00  0.00     0.057 A 
ATOM     56  C   UNL A   1      48.401  25.944  31.331  1.00  0.00     0.134 A 
ATOM     57  C   UNL A   1      49.026  26.916  29.233  1.00  0.00     0.134 A 
ATOM     58  F   UNL A   1      47.495  25.658  32.279  1.00  0.00    -0.206 F 
ATOM     59  C   UNL A   1      49.717  25.531  31.540  1.00  0.00     0.040 A 
ATOM     60  C   UNL A   1      50.339  26.482  29.417  1.00  0.00     0.040 A 
ATOM     61  F   UNL A   1      48.730  27.569  28.098  1.00  0.00    -0.206 F 
ATOM     62  C   UNL A   1      50.690  25.793  30.576  1.00  0.00     0.006 A 
ENDBRANCH  38  55
ENDBRANCH  12  13
ENDBRANCH   5   7
ENDBRANCH   2   3
ENDBRANCH   1   2
BRANCH   1  63
ATOM     63  C   UNL A   1      32.976  29.172  24.860  1.00  0.00     0.118 C 
BRANCH  63  64
ATOM     64  N   UNL A   1      33.571  29.258  23.529  1.00  0.00    -0.352 N 
ATOM     65  C   UNL A   1      33.668  28.288  22.566  1.00  0.00     0.256 C 
ATOM     66  H   UNL A   1      33.955  30.134  23.292  1.00  0.00     0.163 HD
ATOM     67  O   UNL A   1      34.394  28.450  21.590  1.00  0.00    -0.269 OA
BRANCH  65  68
ATOM     68  C   UNL A   1      32.888  27.053  22.699  1.00  0.00     0.102 A 
ATOM     69  C   UNL A   1      33.539  25.885  23.107  1.00  0.00     0.029 A 
ATOM     70  C   UNL A   1      31.526  27.003  22.425  1.00  0.00     0.223 A 
ATOM     71  C   UNL A   1      32.802  24.712  23.293  1.00  0.00     0.001 A 
ATOM     72  N   UNL A   1      30.778  25.904  22.627  1.00  0.00    -0.221 NA
ATOM     73  C   UNL A   1      31.426  24.797  23.060  1.00  0.00     0.124 A 
BRANCH  70  74
ATOM     74  O   UNL A   1      30.813  28.064  21.948  1.00  0.00    -0.493 OA
ATOM     75  H   UNL A   1      30.051  28.360  22.406  1.00  0.00     0.295 HD
ENDBRANCH  70  74
BRANCH  71  76
ATOM     76  C   UNL A   1      33.425  23.449  23.703  1.00  0.00    -0.016 A 
ATOM     77  C   UNL A   1      32.652  22.279  23.809  1.00  0.00     0.012 A 
ATOM     78  C   UNL A   1      34.793  23.373  24.023  1.00  0.00     0.025 A 
ATOM     79  C   UNL A   1      33.221  21.080  24.235  1.00  0.00     0.040 A 
ATOM     80  C   UNL A   1      35.374  22.168  24.457  1.00  0.00     0.092 A 
ATOM     81  C   UNL A   1      34.571  21.036  24.560  1.00  0.00     0.135 A 
ATOM     82  F   UNL A   1      35.094  19.880  24.986  1.00  0.00    -0.206 F 
BRANCH  80  83
ATOM     83  C   UNL A   1      36.819  22.072  24.841  1.00  0.00     0.419 C 
ATOM     84  F   UNL A   1      37.480  23.255  24.705  1.00  0.00    -0.166 F 
ATOM     85  F   UNL A   1      37.008  21.672  26.128  1.00  0.00    -0.166 F 
ATOM     86  F   UNL A   1      37.512  21.178  24.077  1.00  0.00    -0.166 F 
ENDBRANCH  80  83
ENDBRANCH  71  76
ENDBRANCH  65  68
ENDBRANCH  63  64
ENDBRANCH   1  63
TORSDOF 13
ENDMDL
MODEL 2
REMARK VINA RESULT:     -12.2      0.575      1.574
REMARK SMILES O=C(NCCCNC(=O)c1cc(-c2ccc(F)c(C(F)(F)F)c2)cnc1O)c1ccc(-c2c3nc(c(-c4c(F)cccc4F)c4ccc([nH]4)c(-c4c(F)cccc4F)c4nc(c(-c5c(F)cccc5F)c5ccc2[nH]5)C=C4)C=C3)cc1
REMARK SMILES IDX 5 1 4 2 3 3 1 4 2 5 28 7 29 8 81 9 30 10 80 11 31 12 32 13
REMARK SMILES IDX 33 14 74 15 34 16 79 17 73 18 75 19 35 20 78 21 72 22 71 23
REMARK SMILES IDX 36 25 62 26 45 27 61 28 46 29 49 30 60 31 76 32 47 33 48 34
REMARK SMILES IDX 59 36 77 37 50 38 37 39 38 40 43 41 39 42 40 43 42 44 44 45
REMARK SMILES IDX 41 46 63 47 64 48 69 49 65 50 66 51 68 52 70 53 67 54 51 55
REMARK SMILES IDX 52 56 57 57 53 58 54 59 56 60 58 61 55 62 6 63 7 64 8 65
REMARK SMILES IDX 9 67 10 68 11 69 26 70 12 71 25 72 24 73 27 74 13 76 14 77
REMARK SMILES IDX 23 78 15 79 18 80 16 81 17 82 19 83 20 84 21 85 22 86
REMARK H PARENT 3 6 75 24 49 35 7 66 27 75
REMARK Flexibility Score: inf
ROOT
ATOM      1  C   UNL A   1      33.805  28.374  25.830  1.00  0.00     0.042 C 
ENDROOT
BRANCH   1   2
ATOM      2  C   UNL A   1      33.464  28.611  27.294  1.00  0.00     0.118 C 
BRANCH   2   3
ATOM      3  N   UNL A   1      33.544  30.016  27.666  1.00  0.00    -0.352 N 
ATOM      4  O   UNL A   1      34.314  31.870  28.664  1.00  0.00    -0.269 OA
ATOM      5  C   UNL A   1      34.551  30.734  28.257  1.00  0.00     0.251 C 
ATOM      6  H   UNL A   1      32.737  30.540  27.458  1.00  0.00     0.163 HD
BRANCH   5   7
ATOM      7  C   UNL A   1      35.911  30.171  28.411  1.00  0.00     0.039 A 
ATOM      8  C   UNL A   1      36.261  29.591  29.636  1.00  0.00     0.014 A 
ATOM      9  C   UNL A   1      36.869  30.284  27.402  1.00  0.00     0.014 A 
ATOM     10  C   UNL A   1      37.558  29.112  29.837  1.00  0.00     0.010 A 
ATOM     11  C   UNL A   1      38.128  29.714  27.565  1.00  0.00     0.010 A 
ATOM     12  C   UNL A   1      38.501  29.162  28.799  1.00  0.00    -0.014 A 
BRANCH  12  13
ATOM     13  C   UNL A   1      39.911  28.750  29.016  1.00  0.00     0.031 A 
ATOM     14  C   UNL A   1      40.862  29.702  29.697  1.00  0.00     0.074 A 
ATOM     15  C   UNL A   1      40.348  27.550  28.591  1.00  0.00     0.049 A 
ATOM     16  N   UNL A   1      42.147  29.581  29.912  1.00  0.00    -0.248 NA
ATOM     17  C   UNL A   1      40.295  30.975  30.175  1.00  0.00     0.031 C 
ATOM     18  C   UNL A   1      39.535  26.544  27.906  1.00  0.00     0.029 A 
ATOM     19  N   UNL A   1      41.590  26.974  28.673  1.00  0.00    -0.354 N 
ATOM     20  C   UNL A   1      42.538  30.763  30.534  1.00  0.00     0.074 A 
ATOM     21  C   UNL A   1      41.373  31.615  30.598  1.00  0.00     0.031 C 
ATOM     22  C   UNL A   1      40.294  25.464  27.655  1.00  0.00     0.029 A 
ATOM     23  C   UNL A   1      41.653  25.717  28.122  1.00  0.00     0.049 A 
ATOM     24  H   UNL A   1      42.364  27.419  29.089  1.00  0.00     0.167 HD
ATOM     25  C   UNL A   1      43.749  31.097  31.040  1.00  0.00     0.037 A 
ATOM     26  C   UNL A   1      42.696  24.874  28.000  1.00  0.00     0.037 A 
ATOM     27  C   UNL A   1      44.901  30.238  31.007  1.00  0.00     0.049 A 
ATOM     28  C   UNL A   1      44.043  25.290  28.530  1.00  0.00     0.074 A 
ATOM     29  C   UNL A   1      46.165  30.468  31.521  1.00  0.00     0.029 A 
ATOM     30  N   UNL A   1      44.927  28.978  30.428  1.00  0.00    -0.354 N 
ATOM     31  N   UNL A   1      44.387  26.392  29.151  1.00  0.00    -0.248 NA
ATOM     32  C   UNL A   1      45.147  24.338  28.340  1.00  0.00     0.031 C 
ATOM     33  C   UNL A   1      46.967  29.363  31.217  1.00  0.00     0.029 A 
ATOM     34  C   UNL A   1      46.190  28.426  30.555  1.00  0.00     0.049 A 
ATOM     35  H   UNL A   1      44.160  28.541  29.991  1.00  0.00     0.167 HD
ATOM     36  C   UNL A   1      45.737  26.254  29.451  1.00  0.00     0.074 A 
ATOM     37  C   UNL A   1      46.142  24.951  28.963  1.00  0.00     0.031 C 
ATOM     38  C   UNL A   1      46.570  27.125  30.069  1.00  0.00     0.037 A 
BRANCH  25  39
ATOM     39  C   UNL A   1      43.877  32.448  31.683  1.00  0.00     0.057 A 
ATOM     40  C   UNL A   1      44.247  33.569  30.930  1.00  0.00     0.134 A 
ATOM     41  C   UNL A   1      43.650  32.637  33.054  1.00  0.00     0.134 A 
ATOM     42  F   UNL A   1      44.483  33.459  29.614  1.00  0.00    -0.206 F 
ATOM     43  C   UNL A   1      44.384  34.829  31.516  1.00  0.00     0.040 A 
ATOM     44  C   UNL A   1      43.756  33.897  33.645  1.00  0.00     0.040 A 
ATOM     45  F   UNL A   1      43.278  31.608  33.830  1.00  0.00    -0.206 F 
ATOM     46  C   UNL A   1      44.130  34.997  32.876  1.00  0.00     0.006 A 
ENDBRANCH  25  39
BRANCH  26  47
ATOM     47  C   UNL A   1      42.524  23.547  27.352  1.00  0.00     0.057 A 
ATOM     48  C   UNL A   1      42.732  23.370  25.980  1.00  0.00     0.134 A 
ATOM     49  C   UNL A   1      42.206  22.412  28.107  1.00  0.00     0.134 A 
ATOM     50  F   UNL A   1      43.034  24.418  25.199  1.00  0.00    -0.206 F 
ATOM     51  C   UNL A   1      42.636  22.112  25.382  1.00  0.00     0.040 A 
ATOM     52  C   UNL A   1      42.136  21.144  27.528  1.00  0.00     0.040 A 
ATOM     53  F   UNL A   1      42.016  22.513  29.431  1.00  0.00    -0.206 F 
ATOM     54  C   UNL A   1      42.350  20.992  26.160  1.00  0.00     0.006 A 
ENDBRANCH  26  47
BRANCH  38  55
ATOM     55  C   UNL A   1      47.988  26.681  30.283  1.00  0.00     0.057 A 
ATOM     56  C   UNL A   1      48.977  26.973  29.335  1.00  0.00     0.134 A 
ATOM     57  C   UNL A   1      48.371  25.948  31.413  1.00  0.00     0.134 A 
ATOM     58  F   UNL A   1      48.675  27.664  28.225  1.00  0.00    -0.206 F 
ATOM     59  C   UNL A   1      50.297  26.554  29.505  1.00  0.00     0.040 A 
ATOM     60  C   UNL A   1      49.694  25.549  31.609  1.00  0.00     0.040 A 
ATOM     61  F   UNL A   1      47.474  25.647  32.365  1.00  0.00    -0.206 F 
ATOM     62  C   UNL A   1      50.661  25.847  30.650  1.00  0.00     0.006 A 
ENDBRANCH  38  55
ENDBRANCH  12  13
ENDBRANCH   5   7
ENDBRANCH   2   3
ENDBRANCH   1   2
BRANCH   1  63
ATOM     63  C   UNL A   1      32.919  29.136  24.855  1.00  0.00     0.118 C 
BRANCH  63  64
ATOM     64  N   UNL A   1      33.521  29.247  23.529  1.00  0.00    -0.352 N 
ATOM     65  C   UNL A   1      33.717  28.270  22.588  1.00  0.00     0.256 C 
ATOM     66  H   UNL A   1      33.830  30.149  23.278  1.00  0.00     0.163 HD
ATOM     67  O   UNL A   1      34.439  28.476  21.617  1.00  0.00    -0.269 OA
BRANCH  65  68
ATOM     68  C   UNL A   1      33.047  26.974  22.738  1.00  0.00     0.102 A 
ATOM     69  C   UNL A   1      33.783  25.888  23.219  1.00  0.00     0.029 A 
ATOM     70  C   UNL A   1      31.709  26.788  22.411  1.00  0.00     0.223 A 
ATOM     71  C   UNL A   1      33.148  24.658  23.421  1.00  0.00     0.001 A 
ATOM     72  N   UNL A   1      31.056  25.633  22.625  1.00  0.00    -0.221 NA
ATOM     73  C   UNL A   1      31.782  24.607  23.129  1.00  0.00     0.124 A 
BRANCH  70  74
ATOM     74  O   UNL A   1      30.925  27.761  21.862  1.00  0.00    -0.493 OA
ATOM     75  H   UNL A   1      31.177  28.661  21.933  1.00  0.00     0.295 HD
ENDBRANCH  70  74
BRANCH  71  76
ATOM     76  C   UNL A   1      33.864  23.474  23.907  1.00  0.00    -0.016 A 
ATOM     77  C   UNL A   1      35.256  23.518  24.103  1.00  0.00     0.012 A 
ATOM     78  C   UNL A   1      33.194  22.265  24.166  1.00  0.00     0.025 A 
ATOM     79  C   UNL A   1      35.957  22.390  24.526  1.00  0.00     0.040 A 
ATOM     80  C   UNL A   1      33.894  21.120  24.590  1.00  0.00     0.092 A 
ATOM     81  C   UNL A   1      35.273  21.203  24.760  1.00  0.00     0.135 A 
ATOM     82  F   UNL A   1      35.967  20.126  25.147  1.00  0.00    -0.206 F 
BRANCH  80  83
ATOM     83  C   UNL A   1      33.209  19.811  24.834  1.00  0.00     0.419 C 
ATOM     84  F   UNL A   1      33.273  19.417  26.136  1.00  0.00    -0.166 F 
ATOM     85  F   UNL A   1      31.891  19.823  24.501  1.00  0.00    -0.166 F 
ATOM     86  F   UNL A   1      33.756  18.785  24.117  1.00  0.00    -0.166 F 
ENDBRANCH  80  83
ENDBRANCH  71  76
ENDBRANCH  65  68
ENDBRANCH  63  64
ENDBRANCH   1  63
TORSDOF 13
ENDMDL
MODEL 3
REMARK VINA RESULT:     -12.2      4.336      7.801
REMARK SMILES O=C(NCCCNC(=O)c1cc(-c2ccc(F)c(C(F)(F)F)c2)cnc1O)c1ccc(-c2c3nc(c(-c4c(F)cccc4F)c4ccc([nH]4)c(-c4c(F)cccc4F)c4nc(c(-c5c(F)cccc5F)c5ccc2[nH]5)C=C4)C=C3)cc1
REMARK SMILES IDX 5 1 4 2 3 3 1 4 2 5 28 7 29 8 81 9 30 10 80 11 31 12 32 13
REMARK SMILES IDX 33 14 74 15 34 16 79 17 73 18 75 19 35 20 78 21 72 22 71 23
REMARK SMILES IDX 36 25 62 26 45 27 61 28 46 29 49 30 60 31 76 32 47 33 48 34
REMARK SMILES IDX 59 36 77 37 50 38 37 39 38 40 43 41 39 42 40 43 42 44 44 45
REMARK SMILES IDX 41 46 63 47 64 48 69 49 65 50 66 51 68 52 70 53 67 54 51 55
REMARK SMILES IDX 52 56 57 57 53 58 54 59 56 60 58 61 55 62 6 63 7 64 8 65
REMARK SMILES IDX 9 67 10 68 11 69 26 70 12 71 25 72 24 73 27 74 13 76 14 77
REMARK SMILES IDX 23 78 15 79 18 80 16 81 17 82 19 83 20 84 21 85 22 86
REMARK H PARENT 3 6 75 24 49 35 7 66 27 75
REMARK Flexibility Score: inf
ROOT
ATOM      1  C   UNL A   1      34.324  35.546  28.689  1.00  0.00     0.042 C 
ENDROOT
BRANCH   1   2
ATOM      2  C   UNL A   1      34.921  34.155  28.842  1.00  0.00     0.118 C 
BRANCH   2   3
ATOM      3  N   UNL A   1      34.060  33.113  28.302  1.00  0.00    -0.352 N 
ATOM      4  O   UNL A   1      33.487  31.177  27.329  1.00  0.00    -0.269 OA
ATOM      5  C   UNL A   1      34.328  31.813  27.961  1.00  0.00     0.251 C 
ATOM      6  H   UNL A   1      33.127  33.390  28.155  1.00  0.00     0.163 HD
BRANCH   5   7
ATOM      7  C   UNL A   1      35.602  31.163  28.341  1.00  0.00     0.039 A 
ATOM      8  C   UNL A   1      35.577  29.826  28.751  1.00  0.00     0.014 A 
ATOM      9  C   UNL A   1      36.803  31.875  28.382  1.00  0.00     0.014 A 
ATOM     10  C   UNL A   1      36.752  29.204  29.181  1.00  0.00     0.010 A 
ATOM     11  C   UNL A   1      37.990  31.227  28.709  1.00  0.00     0.010 A 
ATOM     12  C   UNL A   1      37.971  29.898  29.155  1.00  0.00    -0.014 A 
BRANCH  12  13
ATOM     13  C   UNL A   1      39.215  29.293  29.697  1.00  0.00     0.031 A 
ATOM     14  C   UNL A   1      39.782  29.809  30.995  1.00  0.00     0.074 A 
ATOM     15  C   UNL A   1      39.847  28.311  29.028  1.00  0.00     0.049 A 
ATOM     16  N   UNL A   1      40.895  29.485  31.604  1.00  0.00    -0.248 NA
ATOM     17  C   UNL A   1      39.005  30.851  31.689  1.00  0.00     0.031 C 
ATOM     18  C   UNL A   1      39.413  27.733  27.755  1.00  0.00     0.029 A 
ATOM     19  N   UNL A   1      40.996  27.624  29.329  1.00  0.00    -0.354 N 
ATOM     20  C   UNL A   1      40.954  30.291  32.736  1.00  0.00     0.074 A 
ATOM     21  C   UNL A   1      39.805  31.167  32.695  1.00  0.00     0.031 C 
ATOM     22  C   UNL A   1      40.270  26.761  27.399  1.00  0.00     0.029 A 
ATOM     23  C   UNL A   1      41.334  26.677  28.394  1.00  0.00     0.049 A 
ATOM     24  H   UNL A   1      41.528  27.795  30.140  1.00  0.00     0.167 HD
ATOM     25  C   UNL A   1      41.862  30.281  33.740  1.00  0.00     0.037 A 
ATOM     26  C   UNL A   1      42.391  25.844  28.345  1.00  0.00     0.037 A 
ATOM     27  C   UNL A   1      42.988  29.389  33.800  1.00  0.00     0.049 A 
ATOM     28  C   UNL A   1      43.411  25.885  29.452  1.00  0.00     0.074 A 
ATOM     29  C   UNL A   1      43.947  29.274  34.790  1.00  0.00     0.029 A 
ATOM     30  N   UNL A   1      43.301  28.452  32.827  1.00  0.00    -0.354 N 
ATOM     31  N   UNL A   1      43.432  26.623  30.535  1.00  0.00    -0.248 NA
ATOM     32  C   UNL A   1      44.557  24.973  29.325  1.00  0.00     0.031 C 
ATOM     33  C   UNL A   1      44.866  28.296  34.396  1.00  0.00     0.029 A 
ATOM     34  C   UNL A   1      44.451  27.769  33.183  1.00  0.00     0.049 A 
ATOM     35  H   UNL A   1      42.783  28.297  32.004  1.00  0.00     0.167 HD
ATOM     36  C   UNL A   1      44.573  26.245  31.232  1.00  0.00     0.074 A 
ATOM     37  C   UNL A   1      45.206  25.196  30.459  1.00  0.00     0.031 C 
ATOM     38  C   UNL A   1      45.060  26.722  32.403  1.00  0.00     0.037 A 
BRANCH  25  39
ATOM     39  C   UNL A   1      41.660  31.260  34.861  1.00  0.00     0.057 A 
ATOM     40  C   UNL A   1      42.457  32.408  34.962  1.00  0.00     0.134 A 
ATOM     41  C   UNL A   1      40.688  31.060  35.850  1.00  0.00     0.134 A 
ATOM     42  F   UNL A   1      43.409  32.660  34.051  1.00  0.00    -0.206 F 
ATOM     43  C   UNL A   1      42.291  33.321  36.006  1.00  0.00     0.040 A 
ATOM     44  C   UNL A   1      40.494  31.981  36.882  1.00  0.00     0.040 A 
ATOM     45  F   UNL A   1      39.881  29.988  35.804  1.00  0.00    -0.206 F 
ATOM     46  C   UNL A   1      41.302  33.112  36.964  1.00  0.00     0.006 A 
ENDBRANCH  25  39
BRANCH  26  47
ATOM     47  C   UNL A   1      42.553  24.893  27.214  1.00  0.00     0.057 A 
ATOM     48  C   UNL A   1      43.257  25.244  26.057  1.00  0.00     0.134 A 
ATOM     49  C   UNL A   1      42.055  23.586  27.294  1.00  0.00     0.134 A 
ATOM     50  F   UNL A   1      43.755  26.481  25.915  1.00  0.00    -0.206 F 
ATOM     51  C   UNL A   1      43.466  24.329  25.023  1.00  0.00     0.040 A 
ATOM     52  C   UNL A   1      42.283  22.653  26.281  1.00  0.00     0.040 A 
ATOM     53  F   UNL A   1      41.391  23.183  28.387  1.00  0.00    -0.206 F 
ATOM     54  C   UNL A   1      42.990  23.025  25.140  1.00  0.00     0.006 A 
ENDBRANCH  26  47
BRANCH  38  55
ATOM     55  C   UNL A   1      46.314  26.089  32.931  1.00  0.00     0.057 A 
ATOM     56  C   UNL A   1      46.248  25.005  33.815  1.00  0.00     0.134 A 
ATOM     57  C   UNL A   1      47.585  26.564  32.582  1.00  0.00     0.134 A 
ATOM     58  F   UNL A   1      45.061  24.508  34.197  1.00  0.00    -0.206 F 
ATOM     59  C   UNL A   1      47.401  24.413  34.331  1.00  0.00     0.040 A 
ATOM     60  C   UNL A   1      48.746  25.960  33.069  1.00  0.00     0.040 A 
ATOM     61  F   UNL A   1      47.718  27.590  31.728  1.00  0.00    -0.206 F 
ATOM     62  C   UNL A   1      48.656  24.885  33.951  1.00  0.00     0.006 A 
ENDBRANCH  38  55
ENDBRANCH  12  13
ENDBRANCH   5   7
ENDBRANCH   2   3
ENDBRANCH   1   2
BRANCH   1  63
ATOM     63  C   UNL A   1      32.962  35.712  29.349  1.00  0.00     0.118 C 
BRANCH  63  64
ATOM     64  N   UNL A   1      32.925  36.848  30.266  1.00  0.00    -0.352 N 
ATOM     65  C   UNL A   1      33.250  36.890  31.597  1.00  0.00     0.256 C 
ATOM     66  H   UNL A   1      32.625  37.700  29.874  1.00  0.00     0.163 HD
ATOM     67  O   UNL A   1      32.952  37.864  32.281  1.00  0.00    -0.269 OA
BRANCH  65  68
ATOM     68  C   UNL A   1      33.971  35.765  32.203  1.00  0.00     0.102 A 
ATOM     69  C   UNL A   1      35.364  35.724  32.101  1.00  0.00     0.029 A 
ATOM     70  C   UNL A   1      33.315  34.734  32.867  1.00  0.00     0.223 A 
ATOM     71  C   UNL A   1      36.072  34.690  32.720  1.00  0.00     0.001 A 
ATOM     72  N   UNL A   1      33.963  33.744  33.504  1.00  0.00    -0.221 NA
ATOM     73  C   UNL A   1      35.314  33.750  33.424  1.00  0.00     0.124 A 
BRANCH  70  74
ATOM     74  O   UNL A   1      31.956  34.639  32.955  1.00  0.00    -0.493 OA
ATOM     75  H   UNL A   1      31.497  34.007  32.438  1.00  0.00     0.295 HD
ENDBRANCH  70  74
BRANCH  71  76
ATOM     76  C   UNL A   1      37.533  34.578  32.638  1.00  0.00    -0.016 A 
ATOM     77  C   UNL A   1      38.315  34.659  33.803  1.00  0.00     0.012 A 
ATOM     78  C   UNL A   1      38.189  34.415  31.405  1.00  0.00     0.025 A 
ATOM     79  C   UNL A   1      39.707  34.594  33.738  1.00  0.00     0.040 A 
ATOM     80  C   UNL A   1      39.593  34.352  31.330  1.00  0.00     0.092 A 
ATOM     81  C   UNL A   1      40.331  34.448  32.506  1.00  0.00     0.135 A 
ATOM     82  F   UNL A   1      41.669  34.408  32.462  1.00  0.00    -0.206 F 
BRANCH  80  83
ATOM     83  C   UNL A   1      40.317  34.218  30.025  1.00  0.00     0.419 C 
ATOM     84  F   UNL A   1      39.482  34.274  28.951  1.00  0.00    -0.166 F 
ATOM     85  F   UNL A   1      41.259  35.180  29.832  1.00  0.00    -0.166 F 
ATOM     86  F   UNL A   1      40.980  33.030  29.908  1.00  0.00    -0.166 F 
ENDBRANCH  80  83
ENDBRANCH  71  76
ENDBRANCH  65  68
ENDBRANCH  63  64
ENDBRANCH   1  63
TORSDOF 13
ENDMDL
