MODEL 1
REMARK VINA RESULT:     -11.7      0.000      0.000
REMARK SMILES C[C@@H]1C[N@@H+]([C@@H]2CC[C@]([NH2+]C3CC3)(C(=O)NCCCNC(=O)c3ccc(-c4c5nc(c(-c6c(F)cccc6F)c6ccc([nH]6)c(-c6c(F)cccc6F)c6nc(c(-c7c(F)cccc7F)c7ccc4[nH]7)C=C6)C=C5)cc3)C2)CC(C)(C)O1
REMARK SMILES IDX 17 1 16 2 15 3 13 4 14 5 8 7 5 8 6 9 76 10 7 11 4 12 1 13
REMARK SMILES IDX 2 14 3 15 81 16 78 17 77 18 79 20 80 21 9 22 10 25 11 26
REMARK SMILES IDX 12 27 18 28 19 29 20 30 21 32 22 33 23 34 75 35 24 36 74 37
REMARK SMILES IDX 25 38 26 39 27 40 68 41 28 42 73 43 67 44 69 45 29 46 72 47
REMARK SMILES IDX 66 48 65 49 30 51 56 52 39 53 55 54 40 55 43 56 54 57 70 58
REMARK SMILES IDX 41 59 42 60 53 62 71 63 44 64 31 65 32 66 37 67 33 68 34 69
REMARK SMILES IDX 36 70 38 71 35 72 57 73 58 74 63 75 59 76 60 77 62 78 64 79
REMARK SMILES IDX 61 80 45 81 46 82 51 83 47 84 48 85 50 86 52 87 49 88
REMARK H PARENT 15 6 4 19 9 23 9 24 19 31 69 50 43 61
REMARK Flexibility Score: inf
ROOT
ATOM      1  C   UNL A   1      34.240  28.672  25.942  1.00  0.00     0.042 C 
ENDROOT
BRANCH   1   2
ATOM      2  C   UNL A   1      33.314  29.379  24.948  1.00  0.00     0.118 C 
BRANCH   2   3
ATOM      3  N   UNL A   1      33.709  29.116  23.577  1.00  0.00    -0.351 N 
ATOM      4  C   UNL A   1      33.639  28.022  22.775  1.00  0.00     0.281 C 
ATOM      5  O   UNL A   1      34.107  28.184  21.636  1.00  0.00    -0.268 OA
ATOM      6  H   UNL A   1      34.111  29.897  23.132  1.00  0.00     0.163 HD
BRANCH   4   7
ATOM      7  C   UNL A   1      32.919  26.669  23.126  1.00  0.00     0.181 C 
ATOM      8  C   UNL A   1      33.360  24.308  23.617  1.00  0.00     0.191 C 
ATOM      9  C   UNL A   1      33.360  24.438  22.096  1.00  0.00     0.072 C 
ATOM     10  C   UNL A   1      33.671  25.732  24.076  1.00  0.00     0.144 C 
ATOM     11  C   UNL A   1      32.818  25.844  21.805  1.00  0.00     0.085 C 
BRANCH   8  12
ATOM     12  N   UNL A   1      34.215  23.288  24.240  1.00  0.00    -0.328 N 
ATOM     13  C   UNL A   1      34.603  20.190  24.886  1.00  0.00     0.045 C 
ATOM     14  C   UNL A   1      34.541  21.387  25.832  1.00  0.00     0.171 C 
ATOM     15  C   UNL A   1      33.604  22.507  25.332  1.00  0.00     0.294 C 
ATOM     16  O   UNL A   1      35.844  21.872  26.185  1.00  0.00    -0.361 OA
ATOM     17  C   UNL A   1      36.461  22.780  25.252  1.00  0.00     0.112 C 
ATOM     18  C   UNL A   1      35.471  23.869  24.759  1.00  0.00     0.297 C 
ATOM     19  H   UNL A   1      34.385  22.643  23.469  1.00  0.00     0.348 HD
ATOM     20  C   UNL A   1      37.101  22.019  24.083  1.00  0.00     0.048 C 
ATOM     21  C   UNL A   1      37.588  23.460  26.045  1.00  0.00     0.048 C 
ENDBRANCH   8  12
BRANCH   7  22
ATOM     22  N   UNL A   1      31.578  27.086  23.624  1.00  0.00    -0.331 N 
ATOM     23  H   UNL A   1      31.724  27.831  24.306  1.00  0.00     0.347 HD
ATOM     24  H   UNL A   1      31.161  26.230  23.990  1.00  0.00     0.347 HD
BRANCH  22  25
ATOM     25  C   UNL A   1      30.611  27.578  22.639  1.00  0.00     0.183 C 
ATOM     26  C   UNL A   1      29.198  27.835  23.081  1.00  0.00     0.071 C 
ATOM     27  C   UNL A   1      30.105  28.988  22.768  1.00  0.00     0.071 C 
ENDBRANCH  22  25
ENDBRANCH   7  22
ENDBRANCH   4   7
ENDBRANCH   2   3
ENDBRANCH   1   2
BRANCH   1  28
ATOM     28  C   UNL A   1      33.777  28.776  27.395  1.00  0.00     0.118 C 
BRANCH  28  29
ATOM     29  N   UNL A   1      33.771  30.150  27.876  1.00  0.00    -0.352 N 
ATOM     30  C   UNL A   1      34.732  30.860  28.550  1.00  0.00     0.251 C 
ATOM     31  H   UNL A   1      32.943  30.649  27.689  1.00  0.00     0.163 HD
ATOM     32  O   UNL A   1      34.448  31.952  29.032  1.00  0.00    -0.269 OA
BRANCH  30  33
ATOM     33  C   UNL A   1      36.101  30.322  28.713  1.00  0.00     0.039 A 
ATOM     34  C   UNL A   1      36.988  30.410  27.636  1.00  0.00     0.014 A 
ATOM     35  C   UNL A   1      36.499  29.689  29.894  1.00  0.00     0.014 A 
ATOM     36  C   UNL A   1      38.290  29.919  27.761  1.00  0.00     0.010 A 
ATOM     37  C   UNL A   1      37.815  29.256  30.041  1.00  0.00     0.010 A 
ATOM     38  C   UNL A   1      38.724  29.367  28.976  1.00  0.00    -0.014 A 
BRANCH  38  39
ATOM     39  C   UNL A   1      40.125  28.908  29.156  1.00  0.00     0.031 A 
ATOM     40  C   UNL A   1      41.166  29.842  29.707  1.00  0.00     0.074 A 
ATOM     41  C   UNL A   1      40.475  27.670  28.756  1.00  0.00     0.049 A 
ATOM     42  N   UNL A   1      42.453  29.653  29.854  1.00  0.00    -0.248 NA
ATOM     43  C   UNL A   1      40.703  31.175  30.127  1.00  0.00     0.031 C 
ATOM     44  C   UNL A   1      39.566  26.683  28.169  1.00  0.00     0.029 A 
ATOM     45  N   UNL A   1      41.691  27.035  28.769  1.00  0.00    -0.354 N 
ATOM     46  C   UNL A   1      42.956  30.844  30.362  1.00  0.00     0.074 A 
ATOM     47  C   UNL A   1      41.843  31.765  30.457  1.00  0.00     0.031 C 
ATOM     48  C   UNL A   1      40.253  25.564  27.893  1.00  0.00     0.029 A 
ATOM     49  C   UNL A   1      41.654  25.766  28.246  1.00  0.00     0.049 A 
ATOM     50  H   UNL A   1      42.512  27.450  29.119  1.00  0.00     0.167 HD
ATOM     51  C   UNL A   1      44.225  31.138  30.734  1.00  0.00     0.037 A 
ATOM     52  C   UNL A   1      42.641  24.868  28.062  1.00  0.00     0.037 A 
ATOM     53  C   UNL A   1      45.325  30.211  30.661  1.00  0.00     0.049 A 
ATOM     54  C   UNL A   1      44.042  25.219  28.479  1.00  0.00     0.074 A 
ATOM     55  C   UNL A   1      46.636  30.396  31.065  1.00  0.00     0.029 A 
ATOM     56  N   UNL A   1      45.241  28.925  30.149  1.00  0.00    -0.354 N 
ATOM     57  N   UNL A   1      44.491  26.328  29.013  1.00  0.00    -0.248 NA
ATOM     58  C   UNL A   1      45.071  24.190  28.273  1.00  0.00     0.031 C 
ATOM     59  C   UNL A   1      47.355  29.235  30.761  1.00  0.00     0.029 A 
ATOM     60  C   UNL A   1      46.482  28.311  30.211  1.00  0.00     0.049 A 
ATOM     61  H   UNL A   1      44.423  28.510  29.794  1.00  0.00     0.167 HD
ATOM     62  C   UNL A   1      45.845  26.120  29.239  1.00  0.00     0.074 A 
ATOM     63  C   UNL A   1      46.143  24.776  28.790  1.00  0.00     0.031 C 
ATOM     64  C   UNL A   1      46.759  26.966  29.773  1.00  0.00     0.037 A 
BRANCH  51  65
ATOM     65  C   UNL A   1      44.493  32.519  31.256  1.00  0.00     0.057 A 
ATOM     66  C   UNL A   1      44.867  33.570  30.409  1.00  0.00     0.134 A 
ATOM     67  C   UNL A   1      44.340  32.812  32.618  1.00  0.00     0.134 A 
ATOM     68  F   UNL A   1      45.041  33.356  29.096  1.00  0.00    -0.206 F 
ATOM     69  C   UNL A   1      45.104  34.856  30.900  1.00  0.00     0.040 A 
ATOM     70  C   UNL A   1      44.548  34.099  33.117  1.00  0.00     0.040 A 
ATOM     71  F   UNL A   1      43.977  31.853  33.485  1.00  0.00    -0.206 F 
ATOM     72  C   UNL A   1      44.938  35.124  32.257  1.00  0.00     0.006 A 
ENDBRANCH  51  65
BRANCH  52  73
ATOM     73  C   UNL A   1      42.334  23.540  27.473  1.00  0.00     0.057 A 
ATOM     74  C   UNL A   1      42.035  22.443  28.289  1.00  0.00     0.134 A 
ATOM     75  C   UNL A   1      42.336  23.334  26.089  1.00  0.00     0.134 A 
ATOM     76  F   UNL A   1      42.036  22.574  29.623  1.00  0.00    -0.206 F 
ATOM     77  C   UNL A   1      41.765  21.184  27.751  1.00  0.00     0.040 A 
ATOM     78  C   UNL A   1      42.043  22.086  25.536  1.00  0.00     0.040 A 
ATOM     79  F   UNL A   1      42.606  24.348  25.253  1.00  0.00    -0.206 F 
ATOM     80  C   UNL A   1      41.764  21.004  26.369  1.00  0.00     0.006 A 
ENDBRANCH  52  73
BRANCH  64  81
ATOM     81  C   UNL A   1      48.157  26.450  29.947  1.00  0.00     0.057 A 
ATOM     82  C   UNL A   1      49.137  26.619  28.962  1.00  0.00     0.134 A 
ATOM     83  C   UNL A   1      48.537  25.816  31.137  1.00  0.00     0.134 A 
ATOM     84  F   UNL A   1      48.834  27.206  27.794  1.00  0.00    -0.206 F 
ATOM     85  C   UNL A   1      50.442  26.159  29.146  1.00  0.00     0.040 A 
ATOM     86  C   UNL A   1      49.844  25.374  31.344  1.00  0.00     0.040 A 
ATOM     87  F   UNL A   1      47.646  25.629  32.124  1.00  0.00    -0.206 F 
ATOM     88  C   UNL A   1      50.800  25.541  30.344  1.00  0.00     0.006 A 
ENDBRANCH  64  81
ENDBRANCH  38  39
ENDBRANCH  30  33
ENDBRANCH  28  29
ENDBRANCH   1  28
TORSDOF 13
ENDMDL
MODEL 2
REMARK VINA RESULT:     -11.7      1.084      2.247
REMARK SMILES C[C@@H]1C[N@@H+]([C@@H]2CC[C@]([NH2+]C3CC3)(C(=O)NCCCNC(=O)c3ccc(-c4c5nc(c(-c6c(F)cccc6F)c6ccc([nH]6)c(-c6c(F)cccc6F)c6nc(c(-c7c(F)cccc7F)c7ccc4[nH]7)C=C6)C=C5)cc3)C2)CC(C)(C)O1
REMARK SMILES IDX 17 1 16 2 15 3 13 4 14 5 8 7 5 8 6 9 76 10 7 11 4 12 1 13
REMARK SMILES IDX 2 14 3 15 81 16 78 17 77 18 79 20 80 21 9 22 10 25 11 26
REMARK SMILES IDX 12 27 18 28 19 29 20 30 21 32 22 33 23 34 75 35 24 36 74 37
REMARK SMILES IDX 25 38 26 39 27 40 68 41 28 42 73 43 67 44 69 45 29 46 72 47
REMARK SMILES IDX 66 48 65 49 30 51 56 52 39 53 55 54 40 55 43 56 54 57 70 58
REMARK SMILES IDX 41 59 42 60 53 62 71 63 44 64 31 65 32 66 37 67 33 68 34 69
REMARK SMILES IDX 36 70 38 71 35 72 57 73 58 74 63 75 59 76 60 77 62 78 64 79
REMARK SMILES IDX 61 80 45 81 46 82 51 83 47 84 48 85 50 86 52 87 49 88
REMARK H PARENT 15 6 4 19 9 23 9 24 19 31 69 50 43 61
REMARK Flexibility Score: inf
ROOT
ATOM      1  C   UNL A   1      34.124  28.323  25.977  1.00  0.00     0.042 C 
ENDROOT
BRANCH   1   2
ATOM      2  C   UNL A   1      33.287  29.075  24.937  1.00  0.00     0.118 C 
BRANCH   2   3
ATOM      3  N   UNL A   1      33.867  28.968  23.612  1.00  0.00    -0.351 N 
ATOM      4  C   UNL A   1      33.648  28.140  22.557  1.00  0.00     0.281 C 
ATOM      5  O   UNL A   1      34.373  28.354  21.572  1.00  0.00    -0.268 OA
ATOM      6  H   UNL A   1      34.567  29.638  23.439  1.00  0.00     0.163 HD
BRANCH   4   7
ATOM      7  C   UNL A   1      32.503  27.068  22.452  1.00  0.00     0.181 C 
ATOM      8  C   UNL A   1      31.937  24.768  23.083  1.00  0.00     0.191 C 
ATOM      9  C   UNL A   1      32.765  24.671  21.804  1.00  0.00     0.072 C 
ATOM     10  C   UNL A   1      32.351  26.125  23.650  1.00  0.00     0.144 C 
ATOM     11  C   UNL A   1      32.876  26.109  21.279  1.00  0.00     0.085 C 
BRANCH   8  12
ATOM     12  N   UNL A   1      32.015  23.673  24.060  1.00  0.00    -0.328 N 
ATOM     13  C   UNL A   1      33.644  21.116  25.050  1.00  0.00     0.045 C 
ATOM     14  C   UNL A   1      32.189  21.237  24.600  1.00  0.00     0.171 C 
ATOM     15  C   UNL A   1      31.979  22.306  23.507  1.00  0.00     0.294 C 
ATOM     16  O   UNL A   1      31.286  21.391  25.705  1.00  0.00    -0.361 OA
ATOM     17  C   UNL A   1      31.125  22.728  26.215  1.00  0.00     0.112 C 
ATOM     18  C   UNL A   1      30.946  23.768  25.076  1.00  0.00     0.297 C 
ATOM     19  H   UNL A   1      32.940  23.807  24.467  1.00  0.00     0.348 HD
ATOM     20  C   UNL A   1      32.281  23.104  27.154  1.00  0.00     0.048 C 
ATOM     21  C   UNL A   1      29.836  22.683  27.049  1.00  0.00     0.048 C 
ENDBRANCH   8  12
BRANCH   7  22
ATOM     22  N   UNL A   1      31.281  27.865  22.151  1.00  0.00    -0.331 N 
ATOM     23  H   UNL A   1      30.748  27.351  21.449  1.00  0.00     0.347 HD
ATOM     24  H   UNL A   1      31.633  28.775  21.855  1.00  0.00     0.347 HD
BRANCH  22  25
ATOM     25  C   UNL A   1      30.372  28.161  23.261  1.00  0.00     0.183 C 
ATOM     26  C   UNL A   1      29.757  29.530  23.345  1.00  0.00     0.071 C 
ATOM     27  C   UNL A   1      28.910  28.352  22.965  1.00  0.00     0.071 C 
ENDBRANCH  22  25
ENDBRANCH   7  22
ENDBRANCH   4   7
ENDBRANCH   2   3
ENDBRANCH   1   2
BRANCH   1  28
ATOM     28  C   UNL A   1      33.679  28.568  27.418  1.00  0.00     0.118 C 
BRANCH  28  29
ATOM     29  N   UNL A   1      33.674  29.982  27.763  1.00  0.00    -0.352 N 
ATOM     30  C   UNL A   1      34.639  30.756  28.357  1.00  0.00     0.251 C 
ATOM     31  H   UNL A   1      32.845  30.461  27.532  1.00  0.00     0.163 HD
ATOM     32  O   UNL A   1      34.356  31.890  28.731  1.00  0.00    -0.269 OA
BRANCH  30  33
ATOM     33  C   UNL A   1      36.009  30.237  28.565  1.00  0.00     0.039 A 
ATOM     34  C   UNL A   1      36.914  30.292  27.500  1.00  0.00     0.014 A 
ATOM     35  C   UNL A   1      36.391  29.654  29.776  1.00  0.00     0.014 A 
ATOM     36  C   UNL A   1      38.217  29.818  27.667  1.00  0.00     0.010 A 
ATOM     37  C   UNL A   1      37.709  29.239  29.961  1.00  0.00     0.010 A 
ATOM     38  C   UNL A   1      38.635  29.317  28.909  1.00  0.00    -0.014 A 
BRANCH  38  39
ATOM     39  C   UNL A   1      40.037  28.879  29.131  1.00  0.00     0.031 A 
ATOM     40  C   UNL A   1      41.044  29.823  29.725  1.00  0.00     0.074 A 
ATOM     41  C   UNL A   1      40.419  27.651  28.729  1.00  0.00     0.049 A 
ATOM     42  N   UNL A   1      42.328  29.652  29.913  1.00  0.00    -0.248 NA
ATOM     43  C   UNL A   1      40.546  31.143  30.144  1.00  0.00     0.031 C 
ATOM     44  C   UNL A   1      39.547  26.656  28.102  1.00  0.00     0.029 A 
ATOM     45  N   UNL A   1      41.645  27.035  28.775  1.00  0.00    -0.354 N 
ATOM     46  C   UNL A   1      42.794  30.846  30.450  1.00  0.00     0.074 A 
ATOM     47  C   UNL A   1      41.665  31.747  30.518  1.00  0.00     0.031 C 
ATOM     48  C   UNL A   1      40.260  25.551  27.837  1.00  0.00     0.029 A 
ATOM     49  C   UNL A   1      41.645  25.771  28.238  1.00  0.00     0.049 A 
ATOM     50  H   UNL A   1      42.446  27.459  29.157  1.00  0.00     0.167 HD
ATOM     51  C   UNL A   1      44.046  31.155  30.867  1.00  0.00     0.037 A 
ATOM     52  C   UNL A   1      42.653  24.891  28.077  1.00  0.00     0.037 A 
ATOM     53  C   UNL A   1      45.162  30.247  30.821  1.00  0.00     0.049 A 
ATOM     54  C   UNL A   1      44.032  25.260  28.544  1.00  0.00     0.074 A 
ATOM     55  C   UNL A   1      46.456  30.447  31.270  1.00  0.00     0.029 A 
ATOM     56  N   UNL A   1      45.117  28.966  30.293  1.00  0.00    -0.354 N 
ATOM     57  N   UNL A   1      44.446  26.370  29.105  1.00  0.00    -0.248 NA
ATOM     58  C   UNL A   1      45.085  24.250  28.362  1.00  0.00     0.031 C 
ATOM     59  C   UNL A   1      47.204  29.302  30.977  1.00  0.00     0.029 A 
ATOM     60  C   UNL A   1      46.364  28.370  30.389  1.00  0.00     0.049 A 
ATOM     61  H   UNL A   1      44.317  28.541  29.906  1.00  0.00     0.167 HD
ATOM     62  C   UNL A   1      45.795  26.181  29.373  1.00  0.00     0.074 A 
ATOM     63  C   UNL A   1      46.130  24.846  28.920  1.00  0.00     0.031 C 
ATOM     64  C   UNL A   1      46.678  27.035  29.946  1.00  0.00     0.037 A 
BRANCH  51  65
ATOM     65  C   UNL A   1      44.274  32.534  31.412  1.00  0.00     0.057 A 
ATOM     66  C   UNL A   1      44.161  32.816  32.780  1.00  0.00     0.134 A 
ATOM     67  C   UNL A   1      44.648  33.587  30.566  1.00  0.00     0.134 A 
ATOM     68  F   UNL A   1      43.797  31.857  33.644  1.00  0.00    -0.206 F 
ATOM     69  C   UNL A   1      44.386  34.099  33.283  1.00  0.00     0.040 A 
ATOM     70  C   UNL A   1      44.901  34.867  31.061  1.00  0.00     0.040 A 
ATOM     71  F   UNL A   1      44.781  33.385  29.246  1.00  0.00    -0.206 F 
ATOM     72  C   UNL A   1      44.763  35.128  32.422  1.00  0.00     0.006 A 
ENDBRANCH  51  65
BRANCH  52  73
ATOM     73  C   UNL A   1      42.387  23.565  27.465  1.00  0.00     0.057 A 
ATOM     74  C   UNL A   1      42.449  23.387  26.078  1.00  0.00     0.134 A 
ATOM     75  C   UNL A   1      42.063  22.449  28.245  1.00  0.00     0.134 A 
ATOM     76  F   UNL A   1      42.737  24.423  25.277  1.00  0.00    -0.206 F 
ATOM     77  C   UNL A   1      42.182  22.152  25.487  1.00  0.00     0.040 A 
ATOM     78  C   UNL A   1      41.817  21.202  27.669  1.00  0.00     0.040 A 
ATOM     79  F   UNL A   1      41.996  22.553  29.581  1.00  0.00    -0.206 F 
ATOM     80  C   UNL A   1      41.869  21.053  26.285  1.00  0.00     0.006 A 
ENDBRANCH  52  73
BRANCH  64  81
ATOM     81  C   UNL A   1      48.077  26.539  30.161  1.00  0.00     0.057 A 
ATOM     82  C   UNL A   1      48.453  25.867  31.331  1.00  0.00     0.134 A 
ATOM     83  C   UNL A   1      49.046  26.694  29.162  1.00  0.00     0.134 A 
ATOM     84  F   UNL A   1      47.575  25.698  32.331  1.00  0.00    -0.206 F 
ATOM     85  C   UNL A   1      49.752  25.385  31.508  1.00  0.00     0.040 A 
ATOM     86  C   UNL A   1      50.340  26.195  29.316  1.00  0.00     0.040 A 
ATOM     87  F   UNL A   1      48.747  27.322  28.014  1.00  0.00    -0.206 F 
ATOM     88  C   UNL A   1      50.697  25.542  30.494  1.00  0.00     0.006 A 
ENDBRANCH  64  81
ENDBRANCH  38  39
ENDBRANCH  30  33
ENDBRANCH  28  29
ENDBRANCH   1  28
TORSDOF 13
ENDMDL
MODEL 3
REMARK VINA RESULT:     -11.5      2.827      8.313
REMARK SMILES C[C@@H]1C[N@@H+]([C@@H]2CC[C@]([NH2+]C3CC3)(C(=O)NCCCNC(=O)c3ccc(-c4c5nc(c(-c6c(F)cccc6F)c6ccc([nH]6)c(-c6c(F)cccc6F)c6nc(c(-c7c(F)cccc7F)c7ccc4[nH]7)C=C6)C=C5)cc3)C2)CC(C)(C)O1
REMARK SMILES IDX 17 1 16 2 15 3 13 4 14 5 8 7 5 8 6 9 76 10 7 11 4 12 1 13
REMARK SMILES IDX 2 14 3 15 81 16 78 17 77 18 79 20 80 21 9 22 10 25 11 26
REMARK SMILES IDX 12 27 18 28 19 29 20 30 21 32 22 33 23 34 75 35 24 36 74 37
REMARK SMILES IDX 25 38 26 39 27 40 68 41 28 42 73 43 67 44 69 45 29 46 72 47
REMARK SMILES IDX 66 48 65 49 30 51 56 52 39 53 55 54 40 55 43 56 54 57 70 58
REMARK SMILES IDX 41 59 42 60 53 62 71 63 44 64 31 65 32 66 37 67 33 68 34 69
REMARK SMILES IDX 36 70 38 71 35 72 57 73 58 74 63 75 59 76 60 77 62 78 64 79
REMARK SMILES IDX 61 80 45 81 46 82 51 83 47 84 48 85 50 86 52 87 49 88
REMARK H PARENT 15 6 4 19 9 23 9 24 19 31 69 50 43 61
REMARK Flexibility Score: inf
ROOT
ATOM      1  C   UNL A   1      36.247  23.526  26.087  1.00  0.00     0.042 C 
ENDROOT
BRANCH   1   2
ATOM      2  C   UNL A   1      35.767  22.090  26.317  1.00  0.00     0.118 C 
BRANCH   2   3
ATOM      3  N   UNL A   1      34.688  22.038  27.285  1.00  0.00    -0.351 N 
ATOM      4  C   UNL A   1      33.419  22.523  27.301  1.00  0.00     0.281 C 
ATOM      5  O   UNL A   1      32.786  22.283  28.342  1.00  0.00    -0.268 OA
ATOM      6  H   UNL A   1      34.925  21.548  28.105  1.00  0.00     0.163 HD
BRANCH   4   7
ATOM      7  C   UNL A   1      32.685  23.215  26.095  1.00  0.00     0.181 C 
ATOM      8  C   UNL A   1      31.793  25.373  25.349  1.00  0.00     0.191 C 
ATOM      9  C   UNL A   1      30.718  24.746  26.233  1.00  0.00     0.072 C 
ATOM     10  C   UNL A   1      33.066  24.673  25.821  1.00  0.00     0.144 C 
ATOM     11  C   UNL A   1      31.171  23.298  26.465  1.00  0.00     0.085 C 
BRANCH   8  12
ATOM     12  N   UNL A   1      31.907  26.838  25.306  1.00  0.00    -0.328 N 
ATOM     13  C   UNL A   1      30.676  29.559  24.191  1.00  0.00     0.045 C 
ATOM     14  C   UNL A   1      32.079  28.977  24.022  1.00  0.00     0.171 C 
ATOM     15  C   UNL A   1      32.092  27.435  23.970  1.00  0.00     0.294 C 
ATOM     16  O   UNL A   1      33.008  29.506  24.978  1.00  0.00    -0.361 OA
ATOM     17  C   UNL A   1      33.020  28.875  26.273  1.00  0.00     0.112 C 
ATOM     18  C   UNL A   1      33.005  27.327  26.166  1.00  0.00     0.297 C 
ATOM     19  H   UNL A   1      30.995  27.139  25.645  1.00  0.00     0.348 HD
ATOM     20  C   UNL A   1      31.875  29.398  27.152  1.00  0.00     0.048 C 
ATOM     21  C   UNL A   1      34.345  29.313  26.916  1.00  0.00     0.048 C 
ENDBRANCH   8  12
BRANCH   7  22
ATOM     22  N   UNL A   1      32.926  22.300  24.945  1.00  0.00    -0.331 N 
ATOM     23  H   UNL A   1      33.926  22.101  24.918  1.00  0.00     0.347 HD
ATOM     24  H   UNL A   1      32.555  22.799  24.136  1.00  0.00     0.347 HD
BRANCH  22  25
ATOM     25  C   UNL A   1      32.224  21.013  24.941  1.00  0.00     0.183 C 
ATOM     26  C   UNL A   1      32.317  20.144  23.720  1.00  0.00     0.071 C 
ATOM     27  C   UNL A   1      33.036  19.749  24.975  1.00  0.00     0.071 C 
ENDBRANCH  22  25
ENDBRANCH   7  22
ENDBRANCH   4   7
ENDBRANCH   2   3
ENDBRANCH   1   2
BRANCH   1  28
ATOM     28  C   UNL A   1      37.426  23.634  25.121  1.00  0.00     0.118 C 
BRANCH  28  29
ATOM     29  N   UNL A   1      38.512  22.730  25.471  1.00  0.00    -0.352 N 
ATOM     30  C   UNL A   1      39.673  22.960  26.164  1.00  0.00     0.251 C 
ATOM     31  H   UNL A   1      38.393  21.803  25.159  1.00  0.00     0.163 HD
ATOM     32  O   UNL A   1      40.545  22.098  26.183  1.00  0.00    -0.269 OA
BRANCH  30  33
ATOM     33  C   UNL A   1      39.892  24.238  26.878  1.00  0.00     0.039 A 
ATOM     34  C   UNL A   1      39.317  24.405  28.142  1.00  0.00     0.014 A 
ATOM     35  C   UNL A   1      40.611  25.284  26.295  1.00  0.00     0.014 A 
ATOM     36  C   UNL A   1      39.512  25.596  28.846  1.00  0.00     0.010 A 
ATOM     37  C   UNL A   1      40.858  26.447  27.023  1.00  0.00     0.010 A 
ATOM     38  C   UNL A   1      40.310  26.615  28.305  1.00  0.00    -0.014 A 
BRANCH  38  39
ATOM     39  C   UNL A   1      40.594  27.858  29.067  1.00  0.00     0.031 A 
ATOM     40  C   UNL A   1      41.882  28.006  29.827  1.00  0.00     0.074 A 
ATOM     41  C   UNL A   1      39.658  28.824  29.131  1.00  0.00     0.049 A 
ATOM     42  N   UNL A   1      42.269  28.975  30.618  1.00  0.00    -0.248 NA
ATOM     43  C   UNL A   1      42.855  26.910  29.701  1.00  0.00     0.031 C 
ATOM     44  C   UNL A   1      38.352  28.782  28.471  1.00  0.00     0.029 A 
ATOM     45  N   UNL A   1      39.655  30.025  29.796  1.00  0.00    -0.354 N 
ATOM     46  C   UNL A   1      43.517  28.597  31.098  1.00  0.00     0.074 A 
ATOM     47  C   UNL A   1      43.803  27.291  30.545  1.00  0.00     0.031 C 
ATOM     48  C   UNL A   1      37.682  29.910  28.750  1.00  0.00     0.029 A 
ATOM     49  C   UNL A   1      38.492  30.738  29.638  1.00  0.00     0.049 A 
ATOM     50  H   UNL A   1      40.415  30.344  30.334  1.00  0.00     0.167 HD
ATOM     51  C   UNL A   1      44.356  29.285  31.911  1.00  0.00     0.037 A 
ATOM     52  C   UNL A   1      38.115  31.921  30.160  1.00  0.00     0.037 A 
ATOM     53  C   UNL A   1      44.078  30.595  32.439  1.00  0.00     0.049 A 
ATOM     54  C   UNL A   1      39.062  32.662  31.062  1.00  0.00     0.074 A 
ATOM     55  C   UNL A   1      44.887  31.397  33.225  1.00  0.00     0.029 A 
ATOM     56  N   UNL A   1      42.899  31.295  32.236  1.00  0.00    -0.354 N 
ATOM     57  N   UNL A   1      40.263  32.319  31.458  1.00  0.00    -0.248 NA
ATOM     58  C   UNL A   1      38.603  33.958  31.582  1.00  0.00     0.031 C 
ATOM     59  C   UNL A   1      44.181  32.565  33.531  1.00  0.00     0.029 A 
ATOM     60  C   UNL A   1      42.951  32.511  32.896  1.00  0.00     0.049 A 
ATOM     61  H   UNL A   1      42.136  30.975  31.702  1.00  0.00     0.167 HD
ATOM     62  C   UNL A   1      40.717  33.369  32.246  1.00  0.00     0.074 A 
ATOM     63  C   UNL A   1      39.665  34.364  32.265  1.00  0.00     0.031 C 
ATOM     64  C   UNL A   1      41.901  33.498  32.893  1.00  0.00     0.037 A 
BRANCH  51  65
ATOM     65  C   UNL A   1      45.657  28.632  32.276  1.00  0.00     0.057 A 
ATOM     66  C   UNL A   1      45.781  27.808  33.401  1.00  0.00     0.134 A 
ATOM     67  C   UNL A   1      46.793  28.800  31.472  1.00  0.00     0.134 A 
ATOM     68  F   UNL A   1      44.735  27.613  34.219  1.00  0.00    -0.206 F 
ATOM     69  C   UNL A   1      46.991  27.195  33.730  1.00  0.00     0.040 A 
ATOM     70  C   UNL A   1      48.001  28.171  31.774  1.00  0.00     0.040 A 
ATOM     71  F   UNL A   1      46.743  29.571  30.374  1.00  0.00    -0.206 F 
ATOM     72  C   UNL A   1      48.105  27.371  32.910  1.00  0.00     0.006 A 
ENDBRANCH  51  65
BRANCH  52  73
ATOM     73  C   UNL A   1      36.785  32.489  29.824  1.00  0.00     0.057 A 
ATOM     74  C   UNL A   1      36.635  33.391  28.765  1.00  0.00     0.134 A 
ATOM     75  C   UNL A   1      35.638  32.149  30.550  1.00  0.00     0.134 A 
ATOM     76  F   UNL A   1      37.701  33.770  28.044  1.00  0.00    -0.206 F 
ATOM     77  C   UNL A   1      35.396  33.950  28.450  1.00  0.00     0.040 A 
ATOM     78  C   UNL A   1      34.387  32.680  30.231  1.00  0.00     0.040 A 
ATOM     79  F   UNL A   1      35.714  31.282  31.571  1.00  0.00    -0.206 F 
ATOM     80  C   UNL A   1      34.265  33.590  29.182  1.00  0.00     0.006 A 
ENDBRANCH  52  73
BRANCH  64  81
ATOM     81  C   UNL A   1      42.144  34.779  33.636  1.00  0.00     0.057 A 
ATOM     82  C   UNL A   1      41.742  34.950  34.967  1.00  0.00     0.134 A 
ATOM     83  C   UNL A   1      42.830  35.836  33.025  1.00  0.00     0.134 A 
ATOM     84  F   UNL A   1      41.069  33.981  35.605  1.00  0.00    -0.206 F 
ATOM     85  C   UNL A   1      41.998  36.136  35.658  1.00  0.00     0.040 A 
ATOM     86  C   UNL A   1      43.114  37.016  33.712  1.00  0.00     0.040 A 
ATOM     87  F   UNL A   1      43.248  35.732  31.754  1.00  0.00    -0.206 F 
ATOM     88  C   UNL A   1      42.693  37.170  35.031  1.00  0.00     0.006 A 
ENDBRANCH  64  81
ENDBRANCH  38  39
ENDBRANCH  30  33
ENDBRANCH  28  29
ENDBRANCH   1  28
TORSDOF 13
ENDMDL
