MODEL 1
REMARK VINA RESULT:     -11.6      0.000      0.000
REMARK SMILES C[N@H+](Cc1cc(Cl)ccc1[N+](=O)[O-])[C@H]1COC[C@@H]1C(=O)NCCCNC(=O)c1ccc(-c2c3nc(c(-c4c(F)cccc4F)c4ccc([nH]4)c(-c4c(F)cccc4F)c4nc(c(-c5c(F)cccc5F)c5ccc2[nH]5)C=C4)C=C3)cc1
REMARK SMILES IDX 22 1 21 2 19 3 20 4 18 6 14 7 15 8 16 9 17 10 2 11 1 12 3 14
REMARK SMILES IDX 4 15 5 16 10 17 6 18 9 19 7 20 8 21 11 22 12 23 13 24 23 25
REMARK SMILES IDX 24 26 25 27 26 28 27 30 28 31 29 32 81 33 30 34 80 35 31 36
REMARK SMILES IDX 32 37 33 38 74 39 34 40 79 41 73 42 75 43 35 44 78 45 72 46
REMARK SMILES IDX 71 47 36 49 62 50 45 51 61 52 46 53 49 54 60 55 76 56 47 57
REMARK SMILES IDX 48 58 59 60 77 61 50 62 37 63 38 64 43 65 39 66 40 67 42 68
REMARK SMILES IDX 44 69 41 70 63 71 64 72 69 73 65 74 66 75 68 76 70 77 67 78
REMARK SMILES IDX 51 79 52 80 57 81 53 82 54 83 56 84 58 85 55 86
REMARK H PARENT 21 5 2 13 25 29 75 48 49 59
REMARK Flexibility Score: inf
ROOT
ATOM      1  C   UNL A   1      36.719  20.545  25.060  1.00  0.00     0.117 C 
ENDROOT
BRANCH   1   2
ATOM      2  N   UNL A   1      35.468  19.805  25.010  1.00  0.00    -0.356 N 
ATOM      3  C   UNL A   1      34.195  20.206  24.743  1.00  0.00     0.231 C 
ATOM      4  O   UNL A   1      33.303  19.367  24.876  1.00  0.00    -0.274 OA
ATOM      5  H   UNL A   1      35.559  18.844  25.202  1.00  0.00     0.163 HD
BRANCH   3   6
ATOM      6  C   UNL A   1      33.905  21.625  24.283  1.00  0.00     0.164 C 
ATOM      7  C   UNL A   1      33.870  22.578  25.482  1.00  0.00     0.225 C 
ATOM      8  C   UNL A   1      32.379  22.535  25.855  1.00  0.00     0.226 C 
ATOM      9  O   UNL A   1      31.642  22.341  24.640  1.00  0.00    -0.374 OA
ATOM     10  C   UNL A   1      32.502  21.684  23.699  1.00  0.00     0.180 C 
BRANCH   7  11
ATOM     11  N   UNL A   1      34.392  23.960  25.233  1.00  0.00    -0.328 N 
ATOM     12  C   UNL A   1      35.838  24.089  25.404  1.00  0.00     0.333 C 
ATOM     13  H   UNL A   1      34.268  24.161  24.241  1.00  0.00     0.348 HD
BRANCH  11  14
ATOM     14  C   UNL A   1      33.592  24.958  25.969  1.00  0.00     0.306 C 
BRANCH  14  15
ATOM     15  C   UNL A   1      33.506  26.326  25.319  1.00  0.00     0.085 A 
ATOM     16  C   UNL A   1      33.701  27.441  26.167  1.00  0.00     0.037 A 
ATOM     17  C   UNL A   1      33.183  26.580  23.964  1.00  0.00     0.278 A 
ATOM     18  C   UNL A   1      33.588  28.747  25.689  1.00  0.00     0.042 A 
ATOM     19  C   UNL A   1      33.069  27.905  23.494  1.00  0.00     0.088 A 
ATOM     20  Cl  UNL A   1      33.831  30.072  26.757  1.00  0.00    -0.084 Cl
ATOM     21  C   UNL A   1      33.273  28.983  24.357  1.00  0.00     0.027 A 
BRANCH  17  22
ATOM     22  N   UNL A   1      32.916  25.512  22.980  1.00  0.00     0.063 N 
ATOM     23  O   UNL A   1      31.730  25.217  22.769  1.00  0.00    -0.258 OA
ATOM     24  O   UNL A   1      33.869  24.984  22.395  1.00  0.00    -0.258 OA
ENDBRANCH  17  22
ENDBRANCH  14  15
ENDBRANCH  11  14
ENDBRANCH   7  11
ENDBRANCH   3   6
ENDBRANCH   1   2
BRANCH   1  25
ATOM     25  C   UNL A   1      37.926  19.613  24.995  1.00  0.00     0.042 C 
BRANCH  25  26
ATOM     26  C   UNL A   1      39.151  20.109  25.764  1.00  0.00     0.118 C 
BRANCH  26  27
ATOM     27  N   UNL A   1      40.218  19.118  25.829  1.00  0.00    -0.352 N 
ATOM     28  C   UNL A   1      41.557  19.268  26.084  1.00  0.00     0.251 C 
ATOM     29  H   UNL A   1      39.931  18.191  25.663  1.00  0.00     0.163 HD
ATOM     30  O   UNL A   1      42.315  18.312  25.915  1.00  0.00    -0.269 OA
BRANCH  28  31
ATOM     31  C   UNL A   1      42.107  20.562  26.539  1.00  0.00     0.039 A 
ATOM     32  C   UNL A   1      42.681  21.418  25.593  1.00  0.00     0.014 A 
ATOM     33  C   UNL A   1      42.094  20.923  27.888  1.00  0.00     0.014 A 
ATOM     34  C   UNL A   1      43.173  22.664  25.988  1.00  0.00     0.010 A 
ATOM     35  C   UNL A   1      42.526  22.191  28.272  1.00  0.00     0.010 A 
ATOM     36  C   UNL A   1      43.061  23.077  27.325  1.00  0.00    -0.014 A 
BRANCH  36  37
ATOM     37  C   UNL A   1      43.473  24.439  27.750  1.00  0.00     0.031 A 
ATOM     38  C   UNL A   1      42.439  25.480  28.076  1.00  0.00     0.074 A 
ATOM     39  C   UNL A   1      44.781  24.762  27.761  1.00  0.00     0.049 A 
ATOM     40  N   UNL A   1      42.602  26.749  28.352  1.00  0.00    -0.248 NA
ATOM     41  C   UNL A   1      41.036  25.041  28.071  1.00  0.00     0.031 C 
ATOM     42  C   UNL A   1      45.881  23.853  27.431  1.00  0.00     0.029 A 
ATOM     43  N   UNL A   1      45.407  25.951  28.043  1.00  0.00    -0.354 N 
ATOM     44  C   UNL A   1      41.325  27.263  28.538  1.00  0.00     0.074 A 
ATOM     45  C   UNL A   1      40.396  26.179  28.302  1.00  0.00     0.031 C 
ATOM     46  C   UNL A   1      47.045  24.513  27.540  1.00  0.00     0.029 A 
ATOM     47  C   UNL A   1      46.773  25.900  27.904  1.00  0.00     0.049 A 
ATOM     48  H   UNL A   1      44.924  26.763  28.317  1.00  0.00     0.167 HD
ATOM     49  C   UNL A   1      40.962  28.520  28.889  1.00  0.00     0.037 A 
ATOM     50  C   UNL A   1      47.701  26.866  28.035  1.00  0.00     0.037 A 
ATOM     51  C   UNL A   1      41.888  29.592  29.144  1.00  0.00     0.049 A 
ATOM     52  C   UNL A   1      47.270  28.258  28.400  1.00  0.00     0.074 A 
ATOM     53  C   UNL A   1      41.619  30.883  29.564  1.00  0.00     0.029 A 
ATOM     54  N   UNL A   1      43.264  29.499  28.998  1.00  0.00    -0.354 N 
ATOM     55  N   UNL A   1      46.062  28.717  28.626  1.00  0.00    -0.248 NA
ATOM     56  C   UNL A   1      48.329  29.270  28.524  1.00  0.00     0.031 C 
ATOM     57  C   UNL A   1      42.828  31.584  29.629  1.00  0.00     0.029 A 
ATOM     58  C   UNL A   1      43.855  30.717  29.293  1.00  0.00     0.049 A 
ATOM     59  H   UNL A   1      43.750  28.688  28.723  1.00  0.00     0.167 HD
ATOM     60  C   UNL A   1      46.218  30.060  28.940  1.00  0.00     0.074 A 
ATOM     61  C   UNL A   1      47.639  30.340  28.891  1.00  0.00     0.031 C 
ATOM     62  C   UNL A   1      45.270  30.981  29.240  1.00  0.00     0.037 A 
BRANCH  49  63
ATOM     63  C   UNL A   1      39.494  28.806  29.020  1.00  0.00     0.057 A 
ATOM     64  C   UNL A   1      38.817  28.644  30.235  1.00  0.00     0.134 A 
ATOM     65  C   UNL A   1      38.759  29.289  27.930  1.00  0.00     0.134 A 
ATOM     66  F   UNL A   1      39.460  28.175  31.315  1.00  0.00    -0.206 F 
ATOM     67  C   UNL A   1      37.456  28.929  30.356  1.00  0.00     0.040 A 
ATOM     68  C   UNL A   1      37.403  29.601  28.045  1.00  0.00     0.040 A 
ATOM     69  F   UNL A   1      39.348  29.474  26.739  1.00  0.00    -0.206 F 
ATOM     70  C   UNL A   1      36.746  29.416  29.260  1.00  0.00     0.006 A 
ENDBRANCH  49  63
BRANCH  50  71
ATOM     71  C   UNL A   1      49.137  26.551  27.823  1.00  0.00     0.057 A 
ATOM     72  C   UNL A   1      49.955  26.167  28.892  1.00  0.00     0.134 A 
ATOM     73  C   UNL A   1      49.726  26.636  26.557  1.00  0.00     0.134 A 
ATOM     74  F   UNL A   1      49.451  26.088  30.132  1.00  0.00    -0.206 F 
ATOM     75  C   UNL A   1      51.312  25.896  28.712  1.00  0.00     0.040 A 
ATOM     76  C   UNL A   1      51.077  26.344  26.359  1.00  0.00     0.040 A 
ATOM     77  F   UNL A   1      48.994  26.992  25.490  1.00  0.00    -0.206 F 
ATOM     78  C   UNL A   1      51.875  25.980  27.441  1.00  0.00     0.006 A 
ENDBRANCH  50  71
BRANCH  62  79
ATOM     79  C   UNL A   1      45.740  32.369  29.558  1.00  0.00     0.057 A 
ATOM     80  C   UNL A   1      46.096  32.747  30.859  1.00  0.00     0.134 A 
ATOM     81  C   UNL A   1      45.869  33.329  28.545  1.00  0.00     0.134 A 
ATOM     82  F   UNL A   1      45.980  31.879  31.874  1.00  0.00    -0.206 F 
ATOM     83  C   UNL A   1      46.545  34.038  31.145  1.00  0.00     0.040 A 
ATOM     84  C   UNL A   1      46.340  34.615  28.815  1.00  0.00     0.040 A 
ATOM     85  F   UNL A   1      45.551  33.029  27.277  1.00  0.00    -0.206 F 
ATOM     86  C   UNL A   1      46.674  34.973  30.120  1.00  0.00     0.006 A 
ENDBRANCH  62  79
ENDBRANCH  36  37
ENDBRANCH  28  31
ENDBRANCH  26  27
ENDBRANCH  25  26
ENDBRANCH   1  25
TORSDOF 14
ENDMDL
MODEL 2
REMARK VINA RESULT:     -11.6      2.598      7.393
REMARK SMILES C[N@H+](Cc1cc(Cl)ccc1[N+](=O)[O-])[C@H]1COC[C@@H]1C(=O)NCCCNC(=O)c1ccc(-c2c3nc(c(-c4c(F)cccc4F)c4ccc([nH]4)c(-c4c(F)cccc4F)c4nc(c(-c5c(F)cccc5F)c5ccc2[nH]5)C=C4)C=C3)cc1
REMARK SMILES IDX 22 1 21 2 19 3 20 4 18 6 14 7 15 8 16 9 17 10 2 11 1 12 3 14
REMARK SMILES IDX 4 15 5 16 10 17 6 18 9 19 7 20 8 21 11 22 12 23 13 24 23 25
REMARK SMILES IDX 24 26 25 27 26 28 27 30 28 31 29 32 81 33 30 34 80 35 31 36
REMARK SMILES IDX 32 37 33 38 74 39 34 40 79 41 73 42 75 43 35 44 78 45 72 46
REMARK SMILES IDX 71 47 36 49 62 50 45 51 61 52 46 53 49 54 60 55 76 56 47 57
REMARK SMILES IDX 48 58 59 60 77 61 50 62 37 63 38 64 43 65 39 66 40 67 42 68
REMARK SMILES IDX 44 69 41 70 63 71 64 72 69 73 65 74 66 75 68 76 70 77 67 78
REMARK SMILES IDX 51 79 52 80 57 81 53 82 54 83 56 84 58 85 55 86
REMARK H PARENT 21 5 2 13 25 29 75 48 49 59
REMARK Flexibility Score: inf
ROOT
ATOM      1  C   UNL A   1      33.191  29.139  24.925  1.00  0.00     0.117 C 
ENDROOT
BRANCH   1   2
ATOM      2  N   UNL A   1      33.742  29.003  23.586  1.00  0.00    -0.356 N 
ATOM      3  C   UNL A   1      33.610  28.021  22.654  1.00  0.00     0.231 C 
ATOM      4  O   UNL A   1      34.287  28.125  21.630  1.00  0.00    -0.274 OA
ATOM      5  H   UNL A   1      34.311  29.757  23.304  1.00  0.00     0.163 HD
BRANCH   3   6
ATOM      6  C   UNL A   1      32.652  26.863  22.873  1.00  0.00     0.164 C 
ATOM      7  C   UNL A   1      33.331  25.754  23.683  1.00  0.00     0.225 C 
ATOM      8  C   UNL A   1      33.920  24.881  22.563  1.00  0.00     0.226 C 
ATOM      9  O   UNL A   1      33.032  24.975  21.440  1.00  0.00    -0.374 OA
ATOM     10  C   UNL A   1      32.328  26.221  21.532  1.00  0.00     0.180 C 
BRANCH   7  11
ATOM     11  N   UNL A   1      32.446  25.004  24.632  1.00  0.00    -0.328 N 
ATOM     12  C   UNL A   1      31.183  25.678  24.925  1.00  0.00     0.333 C 
ATOM     13  H   UNL A   1      32.139  24.154  24.160  1.00  0.00     0.348 HD
BRANCH  11  14
ATOM     14  C   UNL A   1      33.207  24.575  25.822  1.00  0.00     0.306 C 
BRANCH  14  15
ATOM     15  C   UNL A   1      34.133  23.393  25.605  1.00  0.00     0.085 A 
ATOM     16  C   UNL A   1      35.503  23.603  25.888  1.00  0.00     0.037 A 
ATOM     17  C   UNL A   1      33.757  22.131  25.083  1.00  0.00     0.278 A 
ATOM     18  C   UNL A   1      36.453  22.605  25.672  1.00  0.00     0.042 A 
ATOM     19  C   UNL A   1      34.728  21.131  24.866  1.00  0.00     0.088 A 
ATOM     20  Cl  UNL A   1      38.107  22.907  26.029  1.00  0.00    -0.084 Cl
ATOM     21  C   UNL A   1      36.071  21.370  25.161  1.00  0.00     0.027 A 
BRANCH  17  22
ATOM     22  N   UNL A   1      32.371  21.790  24.706  1.00  0.00     0.063 N 
ATOM     23  O   UNL A   1      31.966  22.191  23.605  1.00  0.00    -0.258 OA
ATOM     24  O   UNL A   1      31.692  21.103  25.479  1.00  0.00    -0.258 OA
ENDBRANCH  17  22
ENDBRANCH  14  15
ENDBRANCH  11  14
ENDBRANCH   7  11
ENDBRANCH   3   6
ENDBRANCH   1   2
BRANCH   1  25
ATOM     25  C   UNL A   1      34.019  28.371  25.953  1.00  0.00     0.042 C 
BRANCH  25  26
ATOM     26  C   UNL A   1      33.626  28.635  27.407  1.00  0.00     0.118 C 
BRANCH  26  27
ATOM     27  N   UNL A   1      33.680  30.048  27.760  1.00  0.00    -0.352 N 
ATOM     28  C   UNL A   1      34.682  30.781  28.343  1.00  0.00     0.251 C 
ATOM     29  H   UNL A   1      32.867  30.559  27.547  1.00  0.00     0.163 HD
ATOM     30  O   UNL A   1      34.450  31.932  28.717  1.00  0.00    -0.269 OA
BRANCH  28  31
ATOM     31  C   UNL A   1      36.028  30.207  28.548  1.00  0.00     0.039 A 
ATOM     32  C   UNL A   1      36.938  30.231  27.485  1.00  0.00     0.014 A 
ATOM     33  C   UNL A   1      36.388  29.614  29.760  1.00  0.00     0.014 A 
ATOM     34  C   UNL A   1      38.230  29.730  27.662  1.00  0.00     0.010 A 
ATOM     35  C   UNL A   1      37.696  29.174  29.956  1.00  0.00     0.010 A 
ATOM     36  C   UNL A   1      38.632  29.236  28.913  1.00  0.00    -0.014 A 
BRANCH  36  37
ATOM     37  C   UNL A   1      40.031  28.803  29.159  1.00  0.00     0.031 A 
ATOM     38  C   UNL A   1      41.026  29.752  29.764  1.00  0.00     0.074 A 
ATOM     39  C   UNL A   1      40.425  27.577  28.760  1.00  0.00     0.049 A 
ATOM     40  N   UNL A   1      42.313  29.595  29.947  1.00  0.00    -0.248 NA
ATOM     41  C   UNL A   1      40.511  31.059  30.201  1.00  0.00     0.031 C 
ATOM     42  C   UNL A   1      39.564  26.575  28.129  1.00  0.00     0.029 A 
ATOM     43  N   UNL A   1      41.656  26.973  28.809  1.00  0.00    -0.354 N 
ATOM     44  C   UNL A   1      42.763  30.785  30.505  1.00  0.00     0.074 A 
ATOM     45  C   UNL A   1      41.621  31.670  30.591  1.00  0.00     0.031 C 
ATOM     46  C   UNL A   1      40.290  25.478  27.860  1.00  0.00     0.029 A 
ATOM     47  C   UNL A   1      41.674  25.715  28.258  1.00  0.00     0.049 A 
ATOM     48  H   UNL A   1      42.451  27.401  29.200  1.00  0.00     0.167 HD
ATOM     49  C   UNL A   1      44.012  31.103  30.922  1.00  0.00     0.037 A 
ATOM     50  C   UNL A   1      42.694  24.855  28.075  1.00  0.00     0.037 A 
ATOM     51  C   UNL A   1      45.143  30.215  30.855  1.00  0.00     0.049 A 
ATOM     52  C   UNL A   1      44.074  25.244  28.523  1.00  0.00     0.074 A 
ATOM     53  C   UNL A   1      46.434  30.425  31.309  1.00  0.00     0.029 A 
ATOM     54  N   UNL A   1      45.119  28.946  30.295  1.00  0.00    -0.354 N 
ATOM     55  N   UNL A   1      44.475  26.351  29.099  1.00  0.00    -0.248 NA
ATOM     56  C   UNL A   1      45.146  24.264  28.292  1.00  0.00     0.031 C 
ATOM     57  C   UNL A   1      47.201  29.302  30.983  1.00  0.00     0.029 A 
ATOM     58  C   UNL A   1      46.378  28.374  30.367  1.00  0.00     0.049 A 
ATOM     59  H   UNL A   1      44.324  28.516  29.904  1.00  0.00     0.167 HD
ATOM     60  C   UNL A   1      45.837  26.194  29.319  1.00  0.00     0.074 A 
ATOM     61  C   UNL A   1      46.191  24.877  28.829  1.00  0.00     0.031 C 
ATOM     62  C   UNL A   1      46.716  27.062  29.875  1.00  0.00     0.037 A 
BRANCH  49  63
ATOM     63  C   UNL A   1      44.223  32.476  31.492  1.00  0.00     0.057 A 
ATOM     64  C   UNL A   1      44.078  32.737  32.860  1.00  0.00     0.134 A 
ATOM     65  C   UNL A   1      44.617  33.540  30.669  1.00  0.00     0.134 A 
ATOM     66  F   UNL A   1      43.692  31.765  33.700  1.00  0.00    -0.206 F 
ATOM     67  C   UNL A   1      44.293  34.012  33.387  1.00  0.00     0.040 A 
ATOM     68  C   UNL A   1      44.860  34.813  31.188  1.00  0.00     0.040 A 
ATOM     69  F   UNL A   1      44.782  33.356  29.350  1.00  0.00    -0.206 F 
ATOM     70  C   UNL A   1      44.692  35.053  32.551  1.00  0.00     0.006 A 
ENDBRANCH  49  63
BRANCH  50  71
ATOM     71  C   UNL A   1      42.449  23.536  27.439  1.00  0.00     0.057 A 
ATOM     72  C   UNL A   1      42.138  22.411  28.212  1.00  0.00     0.134 A 
ATOM     73  C   UNL A   1      42.529  23.365  26.053  1.00  0.00     0.134 A 
ATOM     74  F   UNL A   1      42.067  22.509  29.547  1.00  0.00    -0.206 F 
ATOM     75  C   UNL A   1      41.934  21.159  27.630  1.00  0.00     0.040 A 
ATOM     76  C   UNL A   1      42.303  22.124  25.455  1.00  0.00     0.040 A 
ATOM     77  F   UNL A   1      42.816  24.406  25.256  1.00  0.00    -0.206 F 
ATOM     78  C   UNL A   1      42.012  21.014  26.246  1.00  0.00     0.006 A 
ENDBRANCH  50  71
BRANCH  62  79
ATOM     79  C   UNL A   1      48.140  26.608  30.001  1.00  0.00     0.057 A 
ATOM     80  C   UNL A   1      48.588  25.886  31.115  1.00  0.00     0.134 A 
ATOM     81  C   UNL A   1      49.066  26.869  28.982  1.00  0.00     0.134 A 
ATOM     82  F   UNL A   1      47.755  25.619  32.131  1.00  0.00    -0.206 F 
ATOM     83  C   UNL A   1      49.912  25.456  31.219  1.00  0.00     0.040 A 
ATOM     84  C   UNL A   1      50.386  26.422  29.065  1.00  0.00     0.040 A 
ATOM     85  F   UNL A   1      48.700  27.549  27.886  1.00  0.00    -0.206 F 
ATOM     86  C   UNL A   1      50.812  25.718  30.189  1.00  0.00     0.006 A 
ENDBRANCH  62  79
ENDBRANCH  36  37
ENDBRANCH  28  31
ENDBRANCH  26  27
ENDBRANCH  25  26
ENDBRANCH   1  25
TORSDOF 14
ENDMDL
MODEL 3
REMARK VINA RESULT:     -11.6      5.294     10.258
REMARK SMILES C[N@H+](Cc1cc(Cl)ccc1[N+](=O)[O-])[C@H]1COC[C@@H]1C(=O)NCCCNC(=O)c1ccc(-c2c3nc(c(-c4c(F)cccc4F)c4ccc([nH]4)c(-c4c(F)cccc4F)c4nc(c(-c5c(F)cccc5F)c5ccc2[nH]5)C=C4)C=C3)cc1
REMARK SMILES IDX 22 1 21 2 19 3 20 4 18 6 14 7 15 8 16 9 17 10 2 11 1 12 3 14
REMARK SMILES IDX 4 15 5 16 10 17 6 18 9 19 7 20 8 21 11 22 12 23 13 24 23 25
REMARK SMILES IDX 24 26 25 27 26 28 27 30 28 31 29 32 81 33 30 34 80 35 31 36
REMARK SMILES IDX 32 37 33 38 74 39 34 40 79 41 73 42 75 43 35 44 78 45 72 46
REMARK SMILES IDX 71 47 36 49 62 50 45 51 61 52 46 53 49 54 60 55 76 56 47 57
REMARK SMILES IDX 48 58 59 60 77 61 50 62 37 63 38 64 43 65 39 66 40 67 42 68
REMARK SMILES IDX 44 69 41 70 63 71 64 72 69 73 65 74 66 75 68 76 70 77 67 78
REMARK SMILES IDX 51 79 52 80 57 81 53 82 54 83 56 84 58 85 55 86
REMARK H PARENT 21 5 2 13 25 29 75 48 49 59
REMARK Flexibility Score: inf
ROOT
ATOM      1  C   UNL A   1      31.631  30.697  25.948  1.00  0.00     0.117 C 
ENDROOT
BRANCH   1   2
ATOM      2  N   UNL A   1      30.887  30.483  24.717  1.00  0.00    -0.356 N 
ATOM      3  C   UNL A   1      30.593  29.347  24.029  1.00  0.00     0.231 C 
ATOM      4  O   UNL A   1      30.026  29.480  22.943  1.00  0.00    -0.274 OA
ATOM      5  H   UNL A   1      30.533  31.308  24.310  1.00  0.00     0.163 HD
BRANCH   3   6
ATOM      6  C   UNL A   1      30.937  27.981  24.597  1.00  0.00     0.164 C 
ATOM      7  C   UNL A   1      32.343  27.559  24.158  1.00  0.00     0.225 C 
ATOM      8  C   UNL A   1      32.037  26.796  22.860  1.00  0.00     0.226 C 
ATOM      9  O   UNL A   1      30.753  26.177  23.025  1.00  0.00    -0.374 OA
ATOM     10  C   UNL A   1      30.012  26.938  23.988  1.00  0.00     0.180 C 
BRANCH   7  11
ATOM     11  N   UNL A   1      33.128  26.764  25.157  1.00  0.00    -0.328 N 
ATOM     12  C   UNL A   1      33.787  27.577  26.177  1.00  0.00     0.333 C 
ATOM     13  H   UNL A   1      32.463  26.218  25.704  1.00  0.00     0.348 HD
BRANCH  11  14
ATOM     14  C   UNL A   1      34.009  25.797  24.474  1.00  0.00     0.306 C 
BRANCH  14  15
ATOM     15  C   UNL A   1      34.300  24.526  25.251  1.00  0.00     0.085 A 
ATOM     16  C   UNL A   1      35.641  24.077  25.247  1.00  0.00     0.037 A 
ATOM     17  C   UNL A   1      33.341  23.724  25.914  1.00  0.00     0.278 A 
ATOM     18  C   UNL A   1      36.013  22.891  25.880  1.00  0.00     0.042 A 
ATOM     19  C   UNL A   1      33.729  22.525  26.548  1.00  0.00     0.088 A 
ATOM     20  Cl  UNL A   1      37.655  22.384  25.847  1.00  0.00    -0.084 Cl
ATOM     21  C   UNL A   1      35.063  22.113  26.529  1.00  0.00     0.027 A 
BRANCH  17  22
ATOM     22  N   UNL A   1      31.902  24.052  25.963  1.00  0.00     0.063 N 
ATOM     23  O   UNL A   1      31.522  24.807  26.869  1.00  0.00    -0.258 OA
ATOM     24  O   UNL A   1      31.152  23.591  25.094  1.00  0.00    -0.258 OA
ENDBRANCH  17  22
ENDBRANCH  14  15
ENDBRANCH  11  14
ENDBRANCH   7  11
ENDBRANCH   3   6
ENDBRANCH   1   2
BRANCH   1  25
ATOM     25  C   UNL A   1      31.363  32.081  26.534  1.00  0.00     0.042 C 
BRANCH  25  26
ATOM     26  C   UNL A   1      32.554  32.701  27.263  1.00  0.00     0.118 C 
BRANCH  26  27
ATOM     27  N   UNL A   1      32.341  34.101  27.609  1.00  0.00    -0.352 N 
ATOM     28  C   UNL A   1      32.965  34.894  28.537  1.00  0.00     0.251 C 
ATOM     29  H   UNL A   1      31.633  34.550  27.093  1.00  0.00     0.163 HD
ATOM     30  O   UNL A   1      32.505  36.008  28.789  1.00  0.00    -0.269 OA
BRANCH  28  31
ATOM     31  C   UNL A   1      34.170  34.425  29.253  1.00  0.00     0.039 A 
ATOM     32  C   UNL A   1      34.018  33.848  30.518  1.00  0.00     0.014 A 
ATOM     33  C   UNL A   1      35.447  34.583  28.708  1.00  0.00     0.014 A 
ATOM     34  C   UNL A   1      35.134  33.360  31.201  1.00  0.00     0.010 A 
ATOM     35  C   UNL A   1      36.552  34.040  29.361  1.00  0.00     0.010 A 
ATOM     36  C   UNL A   1      36.406  33.415  30.608  1.00  0.00    -0.014 A 
BRANCH  36  37
ATOM     37  C   UNL A   1      37.590  32.804  31.263  1.00  0.00     0.031 A 
ATOM     38  C   UNL A   1      38.252  31.595  30.663  1.00  0.00     0.074 A 
ATOM     39  C   UNL A   1      38.019  33.291  32.444  1.00  0.00     0.049 A 
ATOM     40  N   UNL A   1      39.219  30.857  31.147  1.00  0.00    -0.248 NA
ATOM     41  C   UNL A   1      37.745  31.144  29.359  1.00  0.00     0.031 C 
ATOM     42  C   UNL A   1      37.441  34.438  33.147  1.00  0.00     0.029 A 
ATOM     43  N   UNL A   1      39.030  32.870  33.272  1.00  0.00    -0.354 N 
ATOM     44  C   UNL A   1      39.426  29.848  30.216  1.00  0.00     0.074 A 
ATOM     45  C   UNL A   1      38.456  30.043  29.159  1.00  0.00     0.031 C 
ATOM     46  C   UNL A   1      38.112  34.635  34.293  1.00  0.00     0.029 A 
ATOM     47  C   UNL A   1      39.137  33.605  34.427  1.00  0.00     0.049 A 
ATOM     48  H   UNL A   1      39.621  32.112  33.059  1.00  0.00     0.167 HD
ATOM     49  C   UNL A   1      40.352  28.859  30.233  1.00  0.00     0.037 A 
ATOM     50  C   UNL A   1      39.956  33.455  35.485  1.00  0.00     0.037 A 
ATOM     51  C   UNL A   1      41.329  28.678  31.274  1.00  0.00     0.049 A 
ATOM     52  C   UNL A   1      40.956  32.334  35.491  1.00  0.00     0.074 A 
ATOM     53  C   UNL A   1      42.347  27.742  31.349  1.00  0.00     0.029 A 
ATOM     54  N   UNL A   1      41.410  29.447  32.424  1.00  0.00    -0.354 N 
ATOM     55  N   UNL A   1      41.177  31.420  34.577  1.00  0.00    -0.248 NA
ATOM     56  C   UNL A   1      41.818  32.221  36.676  1.00  0.00     0.031 C 
ATOM     57  C   UNL A   1      43.014  27.917  32.566  1.00  0.00     0.029 A 
ATOM     58  C   UNL A   1      42.441  28.990  33.228  1.00  0.00     0.049 A 
ATOM     59  H   UNL A   1      40.819  30.206  32.640  1.00  0.00     0.167 HD
ATOM     60  C   UNL A   1      42.215  30.638  35.066  1.00  0.00     0.074 A 
ATOM     61  C   UNL A   1      42.592  31.196  36.349  1.00  0.00     0.031 C 
ATOM     62  C   UNL A   1      42.804  29.555  34.504  1.00  0.00     0.037 A 
BRANCH  49  63
ATOM     63  C   UNL A   1      40.352  27.890  29.085  1.00  0.00     0.057 A 
ATOM     64  C   UNL A   1      39.551  26.741  29.089  1.00  0.00     0.134 A 
ATOM     65  C   UNL A   1      41.131  28.132  27.945  1.00  0.00     0.134 A 
ATOM     66  F   UNL A   1      38.791  26.447  30.154  1.00  0.00    -0.206 F 
ATOM     67  C   UNL A   1      39.542  25.854  28.011  1.00  0.00     0.040 A 
ATOM     68  C   UNL A   1      41.111  27.265  26.851  1.00  0.00     0.040 A 
ATOM     69  F   UNL A   1      41.915  29.218  27.873  1.00  0.00    -0.206 F 
ATOM     70  C   UNL A   1      40.318  26.119  26.885  1.00  0.00     0.006 A 
ENDBRANCH  49  63
BRANCH  50  71
ATOM     71  C   UNL A   1      39.869  34.395  36.631  1.00  0.00     0.057 A 
ATOM     72  C   UNL A   1      40.574  35.604  36.627  1.00  0.00     0.134 A 
ATOM     73  C   UNL A   1      39.090  34.107  37.758  1.00  0.00     0.134 A 
ATOM     74  F   UNL A   1      41.353  35.926  35.584  1.00  0.00    -0.206 F 
ATOM     75  C   UNL A   1      40.524  36.483  37.709  1.00  0.00     0.040 A 
ATOM     76  C   UNL A   1      39.011  34.989  38.837  1.00  0.00     0.040 A 
ATOM     77  F   UNL A   1      38.384  32.968  37.821  1.00  0.00    -0.206 F 
ATOM     78  C   UNL A   1      39.737  36.178  38.818  1.00  0.00     0.006 A 
ENDBRANCH  50  71
BRANCH  62  79
ATOM     79  C   UNL A   1      43.928  28.914  35.263  1.00  0.00     0.057 A 
ATOM     80  C   UNL A   1      45.262  29.289  35.060  1.00  0.00     0.134 A 
ATOM     81  C   UNL A   1      43.669  27.935  36.230  1.00  0.00     0.134 A 
ATOM     82  F   UNL A   1      45.577  30.209  34.136  1.00  0.00    -0.206 F 
ATOM     83  C   UNL A   1      46.302  28.697  35.779  1.00  0.00     0.040 A 
ATOM     84  C   UNL A   1      44.699  27.355  36.974  1.00  0.00     0.040 A 
ATOM     85  F   UNL A   1      42.413  27.536  36.478  1.00  0.00    -0.206 F 
ATOM     86  C   UNL A   1      46.020  27.732  36.744  1.00  0.00     0.006 A 
ENDBRANCH  62  79
ENDBRANCH  36  37
ENDBRANCH  28  31
ENDBRANCH  26  27
ENDBRANCH  25  26
ENDBRANCH   1  25
TORSDOF 14
ENDMDL
