MODEL 1
REMARK VINA RESULT:     -11.1      0.000      0.000
REMARK SMILES Cc1ccc(NC(=O)C[C@@H](C(=O)NCCCNC(=O)c2ccc(-c3c4nc(c(-c5c(F)cccc5F)c5ccc([nH]5)c(-c5c(F)cccc5F)c5nc(c(-c6c(F)cccc6F)c6ccc3[nH]6)C=C5)C=C4)cc2)[NH+](C)C)cc1Cl
REMARK SMILES IDX 14 1 13 2 11 3 12 4 10 6 9 7 7 8 6 9 8 11 5 12 1 13 2 14
REMARK SMILES IDX 3 15 78 16 4 17 77 18 79 19 74 20 75 21 76 22 15 24 16 25
REMARK SMILES IDX 17 26 18 27 19 29 20 30 21 31 73 32 22 33 72 34 23 35 24 36
REMARK SMILES IDX 25 37 66 38 26 39 71 40 65 41 67 42 27 43 70 44 64 45 63 46
REMARK SMILES IDX 28 48 54 49 37 50 53 51 38 52 41 53 52 54 68 55 39 56 40 57
REMARK SMILES IDX 51 59 69 60 42 61 29 62 30 63 35 64 31 65 32 66 34 67 36 68
REMARK SMILES IDX 33 69 55 70 56 71 61 72 57 73 58 74 60 75 62 76 59 77 43 78
REMARK SMILES IDX 44 79 49 80 45 81 46 82 48 83 50 84 47 85
REMARK H PARENT 13 5 6 10 74 23 17 28 67 47 41 58
REMARK Flexibility Score: inf
ROOT
ATOM      1  C   UNL A   1      37.022  21.133  24.352  1.00  0.00     0.118 C 
ENDROOT
BRANCH   1   2
ATOM      2  N   UNL A   1      36.098  21.506  25.414  1.00  0.00    -0.351 N 
ATOM      3  C   UNL A   1      34.834  21.095  25.736  1.00  0.00     0.278 C 
ATOM      4  O   UNL A   1      34.417  21.483  26.832  1.00  0.00    -0.268 OA
ATOM      5  H   UNL A   1      36.456  22.191  26.024  1.00  0.00     0.163 HD
BRANCH   3   6
ATOM      6  C   UNL A   1      33.999  20.190  24.794  1.00  0.00     0.283 C 
BRANCH   6   7
ATOM      7  C   UNL A   1      32.568  20.686  24.500  1.00  0.00     0.175 C 
BRANCH   7   8
ATOM      8  C   UNL A   1      32.240  21.095  23.088  1.00  0.00     0.230 C 
ATOM      9  N   UNL A   1      32.234  22.390  22.653  1.00  0.00    -0.326 N 
ATOM     10  H   UNL A   1      31.964  22.488  21.712  1.00  0.00     0.169 HD
ATOM     11  O   UNL A   1      31.994  20.220  22.250  1.00  0.00    -0.274 OA
BRANCH   9  12
ATOM     12  C   UNL A   1      32.536  23.612  23.280  1.00  0.00     0.042 A 
ATOM     13  C   UNL A   1      33.815  26.797  25.898  1.00  0.00     0.046 C 
ATOM     14  C   UNL A   1      33.364  25.771  24.898  1.00  0.00    -0.032 A 
ATOM     15  C   UNL A   1      34.307  24.954  24.268  1.00  0.00     0.007 A 
ATOM     16  C   UNL A   1      32.010  25.572  24.603  1.00  0.00     0.046 A 
ATOM     17  C   UNL A   1      33.895  23.905  23.440  1.00  0.00     0.026 A 
ATOM     18  C   UNL A   1      31.600  24.503  23.793  1.00  0.00     0.047 A 
ATOM     19  Cl  UNL A   1      30.785  26.609  25.250  1.00  0.00    -0.084 Cl
ENDBRANCH   9  12
ENDBRANCH   7   8
ENDBRANCH   6   7
BRANCH   6  20
ATOM     20  N   UNL A   1      33.995  18.736  25.209  1.00  0.00    -0.329 N 
ATOM     21  C   UNL A   1      32.653  18.216  25.485  1.00  0.00     0.333 C 
ATOM     22  C   UNL A   1      34.682  17.822  24.292  1.00  0.00     0.333 C 
ATOM     23  H   UNL A   1      34.536  18.757  26.073  1.00  0.00     0.348 HD
ENDBRANCH   6  20
ENDBRANCH   3   6
ENDBRANCH   1   2
BRANCH   1  24
ATOM     24  C   UNL A   1      37.858  19.877  24.637  1.00  0.00     0.042 C 
BRANCH  24  25
ATOM     25  C   UNL A   1      38.706  19.878  25.908  1.00  0.00     0.118 C 
BRANCH  25  26
ATOM     26  N   UNL A   1      39.949  19.141  25.778  1.00  0.00    -0.352 N 
ATOM     27  C   UNL A   1      41.243  19.528  26.019  1.00  0.00     0.251 C 
ATOM     28  H   UNL A   1      39.848  18.212  25.468  1.00  0.00     0.163 HD
ATOM     29  O   UNL A   1      42.159  18.753  25.722  1.00  0.00    -0.269 OA
BRANCH  27  30
ATOM     30  C   UNL A   1      41.589  20.851  26.597  1.00  0.00     0.039 A 
ATOM     31  C   UNL A   1      41.957  21.877  25.717  1.00  0.00     0.014 A 
ATOM     32  C   UNL A   1      41.649  21.085  27.976  1.00  0.00     0.014 A 
ATOM     33  C   UNL A   1      42.338  23.131  26.207  1.00  0.00     0.010 A 
ATOM     34  C   UNL A   1      41.981  22.357  28.464  1.00  0.00     0.010 A 
ATOM     35  C   UNL A   1      42.336  23.393  27.586  1.00  0.00    -0.014 A 
BRANCH  35  36
ATOM     36  C   UNL A   1      42.712  24.743  28.096  1.00  0.00     0.031 A 
ATOM     37  C   UNL A   1      41.670  25.807  28.319  1.00  0.00     0.074 A 
ATOM     38  C   UNL A   1      44.004  25.023  28.361  1.00  0.00     0.049 A 
ATOM     39  N   UNL A   1      41.818  27.028  28.774  1.00  0.00    -0.248 NA
ATOM     40  C   UNL A   1      40.283  25.461  27.974  1.00  0.00     0.031 C 
ATOM     41  C   UNL A   1      45.125  24.105  28.166  1.00  0.00     0.029 A 
ATOM     42  N   UNL A   1      44.592  26.164  28.853  1.00  0.00    -0.354 N 
ATOM     43  C   UNL A   1      40.551  27.597  28.762  1.00  0.00     0.074 A 
ATOM     44  C   UNL A   1      39.651  26.601  28.218  1.00  0.00     0.031 C 
ATOM     45  C   UNL A   1      46.260  24.706  28.557  1.00  0.00     0.029 A 
ATOM     46  C   UNL A   1      45.954  26.062  29.006  1.00  0.00     0.049 A 
ATOM     47  H   UNL A   1      44.084  26.979  29.077  1.00  0.00     0.167 HD
ATOM     48  C   UNL A   1      40.163  28.825  29.185  1.00  0.00     0.037 A 
ATOM     49  C   UNL A   1      46.856  26.955  29.456  1.00  0.00     0.037 A 
ATOM     50  C   UNL A   1      41.043  29.814  29.753  1.00  0.00     0.049 A 
ATOM     51  C   UNL A   1      46.404  28.314  29.913  1.00  0.00     0.074 A 
ATOM     52  C   UNL A   1      40.723  31.062  30.262  1.00  0.00     0.029 A 
ATOM     53  N   UNL A   1      42.415  29.671  29.886  1.00  0.00    -0.354 N 
ATOM     54  N   UNL A   1      45.191  28.809  29.956  1.00  0.00    -0.248 NA
ATOM     55  C   UNL A   1      47.445  29.236  30.390  1.00  0.00     0.031 C 
ATOM     56  C   UNL A   1      41.906  31.690  30.668  1.00  0.00     0.029 A 
ATOM     57  C   UNL A   1      42.959  30.817  30.447  1.00  0.00     0.049 A 
ATOM     58  H   UNL A   1      42.928  28.874  29.619  1.00  0.00     0.167 HD
ATOM     59  C   UNL A   1      45.321  30.086  30.486  1.00  0.00     0.074 A 
ATOM     60  C   UNL A   1      46.728  30.287  30.761  1.00  0.00     0.031 C 
ATOM     61  C   UNL A   1      44.358  31.009  30.724  1.00  0.00     0.037 A 
BRANCH  48  62
ATOM     62  C   UNL A   1      38.710  29.176  29.051  1.00  0.00     0.057 A 
ATOM     63  C   UNL A   1      37.834  29.113  30.143  1.00  0.00     0.134 A 
ATOM     64  C   UNL A   1      38.192  29.631  27.832  1.00  0.00     0.134 A 
ATOM     65  F   UNL A   1      38.267  28.680  31.337  1.00  0.00    -0.206 F 
ATOM     66  C   UNL A   1      36.490  29.468  30.021  1.00  0.00     0.040 A 
ATOM     67  C   UNL A   1      36.854  30.010  27.704  1.00  0.00     0.040 A 
ATOM     68  F   UNL A   1      38.980  29.725  26.750  1.00  0.00    -0.206 F 
ATOM     69  C   UNL A   1      35.999  29.924  28.799  1.00  0.00     0.006 A 
ENDBRANCH  48  62
BRANCH  49  70
ATOM     70  C   UNL A   1      48.292  26.584  29.524  1.00  0.00     0.057 A 
ATOM     71  C   UNL A   1      49.164  26.880  28.470  1.00  0.00     0.134 A 
ATOM     72  C   UNL A   1      48.820  25.915  30.634  1.00  0.00     0.134 A 
ATOM     73  F   UNL A   1      48.709  27.498  27.370  1.00  0.00    -0.206 F 
ATOM     74  C   UNL A   1      50.509  26.512  28.510  1.00  0.00     0.040 A 
ATOM     75  C   UNL A   1      50.169  25.561  30.698  1.00  0.00     0.040 A 
ATOM     76  F   UNL A   1      48.035  25.607  31.675  1.00  0.00    -0.206 F 
ATOM     77  C   UNL A   1      51.016  25.854  29.630  1.00  0.00     0.006 A 
ENDBRANCH  49  70
BRANCH  61  78
ATOM     78  C   UNL A   1      44.786  32.310  31.336  1.00  0.00     0.057 A 
ATOM     79  C   UNL A   1      45.143  33.413  30.552  1.00  0.00     0.134 A 
ATOM     80  C   UNL A   1      44.810  32.470  32.728  1.00  0.00     0.134 A 
ATOM     81  F   UNL A   1      45.154  33.320  29.214  1.00  0.00    -0.206 F 
ATOM     82  C   UNL A   1      45.527  34.625  31.130  1.00  0.00     0.040 A 
ATOM     83  C   UNL A   1      45.171  33.683  33.317  1.00  0.00     0.040 A 
ATOM     84  F   UNL A   1      44.473  31.454  33.538  1.00  0.00    -0.206 F 
ATOM     85  C   UNL A   1      45.537  34.764  32.517  1.00  0.00     0.006 A 
ENDBRANCH  61  78
ENDBRANCH  35  36
ENDBRANCH  27  30
ENDBRANCH  25  26
ENDBRANCH  24  25
ENDBRANCH   1  24
TORSDOF 14
ENDMDL
MODEL 2
REMARK VINA RESULT:     -11.1      0.326      6.250
REMARK SMILES Cc1ccc(NC(=O)C[C@@H](C(=O)NCCCNC(=O)c2ccc(-c3c4nc(c(-c5c(F)cccc5F)c5ccc([nH]5)c(-c5c(F)cccc5F)c5nc(c(-c6c(F)cccc6F)c6ccc3[nH]6)C=C5)C=C4)cc2)[NH+](C)C)cc1Cl
REMARK SMILES IDX 14 1 13 2 11 3 12 4 10 6 9 7 7 8 6 9 8 11 5 12 1 13 2 14
REMARK SMILES IDX 3 15 78 16 4 17 77 18 79 19 74 20 75 21 76 22 15 24 16 25
REMARK SMILES IDX 17 26 18 27 19 29 20 30 21 31 73 32 22 33 72 34 23 35 24 36
REMARK SMILES IDX 25 37 66 38 26 39 71 40 65 41 67 42 27 43 70 44 64 45 63 46
REMARK SMILES IDX 28 48 54 49 37 50 53 51 38 52 41 53 52 54 68 55 39 56 40 57
REMARK SMILES IDX 51 59 69 60 42 61 29 62 30 63 35 64 31 65 32 66 34 67 36 68
REMARK SMILES IDX 33 69 55 70 56 71 61 72 57 73 58 74 60 75 62 76 59 77 43 78
REMARK SMILES IDX 44 79 49 80 45 81 46 82 48 83 50 84 47 85
REMARK H PARENT 13 5 6 10 74 23 17 28 67 47 41 58
REMARK Flexibility Score: inf
ROOT
ATOM      1  C   UNL A   1      37.037  21.066  24.339  1.00  0.00     0.118 C 
ENDROOT
BRANCH   1   2
ATOM      2  N   UNL A   1      36.136  21.454  25.415  1.00  0.00    -0.351 N 
ATOM      3  C   UNL A   1      34.860  21.087  25.740  1.00  0.00     0.278 C 
ATOM      4  O   UNL A   1      34.466  21.471  26.846  1.00  0.00    -0.268 OA
ATOM      5  H   UNL A   1      36.525  22.114  26.034  1.00  0.00     0.163 HD
BRANCH   3   6
ATOM      6  C   UNL A   1      33.983  20.232  24.788  1.00  0.00     0.283 C 
BRANCH   6   7
ATOM      7  C   UNL A   1      32.572  20.791  24.511  1.00  0.00     0.175 C 
BRANCH   7   8
ATOM      8  C   UNL A   1      32.236  21.189  23.098  1.00  0.00     0.230 C 
ATOM      9  N   UNL A   1      32.233  22.480  22.651  1.00  0.00    -0.326 N 
ATOM     10  H   UNL A   1      31.957  22.570  21.711  1.00  0.00     0.169 HD
ATOM     11  O   UNL A   1      31.982  20.307  22.269  1.00  0.00    -0.274 OA
BRANCH   9  12
ATOM     12  C   UNL A   1      32.544  23.706  23.264  1.00  0.00     0.042 A 
ATOM     13  C   UNL A   1      33.784  26.912  25.876  1.00  0.00     0.046 C 
ATOM     14  C   UNL A   1      33.355  25.876  24.877  1.00  0.00    -0.032 A 
ATOM     15  C   UNL A   1      34.302  25.007  24.327  1.00  0.00     0.007 A 
ATOM     16  C   UNL A   1      32.015  25.720  24.502  1.00  0.00     0.046 A 
ATOM     17  C   UNL A   1      33.901  23.953  23.501  1.00  0.00     0.026 A 
ATOM     18  C   UNL A   1      31.614  24.645  23.696  1.00  0.00     0.047 A 
ATOM     19  Cl  UNL A   1      30.795  26.820  25.046  1.00  0.00    -0.084 Cl
ENDBRANCH   9  12
ENDBRANCH   7   8
ENDBRANCH   6   7
BRANCH   6  20
ATOM     20  N   UNL A   1      33.922  18.773  25.179  1.00  0.00    -0.329 N 
ATOM     21  C   UNL A   1      32.557  18.243  25.228  1.00  0.00     0.333 C 
ATOM     22  C   UNL A   1      34.754  17.874  24.374  1.00  0.00     0.333 C 
ATOM     23  H   UNL A   1      34.316  18.785  26.120  1.00  0.00     0.348 HD
ENDBRANCH   6  20
ENDBRANCH   3   6
ENDBRANCH   1   2
BRANCH   1  24
ATOM     24  C   UNL A   1      37.912  19.841  24.643  1.00  0.00     0.042 C 
BRANCH  24  25
ATOM     25  C   UNL A   1      38.771  19.894  25.905  1.00  0.00     0.118 C 
BRANCH  25  26
ATOM     26  N   UNL A   1      40.013  19.153  25.794  1.00  0.00    -0.352 N 
ATOM     27  C   UNL A   1      41.309  19.552  26.005  1.00  0.00     0.251 C 
ATOM     28  H   UNL A   1      39.911  18.212  25.526  1.00  0.00     0.163 HD
ATOM     29  O   UNL A   1      42.223  18.765  25.732  1.00  0.00    -0.269 OA
BRANCH  27  30
ATOM     30  C   UNL A   1      41.660  20.899  26.522  1.00  0.00     0.039 A 
ATOM     31  C   UNL A   1      41.469  21.150  27.886  1.00  0.00     0.014 A 
ATOM     32  C   UNL A   1      42.084  21.943  25.692  1.00  0.00     0.014 A 
ATOM     33  C   UNL A   1      41.737  22.414  28.421  1.00  0.00     0.010 A 
ATOM     34  C   UNL A   1      42.403  23.196  26.237  1.00  0.00     0.010 A 
ATOM     35  C   UNL A   1      42.227  23.448  27.607  1.00  0.00    -0.014 A 
BRANCH  35  36
ATOM     36  C   UNL A   1      42.542  24.782  28.193  1.00  0.00     0.031 A 
ATOM     37  C   UNL A   1      43.946  25.138  28.605  1.00  0.00     0.074 A 
ATOM     38  C   UNL A   1      41.558  25.689  28.363  1.00  0.00     0.049 A 
ATOM     39  N   UNL A   1      44.401  26.258  29.114  1.00  0.00    -0.248 NA
ATOM     40  C   UNL A   1      44.971  24.098  28.436  1.00  0.00     0.031 C 
ATOM     41  C   UNL A   1      40.148  25.476  28.039  1.00  0.00     0.029 A 
ATOM     42  N   UNL A   1      41.597  26.974  28.850  1.00  0.00    -0.354 N 
ATOM     43  C   UNL A   1      45.758  26.055  29.333  1.00  0.00     0.074 A 
ATOM     44  C   UNL A   1      46.045  24.691  28.939  1.00  0.00     0.031 C 
ATOM     45  C   UNL A   1      39.461  26.596  28.312  1.00  0.00     0.029 A 
ATOM     46  C   UNL A   1      40.373  27.599  28.854  1.00  0.00     0.049 A 
ATOM     47  H   UNL A   1      42.424  27.406  29.166  1.00  0.00     0.167 HD
ATOM     48  C   UNL A   1      46.686  26.926  29.798  1.00  0.00     0.037 A 
ATOM     49  C   UNL A   1      40.022  28.839  29.248  1.00  0.00     0.037 A 
ATOM     50  C   UNL A   1      46.419  28.293  30.168  1.00  0.00     0.049 A 
ATOM     51  C   UNL A   1      41.069  29.786  29.768  1.00  0.00     0.074 A 
ATOM     52  C   UNL A   1      47.313  29.262  30.592  1.00  0.00     0.029 A 
ATOM     53  N   UNL A   1      45.165  28.884  30.160  1.00  0.00    -0.354 N 
ATOM     54  N   UNL A   1      42.358  29.596  29.905  1.00  0.00    -0.248 NA
ATOM     55  C   UNL A   1      40.611  31.120  30.180  1.00  0.00     0.031 C 
ATOM     56  C   UNL A   1      46.596  30.429  30.877  1.00  0.00     0.029 A 
ATOM     57  C   UNL A   1      45.260  30.198  30.594  1.00  0.00     0.049 A 
ATOM     58  H   UNL A   1      44.332  28.437  29.888  1.00  0.00     0.167 HD
ATOM     59  C   UNL A   1      42.868  30.792  30.394  1.00  0.00     0.074 A 
ATOM     60  C   UNL A   1      41.751  31.706  30.519  1.00  0.00     0.031 C 
ATOM     61  C   UNL A   1      44.147  31.104  30.711  1.00  0.00     0.037 A 
BRANCH  48  62
ATOM     62  C   UNL A   1      48.095  26.428  29.935  1.00  0.00     0.057 A 
ATOM     63  C   UNL A   1      49.031  26.574  28.903  1.00  0.00     0.134 A 
ATOM     64  C   UNL A   1      48.536  25.843  31.129  1.00  0.00     0.134 A 
ATOM     65  F   UNL A   1      48.671  27.120  27.731  1.00  0.00    -0.206 F 
ATOM     66  C   UNL A   1      50.349  26.135  29.044  1.00  0.00     0.040 A 
ATOM     67  C   UNL A   1      49.857  25.421  31.290  1.00  0.00     0.040 A 
ATOM     68  F   UNL A   1      47.693  25.684  32.160  1.00  0.00    -0.206 F 
ATOM     69  C   UNL A   1      50.765  25.561  30.244  1.00  0.00     0.006 A 
ENDBRANCH  48  62
BRANCH  49  70
ATOM     70  C   UNL A   1      38.607  29.274  29.144  1.00  0.00     0.057 A 
ATOM     71  C   UNL A   1      38.074  29.709  27.926  1.00  0.00     0.134 A 
ATOM     72  C   UNL A   1      37.762  29.278  30.259  1.00  0.00     0.134 A 
ATOM     73  F   UNL A   1      38.844  29.749  26.828  1.00  0.00    -0.206 F 
ATOM     74  C   UNL A   1      36.753  30.146  27.821  1.00  0.00     0.040 A 
ATOM     75  C   UNL A   1      36.432  29.691  30.165  1.00  0.00     0.040 A 
ATOM     76  F   UNL A   1      38.214  28.870  31.454  1.00  0.00    -0.206 F 
ATOM     77  C   UNL A   1      35.926  30.134  28.943  1.00  0.00     0.006 A 
ENDBRANCH  49  70
BRANCH  61  78
ATOM     78  C   UNL A   1      44.417  32.498  31.196  1.00  0.00     0.057 A 
ATOM     79  C   UNL A   1      44.693  33.547  30.313  1.00  0.00     0.134 A 
ATOM     80  C   UNL A   1      44.367  32.799  32.563  1.00  0.00     0.134 A 
ATOM     81  F   UNL A   1      44.769  33.321  28.992  1.00  0.00    -0.206 F 
ATOM     82  C   UNL A   1      44.930  34.844  30.772  1.00  0.00     0.040 A 
ATOM     83  C   UNL A   1      44.580  34.096  33.033  1.00  0.00     0.040 A 
ATOM     84  F   UNL A   1      44.100  31.841  33.464  1.00  0.00    -0.206 F 
ATOM     85  C   UNL A   1      44.868  35.123  32.136  1.00  0.00     0.006 A 
ENDBRANCH  61  78
ENDBRANCH  35  36
ENDBRANCH  27  30
ENDBRANCH  25  26
ENDBRANCH  24  25
ENDBRANCH   1  24
TORSDOF 14
ENDMDL
MODEL 3
REMARK VINA RESULT:     -10.9      1.457      6.558
REMARK SMILES Cc1ccc(NC(=O)C[C@@H](C(=O)NCCCNC(=O)c2ccc(-c3c4nc(c(-c5c(F)cccc5F)c5ccc([nH]5)c(-c5c(F)cccc5F)c5nc(c(-c6c(F)cccc6F)c6ccc3[nH]6)C=C5)C=C4)cc2)[NH+](C)C)cc1Cl
REMARK SMILES IDX 14 1 13 2 11 3 12 4 10 6 9 7 7 8 6 9 8 11 5 12 1 13 2 14
REMARK SMILES IDX 3 15 78 16 4 17 77 18 79 19 74 20 75 21 76 22 15 24 16 25
REMARK SMILES IDX 17 26 18 27 19 29 20 30 21 31 73 32 22 33 72 34 23 35 24 36
REMARK SMILES IDX 25 37 66 38 26 39 71 40 65 41 67 42 27 43 70 44 64 45 63 46
REMARK SMILES IDX 28 48 54 49 37 50 53 51 38 52 41 53 52 54 68 55 39 56 40 57
REMARK SMILES IDX 51 59 69 60 42 61 29 62 30 63 35 64 31 65 32 66 34 67 36 68
REMARK SMILES IDX 33 69 55 70 56 71 61 72 57 73 58 74 60 75 62 76 59 77 43 78
REMARK SMILES IDX 44 79 49 80 45 81 46 82 48 83 50 84 47 85
REMARK H PARENT 13 5 6 10 74 23 17 28 67 47 41 58
REMARK Flexibility Score: inf
ROOT
ATOM      1  C   UNL A   1      35.785  20.480  24.757  1.00  0.00     0.118 C 
ENDROOT
BRANCH   1   2
ATOM      2  N   UNL A   1      34.509  19.840  25.045  1.00  0.00    -0.351 N 
ATOM      3  C   UNL A   1      33.222  20.298  25.074  1.00  0.00     0.278 C 
ATOM      4  O   UNL A   1      32.352  19.425  25.163  1.00  0.00    -0.268 OA
ATOM      5  H   UNL A   1      34.590  18.882  25.260  1.00  0.00     0.163 HD
BRANCH   3   6
ATOM      6  C   UNL A   1      32.885  21.809  24.980  1.00  0.00     0.283 C 
BRANCH   6   7
ATOM      7  C   UNL A   1      31.643  22.258  25.778  1.00  0.00     0.175 C 
BRANCH   7   8
ATOM      8  C   UNL A   1      31.855  23.172  26.957  1.00  0.00     0.230 C 
ATOM      9  N   UNL A   1      31.706  24.528  26.905  1.00  0.00    -0.326 N 
ATOM     10  H   UNL A   1      31.916  24.980  27.753  1.00  0.00     0.169 HD
ATOM     11  O   UNL A   1      32.145  22.680  28.054  1.00  0.00    -0.274 OA
BRANCH   9  12
ATOM     12  C   UNL A   1      31.313  25.409  25.883  1.00  0.00     0.042 A 
ATOM     13  C   UNL A   1      30.243  28.787  23.416  1.00  0.00     0.046 C 
ATOM     14  C   UNL A   1      30.626  27.548  24.172  1.00  0.00    -0.032 A 
ATOM     15  C   UNL A   1      31.946  27.378  24.603  1.00  0.00     0.007 A 
ATOM     16  C   UNL A   1      29.689  26.562  24.504  1.00  0.00     0.046 A 
ATOM     17  C   UNL A   1      32.290  26.299  25.423  1.00  0.00     0.026 A 
ATOM     18  C   UNL A   1      30.032  25.497  25.348  1.00  0.00     0.047 A 
ATOM     19  Cl  UNL A   1      28.062  26.636  23.917  1.00  0.00    -0.084 Cl
ENDBRANCH   9  12
ENDBRANCH   7   8
ENDBRANCH   6   7
BRANCH   6  20
ATOM     20  N   UNL A   1      32.834  22.325  23.561  1.00  0.00    -0.329 N 
ATOM     21  C   UNL A   1      31.531  22.886  23.194  1.00  0.00     0.333 C 
ATOM     22  C   UNL A   1      33.884  23.284  23.206  1.00  0.00     0.333 C 
ATOM     23  H   UNL A   1      33.005  21.478  23.017  1.00  0.00     0.348 HD
ENDBRANCH   6  20
ENDBRANCH   3   6
ENDBRANCH   1   2
BRANCH   1  24
ATOM     24  C   UNL A   1      37.016  19.588  24.970  1.00  0.00     0.042 C 
BRANCH  24  25
ATOM     25  C   UNL A   1      38.320  20.282  25.359  1.00  0.00     0.118 C 
BRANCH  25  26
ATOM     26  N   UNL A   1      39.428  19.367  25.562  1.00  0.00    -0.352 N 
ATOM     27  C   UNL A   1      40.691  19.592  26.047  1.00  0.00     0.251 C 
ATOM     28  H   UNL A   1      39.243  18.433  25.314  1.00  0.00     0.163 HD
ATOM     29  O   UNL A   1      41.511  18.666  26.020  1.00  0.00    -0.269 OA
BRANCH  27  30
ATOM     30  C   UNL A   1      41.123  20.910  26.578  1.00  0.00     0.039 A 
ATOM     31  C   UNL A   1      41.531  21.887  25.661  1.00  0.00     0.014 A 
ATOM     32  C   UNL A   1      41.224  21.180  27.947  1.00  0.00     0.014 A 
ATOM     33  C   UNL A   1      41.992  23.131  26.104  1.00  0.00     0.010 A 
ATOM     34  C   UNL A   1      41.636  22.446  28.391  1.00  0.00     0.010 A 
ATOM     35  C   UNL A   1      42.032  23.433  27.474  1.00  0.00    -0.014 A 
BRANCH  35  36
ATOM     36  C   UNL A   1      42.494  24.774  27.936  1.00  0.00     0.031 A 
ATOM     37  C   UNL A   1      43.959  25.123  27.964  1.00  0.00     0.074 A 
ATOM     38  C   UNL A   1      41.592  25.692  28.340  1.00  0.00     0.049 A 
ATOM     39  N   UNL A   1      44.536  26.246  28.319  1.00  0.00    -0.248 NA
ATOM     40  C   UNL A   1      44.900  24.071  27.553  1.00  0.00     0.031 C 
ATOM     41  C   UNL A   1      40.146  25.487  28.396  1.00  0.00     0.029 A 
ATOM     42  N   UNL A   1      41.762  26.983  28.779  1.00  0.00    -0.354 N 
ATOM     43  C   UNL A   1      45.902  26.034  28.183  1.00  0.00     0.074 A 
ATOM     44  C   UNL A   1      46.070  24.662  27.751  1.00  0.00     0.031 C 
ATOM     45  C   UNL A   1      39.558  26.617  28.819  1.00  0.00     0.029 A 
ATOM     46  C   UNL A   1      40.585  27.620  29.089  1.00  0.00     0.049 A 
ATOM     47  H   UNL A   1      42.645  27.412  28.862  1.00  0.00     0.167 HD
ATOM     48  C   UNL A   1      46.923  26.903  28.377  1.00  0.00     0.037 A 
ATOM     49  C   UNL A   1      40.354  28.868  29.540  1.00  0.00     0.037 A 
ATOM     50  C   UNL A   1      46.767  28.278  28.780  1.00  0.00     0.049 A 
ATOM     51  C   UNL A   1      41.503  29.813  29.754  1.00  0.00     0.074 A 
ATOM     52  C   UNL A   1      47.746  29.245  28.942  1.00  0.00     0.029 A 
ATOM     53  N   UNL A   1      45.557  28.880  29.087  1.00  0.00    -0.354 N 
ATOM     54  N   UNL A   1      42.784  29.614  29.556  1.00  0.00    -0.248 NA
ATOM     55  C   UNL A   1      41.175  31.158  30.249  1.00  0.00     0.031 C 
ATOM     56  C   UNL A   1      47.132  30.422  29.384  1.00  0.00     0.029 A 
ATOM     57  C   UNL A   1      45.768  30.199  29.460  1.00  0.00     0.049 A 
ATOM     58  H   UNL A   1      44.680  28.437  29.048  1.00  0.00     0.167 HD
ATOM     59  C   UNL A   1      43.408  30.813  29.877  1.00  0.00     0.074 A 
ATOM     60  C   UNL A   1      42.367  31.738  30.271  1.00  0.00     0.031 C 
ATOM     61  C   UNL A   1      44.727  31.117  29.846  1.00  0.00     0.037 A 
BRANCH  48  62
ATOM     62  C   UNL A   1      48.317  26.394  28.152  1.00  0.00     0.057 A 
ATOM     63  C   UNL A   1      49.033  25.739  29.163  1.00  0.00     0.134 A 
ATOM     64  C   UNL A   1      48.931  26.516  26.899  1.00  0.00     0.134 A 
ATOM     65  F   UNL A   1      48.504  25.596  30.388  1.00  0.00    -0.206 F 
ATOM     66  C   UNL A   1      50.318  25.242  28.942  1.00  0.00     0.040 A 
ATOM     67  C   UNL A   1      50.207  26.003  26.660  1.00  0.00     0.040 A 
ATOM     68  F   UNL A   1      48.296  27.123  25.886  1.00  0.00    -0.206 F 
ATOM     69  C   UNL A   1      50.906  25.369  27.684  1.00  0.00     0.006 A 
ENDBRANCH  48  62
BRANCH  49  70
ATOM     70  C   UNL A   1      38.962  29.314  29.798  1.00  0.00     0.057 A 
ATOM     71  C   UNL A   1      38.404  29.232  31.078  1.00  0.00     0.134 A 
ATOM     72  C   UNL A   1      38.156  29.819  28.771  1.00  0.00     0.134 A 
ATOM     73  F   UNL A   1      39.121  28.734  32.097  1.00  0.00    -0.206 F 
ATOM     74  C   UNL A   1      37.088  29.623  31.329  1.00  0.00     0.040 A 
ATOM     75  C   UNL A   1      36.846  30.235  29.011  1.00  0.00     0.040 A 
ATOM     76  F   UNL A   1      38.635  29.924  27.524  1.00  0.00    -0.206 F 
ATOM     77  C   UNL A   1      36.306  30.131  30.292  1.00  0.00     0.006 A 
ENDBRANCH  49  70
BRANCH  61  78
ATOM     78  C   UNL A   1      45.121  32.516  30.222  1.00  0.00     0.057 A 
ATOM     79  C   UNL A   1      45.495  32.851  31.528  1.00  0.00     0.134 A 
ATOM     80  C   UNL A   1      45.158  33.530  29.257  1.00  0.00     0.134 A 
ATOM     81  F   UNL A   1      45.468  31.928  32.501  1.00  0.00    -0.206 F 
ATOM     82  C   UNL A   1      45.874  34.152  31.867  1.00  0.00     0.040 A 
ATOM     83  C   UNL A   1      45.555  34.829  29.578  1.00  0.00     0.040 A 
ATOM     84  F   UNL A   1      44.818  33.274  27.984  1.00  0.00    -0.206 F 
ATOM     85  C   UNL A   1      45.909  35.144  30.889  1.00  0.00     0.006 A 
ENDBRANCH  61  78
ENDBRANCH  35  36
ENDBRANCH  27  30
ENDBRANCH  25  26
ENDBRANCH  24  25
ENDBRANCH   1  24
TORSDOF 14
ENDMDL
