MODEL 1
REMARK VINA RESULT:     -12.4      0.000      0.000
REMARK SMILES CC[C@H](C)[C@H](NC(=O)[C@H](C(C)C)n1c(=O)[nH]c2ccccc2c1=O)C(=O)NCCCNC(=O)c1ccc(-c2c3nc(c(-c4c(F)cccc4F)c4ccc([nH]4)c(-c4c(F)cccc4F)c4nc(c(-c5c(F)cccc5F)c5ccc2[nH]5)C=C4)C=C3)cc1
REMARK SMILES IDX 28 1 27 2 25 3 26 4 5 6 3 7 4 8 2 9 1 10 6 11 7 12 8 14 9 15
REMARK SMILES IDX 13 16 14 17 23 18 15 19 16 20 22 21 24 22 17 23 21 25 18 26
REMARK SMILES IDX 20 27 19 28 10 29 11 30 12 31 29 32 30 33 31 34 32 35 33 37
REMARK SMILES IDX 34 38 35 39 87 40 36 41 86 42 37 43 38 44 39 45 80 46 40 47
REMARK SMILES IDX 85 48 79 49 81 50 41 51 84 52 78 53 77 54 42 56 68 57 51 58
REMARK SMILES IDX 67 59 52 60 55 61 66 62 82 63 53 64 54 65 65 67 83 68 56 69
REMARK SMILES IDX 43 70 44 71 49 72 45 73 46 74 48 75 50 76 47 77 69 78 70 79
REMARK SMILES IDX 75 80 71 81 72 82 74 83 76 84 73 85 57 86 58 87 63 88 59 89
REMARK SMILES IDX 60 90 62 91 64 92 61 93
REMARK H PARENT 27 5 6 13 16 24 31 36 81 55 55 66
REMARK Flexibility Score: inf
ROOT
ATOM      1  C   UNL A   1      32.661  28.309  24.972  1.00  0.00     0.117 C 
ENDROOT
BRANCH   1   2
ATOM      2  N   UNL A   1      31.657  27.695  25.820  1.00  0.00    -0.354 N 
ATOM      3  C   UNL A   1      30.956  26.535  25.716  1.00  0.00     0.242 C 
ATOM      4  O   UNL A   1      30.297  26.208  26.710  1.00  0.00    -0.273 OA
ATOM      5  H   UNL A   1      31.442  28.219  26.625  1.00  0.00     0.163 HD
BRANCH   3   6
ATOM      6  C   UNL A   1      31.068  25.559  24.514  1.00  0.00     0.174 C 
BRANCH   6   7
ATOM      7  C   UNL A   1      30.312  26.132  23.263  1.00  0.00     0.018 C 
ATOM      8  C   UNL A   1      29.063  26.897  23.711  1.00  0.00     0.010 C 
BRANCH   7   9
ATOM      9  C   UNL A   1      31.185  26.940  22.264  1.00  0.00     0.002 C 
ATOM     10  C   UNL A   1      32.503  26.319  21.823  1.00  0.00     0.004 C 
ENDBRANCH   7   9
ENDBRANCH   6   7
BRANCH   6  11
ATOM     11  N   UNL A   1      30.695  24.188  24.861  1.00  0.00    -0.342 N 
ATOM     12  C   UNL A   1      31.369  23.204  25.513  1.00  0.00     0.244 C 
ATOM     13  H   UNL A   1      29.790  23.931  24.570  1.00  0.00     0.164 HD
ATOM     14  O   UNL A   1      30.619  22.392  26.063  1.00  0.00    -0.273 OA
BRANCH  12  15
ATOM     15  C   UNL A   1      32.922  23.083  25.513  1.00  0.00     0.187 C 
BRANCH  15  16
ATOM     16  N   UNL A   1      33.318  21.709  25.137  1.00  0.00    -0.247 N 
ATOM     17  C   UNL A   1      34.411  21.165  25.794  1.00  0.00     0.329 A 
ATOM     18  C   UNL A   1      32.742  21.103  24.017  1.00  0.00     0.264 A 
ATOM     19  O   UNL A   1      35.078  21.761  26.640  1.00  0.00    -0.248 OA
ATOM     20  N   UNL A   1      34.783  19.897  25.446  1.00  0.00    -0.307 N 
ATOM     21  C   UNL A   1      33.050  19.679  23.804  1.00  0.00     0.064 A 
ATOM     22  O   UNL A   1      32.060  21.680  23.175  1.00  0.00    -0.268 OA
ATOM     23  C   UNL A   1      34.108  19.123  24.510  1.00  0.00     0.055 A 
ATOM     24  H   UNL A   1      35.574  19.510  25.885  1.00  0.00     0.171 HD
ATOM     25  C   UNL A   1      32.326  18.907  22.892  1.00  0.00     0.016 A 
ATOM     26  C   UNL A   1      34.489  17.801  24.281  1.00  0.00     0.027 A 
ATOM     27  C   UNL A   1      32.683  17.574  22.682  1.00  0.00     0.001 A 
ATOM     28  C   UNL A   1      33.771  17.027  23.367  1.00  0.00     0.002 A 
ENDBRANCH  15  16
BRANCH  15  29
ATOM     29  C   UNL A   1      33.599  24.217  24.675  1.00  0.00     0.016 C 
ATOM     30  C   UNL A   1      34.414  25.139  25.593  1.00  0.00     0.010 C 
ATOM     31  C   UNL A   1      34.549  23.748  23.560  1.00  0.00     0.010 C 
ENDBRANCH  15  29
ENDBRANCH  12  15
ENDBRANCH   6  11
ENDBRANCH   3   6
ENDBRANCH   1   2
BRANCH   1  32
ATOM     32  C   UNL A   1      33.911  28.713  25.736  1.00  0.00     0.042 C 
BRANCH  32  33
ATOM     33  C   UNL A   1      33.679  28.742  27.239  1.00  0.00     0.118 C 
BRANCH  33  34
ATOM     34  N   UNL A   1      33.766  30.091  27.798  1.00  0.00    -0.352 N 
ATOM     35  C   UNL A   1      34.784  30.739  28.463  1.00  0.00     0.251 C 
ATOM     36  H   UNL A   1      32.951  30.631  27.678  1.00  0.00     0.163 HD
ATOM     37  O   UNL A   1      34.560  31.800  29.028  1.00  0.00    -0.269 OA
BRANCH  35  38
ATOM     38  C   UNL A   1      36.136  30.142  28.529  1.00  0.00     0.039 A 
ATOM     39  C   UNL A   1      36.569  29.489  29.678  1.00  0.00     0.014 A 
ATOM     40  C   UNL A   1      36.985  30.226  27.420  1.00  0.00     0.014 A 
ATOM     41  C   UNL A   1      37.907  29.148  29.815  1.00  0.00     0.010 A 
ATOM     42  C   UNL A   1      38.301  29.757  27.512  1.00  0.00     0.010 A 
ATOM     43  C   UNL A   1      38.792  29.273  28.734  1.00  0.00    -0.014 A 
BRANCH  43  44
ATOM     44  C   UNL A   1      40.218  28.895  28.921  1.00  0.00     0.031 A 
ATOM     45  C   UNL A   1      41.175  29.816  29.629  1.00  0.00     0.074 A 
ATOM     46  C   UNL A   1      40.635  27.680  28.513  1.00  0.00     0.049 A 
ATOM     47  N   UNL A   1      42.451  29.649  29.875  1.00  0.00    -0.248 NA
ATOM     48  C   UNL A   1      40.636  31.094  30.115  1.00  0.00     0.031 C 
ATOM     49  C   UNL A   1      39.802  26.690  27.825  1.00  0.00     0.029 A 
ATOM     50  N   UNL A   1      41.849  27.057  28.644  1.00  0.00    -0.354 N 
ATOM     51  C   UNL A   1      42.871  30.809  30.514  1.00  0.00     0.074 A 
ATOM     52  C   UNL A   1      41.721  31.684  30.594  1.00  0.00     0.031 C 
ATOM     53  C   UNL A   1      40.507  25.564  27.654  1.00  0.00     0.029 A 
ATOM     54  C   UNL A   1      41.864  25.780  28.140  1.00  0.00     0.049 A 
ATOM     55  H   UNL A   1      42.633  27.484  29.058  1.00  0.00     0.167 HD
ATOM     56  C   UNL A   1      44.100  31.115  30.998  1.00  0.00     0.037 A 
ATOM     57  C   UNL A   1      42.866  24.886  28.050  1.00  0.00     0.037 A 
ATOM     58  C   UNL A   1      45.236  30.230  30.946  1.00  0.00     0.049 A 
ATOM     59  C   UNL A   1      44.225  25.263  28.553  1.00  0.00     0.074 A 
ATOM     60  C   UNL A   1      46.513  30.430  31.441  1.00  0.00     0.029 A 
ATOM     61  N   UNL A   1      45.228  28.973  30.359  1.00  0.00    -0.354 N 
ATOM     62  N   UNL A   1      44.607  26.367  29.148  1.00  0.00    -0.248 NA
ATOM     63  C   UNL A   1      45.297  24.280  28.353  1.00  0.00     0.031 C 
ATOM     64  C   UNL A   1      47.288  29.310  31.117  1.00  0.00     0.029 A 
ATOM     65  C   UNL A   1      46.486  28.396  30.455  1.00  0.00     0.049 A 
ATOM     66  H   UNL A   1      44.445  28.552  29.936  1.00  0.00     0.167 HD
ATOM     67  C   UNL A   1      45.967  26.218  29.384  1.00  0.00     0.074 A 
ATOM     68  C   UNL A   1      46.332  24.901  28.901  1.00  0.00     0.031 C 
ATOM     69  C   UNL A   1      46.836  27.097  29.940  1.00  0.00     0.037 A 
BRANCH  56  70
ATOM     70  C   UNL A   1      44.280  32.479  31.600  1.00  0.00     0.057 A 
ATOM     71  C   UNL A   1      44.043  32.690  32.966  1.00  0.00     0.134 A 
ATOM     72  C   UNL A   1      44.687  33.583  30.839  1.00  0.00     0.134 A 
ATOM     73  F   UNL A   1      43.642  31.680  33.752  1.00  0.00    -0.206 F 
ATOM     74  C   UNL A   1      44.214  33.946  33.551  1.00  0.00     0.040 A 
ATOM     75  C   UNL A   1      44.888  34.837  31.420  1.00  0.00     0.040 A 
ATOM     76  F   UNL A   1      44.942  33.446  29.529  1.00  0.00    -0.206 F 
ATOM     77  C   UNL A   1      44.648  35.021  32.780  1.00  0.00     0.006 A 
ENDBRANCH  56  70
BRANCH  57  78
ATOM     78  C   UNL A   1      42.614  23.568  27.419  1.00  0.00     0.057 A 
ATOM     79  C   UNL A   1      42.721  23.396  26.033  1.00  0.00     0.134 A 
ATOM     80  C   UNL A   1      42.230  22.461  28.181  1.00  0.00     0.134 A 
ATOM     81  F   UNL A   1      43.080  24.423  25.249  1.00  0.00    -0.206 F 
ATOM     82  C   UNL A   1      42.429  22.177  25.423  1.00  0.00     0.040 A 
ATOM     83  C   UNL A   1      41.959  21.227  27.587  1.00  0.00     0.040 A 
ATOM     84  F   UNL A   1      42.129  22.560  29.514  1.00  0.00    -0.206 F 
ATOM     85  C   UNL A   1      42.049  21.085  26.203  1.00  0.00     0.006 A 
ENDBRANCH  57  78
BRANCH  69  86
ATOM     86  C   UNL A   1      48.264  26.655  30.034  1.00  0.00     0.057 A 
ATOM     87  C   UNL A   1      49.190  26.993  29.040  1.00  0.00     0.134 A 
ATOM     88  C   UNL A   1      48.724  25.896  31.118  1.00  0.00     0.134 A 
ATOM     89  F   UNL A   1      48.812  27.716  27.975  1.00  0.00    -0.206 F 
ATOM     90  C   UNL A   1      50.525  26.594  29.122  1.00  0.00     0.040 A 
ATOM     91  C   UNL A   1      50.062  25.511  31.223  1.00  0.00     0.040 A 
ATOM     92  F   UNL A   1      47.891  25.557  32.113  1.00  0.00    -0.206 F 
ATOM     93  C   UNL A   1      50.965  25.857  30.220  1.00  0.00     0.006 A 
ENDBRANCH  69  86
ENDBRANCH  43  44
ENDBRANCH  35  38
ENDBRANCH  33  34
ENDBRANCH  32  33
ENDBRANCH   1  32
TORSDOF 16
ENDMDL
MODEL 2
REMARK VINA RESULT:     -12.2      2.985      4.067
REMARK SMILES CC[C@H](C)[C@H](NC(=O)[C@H](C(C)C)n1c(=O)[nH]c2ccccc2c1=O)C(=O)NCCCNC(=O)c1ccc(-c2c3nc(c(-c4c(F)cccc4F)c4ccc([nH]4)c(-c4c(F)cccc4F)c4nc(c(-c5c(F)cccc5F)c5ccc2[nH]5)C=C4)C=C3)cc1
REMARK SMILES IDX 28 1 27 2 25 3 26 4 5 6 3 7 4 8 2 9 1 10 6 11 7 12 8 14 9 15
REMARK SMILES IDX 13 16 14 17 23 18 15 19 16 20 22 21 24 22 17 23 21 25 18 26
REMARK SMILES IDX 20 27 19 28 10 29 11 30 12 31 29 32 30 33 31 34 32 35 33 37
REMARK SMILES IDX 34 38 35 39 87 40 36 41 86 42 37 43 38 44 39 45 80 46 40 47
REMARK SMILES IDX 85 48 79 49 81 50 41 51 84 52 78 53 77 54 42 56 68 57 51 58
REMARK SMILES IDX 67 59 52 60 55 61 66 62 82 63 53 64 54 65 65 67 83 68 56 69
REMARK SMILES IDX 43 70 44 71 49 72 45 73 46 74 48 75 50 76 47 77 69 78 70 79
REMARK SMILES IDX 75 80 71 81 72 82 74 83 76 84 73 85 57 86 58 87 63 88 59 89
REMARK SMILES IDX 60 90 62 91 64 92 61 93
REMARK H PARENT 27 5 6 13 16 24 31 36 81 55 55 66
REMARK Flexibility Score: inf
ROOT
ATOM      1  C   UNL A   1      32.532  28.208  25.029  1.00  0.00     0.117 C 
ENDROOT
BRANCH   1   2
ATOM      2  N   UNL A   1      31.551  27.555  25.875  1.00  0.00    -0.354 N 
ATOM      3  C   UNL A   1      30.877  26.380  25.757  1.00  0.00     0.242 C 
ATOM      4  O   UNL A   1      30.235  26.020  26.751  1.00  0.00    -0.273 OA
ATOM      5  H   UNL A   1      31.330  28.060  26.691  1.00  0.00     0.163 HD
BRANCH   3   6
ATOM      6  C   UNL A   1      31.002  25.428  24.537  1.00  0.00     0.174 C 
BRANCH   6   7
ATOM      7  C   UNL A   1      30.209  25.997  23.308  1.00  0.00     0.018 C 
ATOM      8  C   UNL A   1      28.951  26.725  23.787  1.00  0.00     0.010 C 
BRANCH   7   9
ATOM      9  C   UNL A   1      31.043  26.838  22.303  1.00  0.00     0.002 C 
ATOM     10  C   UNL A   1      32.269  26.181  21.686  1.00  0.00     0.004 C 
ENDBRANCH   7   9
ENDBRANCH   6   7
BRANCH   6  11
ATOM     11  N   UNL A   1      30.679  24.041  24.867  1.00  0.00    -0.342 N 
ATOM     12  C   UNL A   1      31.397  23.066  25.485  1.00  0.00     0.244 C 
ATOM     13  H   UNL A   1      29.776  23.761  24.590  1.00  0.00     0.164 HD
ATOM     14  O   UNL A   1      30.684  22.222  26.036  1.00  0.00    -0.273 OA
BRANCH  12  15
ATOM     15  C   UNL A   1      32.952  22.993  25.449  1.00  0.00     0.187 C 
BRANCH  15  16
ATOM     16  N   UNL A   1      33.382  21.623  25.097  1.00  0.00    -0.247 N 
ATOM     17  C   UNL A   1      34.522  21.138  25.720  1.00  0.00     0.329 A 
ATOM     18  C   UNL A   1      32.780  20.963  24.022  1.00  0.00     0.264 A 
ATOM     19  O   UNL A   1      35.203  21.783  26.518  1.00  0.00    -0.248 OA
ATOM     20  N   UNL A   1      34.925  19.875  25.393  1.00  0.00    -0.307 N 
ATOM     21  C   UNL A   1      33.131  19.545  23.837  1.00  0.00     0.064 A 
ATOM     22  O   UNL A   1      32.041  21.489  23.194  1.00  0.00    -0.268 OA
ATOM     23  C   UNL A   1      34.239  19.048  24.511  1.00  0.00     0.055 A 
ATOM     24  H   UNL A   1      35.748  19.529  25.807  1.00  0.00     0.171 HD
ATOM     25  C   UNL A   1      32.397  18.720  22.981  1.00  0.00     0.016 A 
ATOM     26  C   UNL A   1      34.658  17.734  24.304  1.00  0.00     0.027 A 
ATOM     27  C   UNL A   1      32.793  17.395  22.794  1.00  0.00     0.001 A 
ATOM     28  C   UNL A   1      33.929  16.908  23.445  1.00  0.00     0.002 A 
ENDBRANCH  15  16
BRANCH  15  29
ATOM     29  C   UNL A   1      33.573  24.126  24.569  1.00  0.00     0.016 C 
ATOM     30  C   UNL A   1      34.448  25.048  25.431  1.00  0.00     0.010 C 
ATOM     31  C   UNL A   1      34.446  23.657  23.393  1.00  0.00     0.010 C 
ENDBRANCH  15  29
ENDBRANCH  12  15
ENDBRANCH   6  11
ENDBRANCH   3   6
ENDBRANCH   1   2
BRANCH   1  32
ATOM     32  C   UNL A   1      32.569  29.714  25.223  1.00  0.00     0.042 C 
BRANCH  32  33
ATOM     33  C   UNL A   1      32.079  30.127  26.604  1.00  0.00     0.118 C 
BRANCH  33  34
ATOM     34  N   UNL A   1      32.021  31.579  26.771  1.00  0.00    -0.352 N 
ATOM     35  C   UNL A   1      32.874  32.459  27.403  1.00  0.00     0.251 C 
ATOM     36  H   UNL A   1      31.233  32.002  26.360  1.00  0.00     0.163 HD
ATOM     37  O   UNL A   1      32.516  33.612  27.600  1.00  0.00    -0.269 OA
BRANCH  35  38
ATOM     38  C   UNL A   1      34.201  32.008  27.877  1.00  0.00     0.039 A 
ATOM     39  C   UNL A   1      34.436  30.667  28.159  1.00  0.00     0.014 A 
ATOM     40  C   UNL A   1      35.233  32.940  28.034  1.00  0.00     0.014 A 
ATOM     41  C   UNL A   1      35.596  30.296  28.824  1.00  0.00     0.010 A 
ATOM     42  C   UNL A   1      36.457  32.538  28.582  1.00  0.00     0.010 A 
ATOM     43  C   UNL A   1      36.625  31.223  29.042  1.00  0.00    -0.014 A 
BRANCH  43  44
ATOM     44  C   UNL A   1      37.853  30.785  29.758  1.00  0.00     0.031 A 
ATOM     45  C   UNL A   1      38.076  31.146  31.202  1.00  0.00     0.074 A 
ATOM     46  C   UNL A   1      38.737  29.994  29.120  1.00  0.00     0.049 A 
ATOM     47  N   UNL A   1      39.090  30.853  31.979  1.00  0.00    -0.248 NA
ATOM     48  C   UNL A   1      37.034  31.948  31.858  1.00  0.00     0.031 C 
ATOM     49  C   UNL A   1      38.630  29.562  27.724  1.00  0.00     0.029 A 
ATOM     50  N   UNL A   1      39.882  29.386  29.567  1.00  0.00    -0.354 N 
ATOM     51  C   UNL A   1      38.822  31.459  33.200  1.00  0.00     0.074 A 
ATOM     52  C   UNL A   1      37.564  32.160  33.054  1.00  0.00     0.031 C 
ATOM     53  C   UNL A   1      39.625  28.709  27.449  1.00  0.00     0.029 A 
ATOM     54  C   UNL A   1      40.489  28.601  28.618  1.00  0.00     0.049 A 
ATOM     55  H   UNL A   1      40.234  29.501  30.479  1.00  0.00     0.167 HD
ATOM     56  C   UNL A   1      39.553  31.429  34.341  1.00  0.00     0.037 A 
ATOM     57  C   UNL A   1      41.632  27.893  28.668  1.00  0.00     0.037 A 
ATOM     58  C   UNL A   1      40.789  30.705  34.494  1.00  0.00     0.049 A 
ATOM     59  C   UNL A   1      42.444  27.908  29.927  1.00  0.00     0.074 A 
ATOM     60  C   UNL A   1      41.586  30.579  35.619  1.00  0.00     0.029 A 
ATOM     61  N   UNL A   1      41.409  29.983  33.484  1.00  0.00    -0.354 N 
ATOM     62  N   UNL A   1      42.180  28.493  31.070  1.00  0.00    -0.248 NA
ATOM     63  C   UNL A   1      43.722  27.186  29.895  1.00  0.00     0.031 C 
ATOM     64  C   UNL A   1      42.709  29.815  35.277  1.00  0.00     0.029 A 
ATOM     65  C   UNL A   1      42.593  29.432  33.951  1.00  0.00     0.049 A 
ATOM     66  H   UNL A   1      41.060  29.878  32.569  1.00  0.00     0.167 HD
ATOM     67  C   UNL A   1      43.264  28.219  31.893  1.00  0.00     0.074 A 
ATOM     68  C   UNL A   1      44.169  27.385  31.127  1.00  0.00     0.031 C 
ATOM     69  C   UNL A   1      43.494  28.631  33.163  1.00  0.00     0.037 A 
BRANCH  56  70
ATOM     70  C   UNL A   1      39.041  32.228  35.505  1.00  0.00     0.057 A 
ATOM     71  C   UNL A   1      38.231  31.627  36.479  1.00  0.00     0.134 A 
ATOM     72  C   UNL A   1      39.346  33.586  35.668  1.00  0.00     0.134 A 
ATOM     73  F   UNL A   1      37.893  30.333  36.380  1.00  0.00    -0.206 F 
ATOM     74  C   UNL A   1      37.752  32.347  37.576  1.00  0.00     0.040 A 
ATOM     75  C   UNL A   1      38.894  34.308  36.776  1.00  0.00     0.040 A 
ATOM     76  F   UNL A   1      40.125  34.218  34.778  1.00  0.00    -0.206 F 
ATOM     77  C   UNL A   1      38.092  33.688  37.732  1.00  0.00     0.006 A 
ENDBRANCH  56  70
BRANCH  57  78
ATOM     78  C   UNL A   1      42.083  27.148  27.468  1.00  0.00     0.057 A 
ATOM     79  C   UNL A   1      42.741  27.799  26.416  1.00  0.00     0.134 A 
ATOM     80  C   UNL A   1      41.839  25.779  27.329  1.00  0.00     0.134 A 
ATOM     81  F   UNL A   1      42.999  29.113  26.489  1.00  0.00    -0.206 F 
ATOM     82  C   UNL A   1      43.117  27.120  25.258  1.00  0.00     0.040 A 
ATOM     83  C   UNL A   1      42.232  25.081  26.185  1.00  0.00     0.040 A 
ATOM     84  F   UNL A   1      41.229  25.098  28.310  1.00  0.00    -0.206 F 
ATOM     85  C   UNL A   1      42.864  25.755  25.142  1.00  0.00     0.006 A 
ENDBRANCH  57  78
BRANCH  69  86
ATOM     86  C   UNL A   1      44.784  28.191  33.785  1.00  0.00     0.057 A 
ATOM     87  C   UNL A   1      44.869  26.986  34.492  1.00  0.00     0.134 A 
ATOM     88  C   UNL A   1      45.949  28.962  33.675  1.00  0.00     0.134 A 
ATOM     89  F   UNL A   1      43.788  26.203  34.634  1.00  0.00    -0.206 F 
ATOM     90  C   UNL A   1      46.067  26.561  35.067  1.00  0.00     0.040 A 
ATOM     91  C   UNL A   1      47.159  28.537  34.226  1.00  0.00     0.040 A 
ATOM     92  F   UNL A   1      45.938  30.117  32.993  1.00  0.00    -0.206 F 
ATOM     93  C   UNL A   1      47.218  27.334  34.928  1.00  0.00     0.006 A 
ENDBRANCH  69  86
ENDBRANCH  43  44
ENDBRANCH  35  38
ENDBRANCH  33  34
ENDBRANCH  32  33
ENDBRANCH   1  32
TORSDOF 16
ENDMDL
MODEL 3
REMARK VINA RESULT:     -12.2      0.471      6.088
REMARK SMILES CC[C@H](C)[C@H](NC(=O)[C@H](C(C)C)n1c(=O)[nH]c2ccccc2c1=O)C(=O)NCCCNC(=O)c1ccc(-c2c3nc(c(-c4c(F)cccc4F)c4ccc([nH]4)c(-c4c(F)cccc4F)c4nc(c(-c5c(F)cccc5F)c5ccc2[nH]5)C=C4)C=C3)cc1
REMARK SMILES IDX 28 1 27 2 25 3 26 4 5 6 3 7 4 8 2 9 1 10 6 11 7 12 8 14 9 15
REMARK SMILES IDX 13 16 14 17 23 18 15 19 16 20 22 21 24 22 17 23 21 25 18 26
REMARK SMILES IDX 20 27 19 28 10 29 11 30 12 31 29 32 30 33 31 34 32 35 33 37
REMARK SMILES IDX 34 38 35 39 87 40 36 41 86 42 37 43 38 44 39 45 80 46 40 47
REMARK SMILES IDX 85 48 79 49 81 50 41 51 84 52 78 53 77 54 42 56 68 57 51 58
REMARK SMILES IDX 67 59 52 60 55 61 66 62 82 63 53 64 54 65 65 67 83 68 56 69
REMARK SMILES IDX 43 70 44 71 49 72 45 73 46 74 48 75 50 76 47 77 69 78 70 79
REMARK SMILES IDX 75 80 71 81 72 82 74 83 76 84 73 85 57 86 58 87 63 88 59 89
REMARK SMILES IDX 60 90 62 91 64 92 61 93
REMARK H PARENT 27 5 6 13 16 24 31 36 81 55 55 66
REMARK Flexibility Score: inf
ROOT
ATOM      1  C   UNL A   1      32.817  28.383  24.990  1.00  0.00     0.117 C 
ENDROOT
BRANCH   1   2
ATOM      2  N   UNL A   1      31.797  27.834  25.863  1.00  0.00    -0.354 N 
ATOM      3  C   UNL A   1      31.064  26.690  25.810  1.00  0.00     0.242 C 
ATOM      4  O   UNL A   1      30.398  26.424  26.817  1.00  0.00    -0.273 OA
ATOM      5  H   UNL A   1      31.597  28.398  26.646  1.00  0.00     0.163 HD
BRANCH   3   6
ATOM      6  C   UNL A   1      31.149  25.660  24.651  1.00  0.00     0.174 C 
BRANCH   6   7
ATOM      7  C   UNL A   1      30.371  26.181  23.391  1.00  0.00     0.018 C 
ATOM      8  C   UNL A   1      29.198  27.062  23.826  1.00  0.00     0.010 C 
BRANCH   7   9
ATOM      9  C   UNL A   1      31.244  26.844  22.290  1.00  0.00     0.002 C 
ATOM     10  C   UNL A   1      32.226  25.954  21.543  1.00  0.00     0.004 C 
ENDBRANCH   7   9
ENDBRANCH   6   7
BRANCH   6  11
ATOM     11  N   UNL A   1      30.777  24.309  25.067  1.00  0.00    -0.342 N 
ATOM     12  C   UNL A   1      31.478  23.330  25.698  1.00  0.00     0.244 C 
ATOM     13  H   UNL A   1      29.849  24.062  24.849  1.00  0.00     0.164 HD
ATOM     14  O   UNL A   1      30.755  22.551  26.326  1.00  0.00    -0.273 OA
BRANCH  12  15
ATOM     15  C   UNL A   1      33.025  23.178  25.590  1.00  0.00     0.187 C 
BRANCH  15  16
ATOM     16  N   UNL A   1      33.365  21.799  25.181  1.00  0.00    -0.247 N 
ATOM     17  C   UNL A   1      34.490  21.228  25.757  1.00  0.00     0.329 A 
ATOM     18  C   UNL A   1      32.700  21.212  24.100  1.00  0.00     0.264 A 
ATOM     19  O   UNL A   1      35.226  21.804  26.558  1.00  0.00    -0.248 OA
ATOM     20  N   UNL A   1      34.810  19.955  25.377  1.00  0.00    -0.307 N 
ATOM     21  C   UNL A   1      32.963  19.784  23.859  1.00  0.00     0.064 A 
ATOM     22  O   UNL A   1      31.973  21.809  23.310  1.00  0.00    -0.268 OA
ATOM     23  C   UNL A   1      34.056  19.201  24.486  1.00  0.00     0.055 A 
ATOM     24  H   UNL A   1      35.621  19.549  25.758  1.00  0.00     0.171 HD
ATOM     25  C   UNL A   1      32.161  19.033  22.995  1.00  0.00     0.016 A 
ATOM     26  C   UNL A   1      34.392  17.874  24.224  1.00  0.00     0.027 A 
ATOM     27  C   UNL A   1      32.475  17.695  22.752  1.00  0.00     0.001 A 
ATOM     28  C   UNL A   1      33.596  17.121  23.357  1.00  0.00     0.002 A 
ENDBRANCH  15  16
BRANCH  15  29
ATOM     29  C   UNL A   1      33.666  24.304  24.715  1.00  0.00     0.016 C 
ATOM     30  C   UNL A   1      34.525  25.230  25.588  1.00  0.00     0.010 C 
ATOM     31  C   UNL A   1      34.562  23.824  23.560  1.00  0.00     0.010 C 
ENDBRANCH  15  29
ENDBRANCH  12  15
ENDBRANCH   6  11
ENDBRANCH   3   6
ENDBRANCH   1   2
BRANCH   1  32
ATOM     32  C   UNL A   1      34.037  28.879  25.747  1.00  0.00     0.042 C 
BRANCH  32  33
ATOM     33  C   UNL A   1      33.861  28.768  27.254  1.00  0.00     0.118 C 
BRANCH  33  34
ATOM     34  N   UNL A   1      33.951  30.063  27.929  1.00  0.00    -0.352 N 
ATOM     35  C   UNL A   1      34.972  30.647  28.648  1.00  0.00     0.251 C 
ATOM     36  H   UNL A   1      33.138  30.614  27.858  1.00  0.00     0.163 HD
ATOM     37  O   UNL A   1      34.751  31.655  29.305  1.00  0.00    -0.269 OA
BRANCH  35  38
ATOM     38  C   UNL A   1      36.323  30.043  28.660  1.00  0.00     0.039 A 
ATOM     39  C   UNL A   1      36.773  29.332  29.768  1.00  0.00     0.014 A 
ATOM     40  C   UNL A   1      37.152  30.180  27.542  1.00  0.00     0.014 A 
ATOM     41  C   UNL A   1      38.111  28.980  29.863  1.00  0.00     0.010 A 
ATOM     42  C   UNL A   1      38.467  29.702  27.587  1.00  0.00     0.010 A 
ATOM     43  C   UNL A   1      38.978  29.155  28.774  1.00  0.00    -0.014 A 
BRANCH  43  44
ATOM     44  C   UNL A   1      40.405  28.764  28.917  1.00  0.00     0.031 A 
ATOM     45  C   UNL A   1      40.886  27.414  28.454  1.00  0.00     0.074 A 
ATOM     46  C   UNL A   1      41.287  29.660  29.400  1.00  0.00     0.049 A 
ATOM     47  N   UNL A   1      42.093  26.906  28.506  1.00  0.00    -0.248 NA
ATOM     48  C   UNL A   1      39.884  26.514  27.867  1.00  0.00     0.031 C 
ATOM     49  C   UNL A   1      40.950  31.006  29.871  1.00  0.00     0.029 A 
ATOM     50  N   UNL A   1      42.649  29.590  29.547  1.00  0.00    -0.354 N 
ATOM     51  C   UNL A   1      41.987  25.620  27.989  1.00  0.00     0.074 A 
ATOM     52  C   UNL A   1      40.594  25.415  27.654  1.00  0.00     0.031 C 
ATOM     53  C   UNL A   1      42.076  31.656  30.190  1.00  0.00     0.029 A 
ATOM     54  C   UNL A   1      43.206  30.748  30.031  1.00  0.00     0.049 A 
ATOM     55  H   UNL A   1      43.175  28.788  29.327  1.00  0.00     0.167 HD
ATOM     56  C   UNL A   1      42.963  24.698  27.803  1.00  0.00     0.037 A 
ATOM     57  C   UNL A   1      44.481  31.042  30.342  1.00  0.00     0.037 A 
ATOM     58  C   UNL A   1      44.354  24.915  28.108  1.00  0.00     0.049 A 
ATOM     59  C   UNL A   1      45.535  29.992  30.166  1.00  0.00     0.074 A 
ATOM     60  C   UNL A   1      45.425  24.059  27.920  1.00  0.00     0.029 A 
ATOM     61  N   UNL A   1      44.865  26.077  28.668  1.00  0.00    -0.354 N 
ATOM     62  N   UNL A   1      45.417  28.779  29.684  1.00  0.00    -0.248 NA
ATOM     63  C   UNL A   1      46.893  30.343  30.601  1.00  0.00     0.031 C 
ATOM     64  C   UNL A   1      46.578  24.688  28.405  1.00  0.00     0.029 A 
ATOM     65  C   UNL A   1      46.233  25.950  28.858  1.00  0.00     0.049 A 
ATOM     66  H   UNL A   1      44.335  26.874  28.896  1.00  0.00     0.167 HD
ATOM     67  C   UNL A   1      46.683  28.216  29.765  1.00  0.00     0.074 A 
ATOM     68  C   UNL A   1      47.559  29.235  30.309  1.00  0.00     0.031 C 
ATOM     69  C   UNL A   1      47.081  26.964  29.430  1.00  0.00     0.037 A 
BRANCH  56  70
ATOM     70  C   UNL A   1      42.545  23.358  27.268  1.00  0.00     0.057 A 
ATOM     71  C   UNL A   1      42.643  23.077  25.898  1.00  0.00     0.134 A 
ATOM     72  C   UNL A   1      42.049  22.344  28.100  1.00  0.00     0.134 A 
ATOM     73  F   UNL A   1      43.102  24.004  25.044  1.00  0.00    -0.206 F 
ATOM     74  C   UNL A   1      42.273  21.835  25.379  1.00  0.00     0.040 A 
ATOM     75  C   UNL A   1      41.701  21.089  27.594  1.00  0.00     0.040 A 
ATOM     76  F   UNL A   1      41.941  22.545  29.421  1.00  0.00    -0.206 F 
ATOM     77  C   UNL A   1      41.810  20.834  26.229  1.00  0.00     0.006 A 
ENDBRANCH  56  70
BRANCH  57  78
ATOM     78  C   UNL A   1      44.809  32.381  30.888  1.00  0.00     0.057 A 
ATOM     79  C   UNL A   1      44.756  32.636  32.265  1.00  0.00     0.134 A 
ATOM     80  C   UNL A   1      45.150  33.445  30.047  1.00  0.00     0.134 A 
ATOM     81  F   UNL A   1      44.430  31.656  33.121  1.00  0.00    -0.206 F 
ATOM     82  C   UNL A   1      45.005  33.905  32.784  1.00  0.00     0.040 A 
ATOM     83  C   UNL A   1      45.426  34.715  30.555  1.00  0.00     0.040 A 
ATOM     84  F   UNL A   1      45.235  33.257  28.722  1.00  0.00    -0.206 F 
ATOM     85  C   UNL A   1      45.345  34.950  31.926  1.00  0.00     0.006 A 
ENDBRANCH  57  78
BRANCH  69  86
ATOM     86  C   UNL A   1      48.525  26.638  29.663  1.00  0.00     0.057 A 
ATOM     87  C   UNL A   1      48.951  26.084  30.875  1.00  0.00     0.134 A 
ATOM     88  C   UNL A   1      49.494  26.869  28.678  1.00  0.00     0.134 A 
ATOM     89  F   UNL A   1      48.072  25.839  31.859  1.00  0.00    -0.206 F 
ATOM     90  C   UNL A   1      50.292  25.768  31.099  1.00  0.00     0.040 A 
ATOM     91  C   UNL A   1      50.834  26.536  28.882  1.00  0.00     0.040 A 
ATOM     92  F   UNL A   1      49.145  27.381  27.487  1.00  0.00    -0.206 F 
ATOM     93  C   UNL A   1      51.236  25.987  30.098  1.00  0.00     0.006 A 
ENDBRANCH  69  86
ENDBRANCH  43  44
ENDBRANCH  35  38
ENDBRANCH  33  34
ENDBRANCH  32  33
ENDBRANCH   1  32
TORSDOF 16
ENDMDL
