MODEL 1
REMARK VINA RESULT:     -11.6      0.000      0.000
REMARK SMILES CCn1c(C(=O)NCCCNC(=O)c2ccc(-c3c4nc(c(-c5c(F)cccc5F)c5ccc([nH]5)c(-c5c(F)cccc5F)c5nc(c(-c6c(F)cccc6F)c6ccc3[nH]6)C=C5)C=C4)cc2)c(C[NH2+]Cc2ccccc2Cl)c2ccc(C)cc21
REMARK SMILES IDX 8 1 7 2 5 3 6 4 4 6 3 7 85 8 68 9 79 10 84 11 80 12 82 13
REMARK SMILES IDX 81 14 83 15 2 16 1 17 69 18 70 19 71 22 72 23 73 24 77 25
REMARK SMILES IDX 74 26 76 27 78 28 75 29 9 30 10 31 11 32 12 33 13 35 14 36
REMARK SMILES IDX 15 37 67 38 16 39 66 40 17 41 18 42 19 43 60 44 20 45 65 46
REMARK SMILES IDX 59 47 61 48 21 49 64 50 58 51 57 52 22 54 48 55 31 56 47 57
REMARK SMILES IDX 32 58 35 59 46 60 62 61 33 62 34 63 45 65 63 66 36 67 23 68
REMARK SMILES IDX 24 69 29 70 25 71 26 72 28 73 30 74 27 75 49 76 50 77 55 78
REMARK SMILES IDX 51 79 52 80 54 81 56 82 53 83 37 84 38 85 43 86 39 87 40 88
REMARK SMILES IDX 42 89 44 90 41 91
REMARK H PARENT 7 5 70 20 70 21 11 34 61 53 35 64
REMARK Flexibility Score: inf
ROOT
ATOM      1  C   UNL A   1      33.713  29.188  24.814  1.00  0.00     0.118 C 
ENDROOT
BRANCH   1   2
ATOM      2  N   UNL A   1      33.739  28.402  23.596  1.00  0.00    -0.351 N 
ATOM      3  C   UNL A   1      33.275  27.207  23.125  1.00  0.00     0.268 C 
ATOM      4  O   UNL A   1      33.286  27.237  21.879  1.00  0.00    -0.268 OA
ATOM      5  H   UNL A   1      34.247  28.873  22.897  1.00  0.00     0.163 HD
BRANCH   3   6
ATOM      6  C   UNL A   1      32.844  25.993  23.845  1.00  0.00     0.117 A 
ATOM      7  N   UNL A   1      31.636  25.992  24.590  1.00  0.00    -0.336 N 
ATOM      8  C   UNL A   1      31.384  24.767  25.187  1.00  0.00     0.049 A 
ATOM      9  C   UNL A   1      33.346  24.687  24.013  1.00  0.00     0.045 A 
ATOM     10  C   UNL A   1      32.436  23.938  24.847  1.00  0.00     0.009 A 
ATOM     11  C   UNL A   1      30.321  24.314  26.000  1.00  0.00     0.030 A 
ATOM     12  C   UNL A   1      32.432  22.608  25.333  1.00  0.00     0.011 A 
ATOM     13  C   UNL A   1      30.340  22.995  26.486  1.00  0.00    -0.049 A 
ATOM     14  C   UNL A   1      31.393  22.151  26.147  1.00  0.00     0.004 A 
ATOM     15  C   UNL A   1      29.228  22.504  27.369  1.00  0.00     0.044 C 
BRANCH   7  16
ATOM     16  C   UNL A   1      30.717  27.122  24.741  1.00  0.00     0.119 C 
ATOM     17  C   UNL A   1      29.556  27.085  23.759  1.00  0.00     0.027 C 
ENDBRANCH   7  16
BRANCH   9  18
ATOM     18  C   UNL A   1      34.575  24.024  23.490  1.00  0.00     0.300 C 
BRANCH  18  19
ATOM     19  N   UNL A   1      35.552  24.036  24.570  1.00  0.00    -0.339 N 
ATOM     20  H   UNL A   1      35.084  24.327  25.428  1.00  0.00     0.346 HD
ATOM     21  H   UNL A   1      36.295  24.681  24.302  1.00  0.00     0.346 HD
BRANCH  19  22
ATOM     22  C   UNL A   1      36.169  22.732  24.797  1.00  0.00     0.299 C 
BRANCH  22  23
ATOM     23  C   UNL A   1      37.484  22.714  25.534  1.00  0.00     0.025 A 
ATOM     24  C   UNL A   1      37.918  23.846  26.246  1.00  0.00     0.011 A 
ATOM     25  C   UNL A   1      38.270  21.548  25.593  1.00  0.00     0.049 A 
ATOM     26  C   UNL A   1      39.118  23.827  26.955  1.00  0.00     0.001 A 
ATOM     27  C   UNL A   1      39.443  21.518  26.344  1.00  0.00     0.021 A 
ATOM     28  Cl  UNL A   1      37.886  20.115  24.712  1.00  0.00    -0.084 Cl
ATOM     29  C   UNL A   1      39.874  22.663  27.008  1.00  0.00     0.002 A 
ENDBRANCH  22  23
ENDBRANCH  19  22
ENDBRANCH  18  19
ENDBRANCH   9  18
ENDBRANCH   3   6
ENDBRANCH   1   2
BRANCH   1  30
ATOM     30  C   UNL A   1      34.738  28.754  25.870  1.00  0.00     0.042 C 
BRANCH  30  31
ATOM     31  C   UNL A   1      34.235  28.695  27.317  1.00  0.00     0.118 C 
BRANCH  31  32
ATOM     32  N   UNL A   1      34.736  29.752  28.179  1.00  0.00    -0.352 N 
ATOM     33  C   UNL A   1      35.932  30.153  28.692  1.00  0.00     0.251 C 
ATOM     34  H   UNL A   1      34.007  30.344  28.475  1.00  0.00     0.163 HD
ATOM     35  O   UNL A   1      35.890  31.212  29.334  1.00  0.00    -0.269 OA
BRANCH  33  36
ATOM     36  C   UNL A   1      37.243  29.450  28.590  1.00  0.00     0.039 A 
ATOM     37  C   UNL A   1      37.798  28.592  29.538  1.00  0.00     0.014 A 
ATOM     38  C   UNL A   1      38.016  29.772  27.455  1.00  0.00     0.014 A 
ATOM     39  C   UNL A   1      39.126  28.151  29.394  1.00  0.00     0.010 A 
ATOM     40  C   UNL A   1      39.332  29.334  27.310  1.00  0.00     0.010 A 
ATOM     41  C   UNL A   1      39.921  28.573  28.314  1.00  0.00    -0.014 A 
BRANCH  41  42
ATOM     42  C   UNL A   1      41.347  28.202  28.270  1.00  0.00     0.031 A 
ATOM     43  C   UNL A   1      41.695  26.930  27.569  1.00  0.00     0.074 A 
ATOM     44  C   UNL A   1      42.371  28.981  28.691  1.00  0.00     0.049 A 
ATOM     45  N   UNL A   1      42.316  25.897  28.042  1.00  0.00    -0.248 NA
ATOM     46  C   UNL A   1      41.290  26.793  26.163  1.00  0.00     0.031 C 
ATOM     47  C   UNL A   1      42.328  30.378  29.131  1.00  0.00     0.029 A 
ATOM     48  N   UNL A   1      43.713  28.694  28.721  1.00  0.00    -0.354 N 
ATOM     49  C   UNL A   1      42.519  25.034  26.966  1.00  0.00     0.074 A 
ATOM     50  C   UNL A   1      41.794  25.596  25.854  1.00  0.00     0.031 C 
ATOM     51  C   UNL A   1      43.586  30.873  29.182  1.00  0.00     0.029 A 
ATOM     52  C   UNL A   1      44.531  29.802  28.913  1.00  0.00     0.049 A 
ATOM     53  H   UNL A   1      44.067  27.782  28.617  1.00  0.00     0.167 HD
ATOM     54  C   UNL A   1      43.400  23.994  27.016  1.00  0.00     0.037 A 
ATOM     55  C   UNL A   1      45.884  29.861  28.829  1.00  0.00     0.037 A 
ATOM     56  C   UNL A   1      43.760  23.650  28.366  1.00  0.00     0.049 A 
ATOM     57  C   UNL A   1      46.428  28.489  28.928  1.00  0.00     0.074 A 
ATOM     58  C   UNL A   1      43.063  23.270  29.497  1.00  0.00     0.029 A 
ATOM     59  N   UNL A   1      45.029  23.934  28.804  1.00  0.00    -0.354 N 
ATOM     60  N   UNL A   1      46.525  27.806  30.031  1.00  0.00    -0.248 NA
ATOM     61  C   UNL A   1      46.571  27.716  27.704  1.00  0.00     0.031 C 
ATOM     62  C   UNL A   1      43.785  23.840  30.586  1.00  0.00     0.029 A 
ATOM     63  C   UNL A   1      44.887  24.500  30.043  1.00  0.00     0.049 A 
ATOM     64  H   UNL A   1      45.871  23.763  28.324  1.00  0.00     0.167 HD
ATOM     65  C   UNL A   1      46.277  26.498  29.652  1.00  0.00     0.074 A 
ATOM     66  C   UNL A   1      46.452  26.484  28.203  1.00  0.00     0.031 C 
ATOM     67  C   UNL A   1      45.673  25.617  30.503  1.00  0.00     0.037 A 
BRANCH  54  68
ATOM     68  C   UNL A   1      44.165  23.458  25.832  1.00  0.00     0.057 A 
ATOM     69  C   UNL A   1      45.177  24.179  25.171  1.00  0.00     0.134 A 
ATOM     70  C   UNL A   1      44.107  22.085  25.523  1.00  0.00     0.134 A 
ATOM     71  F   UNL A   1      45.413  25.472  25.431  1.00  0.00    -0.206 F 
ATOM     72  C   UNL A   1      46.071  23.581  24.276  1.00  0.00     0.040 A 
ATOM     73  C   UNL A   1      45.028  21.466  24.669  1.00  0.00     0.040 A 
ATOM     74  F   UNL A   1      43.200  21.286  26.107  1.00  0.00    -0.206 F 
ATOM     75  C   UNL A   1      46.019  22.214  24.046  1.00  0.00     0.006 A 
ENDBRANCH  54  68
BRANCH  55  76
ATOM     76  C   UNL A   1      46.767  31.008  28.521  1.00  0.00     0.057 A 
ATOM     77  C   UNL A   1      46.921  31.470  27.203  1.00  0.00     0.134 A 
ATOM     78  C   UNL A   1      47.677  31.511  29.461  1.00  0.00     0.134 A 
ATOM     79  F   UNL A   1      46.154  30.994  26.212  1.00  0.00    -0.206 F 
ATOM     80  C   UNL A   1      47.926  32.371  26.839  1.00  0.00     0.040 A 
ATOM     81  C   UNL A   1      48.695  32.407  29.109  1.00  0.00     0.040 A 
ATOM     82  F   UNL A   1      47.639  31.103  30.738  1.00  0.00    -0.206 F 
ATOM     83  C   UNL A   1      48.827  32.833  27.791  1.00  0.00     0.006 A 
ENDBRANCH  55  76
BRANCH  67  84
ATOM     84  C   UNL A   1      45.569  25.985  31.957  1.00  0.00     0.057 A 
ATOM     85  C   UNL A   1      44.467  26.736  32.388  1.00  0.00     0.134 A 
ATOM     86  C   UNL A   1      46.561  25.722  32.912  1.00  0.00     0.134 A 
ATOM     87  F   UNL A   1      43.500  27.082  31.522  1.00  0.00    -0.206 F 
ATOM     88  C   UNL A   1      44.343  27.182  33.706  1.00  0.00     0.040 A 
ATOM     89  C   UNL A   1      46.413  26.098  34.249  1.00  0.00     0.040 A 
ATOM     90  F   UNL A   1      47.726  25.149  32.577  1.00  0.00    -0.206 F 
ATOM     91  C   UNL A   1      45.308  26.844  34.647  1.00  0.00     0.006 A 
ENDBRANCH  67  84
ENDBRANCH  41  42
ENDBRANCH  33  36
ENDBRANCH  31  32
ENDBRANCH  30  31
ENDBRANCH   1  30
TORSDOF 15
ENDMDL
MODEL 2
REMARK VINA RESULT:     -11.5      2.417      5.945
REMARK SMILES CCn1c(C(=O)NCCCNC(=O)c2ccc(-c3c4nc(c(-c5c(F)cccc5F)c5ccc([nH]5)c(-c5c(F)cccc5F)c5nc(c(-c6c(F)cccc6F)c6ccc3[nH]6)C=C5)C=C4)cc2)c(C[NH2+]Cc2ccccc2Cl)c2ccc(C)cc21
REMARK SMILES IDX 8 1 7 2 5 3 6 4 4 6 3 7 85 8 68 9 79 10 84 11 80 12 82 13
REMARK SMILES IDX 81 14 83 15 2 16 1 17 69 18 70 19 71 22 72 23 73 24 77 25
REMARK SMILES IDX 74 26 76 27 78 28 75 29 9 30 10 31 11 32 12 33 13 35 14 36
REMARK SMILES IDX 15 37 67 38 16 39 66 40 17 41 18 42 19 43 60 44 20 45 65 46
REMARK SMILES IDX 59 47 61 48 21 49 64 50 58 51 57 52 22 54 48 55 31 56 47 57
REMARK SMILES IDX 32 58 35 59 46 60 62 61 33 62 34 63 45 65 63 66 36 67 23 68
REMARK SMILES IDX 24 69 29 70 25 71 26 72 28 73 30 74 27 75 49 76 50 77 55 78
REMARK SMILES IDX 51 79 52 80 54 81 56 82 53 83 37 84 38 85 43 86 39 87 40 88
REMARK SMILES IDX 42 89 44 90 41 91
REMARK H PARENT 7 5 70 20 70 21 11 34 61 53 35 64
REMARK Flexibility Score: inf
ROOT
ATOM      1  C   UNL A   1      33.607  26.656  25.622  1.00  0.00     0.118 C 
ENDROOT
BRANCH   1   2
ATOM      2  N   UNL A   1      33.909  26.313  24.247  1.00  0.00    -0.351 N 
ATOM      3  C   UNL A   1      33.976  25.208  23.446  1.00  0.00     0.268 C 
ATOM      4  O   UNL A   1      33.916  25.573  22.255  1.00  0.00    -0.268 OA
ATOM      5  H   UNL A   1      34.135  27.122  23.734  1.00  0.00     0.163 HD
BRANCH   3   6
ATOM      6  C   UNL A   1      34.136  23.781  23.789  1.00  0.00     0.117 A 
ATOM      7  N   UNL A   1      33.009  22.918  23.808  1.00  0.00    -0.336 N 
ATOM      8  C   UNL A   1      33.348  21.615  24.137  1.00  0.00     0.049 A 
ATOM      9  C   UNL A   1      35.212  22.940  24.133  1.00  0.00     0.045 A 
ATOM     10  C   UNL A   1      34.713  21.603  24.349  1.00  0.00     0.009 A 
ATOM     11  C   UNL A   1      32.570  20.443  24.270  1.00  0.00     0.030 A 
ATOM     12  C   UNL A   1      35.330  20.380  24.706  1.00  0.00     0.011 A 
ATOM     13  C   UNL A   1      33.197  19.239  24.638  1.00  0.00    -0.049 A 
ATOM     14  C   UNL A   1      34.571  19.215  24.850  1.00  0.00     0.004 A 
ATOM     15  C   UNL A   1      32.381  17.989  24.803  1.00  0.00     0.044 C 
BRANCH   7  16
ATOM     16  C   UNL A   1      31.627  23.301  23.516  1.00  0.00     0.119 C 
ATOM     17  C   UNL A   1      30.869  23.788  24.741  1.00  0.00     0.027 C 
ENDBRANCH   7  16
BRANCH   9  18
ATOM     18  C   UNL A   1      36.670  23.211  24.287  1.00  0.00     0.300 C 
BRANCH  18  19
ATOM     19  N   UNL A   1      36.947  23.234  25.716  1.00  0.00    -0.339 N 
ATOM     20  H   UNL A   1      36.243  22.671  26.192  1.00  0.00     0.346 HD
ATOM     21  H   UNL A   1      36.923  24.209  26.016  1.00  0.00     0.346 HD
BRANCH  19  22
ATOM     22  C   UNL A   1      38.268  22.708  26.052  1.00  0.00     0.299 C 
BRANCH  22  23
ATOM     23  C   UNL A   1      39.197  23.620  26.811  1.00  0.00     0.025 A 
ATOM     24  C   UNL A   1      38.863  24.971  27.014  1.00  0.00     0.011 A 
ATOM     25  C   UNL A   1      40.379  23.130  27.398  1.00  0.00     0.049 A 
ATOM     26  C   UNL A   1      39.703  25.812  27.741  1.00  0.00     0.001 A 
ATOM     27  C   UNL A   1      41.190  23.963  28.166  1.00  0.00     0.021 A 
ATOM     28  Cl  UNL A   1      40.937  21.514  27.170  1.00  0.00    -0.084 Cl
ATOM     29  C   UNL A   1      40.860  25.306  28.319  1.00  0.00     0.002 A 
ENDBRANCH  22  23
ENDBRANCH  19  22
ENDBRANCH  18  19
ENDBRANCH   9  18
ENDBRANCH   3   6
ENDBRANCH   1   2
BRANCH   1  30
ATOM     30  C   UNL A   1      33.431  28.159  25.876  1.00  0.00     0.042 C 
BRANCH  30  31
ATOM     31  C   UNL A   1      33.113  28.569  27.318  1.00  0.00     0.118 C 
BRANCH  31  32
ATOM     32  N   UNL A   1      33.353  29.970  27.620  1.00  0.00    -0.352 N 
ATOM     33  C   UNL A   1      34.423  30.789  27.819  1.00  0.00     0.251 C 
ATOM     34  H   UNL A   1      32.506  30.465  27.704  1.00  0.00     0.163 HD
ATOM     35  O   UNL A   1      34.136  31.986  27.966  1.00  0.00    -0.269 OA
BRANCH  33  36
ATOM     36  C   UNL A   1      35.859  30.399  27.909  1.00  0.00     0.039 A 
ATOM     37  C   UNL A   1      36.405  29.166  27.560  1.00  0.00     0.014 A 
ATOM     38  C   UNL A   1      36.711  31.360  28.492  1.00  0.00     0.014 A 
ATOM     39  C   UNL A   1      37.745  28.876  27.876  1.00  0.00     0.010 A 
ATOM     40  C   UNL A   1      38.040  31.075  28.805  1.00  0.00     0.010 A 
ATOM     41  C   UNL A   1      38.549  29.804  28.560  1.00  0.00    -0.014 A 
BRANCH  41  42
ATOM     42  C   UNL A   1      39.903  29.414  28.996  1.00  0.00     0.031 A 
ATOM     43  C   UNL A   1      40.089  29.119  30.448  1.00  0.00     0.074 A 
ATOM     44  C   UNL A   1      40.950  29.172  28.172  1.00  0.00     0.049 A 
ATOM     45  N   UNL A   1      40.905  29.681  31.282  1.00  0.00    -0.248 NA
ATOM     46  C   UNL A   1      39.252  28.069  31.043  1.00  0.00     0.031 C 
ATOM     47  C   UNL A   1      40.954  29.093  26.709  1.00  0.00     0.029 A 
ATOM     48  N   UNL A   1      42.243  28.847  28.498  1.00  0.00    -0.354 N 
ATOM     49  C   UNL A   1      40.801  28.965  32.475  1.00  0.00     0.074 A 
ATOM     50  C   UNL A   1      39.710  28.039  32.297  1.00  0.00     0.031 C 
ATOM     51  C   UNL A   1      42.119  28.546  26.291  1.00  0.00     0.029 A 
ATOM     52  C   UNL A   1      42.996  28.361  27.435  1.00  0.00     0.049 A 
ATOM     53  H   UNL A   1      42.606  28.950  29.406  1.00  0.00     0.167 HD
ATOM     54  C   UNL A   1      41.720  29.070  33.475  1.00  0.00     0.037 A 
ATOM     55  C   UNL A   1      44.236  27.813  27.478  1.00  0.00     0.037 A 
ATOM     56  C   UNL A   1      42.531  30.251  33.348  1.00  0.00     0.049 A 
ATOM     57  C   UNL A   1      44.880  28.188  28.757  1.00  0.00     0.074 A 
ATOM     58  C   UNL A   1      42.278  31.608  33.275  1.00  0.00     0.029 A 
ATOM     59  N   UNL A   1      43.850  30.113  32.994  1.00  0.00    -0.354 N 
ATOM     60  N   UNL A   1      45.386  29.358  29.018  1.00  0.00    -0.248 NA
ATOM     61  C   UNL A   1      44.664  27.332  29.912  1.00  0.00     0.031 C 
ATOM     62  C   UNL A   1      43.278  32.125  32.401  1.00  0.00     0.029 A 
ATOM     63  C   UNL A   1      44.086  31.053  32.027  1.00  0.00     0.049 A 
ATOM     64  H   UNL A   1      44.496  29.468  33.363  1.00  0.00     0.167 HD
ATOM     65  C   UNL A   1      45.121  29.558  30.362  1.00  0.00     0.074 A 
ATOM     66  C   UNL A   1      44.806  28.233  30.886  1.00  0.00     0.031 C 
ATOM     67  C   UNL A   1      44.899  30.809  30.861  1.00  0.00     0.037 A 
BRANCH  54  68
ATOM     68  C   UNL A   1      42.087  27.959  34.427  1.00  0.00     0.057 A 
ATOM     69  C   UNL A   1      42.857  26.841  34.055  1.00  0.00     0.134 A 
ATOM     70  C   UNL A   1      41.925  28.142  35.814  1.00  0.00     0.134 A 
ATOM     71  F   UNL A   1      43.172  26.588  32.779  1.00  0.00    -0.206 F 
ATOM     72  C   UNL A   1      43.432  25.974  34.991  1.00  0.00     0.040 A 
ATOM     73  C   UNL A   1      42.539  27.311  36.760  1.00  0.00     0.040 A 
ATOM     74  F   UNL A   1      41.231  29.185  36.294  1.00  0.00    -0.206 F 
ATOM     75  C   UNL A   1      43.301  26.225  36.349  1.00  0.00     0.006 A 
ENDBRANCH  54  68
BRANCH  55  76
ATOM     76  C   UNL A   1      44.882  26.853  26.556  1.00  0.00     0.057 A 
ATOM     77  C   UNL A   1      44.853  25.472  26.811  1.00  0.00     0.134 A 
ATOM     78  C   UNL A   1      45.762  27.275  25.549  1.00  0.00     0.134 A 
ATOM     79  F   UNL A   1      44.106  24.970  27.805  1.00  0.00    -0.206 F 
ATOM     80  C   UNL A   1      45.657  24.565  26.114  1.00  0.00     0.040 A 
ATOM     81  C   UNL A   1      46.579  26.379  24.849  1.00  0.00     0.040 A 
ATOM     82  F   UNL A   1      45.892  28.577  25.255  1.00  0.00    -0.206 F 
ATOM     83  C   UNL A   1      46.536  25.019  25.137  1.00  0.00     0.006 A 
ENDBRANCH  55  76
BRANCH  67  84
ATOM     84  C   UNL A   1      45.256  31.993  30.006  1.00  0.00     0.057 A 
ATOM     85  C   UNL A   1      46.439  32.693  30.280  1.00  0.00     0.134 A 
ATOM     86  C   UNL A   1      44.430  32.523  29.005  1.00  0.00     0.134 A 
ATOM     87  F   UNL A   1      47.258  32.286  31.263  1.00  0.00    -0.206 F 
ATOM     88  C   UNL A   1      46.795  33.848  29.580  1.00  0.00     0.040 A 
ATOM     89  C   UNL A   1      44.812  33.633  28.248  1.00  0.00     0.040 A 
ATOM     90  F   UNL A   1      43.208  32.027  28.766  1.00  0.00    -0.206 F 
ATOM     91  C   UNL A   1      45.991  34.309  28.544  1.00  0.00     0.006 A 
ENDBRANCH  67  84
ENDBRANCH  41  42
ENDBRANCH  33  36
ENDBRANCH  31  32
ENDBRANCH  30  31
ENDBRANCH   1  30
TORSDOF 15
ENDMDL
MODEL 3
REMARK VINA RESULT:     -11.4      1.353      2.046
REMARK SMILES CCn1c(C(=O)NCCCNC(=O)c2ccc(-c3c4nc(c(-c5c(F)cccc5F)c5ccc([nH]5)c(-c5c(F)cccc5F)c5nc(c(-c6c(F)cccc6F)c6ccc3[nH]6)C=C5)C=C4)cc2)c(C[NH2+]Cc2ccccc2Cl)c2ccc(C)cc21
REMARK SMILES IDX 8 1 7 2 5 3 6 4 4 6 3 7 85 8 68 9 79 10 84 11 80 12 82 13
REMARK SMILES IDX 81 14 83 15 2 16 1 17 69 18 70 19 71 22 72 23 73 24 77 25
REMARK SMILES IDX 74 26 76 27 78 28 75 29 9 30 10 31 11 32 12 33 13 35 14 36
REMARK SMILES IDX 15 37 67 38 16 39 66 40 17 41 18 42 19 43 60 44 20 45 65 46
REMARK SMILES IDX 59 47 61 48 21 49 64 50 58 51 57 52 22 54 48 55 31 56 47 57
REMARK SMILES IDX 32 58 35 59 46 60 62 61 33 62 34 63 45 65 63 66 36 67 23 68
REMARK SMILES IDX 24 69 29 70 25 71 26 72 28 73 30 74 27 75 49 76 50 77 55 78
REMARK SMILES IDX 51 79 52 80 54 81 56 82 53 83 37 84 38 85 43 86 39 87 40 88
REMARK SMILES IDX 42 89 44 90 41 91
REMARK H PARENT 7 5 70 20 70 21 11 34 61 53 35 64
REMARK Flexibility Score: inf
ROOT
ATOM      1  C   UNL A   1      32.581  27.021  26.368  1.00  0.00     0.118 C 
ENDROOT
BRANCH   1   2
ATOM      2  N   UNL A   1      33.331  26.880  25.135  1.00  0.00    -0.351 N 
ATOM      3  C   UNL A   1      33.680  25.909  24.241  1.00  0.00     0.268 C 
ATOM      4  O   UNL A   1      34.015  26.453  23.169  1.00  0.00    -0.268 OA
ATOM      5  H   UNL A   1      33.701  27.750  24.859  1.00  0.00     0.163 HD
BRANCH   3   6
ATOM      6  C   UNL A   1      33.741  24.442  24.391  1.00  0.00     0.117 A 
ATOM      7  N   UNL A   1      32.857  23.608  23.657  1.00  0.00    -0.336 N 
ATOM      8  C   UNL A   1      33.065  22.263  23.912  1.00  0.00     0.049 A 
ATOM      9  C   UNL A   1      34.522  23.535  25.134  1.00  0.00     0.045 A 
ATOM     10  C   UNL A   1      34.094  22.190  24.832  1.00  0.00     0.009 A 
ATOM     11  C   UNL A   1      32.435  21.099  23.416  1.00  0.00     0.030 A 
ATOM     12  C   UNL A   1      34.514  20.912  25.275  1.00  0.00     0.011 A 
ATOM     13  C   UNL A   1      32.855  19.839  23.876  1.00  0.00    -0.049 A 
ATOM     14  C   UNL A   1      33.893  19.754  24.799  1.00  0.00     0.004 A 
ATOM     15  C   UNL A   1      32.183  18.594  23.373  1.00  0.00     0.044 C 
BRANCH   7  16
ATOM     16  C   UNL A   1      31.828  24.061  22.719  1.00  0.00     0.119 C 
ATOM     17  C   UNL A   1      30.498  24.369  23.391  1.00  0.00     0.027 C 
ENDBRANCH   7  16
BRANCH   9  18
ATOM     18  C   UNL A   1      35.637  23.749  26.099  1.00  0.00     0.300 C 
BRANCH  18  19
ATOM     19  N   UNL A   1      36.487  22.568  26.030  1.00  0.00    -0.339 N 
ATOM     20  H   UNL A   1      36.055  21.893  25.401  1.00  0.00     0.346 HD
ATOM     21  H   UNL A   1      36.579  22.203  26.979  1.00  0.00     0.346 HD
BRANCH  19  22
ATOM     22  C   UNL A   1      37.833  22.860  25.545  1.00  0.00     0.299 C 
BRANCH  22  23
ATOM     23  C   UNL A   1      38.977  22.156  26.229  1.00  0.00     0.025 A 
ATOM     24  C   UNL A   1      39.360  20.864  25.830  1.00  0.00     0.011 A 
ATOM     25  C   UNL A   1      39.735  22.798  27.227  1.00  0.00     0.049 A 
ATOM     26  C   UNL A   1      40.437  20.219  26.437  1.00  0.00     0.001 A 
ATOM     27  C   UNL A   1      40.841  22.169  27.795  1.00  0.00     0.021 A 
ATOM     28  Cl  UNL A   1      39.331  24.354  27.853  1.00  0.00    -0.084 Cl
ATOM     29  C   UNL A   1      41.177  20.874  27.413  1.00  0.00     0.002 A 
ENDBRANCH  22  23
ENDBRANCH  19  22
ENDBRANCH  18  19
ENDBRANCH   9  18
ENDBRANCH   3   6
ENDBRANCH   1   2
BRANCH   1  30
ATOM     30  C   UNL A   1      33.007  28.212  27.236  1.00  0.00     0.042 C 
BRANCH  30  31
ATOM     31  C   UNL A   1      34.484  28.615  27.156  1.00  0.00     0.118 C 
BRANCH  31  32
ATOM     32  N   UNL A   1      34.908  29.575  28.159  1.00  0.00    -0.352 N 
ATOM     33  C   UNL A   1      36.066  29.948  28.772  1.00  0.00     0.251 C 
ATOM     34  H   UNL A   1      34.147  30.106  28.487  1.00  0.00     0.163 HD
ATOM     35  O   UNL A   1      35.958  30.922  29.531  1.00  0.00    -0.269 OA
BRANCH  33  36
ATOM     36  C   UNL A   1      37.404  29.302  28.651  1.00  0.00     0.039 A 
ATOM     37  C   UNL A   1      38.007  28.466  29.588  1.00  0.00     0.014 A 
ATOM     38  C   UNL A   1      38.148  29.661  27.507  1.00  0.00     0.014 A 
ATOM     39  C   UNL A   1      39.351  28.082  29.425  1.00  0.00     0.010 A 
ATOM     40  C   UNL A   1      39.480  29.280  27.344  1.00  0.00     0.010 A 
ATOM     41  C   UNL A   1      40.113  28.542  28.338  1.00  0.00    -0.014 A 
BRANCH  41  42
ATOM     42  C   UNL A   1      41.553  28.232  28.274  1.00  0.00     0.031 A 
ATOM     43  C   UNL A   1      41.943  26.956  27.603  1.00  0.00     0.074 A 
ATOM     44  C   UNL A   1      42.550  29.067  28.650  1.00  0.00     0.049 A 
ATOM     45  N   UNL A   1      42.619  25.965  28.092  1.00  0.00    -0.248 NA
ATOM     46  C   UNL A   1      41.517  26.759  26.210  1.00  0.00     0.031 C 
ATOM     47  C   UNL A   1      42.454  30.473  29.050  1.00  0.00     0.029 A 
ATOM     48  N   UNL A   1      43.904  28.840  28.660  1.00  0.00    -0.354 N 
ATOM     49  C   UNL A   1      42.838  25.080  27.037  1.00  0.00     0.074 A 
ATOM     50  C   UNL A   1      42.067  25.577  25.925  1.00  0.00     0.031 C 
ATOM     51  C   UNL A   1      43.689  31.024  29.060  1.00  0.00     0.029 A 
ATOM     52  C   UNL A   1      44.676  29.988  28.802  1.00  0.00     0.049 A 
ATOM     53  H   UNL A   1      44.295  27.941  28.575  1.00  0.00     0.167 HD
ATOM     54  C   UNL A   1      43.764  24.082  27.099  1.00  0.00     0.037 A 
ATOM     55  C   UNL A   1      46.023  30.103  28.687  1.00  0.00     0.037 A 
ATOM     56  C   UNL A   1      44.166  23.794  28.450  1.00  0.00     0.049 A 
ATOM     57  C   UNL A   1      46.629  28.759  28.814  1.00  0.00     0.074 A 
ATOM     58  C   UNL A   1      43.510  23.418  29.606  1.00  0.00     0.029 A 
ATOM     59  N   UNL A   1      45.430  24.146  28.852  1.00  0.00    -0.354 N 
ATOM     60  N   UNL A   1      46.778  28.114  29.935  1.00  0.00    -0.248 NA
ATOM     61  C   UNL A   1      46.781  27.957  27.611  1.00  0.00     0.031 C 
ATOM     62  C   UNL A   1      44.228  24.051  30.662  1.00  0.00     0.029 A 
ATOM     63  C   UNL A   1      45.288  24.742  30.078  1.00  0.00     0.049 A 
ATOM     64  H   UNL A   1      46.269  23.998  28.360  1.00  0.00     0.167 HD
ATOM     65  C   UNL A   1      46.580  26.786  29.599  1.00  0.00     0.074 A 
ATOM     66  C   UNL A   1      46.727  26.737  28.148  1.00  0.00     0.031 C 
ATOM     67  C   UNL A   1      46.033  25.905  30.488  1.00  0.00     0.037 A 
BRANCH  54  68
ATOM     68  C   UNL A   1      44.529  23.544  25.915  1.00  0.00     0.057 A 
ATOM     69  C   UNL A   1      45.439  24.313  25.165  1.00  0.00     0.134 A 
ATOM     70  C   UNL A   1      44.590  22.155  25.692  1.00  0.00     0.134 A 
ATOM     71  F   UNL A   1      45.560  25.636  25.335  1.00  0.00    -0.206 F 
ATOM     72  C   UNL A   1      46.349  23.744  24.267  1.00  0.00     0.040 A 
ATOM     73  C   UNL A   1      45.531  21.571  24.835  1.00  0.00     0.040 A 
ATOM     74  F   UNL A   1      43.789  21.314  26.364  1.00  0.00    -0.206 F 
ATOM     75  C   UNL A   1      46.419  22.366  24.123  1.00  0.00     0.006 A 
ENDBRANCH  54  68
BRANCH  55  76
ATOM     76  C   UNL A   1      46.848  31.277  28.327  1.00  0.00     0.057 A 
ATOM     77  C   UNL A   1      47.334  32.151  29.314  1.00  0.00     0.134 A 
ATOM     78  C   UNL A   1      46.962  31.719  27.002  1.00  0.00     0.134 A 
ATOM     79  F   UNL A   1      47.203  31.860  30.617  1.00  0.00    -0.206 F 
ATOM     80  C   UNL A   1      47.893  33.395  29.003  1.00  0.00     0.040 A 
ATOM     81  C   UNL A   1      47.511  32.966  26.676  1.00  0.00     0.040 A 
ATOM     82  F   UNL A   1      46.494  30.976  25.989  1.00  0.00    -0.206 F 
ATOM     83  C   UNL A   1      47.970  33.813  27.680  1.00  0.00     0.006 A 
ENDBRANCH  55  76
BRANCH  67  84
ATOM     84  C   UNL A   1      45.942  26.313  31.933  1.00  0.00     0.057 A 
ATOM     85  C   UNL A   1      44.847  27.081  32.351  1.00  0.00     0.134 A 
ATOM     86  C   UNL A   1      46.939  26.068  32.887  1.00  0.00     0.134 A 
ATOM     87  F   UNL A   1      43.876  27.411  31.484  1.00  0.00    -0.206 F 
ATOM     88  C   UNL A   1      44.737  27.562  33.658  1.00  0.00     0.040 A 
ATOM     89  C   UNL A   1      46.803  26.480  34.214  1.00  0.00     0.040 A 
ATOM     90  F   UNL A   1      48.098  25.479  32.558  1.00  0.00    -0.206 F 
ATOM     91  C   UNL A   1      45.706  27.242  34.601  1.00  0.00     0.006 A 
ENDBRANCH  67  84
ENDBRANCH  41  42
ENDBRANCH  33  36
ENDBRANCH  31  32
ENDBRANCH  30  31
ENDBRANCH   1  30
TORSDOF 15
ENDMDL
