MODEL 1
REMARK VINA RESULT:     -11.3      0.000      0.000
REMARK SMILES O=C(NCCCNC(=O)c1ccc(-c2c3nc(c(-c4c(F)cccc4F)c4ccc([nH]4)c(-c4c(F)cccc4F)c4nc(c(-c5c(F)cccc5F)c5ccc2[nH]5)C=C4)C=C3)cc1)C1=C[C@H]2C=C[C@@H]1[C@@H]1C=C[C@H]21
REMARK SMILES IDX 6 1 5 2 4 3 3 4 1 5 2 6 64 8 65 9 69 10 66 11 68 12 70 13
REMARK SMILES IDX 67 14 73 15 71 16 72 17 7 18 8 19 9 21 10 22 11 23 63 24
REMARK SMILES IDX 12 25 62 26 13 27 14 28 15 29 56 30 16 31 61 32 55 33 57 34
REMARK SMILES IDX 17 35 60 36 54 37 53 38 18 40 44 41 27 42 43 43 28 44 31 45
REMARK SMILES IDX 42 46 58 47 29 48 30 49 41 51 59 52 32 53 19 54 20 55 25 56
REMARK SMILES IDX 21 57 22 58 24 59 26 60 23 61 45 62 46 63 51 64 47 65 48 66
REMARK SMILES IDX 50 67 52 68 49 69 33 70 34 71 39 72 35 73 36 74 38 75 40 76
REMARK SMILES IDX 37 77
REMARK H PARENT 3 7 7 20 57 39 31 50
REMARK Flexibility Score: inf
ROOT
ATOM      1  C   UNL A   1      39.175  19.893  25.997  1.00  0.00     0.118 C 
ENDROOT
BRANCH   1   2
ATOM      2  C   UNL A   1      38.166  19.738  24.861  1.00  0.00     0.042 C 
BRANCH   2   3
ATOM      3  C   UNL A   1      37.355  20.993  24.548  1.00  0.00     0.118 C 
BRANCH   3   4
ATOM      4  N   UNL A   1      37.951  22.189  25.114  1.00  0.00    -0.352 N 
ATOM      5  O   UNL A   1      37.999  24.165  26.187  1.00  0.00    -0.270 OA
ATOM      6  C   UNL A   1      37.345  23.295  25.622  1.00  0.00     0.247 C 
ATOM      7  H   UNL A   1      38.935  22.202  25.133  1.00  0.00     0.163 HD
BRANCH   6   8
ATOM      8  C   UNL A   1      35.887  23.415  25.522  1.00  0.00     0.021 C 
ATOM      9  C   UNL A   1      34.998  22.832  26.360  1.00  0.00    -0.009 C 
ATOM     10  C   UNL A   1      35.279  24.096  24.296  1.00  0.00     0.054 C 
ATOM     11  C   UNL A   1      33.542  22.983  25.898  1.00  0.00     0.042 C 
ATOM     12  C   UNL A   1      34.193  25.047  24.811  1.00  0.00    -0.022 C 
ATOM     13  C   UNL A   1      34.572  22.919  23.551  1.00  0.00     0.031 C 
ATOM     14  C   UNL A   1      33.299  24.471  25.643  1.00  0.00    -0.022 C 
ATOM     15  C   UNL A   1      33.518  22.253  24.511  1.00  0.00     0.030 C 
ATOM     16  C   UNL A   1      33.396  23.188  22.626  1.00  0.00    -0.026 C 
ATOM     17  C   UNL A   1      32.489  22.626  23.451  1.00  0.00    -0.026 C 
ENDBRANCH   6   8
ENDBRANCH   3   4
ENDBRANCH   2   3
ENDBRANCH   1   2
BRANCH   1  18
ATOM     18  N   UNL A   1      40.414  19.165  25.774  1.00  0.00    -0.352 N 
ATOM     19  C   UNL A   1      41.712  19.577  25.954  1.00  0.00     0.251 C 
ATOM     20  H   UNL A   1      40.308  18.244  25.445  1.00  0.00     0.163 HD
ATOM     21  O   UNL A   1      42.634  18.843  25.608  1.00  0.00    -0.269 OA
BRANCH  19  22
ATOM     22  C   UNL A   1      42.016  20.907  26.531  1.00  0.00     0.039 A 
ATOM     23  C   UNL A   1      42.327  21.954  25.656  1.00  0.00     0.014 A 
ATOM     24  C   UNL A   1      42.045  21.124  27.911  1.00  0.00     0.014 A 
ATOM     25  C   UNL A   1      42.616  23.225  26.159  1.00  0.00     0.010 A 
ATOM     26  C   UNL A   1      42.289  22.405  28.413  1.00  0.00     0.010 A 
ATOM     27  C   UNL A   1      42.580  23.464  27.541  1.00  0.00    -0.014 A 
BRANCH  27  28
ATOM     28  C   UNL A   1      42.856  24.818  28.084  1.00  0.00     0.031 A 
ATOM     29  C   UNL A   1      44.255  25.215  28.460  1.00  0.00     0.074 A 
ATOM     30  C   UNL A   1      41.839  25.678  28.279  1.00  0.00     0.049 A 
ATOM     31  N   UNL A   1      44.682  26.336  28.986  1.00  0.00    -0.248 NA
ATOM     32  C   UNL A   1      45.309  24.215  28.237  1.00  0.00     0.031 C 
ATOM     33  C   UNL A   1      40.429  25.402  27.997  1.00  0.00     0.029 A 
ATOM     34  N   UNL A   1      41.836  26.960  28.767  1.00  0.00    -0.354 N 
ATOM     35  C   UNL A   1      46.047  26.168  29.178  1.00  0.00     0.074 A 
ATOM     36  C   UNL A   1      46.373  24.829  28.736  1.00  0.00     0.031 C 
ATOM     37  C   UNL A   1      39.701  26.489  28.301  1.00  0.00     0.029 A 
ATOM     38  C   UNL A   1      40.588  27.529  28.813  1.00  0.00     0.049 A 
ATOM     39  H   UNL A   1      42.653  27.428  29.057  1.00  0.00     0.167 HD
ATOM     40  C   UNL A   1      46.949  27.051  29.666  1.00  0.00     0.037 A 
ATOM     41  C   UNL A   1      40.203  28.753  29.218  1.00  0.00     0.037 A 
ATOM     42  C   UNL A   1      46.640  28.396  30.074  1.00  0.00     0.049 A 
ATOM     43  C   UNL A   1      41.231  29.735  29.699  1.00  0.00     0.074 A 
ATOM     44  C   UNL A   1      47.497  29.377  30.540  1.00  0.00     0.029 A 
ATOM     45  N   UNL A   1      45.371  28.951  30.053  1.00  0.00    -0.354 N 
ATOM     46  N   UNL A   1      42.524  29.576  29.835  1.00  0.00    -0.248 NA
ATOM     47  C   UNL A   1      40.746  31.071  30.074  1.00  0.00     0.031 C 
ATOM     48  C   UNL A   1      46.744  30.525  30.814  1.00  0.00     0.029 A 
ATOM     49  C   UNL A   1      45.422  30.262  30.497  1.00  0.00     0.049 A 
ATOM     50  H   UNL A   1      44.554  28.484  29.766  1.00  0.00     0.167 HD
ATOM     51  C   UNL A   1      43.010  30.794  30.288  1.00  0.00     0.074 A 
ATOM     52  C   UNL A   1      41.875  31.686  30.397  1.00  0.00     0.031 C 
ATOM     53  C   UNL A   1      44.285  31.141  30.588  1.00  0.00     0.037 A 
BRANCH  40  54
ATOM     54  C   UNL A   1      48.368  26.585  29.782  1.00  0.00     0.057 A 
ATOM     55  C   UNL A   1      49.297  26.799  28.757  1.00  0.00     0.134 A 
ATOM     56  C   UNL A   1      48.814  25.930  30.937  1.00  0.00     0.134 A 
ATOM     57  F   UNL A   1      48.925  27.407  27.620  1.00  0.00    -0.206 F 
ATOM     58  C   UNL A   1      50.617  26.361  28.869  1.00  0.00     0.040 A 
ATOM     59  C   UNL A   1      50.136  25.505  31.067  1.00  0.00     0.040 A 
ATOM     60  F   UNL A   1      47.971  25.697  31.955  1.00  0.00    -0.206 F 
ATOM     61  C   UNL A   1      51.041  25.715  30.029  1.00  0.00     0.006 A 
ENDBRANCH  40  54
BRANCH  41  62
ATOM     62  C   UNL A   1      38.774  29.137  29.145  1.00  0.00     0.057 A 
ATOM     63  C   UNL A   1      37.949  29.044  30.270  1.00  0.00     0.134 A 
ATOM     64  C   UNL A   1      38.203  29.598  27.954  1.00  0.00     0.134 A 
ATOM     65  F   UNL A   1      38.441  28.590  31.432  1.00  0.00    -0.206 F 
ATOM     66  C   UNL A   1      36.598  29.387  30.212  1.00  0.00     0.040 A 
ATOM     67  C   UNL A   1      36.857  29.959  27.886  1.00  0.00     0.040 A 
ATOM     68  F   UNL A   1      38.948  29.711  26.845  1.00  0.00    -0.206 F 
ATOM     69  C   UNL A   1      36.049  29.849  29.017  1.00  0.00     0.006 A 
ENDBRANCH  41  62
BRANCH  53  70
ATOM     70  C   UNL A   1      44.520  32.552  31.030  1.00  0.00     0.057 A 
ATOM     71  C   UNL A   1      44.486  32.913  32.382  1.00  0.00     0.134 A 
ATOM     72  C   UNL A   1      44.803  33.554  30.095  1.00  0.00     0.134 A 
ATOM     73  F   UNL A   1      44.205  31.997  33.323  1.00  0.00    -0.206 F 
ATOM     74  C   UNL A   1      44.710  34.228  32.789  1.00  0.00     0.040 A 
ATOM     75  C   UNL A   1      45.044  34.870  30.491  1.00  0.00     0.040 A 
ATOM     76  F   UNL A   1      44.850  33.270  28.785  1.00  0.00    -0.206 F 
ATOM     77  C   UNL A   1      44.994  35.210  31.841  1.00  0.00     0.006 A 
ENDBRANCH  53  70
ENDBRANCH  27  28
ENDBRANCH  19  22
ENDBRANCH   1  18
TORSDOF 10
ENDMDL
MODEL 2
REMARK VINA RESULT:     -11.3      1.480      6.712
REMARK SMILES O=C(NCCCNC(=O)c1ccc(-c2c3nc(c(-c4c(F)cccc4F)c4ccc([nH]4)c(-c4c(F)cccc4F)c4nc(c(-c5c(F)cccc5F)c5ccc2[nH]5)C=C4)C=C3)cc1)C1=C[C@H]2C=C[C@@H]1[C@@H]1C=C[C@H]21
REMARK SMILES IDX 6 1 5 2 4 3 3 4 1 5 2 6 64 8 65 9 69 10 66 11 68 12 70 13
REMARK SMILES IDX 67 14 73 15 71 16 72 17 7 18 8 19 9 21 10 22 11 23 63 24
REMARK SMILES IDX 12 25 62 26 13 27 14 28 15 29 56 30 16 31 61 32 55 33 57 34
REMARK SMILES IDX 17 35 60 36 54 37 53 38 18 40 44 41 27 42 43 43 28 44 31 45
REMARK SMILES IDX 42 46 58 47 29 48 30 49 41 51 59 52 32 53 19 54 20 55 25 56
REMARK SMILES IDX 21 57 22 58 24 59 26 60 23 61 45 62 46 63 51 64 47 65 48 66
REMARK SMILES IDX 50 67 52 68 49 69 33 70 34 71 39 72 35 73 36 74 38 75 40 76
REMARK SMILES IDX 37 77
REMARK H PARENT 3 7 7 20 57 39 31 50
REMARK Flexibility Score: inf
ROOT
ATOM      1  C   UNL A   1      39.166  19.796  26.103  1.00  0.00     0.118 C 
ENDROOT
BRANCH   1   2
ATOM      2  C   UNL A   1      38.122  19.656  24.997  1.00  0.00     0.042 C 
BRANCH   2   3
ATOM      3  C   UNL A   1      37.404  20.951  24.627  1.00  0.00     0.118 C 
BRANCH   3   4
ATOM      4  N   UNL A   1      38.042  22.120  25.204  1.00  0.00    -0.352 N 
ATOM      5  O   UNL A   1      38.162  24.080  26.300  1.00  0.00    -0.270 OA
ATOM      6  C   UNL A   1      37.476  23.240  25.728  1.00  0.00     0.247 C 
ATOM      7  H   UNL A   1      39.026  22.100  25.218  1.00  0.00     0.163 HD
BRANCH   6   8
ATOM      8  C   UNL A   1      36.022  23.410  25.636  1.00  0.00     0.021 C 
ATOM      9  C   UNL A   1      35.121  22.883  26.497  1.00  0.00    -0.009 C 
ATOM     10  C   UNL A   1      35.429  24.079  24.398  1.00  0.00     0.054 C 
ATOM     11  C   UNL A   1      33.667  23.075  26.043  1.00  0.00     0.042 C 
ATOM     12  C   UNL A   1      34.383  25.083  24.895  1.00  0.00    -0.022 C 
ATOM     13  C   UNL A   1      34.673  22.909  23.691  1.00  0.00     0.031 C 
ATOM     14  C   UNL A   1      33.476  24.563  25.750  1.00  0.00    -0.022 C 
ATOM     15  C   UNL A   1      33.604  22.309  24.677  1.00  0.00     0.030 C 
ATOM     16  C   UNL A   1      33.499  23.196  22.767  1.00  0.00    -0.026 C 
ATOM     17  C   UNL A   1      32.580  22.690  23.615  1.00  0.00    -0.026 C 
ENDBRANCH   6   8
ENDBRANCH   3   4
ENDBRANCH   2   3
ENDBRANCH   1   2
BRANCH   1  18
ATOM     18  N   UNL A   1      40.300  18.899  25.945  1.00  0.00    -0.352 N 
ATOM     19  C   UNL A   1      41.644  19.170  26.025  1.00  0.00     0.251 C 
ATOM     20  H   UNL A   1      40.071  17.961  25.752  1.00  0.00     0.163 HD
ATOM     21  O   UNL A   1      42.456  18.289  25.756  1.00  0.00    -0.269 OA
BRANCH  19  22
ATOM     22  C   UNL A   1      42.128  20.519  26.400  1.00  0.00     0.039 A 
ATOM     23  C   UNL A   1      42.471  21.409  25.376  1.00  0.00     0.014 A 
ATOM     24  C   UNL A   1      42.293  20.900  27.734  1.00  0.00     0.014 A 
ATOM     25  C   UNL A   1      42.928  22.692  25.686  1.00  0.00     0.010 A 
ATOM     26  C   UNL A   1      42.706  22.197  28.045  1.00  0.00     0.010 A 
ATOM     27  C   UNL A   1      43.030  23.102  27.024  1.00  0.00    -0.014 A 
BRANCH  27  28
ATOM     28  C   UNL A   1      43.487  24.473  27.363  1.00  0.00     0.031 A 
ATOM     29  C   UNL A   1      42.502  25.511  27.821  1.00  0.00     0.074 A 
ATOM     30  C   UNL A   1      44.785  24.798  27.220  1.00  0.00     0.049 A 
ATOM     31  N   UNL A   1      42.707  26.769  28.121  1.00  0.00    -0.248 NA
ATOM     32  C   UNL A   1      41.099  25.086  27.934  1.00  0.00     0.031 C 
ATOM     33  C   UNL A   1      45.837  23.898  26.742  1.00  0.00     0.029 A 
ATOM     34  N   UNL A   1      45.440  25.981  27.455  1.00  0.00    -0.354 N 
ATOM     35  C   UNL A   1      41.460  27.291  28.436  1.00  0.00     0.074 A 
ATOM     36  C   UNL A   1      40.500  26.221  28.266  1.00  0.00     0.031 C 
ATOM     37  C   UNL A   1      47.008  24.556  26.738  1.00  0.00     0.029 A 
ATOM     38  C   UNL A   1      46.787  25.926  27.195  1.00  0.00     0.049 A 
ATOM     39  H   UNL A   1      44.987  26.792  27.781  1.00  0.00     0.167 HD
ATOM     40  C   UNL A   1      41.143  28.543  28.842  1.00  0.00     0.037 A 
ATOM     41  C   UNL A   1      47.737  26.871  27.315  1.00  0.00     0.037 A 
ATOM     42  C   UNL A   1      42.095  29.602  29.049  1.00  0.00     0.049 A 
ATOM     43  C   UNL A   1      47.369  28.235  27.824  1.00  0.00     0.074 A 
ATOM     44  C   UNL A   1      41.871  30.891  29.501  1.00  0.00     0.029 A 
ATOM     45  N   UNL A   1      43.457  29.488  28.825  1.00  0.00    -0.354 N 
ATOM     46  N   UNL A   1      46.192  28.700  28.158  1.00  0.00    -0.248 NA
ATOM     47  C   UNL A   1      48.466  29.200  27.983  1.00  0.00     0.031 C 
ATOM     48  C   UNL A   1      43.098  31.563  29.539  1.00  0.00     0.029 A 
ATOM     49  C   UNL A   1      44.087  30.683  29.131  1.00  0.00     0.049 A 
ATOM     50  H   UNL A   1      43.911  28.679  28.498  1.00  0.00     0.167 HD
ATOM     51  C   UNL A   1      46.407  30.002  28.587  1.00  0.00     0.074 A 
ATOM     52  C   UNL A   1      47.829  30.252  28.478  1.00  0.00     0.031 C 
ATOM     53  C   UNL A   1      45.505  30.911  29.030  1.00  0.00     0.037 A 
BRANCH  40  54
ATOM     54  C   UNL A   1      39.695  28.834  29.093  1.00  0.00     0.057 A 
ATOM     55  C   UNL A   1      39.127  28.689  30.366  1.00  0.00     0.134 A 
ATOM     56  C   UNL A   1      38.864  29.279  28.058  1.00  0.00     0.134 A 
ATOM     57  F   UNL A   1      39.870  28.251  31.394  1.00  0.00    -0.206 F 
ATOM     58  C   UNL A   1      37.778  28.959  30.595  1.00  0.00     0.040 A 
ATOM     59  C   UNL A   1      37.518  29.570  28.280  1.00  0.00     0.040 A 
ATOM     60  F   UNL A   1      39.349  29.439  26.817  1.00  0.00    -0.206 F 
ATOM     61  C   UNL A   1      36.970  29.405  29.551  1.00  0.00     0.006 A 
ENDBRANCH  40  54
BRANCH  41  62
ATOM     62  C   UNL A   1      49.144  26.546  26.986  1.00  0.00     0.057 A 
ATOM     63  C   UNL A   1      49.635  26.722  25.688  1.00  0.00     0.134 A 
ATOM     64  C   UNL A   1      50.024  26.052  27.954  1.00  0.00     0.134 A 
ATOM     65  F   UNL A   1      48.829  27.175  24.717  1.00  0.00    -0.206 F 
ATOM     66  C   UNL A   1      50.953  26.405  25.360  1.00  0.00     0.040 A 
ATOM     67  C   UNL A   1      51.349  25.746  27.643  1.00  0.00     0.040 A 
ATOM     68  F   UNL A   1      49.609  25.867  29.215  1.00  0.00    -0.206 F 
ATOM     69  C   UNL A   1      51.815  25.918  26.341  1.00  0.00     0.006 A 
ENDBRANCH  41  62
BRANCH  53  70
ATOM     70  C   UNL A   1      46.037  32.243  29.459  1.00  0.00     0.057 A 
ATOM     71  C   UNL A   1      46.143  33.314  28.563  1.00  0.00     0.134 A 
ATOM     72  C   UNL A   1      46.425  32.462  30.785  1.00  0.00     0.134 A 
ATOM     73  F   UNL A   1      45.799  33.159  27.275  1.00  0.00    -0.206 F 
ATOM     74  C   UNL A   1      46.634  34.554  28.969  1.00  0.00     0.040 A 
ATOM     75  C   UNL A   1      46.903  33.703  31.207  1.00  0.00     0.040 A 
ATOM     76  F   UNL A   1      46.345  31.476  31.690  1.00  0.00    -0.206 F 
ATOM     77  C   UNL A   1      47.012  34.752  30.296  1.00  0.00     0.006 A 
ENDBRANCH  53  70
ENDBRANCH  27  28
ENDBRANCH  19  22
ENDBRANCH   1  18
TORSDOF 10
ENDMDL
MODEL 3
REMARK VINA RESULT:     -11.3      4.812      9.596
REMARK SMILES O=C(NCCCNC(=O)c1ccc(-c2c3nc(c(-c4c(F)cccc4F)c4ccc([nH]4)c(-c4c(F)cccc4F)c4nc(c(-c5c(F)cccc5F)c5ccc2[nH]5)C=C4)C=C3)cc1)C1=C[C@H]2C=C[C@@H]1[C@@H]1C=C[C@H]21
REMARK SMILES IDX 6 1 5 2 4 3 3 4 1 5 2 6 64 8 65 9 69 10 66 11 68 12 70 13
REMARK SMILES IDX 67 14 73 15 71 16 72 17 7 18 8 19 9 21 10 22 11 23 63 24
REMARK SMILES IDX 12 25 62 26 13 27 14 28 15 29 56 30 16 31 61 32 55 33 57 34
REMARK SMILES IDX 17 35 60 36 54 37 53 38 18 40 44 41 27 42 43 43 28 44 31 45
REMARK SMILES IDX 42 46 58 47 29 48 30 49 41 51 59 52 32 53 19 54 20 55 25 56
REMARK SMILES IDX 21 57 22 58 24 59 26 60 23 61 45 62 46 63 51 64 47 65 48 66
REMARK SMILES IDX 50 67 52 68 49 69 33 70 34 71 39 72 35 73 36 74 38 75 40 76
REMARK SMILES IDX 37 77
REMARK H PARENT 3 7 7 20 57 39 31 50
REMARK Flexibility Score: inf
ROOT
ATOM      1  C   UNL A   1      32.674  32.958  26.906  1.00  0.00     0.118 C 
ENDROOT
BRANCH   1   2
ATOM      2  C   UNL A   1      31.453  32.040  26.876  1.00  0.00     0.042 C 
BRANCH   2   3
ATOM      3  C   UNL A   1      31.774  30.548  26.867  1.00  0.00     0.118 C 
BRANCH   3   4
ATOM      4  N   UNL A   1      33.085  30.261  27.420  1.00  0.00    -0.352 N 
ATOM      5  O   UNL A   1      35.105  29.284  27.548  1.00  0.00    -0.270 OA
ATOM      6  C   UNL A   1      33.979  29.303  27.062  1.00  0.00     0.247 C 
ATOM      7  H   UNL A   1      33.366  30.845  28.161  1.00  0.00     0.163 HD
BRANCH   6   8
ATOM      8  C   UNL A   1      33.593  28.311  26.053  1.00  0.00     0.021 C 
ATOM      9  C   UNL A   1      33.653  28.500  24.714  1.00  0.00    -0.009 C 
ATOM     10  C   UNL A   1      32.904  27.024  26.501  1.00  0.00     0.054 C 
ATOM     11  C   UNL A   1      33.010  27.359  23.913  1.00  0.00     0.042 C 
ATOM     12  C   UNL A   1      33.576  25.875  25.741  1.00  0.00    -0.022 C 
ATOM     13  C   UNL A   1      31.454  27.184  25.943  1.00  0.00     0.031 C 
ATOM     14  C   UNL A   1      33.635  26.052  24.404  1.00  0.00    -0.022 C 
ATOM     15  C   UNL A   1      31.515  27.377  24.383  1.00  0.00     0.030 C 
ATOM     16  C   UNL A   1      30.601  25.961  25.649  1.00  0.00    -0.026 C 
ATOM     17  C   UNL A   1      30.659  26.119  24.310  1.00  0.00    -0.026 C 
ENDBRANCH   6   8
ENDBRANCH   3   4
ENDBRANCH   2   3
ENDBRANCH   1   2
BRANCH   1  18
ATOM     18  N   UNL A   1      32.445  34.203  27.622  1.00  0.00    -0.352 N 
ATOM     19  C   UNL A   1      33.102  34.713  28.715  1.00  0.00     0.251 C 
ATOM     20  H   UNL A   1      31.714  34.761  27.273  1.00  0.00     0.163 HD
ATOM     21  O   UNL A   1      32.689  35.742  29.243  1.00  0.00    -0.269 OA
BRANCH  19  22
ATOM     22  C   UNL A   1      34.282  34.023  29.286  1.00  0.00     0.039 A 
ATOM     23  C   UNL A   1      34.066  32.980  30.193  1.00  0.00     0.014 A 
ATOM     24  C   UNL A   1      35.587  34.417  28.979  1.00  0.00     0.014 A 
ATOM     25  C   UNL A   1      35.151  32.301  30.751  1.00  0.00     0.010 A 
ATOM     26  C   UNL A   1      36.672  33.709  29.502  1.00  0.00     0.010 A 
ATOM     27  C   UNL A   1      36.463  32.648  30.394  1.00  0.00    -0.014 A 
BRANCH  27  28
ATOM     28  C   UNL A   1      37.622  31.913  30.959  1.00  0.00     0.031 A 
ATOM     29  C   UNL A   1      38.108  32.211  32.348  1.00  0.00     0.074 A 
ATOM     30  C   UNL A   1      38.268  31.005  30.203  1.00  0.00     0.049 A 
ATOM     31  N   UNL A   1      39.127  31.702  32.995  1.00  0.00    -0.248 NA
ATOM     32  C   UNL A   1      37.365  33.229  33.104  1.00  0.00     0.031 C 
ATOM     33  C   UNL A   1      37.927  30.653  28.823  1.00  0.00     0.029 A 
ATOM     34  N   UNL A   1      39.353  30.214  30.490  1.00  0.00    -0.354 N 
ATOM     35  C   UNL A   1      39.162  32.353  34.220  1.00  0.00     0.074 A 
ATOM     36  C   UNL A   1      38.077  33.312  34.219  1.00  0.00     0.031 C 
ATOM     37  C   UNL A   1      38.774  29.705  28.391  1.00  0.00     0.029 A 
ATOM     38  C   UNL A   1      39.726  29.395  29.454  1.00  0.00     0.049 A 
ATOM     39  H   UNL A   1      39.818  30.234  31.357  1.00  0.00     0.167 HD
ATOM     40  C   UNL A   1      40.011  32.162  35.257  1.00  0.00     0.037 A 
ATOM     41  C   UNL A   1      40.721  28.493  29.372  1.00  0.00     0.037 A 
ATOM     42  C   UNL A   1      41.069  31.187  35.281  1.00  0.00     0.049 A 
ATOM     43  C   UNL A   1      41.611  28.258  30.557  1.00  0.00     0.074 A 
ATOM     44  C   UNL A   1      41.951  30.892  36.306  1.00  0.00     0.029 A 
ATOM     45  N   UNL A   1      41.379  30.339  34.230  1.00  0.00    -0.354 N 
ATOM     46  N   UNL A   1      41.604  28.851  31.724  1.00  0.00    -0.248 NA
ATOM     47  C   UNL A   1      42.641  27.219  30.416  1.00  0.00     0.031 C 
ATOM     48  C   UNL A   1      42.806  29.873  35.870  1.00  0.00     0.029 A 
ATOM     49  C   UNL A   1      42.439  29.520  34.582  1.00  0.00     0.049 A 
ATOM     50  H   UNL A   1      40.915  30.321  33.362  1.00  0.00     0.167 HD
ATOM     51  C   UNL A   1      42.610  28.245  32.463  1.00  0.00     0.074 A 
ATOM     52  C   UNL A   1      43.203  27.231  31.617  1.00  0.00     0.031 C 
ATOM     53  C   UNL A   1      43.008  28.507  33.732  1.00  0.00     0.037 A 
BRANCH  40  54
ATOM     54  C   UNL A   1      39.824  33.033  36.462  1.00  0.00     0.057 A 
ATOM     55  C   UNL A   1      40.558  34.213  36.636  1.00  0.00     0.134 A 
ATOM     56  C   UNL A   1      38.889  32.698  37.449  1.00  0.00     0.134 A 
ATOM     57  F   UNL A   1      41.478  34.579  35.731  1.00  0.00    -0.206 F 
ATOM     58  C   UNL A   1      40.381  35.020  37.759  1.00  0.00     0.040 A 
ATOM     59  C   UNL A   1      38.691  33.507  38.568  1.00  0.00     0.040 A 
ATOM     60  F   UNL A   1      38.154  31.581  37.339  1.00  0.00    -0.206 F 
ATOM     61  C   UNL A   1      39.442  34.670  38.728  1.00  0.00     0.006 A 
ENDBRANCH  40  54
BRANCH  41  62
ATOM     62  C   UNL A   1      40.901  27.708  28.129  1.00  0.00     0.057 A 
ATOM     63  C   UNL A   1      41.700  28.190  27.087  1.00  0.00     0.134 A 
ATOM     64  C   UNL A   1      40.281  26.467  27.953  1.00  0.00     0.134 A 
ATOM     65  F   UNL A   1      42.304  29.382  27.196  1.00  0.00    -0.206 F 
ATOM     66  C   UNL A   1      41.867  27.469  25.904  1.00  0.00     0.040 A 
ATOM     67  C   UNL A   1      40.451  25.728  26.782  1.00  0.00     0.040 A 
ATOM     68  F   UNL A   1      39.507  25.954  28.920  1.00  0.00    -0.206 F 
ATOM     69  C   UNL A   1      41.243  26.232  25.751  1.00  0.00     0.006 A 
ENDBRANCH  41  62
BRANCH  53  70
ATOM     70  C   UNL A   1      44.113  27.662  34.286  1.00  0.00     0.057 A 
ATOM     71  C   UNL A   1      45.453  28.059  34.201  1.00  0.00     0.134 A 
ATOM     72  C   UNL A   1      43.831  26.452  34.930  1.00  0.00     0.134 A 
ATOM     73  F   UNL A   1      45.786  29.203  33.583  1.00  0.00    -0.206 F 
ATOM     74  C   UNL A   1      46.478  27.270  34.724  1.00  0.00     0.040 A 
ATOM     75  C   UNL A   1      44.846  25.662  35.470  1.00  0.00     0.040 A 
ATOM     76  F   UNL A   1      42.566  26.020  35.044  1.00  0.00    -0.206 F 
ATOM     77  C   UNL A   1      46.174  26.069  35.364  1.00  0.00     0.006 A 
ENDBRANCH  53  70
ENDBRANCH  27  28
ENDBRANCH  19  22
ENDBRANCH   1  18
TORSDOF 10
ENDMDL
