MODEL 1
REMARK VINA RESULT:     -12.4      0.000      0.000
REMARK SMILES O=C(NCCCNC(=O)c1ccc(-c2c3nc(c(-c4c(F)cccc4F)c4ccc([nH]4)c(-c4c(F)cccc4F)c4nc(c(-c5c(F)cccc5F)c5ccc2[nH]5)C=C4)C=C3)cc1)C1=Cc2c(Cl)cc(Cl)cc2O[C@@H]1C(F)(F)F
REMARK SMILES IDX 5 1 4 2 3 3 1 4 2 5 64 7 65 8 75 9 66 10 74 11 67 12 73 13
REMARK SMILES IDX 68 14 69 15 72 16 70 17 71 18 76 19 77 20 78 21 79 22 6 23
REMARK SMILES IDX 7 24 8 25 9 27 10 28 11 29 63 30 12 31 62 32 13 33 14 34
REMARK SMILES IDX 15 35 56 36 16 37 61 38 55 39 57 40 17 41 60 42 54 43 53 44
REMARK SMILES IDX 18 46 44 47 27 48 43 49 28 50 31 51 42 52 58 53 29 54 30 55
REMARK SMILES IDX 41 57 59 58 32 59 19 60 20 61 25 62 21 63 22 64 24 65 26 66
REMARK SMILES IDX 23 67 45 68 46 69 51 70 47 71 48 72 50 73 52 74 49 75 33 76
REMARK SMILES IDX 34 77 39 78 35 79 36 80 38 81 40 82 37 83
REMARK H PARENT 3 6 7 26 57 45 31 56
REMARK Flexibility Score: inf
ROOT
ATOM      1  C   UNL A   1      33.208  29.583  25.787  1.00  0.00     0.042 C 
ENDROOT
BRANCH   1   2
ATOM      2  C   UNL A   1      31.765  29.097  25.704  1.00  0.00     0.118 C 
BRANCH   2   3
ATOM      3  N   UNL A   1      31.586  27.731  26.204  1.00  0.00    -0.352 N 
ATOM      4  O   UNL A   1      31.320  25.481  26.052  1.00  0.00    -0.270 OA
ATOM      5  C   UNL A   1      31.232  26.584  25.533  1.00  0.00     0.251 C 
ATOM      6  H   UNL A   1      31.743  27.617  27.169  1.00  0.00     0.163 HD
BRANCH   5   7
ATOM      7  C   UNL A   1      30.783  26.745  24.139  1.00  0.00     0.067 C 
ATOM      8  C   UNL A   1      29.468  26.926  23.968  1.00  0.00     0.027 C 
ATOM      9  C   UNL A   1      31.812  27.122  23.124  1.00  0.00     0.314 C 
ATOM     10  C   UNL A   1      29.120  28.040  23.070  1.00  0.00     0.036 A 
ATOM     11  O   UNL A   1      31.483  28.356  22.442  1.00  0.00    -0.475 OA
ATOM     12  C   UNL A   1      27.843  28.629  23.134  1.00  0.00     0.053 A 
ATOM     13  C   UNL A   1      30.171  28.768  22.472  1.00  0.00     0.130 A 
ATOM     14  Cl  UNL A   1      26.485  27.825  23.846  1.00  0.00    -0.083 Cl
ATOM     15  C   UNL A   1      27.657  29.953  22.732  1.00  0.00     0.042 A 
ATOM     16  C   UNL A   1      29.972  30.082  22.046  1.00  0.00     0.067 A 
ATOM     17  C   UNL A   1      28.729  30.679  22.221  1.00  0.00     0.046 A 
ATOM     18  Cl  UNL A   1      28.536  32.355  21.888  1.00  0.00    -0.084 Cl
BRANCH   9  19
ATOM     19  C   UNL A   1      32.051  25.990  22.112  1.00  0.00     0.429 C 
ATOM     20  F   UNL A   1      32.036  24.782  22.726  1.00  0.00    -0.167 F 
ATOM     21  F   UNL A   1      31.097  25.955  21.154  1.00  0.00    -0.167 F 
ATOM     22  F   UNL A   1      33.248  26.108  21.489  1.00  0.00    -0.167 F 
ENDBRANCH   9  19
ENDBRANCH   5   7
ENDBRANCH   2   3
ENDBRANCH   1   2
BRANCH   1  23
ATOM     23  C   UNL A   1      33.834  29.293  27.146  1.00  0.00     0.118 C 
BRANCH  23  24
ATOM     24  N   UNL A   1      33.956  30.470  28.001  1.00  0.00    -0.352 N 
ATOM     25  C   UNL A   1      35.019  30.917  28.766  1.00  0.00     0.251 C 
ATOM     26  H   UNL A   1      33.153  31.038  28.041  1.00  0.00     0.163 HD
ATOM     27  O   UNL A   1      34.892  31.889  29.486  1.00  0.00    -0.269 OA
BRANCH  25  28
ATOM     28  C   UNL A   1      36.304  30.178  28.734  1.00  0.00     0.039 A 
ATOM     29  C   UNL A   1      37.106  30.245  27.591  1.00  0.00     0.014 A 
ATOM     30  C   UNL A   1      36.736  29.465  29.849  1.00  0.00     0.014 A 
ATOM     31  C   UNL A   1      38.395  29.701  27.616  1.00  0.00     0.010 A 
ATOM     32  C   UNL A   1      38.055  29.036  29.915  1.00  0.00     0.010 A 
ATOM     33  C   UNL A   1      38.904  29.153  28.803  1.00  0.00    -0.014 A 
BRANCH  33  34
ATOM     34  C   UNL A   1      40.310  28.684  28.941  1.00  0.00     0.031 A 
ATOM     35  C   UNL A   1      41.372  29.665  29.362  1.00  0.00     0.074 A 
ATOM     36  C   UNL A   1      40.658  27.441  28.555  1.00  0.00     0.049 A 
ATOM     37  N   UNL A   1      42.674  29.566  29.282  1.00  0.00    -0.248 NA
ATOM     38  C   UNL A   1      40.898  30.958  29.882  1.00  0.00     0.031 C 
ATOM     39  C   UNL A   1      39.738  26.403  28.083  1.00  0.00     0.029 A 
ATOM     40  N   UNL A   1      41.893  26.847  28.470  1.00  0.00    -0.354 N 
ATOM     41  C   UNL A   1      43.167  30.801  29.683  1.00  0.00     0.074 A 
ATOM     42  C   UNL A   1      42.027  31.647  29.959  1.00  0.00     0.031 C 
ATOM     43  C   UNL A   1      40.438  25.298  27.779  1.00  0.00     0.029 A 
ATOM     44  C   UNL A   1      41.858  25.564  27.980  1.00  0.00     0.049 A 
ATOM     45  H   UNL A   1      42.727  27.299  28.735  1.00  0.00     0.167 HD
ATOM     46  C   UNL A   1      44.456  31.190  29.829  1.00  0.00     0.037 A 
ATOM     47  C   UNL A   1      42.859  24.706  27.703  1.00  0.00     0.037 A 
ATOM     48  C   UNL A   1      45.584  30.321  29.631  1.00  0.00     0.049 A 
ATOM     49  C   UNL A   1      44.281  25.143  27.920  1.00  0.00     0.074 A 
ATOM     50  C   UNL A   1      46.925  30.589  29.836  1.00  0.00     0.029 A 
ATOM     51  N   UNL A   1      45.497  29.005  29.202  1.00  0.00    -0.354 N 
ATOM     52  N   UNL A   1      44.735  26.302  28.331  1.00  0.00    -0.248 NA
ATOM     53  C   UNL A   1      45.331  24.155  27.631  1.00  0.00     0.031 C 
ATOM     54  C   UNL A   1      47.653  29.440  29.509  1.00  0.00     0.029 A 
ATOM     55  C   UNL A   1      46.761  28.448  29.134  1.00  0.00     0.049 A 
ATOM     56  H   UNL A   1      44.659  28.537  28.981  1.00  0.00     0.167 HD
ATOM     57  C   UNL A   1      46.116  26.174  28.381  1.00  0.00     0.074 A 
ATOM     58  C   UNL A   1      46.428  24.823  27.962  1.00  0.00     0.031 C 
ATOM     59  C   UNL A   1      47.045  27.093  28.740  1.00  0.00     0.037 A 
BRANCH  46  60
ATOM     60  C   UNL A   1      44.707  32.613  30.237  1.00  0.00     0.057 A 
ATOM     61  C   UNL A   1      44.879  33.634  29.295  1.00  0.00     0.134 A 
ATOM     62  C   UNL A   1      44.763  32.967  31.592  1.00  0.00     0.134 A 
ATOM     63  F   UNL A   1      44.850  33.359  27.982  1.00  0.00    -0.206 F 
ATOM     64  C   UNL A   1      45.134  34.951  29.682  1.00  0.00     0.040 A 
ATOM     65  C   UNL A   1      44.987  34.286  31.991  1.00  0.00     0.040 A 
ATOM     66  F   UNL A   1      44.601  32.040  32.548  1.00  0.00    -0.206 F 
ATOM     67  C   UNL A   1      45.183  35.281  31.035  1.00  0.00     0.006 A 
ENDBRANCH  46  60
BRANCH  47  68
ATOM     68  C   UNL A   1      42.555  23.338  27.211  1.00  0.00     0.057 A 
ATOM     69  C   UNL A   1      42.234  22.312  28.107  1.00  0.00     0.134 A 
ATOM     70  C   UNL A   1      42.581  23.020  25.848  1.00  0.00     0.134 A 
ATOM     71  F   UNL A   1      42.211  22.552  29.427  1.00  0.00    -0.206 F 
ATOM     72  C   UNL A   1      41.966  21.014  27.668  1.00  0.00     0.040 A 
ATOM     73  C   UNL A   1      42.292  21.731  25.394  1.00  0.00     0.040 A 
ATOM     74  F   UNL A   1      42.874  23.960  24.938  1.00  0.00    -0.206 F 
ATOM     75  C   UNL A   1      41.990  20.722  26.307  1.00  0.00     0.006 A 
ENDBRANCH  47  68
BRANCH  59  76
ATOM     76  C   UNL A   1      48.478  26.658  28.749  1.00  0.00     0.057 A 
ATOM     77  C   UNL A   1      49.069  26.089  29.883  1.00  0.00     0.134 A 
ATOM     78  C   UNL A   1      49.254  26.747  27.586  1.00  0.00     0.134 A 
ATOM     79  F   UNL A   1      48.381  25.987  31.030  1.00  0.00    -0.206 F 
ATOM     80  C   UNL A   1      50.387  25.631  29.862  1.00  0.00     0.040 A 
ATOM     81  C   UNL A   1      50.565  26.274  27.548  1.00  0.00     0.040 A 
ATOM     82  F   UNL A   1      48.741  27.276  26.465  1.00  0.00    -0.206 F 
ATOM     83  C   UNL A   1      51.136  25.715  28.690  1.00  0.00     0.006 A 
ENDBRANCH  59  76
ENDBRANCH  33  34
ENDBRANCH  25  28
ENDBRANCH  23  24
ENDBRANCH   1  23
TORSDOF 11
ENDMDL
MODEL 2
REMARK VINA RESULT:     -12.4      2.184      3.388
REMARK SMILES O=C(NCCCNC(=O)c1ccc(-c2c3nc(c(-c4c(F)cccc4F)c4ccc([nH]4)c(-c4c(F)cccc4F)c4nc(c(-c5c(F)cccc5F)c5ccc2[nH]5)C=C4)C=C3)cc1)C1=Cc2c(Cl)cc(Cl)cc2O[C@@H]1C(F)(F)F
REMARK SMILES IDX 5 1 4 2 3 3 1 4 2 5 64 7 65 8 75 9 66 10 74 11 67 12 73 13
REMARK SMILES IDX 68 14 69 15 72 16 70 17 71 18 76 19 77 20 78 21 79 22 6 23
REMARK SMILES IDX 7 24 8 25 9 27 10 28 11 29 63 30 12 31 62 32 13 33 14 34
REMARK SMILES IDX 15 35 56 36 16 37 61 38 55 39 57 40 17 41 60 42 54 43 53 44
REMARK SMILES IDX 18 46 44 47 27 48 43 49 28 50 31 51 42 52 58 53 29 54 30 55
REMARK SMILES IDX 41 57 59 58 32 59 19 60 20 61 25 62 21 63 22 64 24 65 26 66
REMARK SMILES IDX 23 67 45 68 46 69 51 70 47 71 48 72 50 73 52 74 49 75 33 76
REMARK SMILES IDX 34 77 39 78 35 79 36 80 38 81 40 82 37 83
REMARK H PARENT 3 6 7 26 57 45 31 56
REMARK Flexibility Score: inf
ROOT
ATOM      1  C   UNL A   1      33.680  29.008  25.753  1.00  0.00     0.042 C 
ENDROOT
BRANCH   1   2
ATOM      2  C   UNL A   1      32.266  28.935  25.187  1.00  0.00     0.118 C 
BRANCH   2   3
ATOM      3  N   UNL A   1      31.409  27.979  25.894  1.00  0.00    -0.352 N 
ATOM      4  O   UNL A   1      30.672  25.929  26.536  1.00  0.00    -0.270 OA
ATOM      5  C   UNL A   1      31.283  26.619  25.733  1.00  0.00     0.251 C 
ATOM      6  H   UNL A   1      30.835  28.371  26.592  1.00  0.00     0.163 HD
BRANCH   5   7
ATOM      7  C   UNL A   1      31.959  26.026  24.566  1.00  0.00     0.067 C 
ATOM      8  C   UNL A   1      33.131  25.427  24.815  1.00  0.00     0.027 C 
ATOM      9  C   UNL A   1      31.130  25.757  23.353  1.00  0.00     0.314 C 
ATOM     10  C   UNL A   1      33.268  24.090  24.215  1.00  0.00     0.036 A 
ATOM     11  O   UNL A   1      31.158  24.361  22.968  1.00  0.00    -0.475 OA
ATOM     12  C   UNL A   1      34.207  23.176  24.728  1.00  0.00     0.053 A 
ATOM     13  C   UNL A   1      32.199  23.594  23.437  1.00  0.00     0.130 A 
ATOM     14  Cl  UNL A   1      35.555  23.676  25.695  1.00  0.00    -0.083 Cl
ATOM     15  C   UNL A   1      34.009  21.803  24.578  1.00  0.00     0.042 A 
ATOM     16  C   UNL A   1      32.022  22.221  23.266  1.00  0.00     0.067 A 
ATOM     17  C   UNL A   1      32.903  21.335  23.876  1.00  0.00     0.046 A 
ATOM     18  Cl  UNL A   1      32.572  19.648  23.840  1.00  0.00    -0.084 Cl
BRANCH   9  19
ATOM     19  C   UNL A   1      31.542  26.654  22.175  1.00  0.00     0.429 C 
ATOM     20  F   UNL A   1      30.653  27.662  22.001  1.00  0.00    -0.167 F 
ATOM     21  F   UNL A   1      32.751  27.227  22.372  1.00  0.00    -0.167 F 
ATOM     22  F   UNL A   1      31.605  25.967  21.009  1.00  0.00    -0.167 F 
ENDBRANCH   9  19
ENDBRANCH   5   7
ENDBRANCH   2   3
ENDBRANCH   1   2
BRANCH   1  23
ATOM     23  C   UNL A   1      33.694  28.934  27.275  1.00  0.00     0.118 C 
BRANCH  23  24
ATOM     24  N   UNL A   1      33.851  30.232  27.926  1.00  0.00    -0.352 N 
ATOM     25  C   UNL A   1      34.949  30.795  28.551  1.00  0.00     0.251 C 
ATOM     26  H   UNL A   1      33.045  30.797  27.920  1.00  0.00     0.163 HD
ATOM     27  O   UNL A   1      34.851  31.868  29.115  1.00  0.00    -0.269 OA
BRANCH  25  28
ATOM     28  C   UNL A   1      36.237  30.062  28.566  1.00  0.00     0.039 A 
ATOM     29  C   UNL A   1      37.067  30.110  27.441  1.00  0.00     0.014 A 
ATOM     30  C   UNL A   1      36.645  29.374  29.705  1.00  0.00     0.014 A 
ATOM     31  C   UNL A   1      38.357  29.574  27.509  1.00  0.00     0.010 A 
ATOM     32  C   UNL A   1      37.964  28.953  29.811  1.00  0.00     0.010 A 
ATOM     33  C   UNL A   1      38.840  29.052  28.718  1.00  0.00    -0.014 A 
BRANCH  33  34
ATOM     34  C   UNL A   1      40.243  28.593  28.900  1.00  0.00     0.031 A 
ATOM     35  C   UNL A   1      41.284  29.579  29.363  1.00  0.00     0.074 A 
ATOM     36  C   UNL A   1      40.614  27.355  28.518  1.00  0.00     0.049 A 
ATOM     37  N   UNL A   1      42.588  29.491  29.326  1.00  0.00    -0.248 NA
ATOM     38  C   UNL A   1      40.782  30.865  29.876  1.00  0.00     0.031 C 
ATOM     39  C   UNL A   1      39.719  26.313  28.009  1.00  0.00     0.029 A 
ATOM     40  N   UNL A   1      41.856  26.771  28.471  1.00  0.00    -0.354 N 
ATOM     41  C   UNL A   1      43.058  30.727  29.751  1.00  0.00     0.074 A 
ATOM     42  C   UNL A   1      41.902  31.562  29.995  1.00  0.00     0.031 C 
ATOM     43  C   UNL A   1      40.437  25.216  27.721  1.00  0.00     0.029 A 
ATOM     44  C   UNL A   1      41.848  25.492  27.971  1.00  0.00     0.049 A 
ATOM     45  H   UNL A   1      42.677  27.228  28.767  1.00  0.00     0.167 HD
ATOM     46  C   UNL A   1      44.338  31.125  29.943  1.00  0.00     0.037 A 
ATOM     47  C   UNL A   1      42.864  24.643  27.722  1.00  0.00     0.037 A 
ATOM     48  C   UNL A   1      45.479  30.266  29.777  1.00  0.00     0.049 A 
ATOM     49  C   UNL A   1      44.275  25.090  27.989  1.00  0.00     0.074 A 
ATOM     50  C   UNL A   1      46.810  30.543  30.029  1.00  0.00     0.029 A 
ATOM     51  N   UNL A   1      45.416  28.953  29.337  1.00  0.00    -0.354 N 
ATOM     52  N   UNL A   1      44.705  26.250  28.423  1.00  0.00    -0.248 NA
ATOM     53  C   UNL A   1      45.342  24.112  27.729  1.00  0.00     0.031 C 
ATOM     54  C   UNL A   1      47.558  29.402  29.719  1.00  0.00     0.029 A 
ATOM     55  C   UNL A   1      46.687  28.406  29.308  1.00  0.00     0.049 A 
ATOM     56  H   UNL A   1      44.590  28.480  29.084  1.00  0.00     0.167 HD
ATOM     57  C   UNL A   1      46.085  26.132  28.518  1.00  0.00     0.074 A 
ATOM     58  C   UNL A   1      46.421  24.787  28.101  1.00  0.00     0.031 C 
ATOM     59  C   UNL A   1      46.994  27.055  28.914  1.00  0.00     0.037 A 
BRANCH  46  60
ATOM     60  C   UNL A   1      44.564  32.547  30.369  1.00  0.00     0.057 A 
ATOM     61  C   UNL A   1      44.616  32.916  31.719  1.00  0.00     0.134 A 
ATOM     62  C   UNL A   1      44.745  33.557  29.416  1.00  0.00     0.134 A 
ATOM     63  F   UNL A   1      44.436  31.999  32.682  1.00  0.00    -0.206 F 
ATOM     64  C   UNL A   1      44.804  34.243  32.107  1.00  0.00     0.040 A 
ATOM     65  C   UNL A   1      44.963  34.884  29.792  1.00  0.00     0.040 A 
ATOM     66  F   UNL A   1      44.712  33.273  28.105  1.00  0.00    -0.206 F 
ATOM     67  C   UNL A   1      44.984  35.232  31.141  1.00  0.00     0.006 A 
ENDBRANCH  46  60
BRANCH  47  68
ATOM     68  C   UNL A   1      42.588  23.276  27.211  1.00  0.00     0.057 A 
ATOM     69  C   UNL A   1      42.244  22.242  28.089  1.00  0.00     0.134 A 
ATOM     70  C   UNL A   1      42.663  22.968  25.849  1.00  0.00     0.134 A 
ATOM     71  F   UNL A   1      42.173  22.474  29.409  1.00  0.00    -0.206 F 
ATOM     72  C   UNL A   1      42.000  20.945  27.633  1.00  0.00     0.040 A 
ATOM     73  C   UNL A   1      42.401  21.679  25.376  1.00  0.00     0.040 A 
ATOM     74  F   UNL A   1      42.981  23.916  24.955  1.00  0.00    -0.206 F 
ATOM     75  C   UNL A   1      42.075  20.663  26.271  1.00  0.00     0.006 A 
ENDBRANCH  47  68
BRANCH  59  76
ATOM     76  C   UNL A   1      48.430  26.632  28.968  1.00  0.00     0.057 A 
ATOM     77  C   UNL A   1      49.315  26.890  27.914  1.00  0.00     0.134 A 
ATOM     78  C   UNL A   1      48.947  26.022  30.118  1.00  0.00     0.134 A 
ATOM     79  F   UNL A   1      48.876  27.460  26.782  1.00  0.00    -0.206 F 
ATOM     80  C   UNL A   1      50.665  26.545  28.000  1.00  0.00     0.040 A 
ATOM     81  C   UNL A   1      50.297  25.692  30.223  1.00  0.00     0.040 A 
ATOM     82  F   UNL A   1      48.150  25.756  31.164  1.00  0.00    -0.206 F 
ATOM     83  C   UNL A   1      51.161  25.953  29.159  1.00  0.00     0.006 A 
ENDBRANCH  59  76
ENDBRANCH  33  34
ENDBRANCH  25  28
ENDBRANCH  23  24
ENDBRANCH   1  23
TORSDOF 11
ENDMDL
MODEL 3
REMARK VINA RESULT:     -12.4      4.512      7.974
REMARK SMILES O=C(NCCCNC(=O)c1ccc(-c2c3nc(c(-c4c(F)cccc4F)c4ccc([nH]4)c(-c4c(F)cccc4F)c4nc(c(-c5c(F)cccc5F)c5ccc2[nH]5)C=C4)C=C3)cc1)C1=Cc2c(Cl)cc(Cl)cc2O[C@@H]1C(F)(F)F
REMARK SMILES IDX 5 1 4 2 3 3 1 4 2 5 64 7 65 8 75 9 66 10 74 11 67 12 73 13
REMARK SMILES IDX 68 14 69 15 72 16 70 17 71 18 76 19 77 20 78 21 79 22 6 23
REMARK SMILES IDX 7 24 8 25 9 27 10 28 11 29 63 30 12 31 62 32 13 33 14 34
REMARK SMILES IDX 15 35 56 36 16 37 61 38 55 39 57 40 17 41 60 42 54 43 53 44
REMARK SMILES IDX 18 46 44 47 27 48 43 49 28 50 31 51 42 52 58 53 29 54 30 55
REMARK SMILES IDX 41 57 59 58 32 59 19 60 20 61 25 62 21 63 22 64 24 65 26 66
REMARK SMILES IDX 23 67 45 68 46 69 51 70 47 71 48 72 50 73 52 74 49 75 33 76
REMARK SMILES IDX 34 77 39 78 35 79 36 80 38 81 40 82 37 83
REMARK H PARENT 3 6 7 26 57 45 31 56
REMARK Flexibility Score: inf
ROOT
ATOM      1  C   UNL A   1      31.765  29.037  27.197  1.00  0.00     0.042 C 
ENDROOT
BRANCH   1   2
ATOM      2  C   UNL A   1      32.153  27.602  26.858  1.00  0.00     0.118 C 
BRANCH   2   3
ATOM      3  N   UNL A   1      31.006  26.694  26.789  1.00  0.00    -0.352 N 
ATOM      4  O   UNL A   1      29.941  24.708  26.501  1.00  0.00    -0.270 OA
ATOM      5  C   UNL A   1      30.923  25.410  26.305  1.00  0.00     0.251 C 
ATOM      6  H   UNL A   1      30.163  27.059  27.146  1.00  0.00     0.163 HD
BRANCH   5   7
ATOM      7  C   UNL A   1      32.097  24.902  25.574  1.00  0.00     0.067 C 
ATOM      8  C   UNL A   1      32.815  23.965  26.205  1.00  0.00     0.027 C 
ATOM      9  C   UNL A   1      32.139  25.126  24.098  1.00  0.00     0.314 C 
ATOM     10  C   UNL A   1      33.144  22.792  25.377  1.00  0.00     0.036 A 
ATOM     11  O   UNL A   1      32.246  23.886  23.358  1.00  0.00    -0.475 OA
ATOM     12  C   UNL A   1      33.487  21.570  25.984  1.00  0.00     0.053 A 
ATOM     13  C   UNL A   1      32.711  22.782  24.033  1.00  0.00     0.130 A 
ATOM     14  Cl  UNL A   1      34.028  21.469  27.626  1.00  0.00    -0.083 Cl
ATOM     15  C   UNL A   1      33.276  20.365  25.311  1.00  0.00     0.042 A 
ATOM     16  C   UNL A   1      32.530  21.576  23.355  1.00  0.00     0.067 A 
ATOM     17  C   UNL A   1      32.770  20.375  24.015  1.00  0.00     0.046 A 
ATOM     18  Cl  UNL A   1      32.353  18.890  23.255  1.00  0.00    -0.084 Cl
BRANCH   9  19
ATOM     19  C   UNL A   1      33.265  26.093  23.703  1.00  0.00     0.429 C 
ATOM     20  F   UNL A   1      33.709  25.832  22.449  1.00  0.00    -0.167 F 
ATOM     21  F   UNL A   1      32.855  27.382  23.713  1.00  0.00    -0.167 F 
ATOM     22  F   UNL A   1      34.331  26.001  24.533  1.00  0.00    -0.167 F 
ENDBRANCH   9  19
ENDBRANCH   5   7
ENDBRANCH   2   3
ENDBRANCH   1   2
BRANCH   1  23
ATOM     23  C   UNL A   1      32.464  30.050  26.298  1.00  0.00     0.118 C 
BRANCH  23  24
ATOM     24  N   UNL A   1      32.191  31.440  26.653  1.00  0.00    -0.352 N 
ATOM     25  C   UNL A   1      32.955  32.352  27.358  1.00  0.00     0.251 C 
ATOM     26  H   UNL A   1      31.323  31.784  26.340  1.00  0.00     0.163 HD
ATOM     27  O   UNL A   1      32.508  33.451  27.626  1.00  0.00    -0.269 OA
BRANCH  25  28
ATOM     28  C   UNL A   1      34.309  31.967  27.824  1.00  0.00     0.039 A 
ATOM     29  C   UNL A   1      35.283  32.955  27.995  1.00  0.00     0.014 A 
ATOM     30  C   UNL A   1      34.598  30.641  28.137  1.00  0.00     0.014 A 
ATOM     31  C   UNL A   1      36.501  32.630  28.600  1.00  0.00     0.010 A 
ATOM     32  C   UNL A   1      35.753  30.345  28.846  1.00  0.00     0.010 A 
ATOM     33  C   UNL A   1      36.718  31.335  29.094  1.00  0.00    -0.014 A 
BRANCH  33  34
ATOM     34  C   UNL A   1      37.930  30.955  29.869  1.00  0.00     0.031 A 
ATOM     35  C   UNL A   1      38.922  30.000  29.259  1.00  0.00     0.074 A 
ATOM     36  C   UNL A   1      38.070  31.339  31.153  1.00  0.00     0.049 A 
ATOM     37  N   UNL A   1      39.881  29.320  29.830  1.00  0.00    -0.248 NA
ATOM     38  C   UNL A   1      38.765  29.727  27.820  1.00  0.00     0.031 C 
ATOM     39  C   UNL A   1      37.162  32.225  31.884  1.00  0.00     0.029 A 
ATOM     40  N   UNL A   1      39.022  31.005  32.085  1.00  0.00    -0.354 N 
ATOM     41  C   UNL A   1      40.399  28.498  28.837  1.00  0.00     0.074 A 
ATOM     42  C   UNL A   1      39.617  28.729  27.642  1.00  0.00     0.031 C 
ATOM     43  C   UNL A   1      37.611  32.379  33.140  1.00  0.00     0.029 A 
ATOM     44  C   UNL A   1      38.805  31.562  33.322  1.00  0.00     0.049 A 
ATOM     45  H   UNL A   1      39.789  30.420  31.885  1.00  0.00     0.167 HD
ATOM     46  C   UNL A   1      41.447  27.642  28.908  1.00  0.00     0.037 A 
ATOM     47  C   UNL A   1      39.480  31.413  34.478  1.00  0.00     0.037 A 
ATOM     48  C   UNL A   1      42.270  27.477  30.074  1.00  0.00     0.049 A 
ATOM     49  C   UNL A   1      40.670  30.495  34.521  1.00  0.00     0.074 A 
ATOM     50  C   UNL A   1      43.406  26.703  30.225  1.00  0.00     0.029 A 
ATOM     51  N   UNL A   1      42.055  28.116  31.286  1.00  0.00    -0.354 N 
ATOM     52  N   UNL A   1      41.171  29.748  33.566  1.00  0.00    -0.248 NA
ATOM     53  C   UNL A   1      41.387  30.395  35.800  1.00  0.00     0.031 C 
ATOM     54  C   UNL A   1      43.867  26.856  31.536  1.00  0.00     0.029 A 
ATOM     55  C   UNL A   1      43.036  27.753  32.190  1.00  0.00     0.049 A 
ATOM     56  H   UNL A   1      41.314  28.738  31.473  1.00  0.00     0.167 HD
ATOM     57  C   UNL A   1      42.276  29.116  34.119  1.00  0.00     0.074 A 
ATOM     58  C   UNL A   1      42.378  29.570  35.490  1.00  0.00     0.031 C 
ATOM     59  C   UNL A   1      43.132  28.238  33.542  1.00  0.00     0.037 A 
BRANCH  46  60
ATOM     60  C   UNL A   1      41.765  26.836  27.682  1.00  0.00     0.057 A 
ATOM     61  C   UNL A   1      42.619  27.316  26.681  1.00  0.00     0.134 A 
ATOM     62  C   UNL A   1      41.219  25.557  27.508  1.00  0.00     0.134 A 
ATOM     63  F   UNL A   1      43.163  28.539  26.780  1.00  0.00    -0.206 F 
ATOM     64  C   UNL A   1      42.892  26.570  25.534  1.00  0.00     0.040 A 
ATOM     65  C   UNL A   1      41.510  24.789  26.378  1.00  0.00     0.040 A 
ATOM     66  F   UNL A   1      40.398  25.034  28.430  1.00  0.00    -0.206 F 
ATOM     67  C   UNL A   1      42.340  25.299  25.383  1.00  0.00     0.006 A 
ENDBRANCH  46  60
BRANCH  47  68
ATOM     68  C   UNL A   1      39.063  32.167  35.689  1.00  0.00     0.057 A 
ATOM     69  C   UNL A   1      38.225  31.577  36.643  1.00  0.00     0.134 A 
ATOM     70  C   UNL A   1      39.480  33.482  35.920  1.00  0.00     0.134 A 
ATOM     71  F   UNL A   1      37.778  30.325  36.466  1.00  0.00    -0.206 F 
ATOM     72  C   UNL A   1      37.804  32.274  37.777  1.00  0.00     0.040 A 
ATOM     73  C   UNL A   1      39.084  34.183  37.062  1.00  0.00     0.040 A 
ATOM     74  F   UNL A   1      40.289  34.100  35.048  1.00  0.00    -0.206 F 
ATOM     75  C   UNL A   1      38.238  33.580  37.991  1.00  0.00     0.006 A 
ENDBRANCH  47  68
BRANCH  59  76
ATOM     76  C   UNL A   1      44.281  27.749  34.371  1.00  0.00     0.057 A 
ATOM     77  C   UNL A   1      45.490  28.451  34.440  1.00  0.00     0.134 A 
ATOM     78  C   UNL A   1      44.147  26.601  35.161  1.00  0.00     0.134 A 
ATOM     79  F   UNL A   1      45.682  29.551  33.697  1.00  0.00    -0.206 F 
ATOM     80  C   UNL A   1      46.533  28.019  35.262  1.00  0.00     0.040 A 
ATOM     81  C   UNL A   1      45.174  26.172  36.001  1.00  0.00     0.040 A 
ATOM     82  F   UNL A   1      43.009  25.891  35.143  1.00  0.00    -0.206 F 
ATOM     83  C   UNL A   1      46.373  26.882  36.052  1.00  0.00     0.006 A 
ENDBRANCH  59  76
ENDBRANCH  33  34
ENDBRANCH  25  28
ENDBRANCH  23  24
ENDBRANCH   1  23
TORSDOF 11
ENDMDL
