MODEL 1
REMARK VINA RESULT:     -14.3      0.000      0.000
REMARK SMILES O=C(NCCCNC(=O)[C@@H]1[C@@H](C(=O)Nc2sc3c(c2C(=O)NC2CCCC2)CCC3)[C@@H]2C=C[C@H]1CC2)c1ccc(-c2c3nc(c(-c4c(F)cccc4F)c4ccc([nH]4)c(-c4c(F)cccc4F)c4nc(c(-c5c(F)cccc5F)c5ccc2[nH]5)C=C4)C=C3)cc1
REMARK SMILES IDX 6 1 5 2 4 3 3 4 1 5 2 6 37 8 38 9 90 10 39 11 89 12 40 13
REMARK SMILES IDX 41 14 42 15 83 16 43 17 88 18 82 19 84 20 44 21 87 22 81 23
REMARK SMILES IDX 80 24 45 26 71 27 54 28 70 29 55 30 58 31 69 32 85 33 56 34
REMARK SMILES IDX 57 35 68 37 86 38 59 39 46 40 47 41 52 42 48 43 49 44 51 45
REMARK SMILES IDX 53 46 50 47 72 48 73 49 78 50 74 51 75 52 77 53 79 54 76 55
REMARK SMILES IDX 60 56 61 57 66 58 62 59 63 60 65 61 67 62 64 63 7 64 8 65
REMARK SMILES IDX 9 67 10 68 11 69 34 70 31 71 33 72 35 73 32 74 36 75 12 76
REMARK SMILES IDX 13 77 14 78 15 80 16 81 19 82 17 83 18 84 30 85 28 86 29 87
REMARK SMILES IDX 20 88 21 89 22 90 23 92 24 93 27 94 25 95 26 96
REMARK H PARENT 3 7 84 25 58 36 7 66 14 79 22 91
REMARK Flexibility Score: inf
ROOT
ATOM      1  C   UNL A   1      31.812  30.035  25.474  1.00  0.00     0.117 C 
ENDROOT
BRANCH   1   2
ATOM      2  C   UNL A   1      32.155  30.597  26.856  1.00  0.00     0.042 C 
BRANCH   2   3
ATOM      3  C   UNL A   1      33.596  30.350  27.305  1.00  0.00     0.118 C 
BRANCH   3   4
ATOM      4  N   UNL A   1      34.301  31.537  27.752  1.00  0.00    -0.352 N 
ATOM      5  O   UNL A   1      35.823  33.040  28.279  1.00  0.00    -0.269 OA
ATOM      6  C   UNL A   1      35.591  31.843  28.084  1.00  0.00     0.251 C 
ATOM      7  H   UNL A   1      33.703  32.314  27.837  1.00  0.00     0.163 HD
BRANCH   6   8
ATOM      8  C   UNL A   1      36.698  30.868  28.286  1.00  0.00     0.039 A 
ATOM      9  C   UNL A   1      36.683  29.515  27.949  1.00  0.00     0.014 A 
ATOM     10  C   UNL A   1      37.854  31.390  28.904  1.00  0.00     0.014 A 
ATOM     11  C   UNL A   1      37.760  28.693  28.290  1.00  0.00     0.010 A 
ATOM     12  C   UNL A   1      38.932  30.577  29.240  1.00  0.00     0.010 A 
ATOM     13  C   UNL A   1      38.869  29.215  28.967  1.00  0.00    -0.014 A 
BRANCH  13  14
ATOM     14  C   UNL A   1      40.003  28.337  29.254  1.00  0.00     0.031 A 
ATOM     15  C   UNL A   1      40.371  28.234  30.700  1.00  0.00     0.074 A 
ATOM     16  C   UNL A   1      40.596  27.541  28.338  1.00  0.00     0.049 A 
ATOM     17  N   UNL A   1      41.497  28.526  31.268  1.00  0.00    -0.248 NA
ATOM     18  C   UNL A   1      39.317  27.828  31.644  1.00  0.00     0.031 C 
ATOM     19  C   UNL A   1      40.185  27.274  26.956  1.00  0.00     0.029 A 
ATOM     20  N   UNL A   1      41.676  26.722  28.494  1.00  0.00    -0.354 N 
ATOM     21  C   UNL A   1      41.352  28.199  32.616  1.00  0.00     0.074 A 
ATOM     22  C   UNL A   1      39.962  27.878  32.810  1.00  0.00     0.031 C 
ATOM     23  C   UNL A   1      40.876  26.211  26.478  1.00  0.00     0.029 A 
ATOM     24  C   UNL A   1      41.873  25.815  27.458  1.00  0.00     0.049 A 
ATOM     25  H   UNL A   1      42.271  26.770  29.277  1.00  0.00     0.167 HD
ATOM     26  C   UNL A   1      42.422  28.052  33.447  1.00  0.00     0.037 A 
ATOM     27  C   UNL A   1      42.763  24.791  27.430  1.00  0.00     0.037 A 
ATOM     28  C   UNL A   1      43.597  28.685  32.916  1.00  0.00     0.049 A 
ATOM     29  C   UNL A   1      43.802  25.067  28.450  1.00  0.00     0.074 A 
ATOM     30  C   UNL A   1      43.938  29.987  32.600  1.00  0.00     0.029 A 
ATOM     31  N   UNL A   1      44.535  27.901  32.295  1.00  0.00    -0.354 N 
ATOM     32  N   UNL A   1      44.674  26.030  28.360  1.00  0.00    -0.248 NA
ATOM     33  C   UNL A   1      43.583  24.540  29.788  1.00  0.00     0.031 C 
ATOM     34  C   UNL A   1      44.716  29.882  31.410  1.00  0.00     0.029 A 
ATOM     35  C   UNL A   1      44.852  28.525  31.114  1.00  0.00     0.049 A 
ATOM     36  H   UNL A   1      44.910  27.054  32.630  1.00  0.00     0.167 HD
ATOM     37  C   UNL A   1      44.787  26.522  29.651  1.00  0.00     0.074 A 
ATOM     38  C   UNL A   1      44.152  25.516  30.500  1.00  0.00     0.031 C 
ATOM     39  C   UNL A   1      45.131  27.822  29.886  1.00  0.00     0.037 A 
BRANCH  26  40
ATOM     40  C   UNL A   1      42.480  27.079  34.596  1.00  0.00     0.057 A 
ATOM     41  C   UNL A   1      42.858  25.742  34.367  1.00  0.00     0.134 A 
ATOM     42  C   UNL A   1      41.910  27.331  35.860  1.00  0.00     0.134 A 
ATOM     43  F   UNL A   1      43.391  25.368  33.195  1.00  0.00    -0.206 F 
ATOM     44  C   UNL A   1      42.628  24.726  35.304  1.00  0.00     0.040 A 
ATOM     45  C   UNL A   1      41.719  26.333  36.820  1.00  0.00     0.040 A 
ATOM     46  F   UNL A   1      41.417  28.531  36.191  1.00  0.00    -0.206 F 
ATOM     47  C   UNL A   1      42.051  25.018  36.533  1.00  0.00     0.006 A 
ENDBRANCH  26  40
BRANCH  27  48
ATOM     48  C   UNL A   1      42.619  23.448  26.821  1.00  0.00     0.057 A 
ATOM     49  C   UNL A   1      43.638  22.884  26.036  1.00  0.00     0.134 A 
ATOM     50  C   UNL A   1      41.608  22.569  27.243  1.00  0.00     0.134 A 
ATOM     51  F   UNL A   1      44.672  23.631  25.625  1.00  0.00    -0.206 F 
ATOM     52  C   UNL A   1      43.660  21.520  25.711  1.00  0.00     0.040 A 
ATOM     53  C   UNL A   1      41.617  21.206  26.923  1.00  0.00     0.040 A 
ATOM     54  F   UNL A   1      40.630  22.984  28.061  1.00  0.00    -0.206 F 
ATOM     55  C   UNL A   1      42.653  20.674  26.166  1.00  0.00     0.006 A 
ENDBRANCH  27  48
BRANCH  39  56
ATOM     56  C   UNL A   1      45.598  28.648  28.717  1.00  0.00     0.057 A 
ATOM     57  C   UNL A   1      44.742  29.386  27.884  1.00  0.00     0.134 A 
ATOM     58  C   UNL A   1      46.971  28.822  28.519  1.00  0.00     0.134 A 
ATOM     59  F   UNL A   1      43.415  29.367  28.059  1.00  0.00    -0.206 F 
ATOM     60  C   UNL A   1      45.231  30.222  26.875  1.00  0.00     0.040 A 
ATOM     61  C   UNL A   1      47.473  29.680  27.537  1.00  0.00     0.040 A 
ATOM     62  F   UNL A   1      47.853  28.195  29.313  1.00  0.00    -0.206 F 
ATOM     63  C   UNL A   1      46.602  30.376  26.703  1.00  0.00     0.006 A 
ENDBRANCH  39  56
ENDBRANCH  13  14
ENDBRANCH   6   8
ENDBRANCH   3   4
ENDBRANCH   2   3
ENDBRANCH   1   2
BRANCH   1  64
ATOM     64  N   UNL A   1      32.931  29.337  24.857  1.00  0.00    -0.356 N 
ATOM     65  C   UNL A   1      33.073  28.059  24.405  1.00  0.00     0.224 C 
ATOM     66  H   UNL A   1      33.736  29.891  24.746  1.00  0.00     0.163 HD
ATOM     67  O   UNL A   1      34.173  27.761  23.932  1.00  0.00    -0.275 OA
BRANCH  65  68
ATOM     68  C   UNL A   1      31.923  27.060  24.494  1.00  0.00     0.098 C 
ATOM     69  C   UNL A   1      32.482  25.602  24.670  1.00  0.00     0.099 C 
ATOM     70  C   UNL A   1      31.020  27.120  23.225  1.00  0.00     0.025 C 
ATOM     71  C   UNL A   1      31.817  24.680  23.601  1.00  0.00     0.025 C 
ATOM     72  C   UNL A   1      31.747  26.508  22.045  1.00  0.00    -0.027 C 
ATOM     73  C   UNL A   1      29.799  26.208  23.504  1.00  0.00     0.009 C 
ATOM     74  C   UNL A   1      32.170  25.250  22.242  1.00  0.00    -0.027 C 
ATOM     75  C   UNL A   1      30.278  24.755  23.727  1.00  0.00     0.009 C 
BRANCH  69  76
ATOM     76  C   UNL A   1      32.245  25.092  26.094  1.00  0.00     0.229 C 
ATOM     77  O   UNL A   1      31.504  25.699  26.877  1.00  0.00    -0.274 OA
ATOM     78  N   UNL A   1      32.725  23.892  26.524  1.00  0.00    -0.317 N 
ATOM     79  H   UNL A   1      32.342  23.580  27.376  1.00  0.00     0.170 HD
BRANCH  78  80
ATOM     80  C   UNL A   1      33.653  23.044  25.971  1.00  0.00     0.108 A 
ATOM     81  S   UNL A   1      35.142  23.880  25.811  1.00  0.00    -0.122 S 
ATOM     82  C   UNL A   1      33.661  21.727  25.477  1.00  0.00     0.078 A 
ATOM     83  C   UNL A   1      35.894  22.466  25.382  1.00  0.00     0.011 A 
ATOM     84  C   UNL A   1      35.053  21.390  25.221  1.00  0.00    -0.019 A 
ATOM     85  C   UNL A   1      37.323  22.224  25.070  1.00  0.00     0.047 C 
ATOM     86  C   UNL A   1      35.886  20.248  24.726  1.00  0.00     0.038 C 
ATOM     87  C   UNL A   1      37.349  20.686  25.001  1.00  0.00     0.010 C 
BRANCH  82  88
ATOM     88  C   UNL A   1      32.372  21.031  25.233  1.00  0.00     0.254 C 
ATOM     89  O   UNL A   1      31.305  21.643  25.319  1.00  0.00    -0.269 OA
ATOM     90  N   UNL A   1      32.233  19.702  24.914  1.00  0.00    -0.349 N 
ATOM     91  H   UNL A   1      31.313  19.359  24.987  1.00  0.00     0.164 HD
BRANCH  90  92
ATOM     92  C   UNL A   1      33.192  18.734  24.494  1.00  0.00     0.082 C 
ATOM     93  C   UNL A   1      33.324  17.522  25.408  1.00  0.00     0.025 C 
ATOM     94  C   UNL A   1      32.928  18.069  23.148  1.00  0.00     0.025 C 
ATOM     95  C   UNL A   1      34.198  16.569  24.591  1.00  0.00     0.002 C 
ATOM     96  C   UNL A   1      34.018  16.997  23.127  1.00  0.00     0.002 C 
ENDBRANCH  90  92
ENDBRANCH  82  88
ENDBRANCH  78  80
ENDBRANCH  69  76
ENDBRANCH  65  68
ENDBRANCH   1  64
TORSDOF 14
ENDMDL
MODEL 2
REMARK VINA RESULT:     -13.4      1.351      2.367
REMARK SMILES O=C(NCCCNC(=O)[C@@H]1[C@@H](C(=O)Nc2sc3c(c2C(=O)NC2CCCC2)CCC3)[C@@H]2C=C[C@H]1CC2)c1ccc(-c2c3nc(c(-c4c(F)cccc4F)c4ccc([nH]4)c(-c4c(F)cccc4F)c4nc(c(-c5c(F)cccc5F)c5ccc2[nH]5)C=C4)C=C3)cc1
REMARK SMILES IDX 6 1 5 2 4 3 3 4 1 5 2 6 37 8 38 9 90 10 39 11 89 12 40 13
REMARK SMILES IDX 41 14 42 15 83 16 43 17 88 18 82 19 84 20 44 21 87 22 81 23
REMARK SMILES IDX 80 24 45 26 71 27 54 28 70 29 55 30 58 31 69 32 85 33 56 34
REMARK SMILES IDX 57 35 68 37 86 38 59 39 46 40 47 41 52 42 48 43 49 44 51 45
REMARK SMILES IDX 53 46 50 47 72 48 73 49 78 50 74 51 75 52 77 53 79 54 76 55
REMARK SMILES IDX 60 56 61 57 66 58 62 59 63 60 65 61 67 62 64 63 7 64 8 65
REMARK SMILES IDX 9 67 10 68 11 69 34 70 31 71 33 72 35 73 32 74 36 75 12 76
REMARK SMILES IDX 13 77 14 78 15 80 16 81 19 82 17 83 18 84 30 85 28 86 29 87
REMARK SMILES IDX 20 88 21 89 22 90 23 92 24 93 27 94 25 95 26 96
REMARK H PARENT 3 7 84 25 58 36 7 66 14 79 22 91
REMARK Flexibility Score: inf
ROOT
ATOM      1  C   UNL A   1      31.588  29.870  25.034  1.00  0.00     0.117 C 
ENDROOT
BRANCH   1   2
ATOM      2  C   UNL A   1      32.258  29.428  26.338  1.00  0.00     0.042 C 
BRANCH   2   3
ATOM      3  C   UNL A   1      33.676  29.964  26.541  1.00  0.00     0.118 C 
BRANCH   3   4
ATOM      4  N   UNL A   1      33.774  31.072  27.474  1.00  0.00    -0.352 N 
ATOM      5  O   UNL A   1      34.474  32.658  28.832  1.00  0.00    -0.269 OA
ATOM      6  C   UNL A   1      34.747  31.585  28.285  1.00  0.00     0.251 C 
ATOM      7  H   UNL A   1      32.933  31.578  27.539  1.00  0.00     0.163 HD
BRANCH   6   8
ATOM      8  C   UNL A   1      36.051  30.942  28.605  1.00  0.00     0.039 A 
ATOM      9  C   UNL A   1      37.231  31.594  28.962  1.00  0.00     0.014 A 
ATOM     10  C   UNL A   1      36.070  29.535  28.502  1.00  0.00     0.014 A 
ATOM     11  C   UNL A   1      38.411  30.867  29.136  1.00  0.00     0.010 A 
ATOM     12  C   UNL A   1      37.241  28.807  28.680  1.00  0.00     0.010 A 
ATOM     13  C   UNL A   1      38.426  29.478  28.961  1.00  0.00    -0.014 A 
BRANCH  13  14
ATOM     14  C   UNL A   1      39.667  28.744  29.210  1.00  0.00     0.031 A 
ATOM     15  C   UNL A   1      40.059  28.640  30.649  1.00  0.00     0.074 A 
ATOM     16  C   UNL A   1      40.348  28.065  28.263  1.00  0.00     0.049 A 
ATOM     17  N   UNL A   1      41.144  29.056  31.220  1.00  0.00    -0.248 NA
ATOM     18  C   UNL A   1      39.077  28.068  31.584  1.00  0.00     0.031 C 
ATOM     19  C   UNL A   1      39.961  27.795  26.875  1.00  0.00     0.029 A 
ATOM     20  N   UNL A   1      41.527  27.387  28.383  1.00  0.00    -0.354 N 
ATOM     21  C   UNL A   1      41.057  28.666  32.557  1.00  0.00     0.074 A 
ATOM     22  C   UNL A   1      39.722  28.161  32.748  1.00  0.00     0.031 C 
ATOM     23  C   UNL A   1      40.778  26.848  26.355  1.00  0.00     0.029 A 
ATOM     24  C   UNL A   1      41.828  26.551  27.314  1.00  0.00     0.049 A 
ATOM     25  H   UNL A   1      42.119  27.486  29.164  1.00  0.00     0.167 HD
ATOM     26  C   UNL A   1      42.145  28.631  33.376  1.00  0.00     0.037 A 
ATOM     27  C   UNL A   1      42.843  25.652  27.244  1.00  0.00     0.037 A 
ATOM     28  C   UNL A   1      43.223  29.429  32.861  1.00  0.00     0.049 A 
ATOM     29  C   UNL A   1      43.848  26.025  28.268  1.00  0.00     0.074 A 
ATOM     30  C   UNL A   1      43.389  30.774  32.590  1.00  0.00     0.029 A 
ATOM     31  N   UNL A   1      44.248  28.795  32.207  1.00  0.00    -0.354 N 
ATOM     32  N   UNL A   1      44.588  27.095  28.207  1.00  0.00    -0.248 NA
ATOM     33  C   UNL A   1      43.713  25.428  29.587  1.00  0.00     0.031 C 
ATOM     34  C   UNL A   1      44.162  30.812  31.393  1.00  0.00     0.029 A 
ATOM     35  C   UNL A   1      44.469  29.496  31.048  1.00  0.00     0.049 A 
ATOM     36  H   UNL A   1      44.733  27.993  32.509  1.00  0.00     0.167 HD
ATOM     37  C   UNL A   1      44.648  27.553  29.514  1.00  0.00     0.074 A 
ATOM     38  C   UNL A   1      44.159  26.444  30.330  1.00  0.00     0.031 C 
ATOM     39  C   UNL A   1      44.824  28.878  29.793  1.00  0.00     0.037 A 
BRANCH  26  40
ATOM     40  C   UNL A   1      42.341  27.634  34.489  1.00  0.00     0.057 A 
ATOM     41  C   UNL A   1      42.783  26.330  34.196  1.00  0.00     0.134 A 
ATOM     42  C   UNL A   1      41.843  27.817  35.795  1.00  0.00     0.134 A 
ATOM     43  F   UNL A   1      43.258  26.021  32.980  1.00  0.00    -0.206 F 
ATOM     44  C   UNL A   1      42.680  25.277  35.115  1.00  0.00     0.040 A 
ATOM     45  C   UNL A   1      41.780  26.784  36.735  1.00  0.00     0.040 A 
ATOM     46  F   UNL A   1      41.301  28.975  36.193  1.00  0.00    -0.206 F 
ATOM     47  C   UNL A   1      42.172  25.501  36.388  1.00  0.00     0.006 A 
ENDBRANCH  26  40
BRANCH  27  48
ATOM     48  C   UNL A   1      42.868  24.324  26.589  1.00  0.00     0.057 A 
ATOM     49  C   UNL A   1      43.857  23.986  25.651  1.00  0.00     0.134 A 
ATOM     50  C   UNL A   1      42.104  23.257  27.090  1.00  0.00     0.134 A 
ATOM     51  F   UNL A   1      44.670  24.927  25.151  1.00  0.00    -0.206 F 
ATOM     52  C   UNL A   1      44.086  22.660  25.254  1.00  0.00     0.040 A 
ATOM     53  C   UNL A   1      42.320  21.930  26.700  1.00  0.00     0.040 A 
ATOM     54  F   UNL A   1      41.186  23.456  28.047  1.00  0.00    -0.206 F 
ATOM     55  C   UNL A   1      43.324  21.626  25.788  1.00  0.00     0.006 A 
ENDBRANCH  27  48
BRANCH  39  56
ATOM     56  C   UNL A   1      45.168  29.797  28.652  1.00  0.00     0.057 A 
ATOM     57  C   UNL A   1      44.215  30.424  27.833  1.00  0.00     0.134 A 
ATOM     58  C   UNL A   1      46.501  30.179  28.471  1.00  0.00     0.134 A 
ATOM     59  F   UNL A   1      42.905  30.203  27.995  1.00  0.00    -0.206 F 
ATOM     60  C   UNL A   1      44.579  31.352  26.852  1.00  0.00     0.040 A 
ATOM     61  C   UNL A   1      46.874  31.130  27.517  1.00  0.00     0.040 A 
ATOM     62  F   UNL A   1      47.463  29.667  29.255  1.00  0.00    -0.206 F 
ATOM     63  C   UNL A   1      45.913  31.713  26.695  1.00  0.00     0.006 A 
ENDBRANCH  39  56
ENDBRANCH  13  14
ENDBRANCH   6   8
ENDBRANCH   3   4
ENDBRANCH   2   3
ENDBRANCH   1   2
BRANCH   1  64
ATOM     64  N   UNL A   1      31.991  29.059  23.893  1.00  0.00    -0.356 N 
ATOM     65  C   UNL A   1      32.076  27.711  23.715  1.00  0.00     0.224 C 
ATOM     66  H   UNL A   1      32.249  29.583  23.102  1.00  0.00     0.163 HD
ATOM     67  O   UNL A   1      32.468  27.325  22.611  1.00  0.00    -0.275 OA
BRANCH  65  68
ATOM     68  C   UNL A   1      31.709  26.744  24.836  1.00  0.00     0.098 C 
ATOM     69  C   UNL A   1      32.504  25.398  24.676  1.00  0.00     0.099 C 
ATOM     70  C   UNL A   1      30.179  26.445  24.850  1.00  0.00     0.025 C 
ATOM     71  C   UNL A   1      31.493  24.211  24.740  1.00  0.00     0.025 C 
ATOM     72  C   UNL A   1      29.816  25.561  23.674  1.00  0.00    -0.027 C 
ATOM     73  C   UNL A   1      29.899  25.610  26.125  1.00  0.00     0.009 C 
ATOM     74  C   UNL A   1      30.502  24.410  23.609  1.00  0.00    -0.027 C 
ATOM     75  C   UNL A   1      30.683  24.280  26.055  1.00  0.00     0.009 C 
BRANCH  69  76
ATOM     76  C   UNL A   1      33.598  25.277  25.741  1.00  0.00     0.229 C 
ATOM     77  O   UNL A   1      34.002  26.269  26.359  1.00  0.00    -0.274 OA
ATOM     78  N   UNL A   1      34.082  24.071  26.149  1.00  0.00    -0.317 N 
ATOM     79  H   UNL A   1      34.624  24.105  26.970  1.00  0.00     0.170 HD
BRANCH  78  80
ATOM     80  C   UNL A   1      33.942  22.816  25.608  1.00  0.00     0.108 A 
ATOM     81  S   UNL A   1      33.526  21.718  26.858  1.00  0.00    -0.122 S 
ATOM     82  C   UNL A   1      34.102  22.230  24.340  1.00  0.00     0.078 A 
ATOM     83  C   UNL A   1      33.254  20.532  25.732  1.00  0.00     0.011 A 
ATOM     84  C   UNL A   1      33.585  20.874  24.442  1.00  0.00    -0.019 A 
ATOM     85  C   UNL A   1      32.785  19.140  25.934  1.00  0.00     0.047 C 
ATOM     86  C   UNL A   1      33.383  19.656  23.596  1.00  0.00     0.038 C 
ATOM     87  C   UNL A   1      32.530  18.706  24.478  1.00  0.00     0.010 C 
BRANCH  82  88
ATOM     88  C   UNL A   1      34.794  22.990  23.267  1.00  0.00     0.254 C 
ATOM     89  O   UNL A   1      34.144  23.575  22.396  1.00  0.00    -0.269 OA
ATOM     90  N   UNL A   1      36.155  23.110  23.128  1.00  0.00    -0.349 N 
ATOM     91  H   UNL A   1      36.446  23.471  22.260  1.00  0.00     0.164 HD
BRANCH  90  92
ATOM     92  C   UNL A   1      37.219  22.803  24.026  1.00  0.00     0.082 C 
ATOM     93  C   UNL A   1      37.305  23.702  25.252  1.00  0.00     0.025 C 
ATOM     94  C   UNL A   1      37.177  21.421  24.667  1.00  0.00     0.025 C 
ATOM     95  C   UNL A   1      38.337  22.990  26.129  1.00  0.00     0.002 C 
ATOM     96  C   UNL A   1      38.326  21.524  25.672  1.00  0.00     0.002 C 
ENDBRANCH  90  92
ENDBRANCH  82  88
ENDBRANCH  78  80
ENDBRANCH  69  76
ENDBRANCH  65  68
ENDBRANCH   1  64
TORSDOF 14
ENDMDL
MODEL 3
REMARK VINA RESULT:     -13.1      5.264     10.138
REMARK SMILES O=C(NCCCNC(=O)[C@@H]1[C@@H](C(=O)Nc2sc3c(c2C(=O)NC2CCCC2)CCC3)[C@@H]2C=C[C@H]1CC2)c1ccc(-c2c3nc(c(-c4c(F)cccc4F)c4ccc([nH]4)c(-c4c(F)cccc4F)c4nc(c(-c5c(F)cccc5F)c5ccc2[nH]5)C=C4)C=C3)cc1
REMARK SMILES IDX 6 1 5 2 4 3 3 4 1 5 2 6 37 8 38 9 90 10 39 11 89 12 40 13
REMARK SMILES IDX 41 14 42 15 83 16 43 17 88 18 82 19 84 20 44 21 87 22 81 23
REMARK SMILES IDX 80 24 45 26 71 27 54 28 70 29 55 30 58 31 69 32 85 33 56 34
REMARK SMILES IDX 57 35 68 37 86 38 59 39 46 40 47 41 52 42 48 43 49 44 51 45
REMARK SMILES IDX 53 46 50 47 72 48 73 49 78 50 74 51 75 52 77 53 79 54 76 55
REMARK SMILES IDX 60 56 61 57 66 58 62 59 63 60 65 61 67 62 64 63 7 64 8 65
REMARK SMILES IDX 9 67 10 68 11 69 34 70 31 71 33 72 35 73 32 74 36 75 12 76
REMARK SMILES IDX 13 77 14 78 15 80 16 81 19 82 17 83 18 84 30 85 28 86 29 87
REMARK SMILES IDX 20 88 21 89 22 90 23 92 24 93 27 94 25 95 26 96
REMARK H PARENT 3 7 84 25 58 36 7 66 14 79 22 91
REMARK Flexibility Score: inf
ROOT
ATOM      1  C   UNL A   1      35.273  34.955  32.531  1.00  0.00     0.117 C 
ENDROOT
BRANCH   1   2
ATOM      2  C   UNL A   1      34.454  34.443  31.343  1.00  0.00     0.042 C 
BRANCH   2   3
ATOM      3  C   UNL A   1      34.655  32.962  31.021  1.00  0.00     0.118 C 
BRANCH   3   4
ATOM      4  N   UNL A   1      34.513  32.624  29.616  1.00  0.00    -0.352 N 
ATOM      5  O   UNL A   1      34.623  31.678  27.630  1.00  0.00    -0.269 OA
ATOM      6  C   UNL A   1      35.155  31.797  28.738  1.00  0.00     0.251 C 
ATOM      7  H   UNL A   1      33.772  33.112  29.190  1.00  0.00     0.163 HD
BRANCH   6   8
ATOM      8  C   UNL A   1      36.445  31.093  28.980  1.00  0.00     0.039 A 
ATOM      9  C   UNL A   1      37.714  31.672  28.997  1.00  0.00     0.014 A 
ATOM     10  C   UNL A   1      36.342  29.701  29.182  1.00  0.00     0.014 A 
ATOM     11  C   UNL A   1      38.850  30.870  29.137  1.00  0.00     0.010 A 
ATOM     12  C   UNL A   1      37.470  28.900  29.328  1.00  0.00     0.010 A 
ATOM     13  C   UNL A   1      38.731  29.481  29.266  1.00  0.00    -0.014 A 
BRANCH  13  14
ATOM     14  C   UNL A   1      39.939  28.682  29.470  1.00  0.00     0.031 A 
ATOM     15  C   UNL A   1      40.369  28.541  30.895  1.00  0.00     0.074 A 
ATOM     16  C   UNL A   1      40.556  27.979  28.495  1.00  0.00     0.049 A 
ATOM     17  N   UNL A   1      41.490  28.893  31.437  1.00  0.00    -0.248 NA
ATOM     18  C   UNL A   1      39.387  28.008  31.854  1.00  0.00     0.031 C 
ATOM     19  C   UNL A   1      40.114  27.746  27.117  1.00  0.00     0.029 A 
ATOM     20  N   UNL A   1      41.701  27.241  28.572  1.00  0.00    -0.354 N 
ATOM     21  C   UNL A   1      41.423  28.493  32.772  1.00  0.00     0.074 A 
ATOM     22  C   UNL A   1      40.070  28.054  32.998  1.00  0.00     0.031 C 
ATOM     23  C   UNL A   1      40.865  26.764  26.563  1.00  0.00     0.029 A 
ATOM     24  C   UNL A   1      41.927  26.402  27.487  1.00  0.00     0.049 A 
ATOM     25  H   UNL A   1      42.320  27.299  29.336  1.00  0.00     0.167 HD
ATOM     26  C   UNL A   1      42.532  28.392  33.557  1.00  0.00     0.037 A 
ATOM     27  C   UNL A   1      42.892  25.454  27.377  1.00  0.00     0.037 A 
ATOM     28  C   UNL A   1      43.634  29.140  33.018  1.00  0.00     0.049 A 
ATOM     29  C   UNL A   1      43.944  25.763  28.373  1.00  0.00     0.074 A 
ATOM     30  C   UNL A   1      43.861  30.477  32.756  1.00  0.00     0.029 A 
ATOM     31  N   UNL A   1      44.605  28.462  32.326  1.00  0.00    -0.354 N 
ATOM     32  N   UNL A   1      44.736  26.794  28.301  1.00  0.00    -0.248 NA
ATOM     33  C   UNL A   1      43.818  25.158  29.689  1.00  0.00     0.031 C 
ATOM     34  C   UNL A   1      44.598  30.490  31.536  1.00  0.00     0.029 A 
ATOM     35  C   UNL A   1      44.827  29.164  31.168  1.00  0.00     0.049 A 
ATOM     36  H   UNL A   1      45.056  27.632  32.605  1.00  0.00     0.167 HD
ATOM     37  C   UNL A   1      44.860  27.233  29.610  1.00  0.00     0.074 A 
ATOM     38  C   UNL A   1      44.338  26.141  30.429  1.00  0.00     0.031 C 
ATOM     39  C   UNL A   1      45.111  28.543  29.897  1.00  0.00     0.037 A 
BRANCH  26  40
ATOM     40  C   UNL A   1      42.709  27.373  34.654  1.00  0.00     0.057 A 
ATOM     41  C   UNL A   1      43.105  26.060  34.336  1.00  0.00     0.134 A 
ATOM     42  C   UNL A   1      42.233  27.553  35.968  1.00  0.00     0.134 A 
ATOM     43  F   UNL A   1      43.555  25.753  33.110  1.00  0.00    -0.206 F 
ATOM     44  C   UNL A   1      42.980  24.998  35.242  1.00  0.00     0.040 A 
ATOM     45  C   UNL A   1      42.149  26.509  36.894  1.00  0.00     0.040 A 
ATOM     46  F   UNL A   1      41.734  28.722  36.390  1.00  0.00    -0.206 F 
ATOM     47  C   UNL A   1      42.494  25.220  36.524  1.00  0.00     0.006 A 
ENDBRANCH  26  40
BRANCH  27  48
ATOM     48  C   UNL A   1      42.828  24.134  26.707  1.00  0.00     0.057 A 
ATOM     49  C   UNL A   1      43.639  23.831  25.602  1.00  0.00     0.134 A 
ATOM     50  C   UNL A   1      42.191  23.043  27.321  1.00  0.00     0.134 A 
ATOM     51  F   UNL A   1      44.326  24.798  24.977  1.00  0.00    -0.206 F 
ATOM     52  C   UNL A   1      43.823  22.516  25.149  1.00  0.00     0.040 A 
ATOM     53  C   UNL A   1      42.365  21.726  26.878  1.00  0.00     0.040 A 
ATOM     54  F   UNL A   1      41.457  23.208  28.431  1.00  0.00    -0.206 F 
ATOM     55  C   UNL A   1      43.194  21.457  25.796  1.00  0.00     0.006 A 
ENDBRANCH  27  48
BRANCH  39  56
ATOM     56  C   UNL A   1      45.468  29.457  28.756  1.00  0.00     0.057 A 
ATOM     57  C   UNL A   1      44.526  30.158  27.985  1.00  0.00     0.134 A 
ATOM     58  C   UNL A   1      46.815  29.755  28.525  1.00  0.00     0.134 A 
ATOM     59  F   UNL A   1      43.212  30.019  28.199  1.00  0.00    -0.206 F 
ATOM     60  C   UNL A   1      44.910  31.076  27.003  1.00  0.00     0.040 A 
ATOM     61  C   UNL A   1      47.211  30.695  27.570  1.00  0.00     0.040 A 
ATOM     62  F   UNL A   1      47.773  29.169  29.261  1.00  0.00    -0.206 F 
ATOM     63  C   UNL A   1      46.257  31.353  26.796  1.00  0.00     0.006 A 
ENDBRANCH  39  56
ENDBRANCH  13  14
ENDBRANCH   6   8
ENDBRANCH   3   4
ENDBRANCH   2   3
ENDBRANCH   1   2
BRANCH   1  64
ATOM     64  N   UNL A   1      36.690  35.085  32.223  1.00  0.00    -0.356 N 
ATOM     65  C   UNL A   1      37.777  34.354  32.599  1.00  0.00     0.224 C 
ATOM     66  H   UNL A   1      36.904  35.842  31.632  1.00  0.00     0.163 HD
ATOM     67  O   UNL A   1      38.870  34.731  32.170  1.00  0.00    -0.275 OA
BRANCH  65  68
ATOM     68  C   UNL A   1      37.632  33.140  33.512  1.00  0.00     0.098 C 
ATOM     69  C   UNL A   1      38.600  33.266  34.743  1.00  0.00     0.099 C 
ATOM     70  C   UNL A   1      37.934  31.816  32.747  1.00  0.00     0.025 C 
ATOM     71  C   UNL A   1      39.427  31.948  34.865  1.00  0.00     0.025 C 
ATOM     72  C   UNL A   1      39.421  31.706  32.475  1.00  0.00    -0.027 C 
ATOM     73  C   UNL A   1      37.581  30.654  33.709  1.00  0.00     0.009 C 
ATOM     74  C   UNL A   1      40.195  31.785  33.568  1.00  0.00    -0.027 C 
ATOM     75  C   UNL A   1      38.473  30.736  34.969  1.00  0.00     0.009 C 
BRANCH  69  76
ATOM     76  C   UNL A   1      37.820  33.573  36.025  1.00  0.00     0.229 C 
ATOM     77  O   UNL A   1      36.586  33.496  36.058  1.00  0.00    -0.274 OA
ATOM     78  N   UNL A   1      38.442  33.815  37.212  1.00  0.00    -0.317 N 
ATOM     79  H   UNL A   1      37.848  33.796  37.997  1.00  0.00     0.170 HD
BRANCH  78  80
ATOM     80  C   UNL A   1      39.759  34.082  37.499  1.00  0.00     0.108 A 
ATOM     81  S   UNL A   1      40.149  33.379  39.014  1.00  0.00    -0.122 S 
ATOM     82  C   UNL A   1      40.805  34.807  36.900  1.00  0.00     0.078 A 
ATOM     83  C   UNL A   1      41.748  33.743  38.776  1.00  0.00     0.011 A 
ATOM     84  C   UNL A   1      42.008  34.496  37.655  1.00  0.00    -0.019 A 
ATOM     85  C   UNL A   1      42.915  33.443  39.641  1.00  0.00     0.047 C 
ATOM     86  C   UNL A   1      43.470  34.820  37.670  1.00  0.00     0.038 C 
ATOM     87  C   UNL A   1      44.076  33.840  38.710  1.00  0.00     0.010 C 
BRANCH  82  88
ATOM     88  C   UNL A   1      40.501  35.742  35.787  1.00  0.00     0.254 C 
ATOM     89  O   UNL A   1      39.703  36.669  35.949  1.00  0.00    -0.269 OA
ATOM     90  N   UNL A   1      41.035  35.676  34.523  1.00  0.00    -0.349 N 
ATOM     91  H   UNL A   1      40.578  36.240  33.858  1.00  0.00     0.164 HD
BRANCH  90  92
ATOM     92  C   UNL A   1      42.138  34.933  34.011  1.00  0.00     0.082 C 
ATOM     93  C   UNL A   1      42.138  34.743  32.499  1.00  0.00     0.025 C 
ATOM     94  C   UNL A   1      43.518  35.539  34.239  1.00  0.00     0.025 C 
ATOM     95  C   UNL A   1      43.527  34.162  32.226  1.00  0.00     0.002 C 
ATOM     96  C   UNL A   1      44.397  34.596  33.415  1.00  0.00     0.002 C 
ENDBRANCH  90  92
ENDBRANCH  82  88
ENDBRANCH  78  80
ENDBRANCH  69  76
ENDBRANCH  65  68
ENDBRANCH   1  64
TORSDOF 14
ENDMDL
