MODEL 1
REMARK VINA RESULT:     -10.8      0.000      0.000
REMARK SMILES C=CCN(CC(=O)NCCCNC(=O)c1ccc(-c2c3nc(c(-c4c(F)cccc4F)c4ccc([nH]4)c(-c4c(F)cccc4F)c4nc(c(-c5c(F)cccc5F)c5ccc2[nH]5)C=C4)C=C3)cc1)C(=O)c1ccc(C[NH3+])cc1
REMARK SMILES IDX 6 1 7 2 8 3 5 5 4 6 3 7 2 8 1 9 69 10 70 11 71 12 72 13
REMARK SMILES IDX 78 14 73 15 77 16 74 17 75 18 76 19 9 23 10 24 11 25 12 26
REMARK SMILES IDX 13 27 14 29 15 30 16 31 68 32 17 33 67 34 18 35 19 36 20 37
REMARK SMILES IDX 61 38 21 39 66 40 60 41 62 42 22 43 65 44 59 45 58 46 23 48
REMARK SMILES IDX 49 49 32 50 48 51 33 52 36 53 47 54 63 55 34 56 35 57 46 59
REMARK SMILES IDX 64 60 37 61 24 62 25 63 30 64 26 65 27 66 29 67 31 68 28 69
REMARK SMILES IDX 50 70 51 71 56 72 52 73 53 74 55 75 57 76 54 77 38 78 39 79
REMARK SMILES IDX 44 80 40 81 41 82 43 83 45 84 42 85
REMARK H PARENT 8 4 76 20 76 21 76 22 12 28 62 47 36 58
REMARK Flexibility Score: inf
ROOT
ATOM      1  C   UNL A   1      34.953  21.971  25.864  1.00  0.00     0.239 C 
ATOM      2  O   UNL A   1      34.551  22.449  26.932  1.00  0.00    -0.273 OA
ATOM      3  N   UNL A   1      35.916  21.012  25.965  1.00  0.00    -0.354 N 
ATOM      4  H   UNL A   1      36.384  20.994  26.830  1.00  0.00     0.163 HD
ENDROOT
BRANCH   1   5
ATOM      5  C   UNL A   1      34.275  22.368  24.538  1.00  0.00     0.220 C 
BRANCH   5   6
ATOM      6  N   UNL A   1      32.893  21.928  24.308  1.00  0.00    -0.326 N 
BRANCH   6   7
ATOM      7  C   UNL A   1      31.817  22.729  24.883  1.00  0.00     0.147 C 
BRANCH   7   8
ATOM      8  C   UNL A   1      31.592  23.979  24.089  1.00  0.00    -0.014 C 
ATOM      9  C   UNL A   1      30.459  24.222  23.414  1.00  0.00     0.006 C 
ENDBRANCH   7   8
ENDBRANCH   6   7
BRANCH   6  10
ATOM     10  C   UNL A   1      32.535  20.865  23.470  1.00  0.00     0.254 C 
ATOM     11  O   UNL A   1      32.126  21.020  22.321  1.00  0.00    -0.269 OA
BRANCH  10  12
ATOM     12  C   UNL A   1      32.638  19.469  23.952  1.00  0.00     0.040 A 
ATOM     13  C   UNL A   1      32.591  19.219  25.326  1.00  0.00     0.014 A 
ATOM     14  C   UNL A   1      32.912  18.427  23.065  1.00  0.00     0.014 A 
ATOM     15  C   UNL A   1      32.761  17.914  25.804  1.00  0.00     0.010 A 
ATOM     16  C   UNL A   1      33.054  17.121  23.540  1.00  0.00     0.010 A 
ATOM     17  C   UNL A   1      32.973  16.850  24.914  1.00  0.00     0.006 A 
BRANCH  17  18
ATOM     18  C   UNL A   1      33.178  15.447  25.425  1.00  0.00     0.295 C 
BRANCH  18  19
ATOM     19  N   UNL A   1      31.914  14.728  25.503  1.00  0.00    -0.354 N 
ATOM     20  H   UNL A   1      31.345  14.949  24.685  1.00  0.00     0.344 HD
ATOM     21  H   UNL A   1      31.416  15.006  26.349  1.00  0.00     0.344 HD
ATOM     22  H   UNL A   1      32.095  13.724  25.529  1.00  0.00     0.344 HD
ENDBRANCH  18  19
ENDBRANCH  17  18
ENDBRANCH  10  12
ENDBRANCH   6  10
ENDBRANCH   5   6
ENDBRANCH   1   5
BRANCH   3  23
ATOM     23  C   UNL A   1      36.369  20.014  25.018  1.00  0.00     0.117 C 
BRANCH  23  24
ATOM     24  C   UNL A   1      37.845  20.124  24.644  1.00  0.00     0.042 C 
BRANCH  24  25
ATOM     25  C   UNL A   1      38.802  20.288  25.823  1.00  0.00     0.118 C 
BRANCH  25  26
ATOM     26  N   UNL A   1      39.858  19.284  25.849  1.00  0.00    -0.352 N 
ATOM     27  C   UNL A   1      41.210  19.389  26.067  1.00  0.00     0.251 C 
ATOM     28  H   UNL A   1      39.546  18.366  25.680  1.00  0.00     0.163 HD
ATOM     29  O   UNL A   1      41.922  18.409  25.862  1.00  0.00    -0.269 OA
BRANCH  27  30
ATOM     30  C   UNL A   1      41.831  20.655  26.518  1.00  0.00     0.039 A 
ATOM     31  C   UNL A   1      42.281  21.559  25.550  1.00  0.00     0.014 A 
ATOM     32  C   UNL A   1      42.023  20.942  27.872  1.00  0.00     0.014 A 
ATOM     33  C   UNL A   1      42.835  22.784  25.934  1.00  0.00     0.010 A 
ATOM     34  C   UNL A   1      42.519  22.188  28.257  1.00  0.00     0.010 A 
ATOM     35  C   UNL A   1      42.911  23.129  27.293  1.00  0.00    -0.014 A 
BRANCH  35  36
ATOM     36  C   UNL A   1      43.327  24.490  27.723  1.00  0.00     0.031 A 
ATOM     37  C   UNL A   1      42.307  25.523  28.110  1.00  0.00     0.074 A 
ATOM     38  C   UNL A   1      44.632  24.822  27.671  1.00  0.00     0.049 A 
ATOM     39  N   UNL A   1      42.480  26.791  28.386  1.00  0.00    -0.248 NA
ATOM     40  C   UNL A   1      40.908  25.075  28.180  1.00  0.00     0.031 C 
ATOM     41  C   UNL A   1      45.718  23.920  27.280  1.00  0.00     0.029 A 
ATOM     42  N   UNL A   1      45.265  26.013  27.923  1.00  0.00    -0.354 N 
ATOM     43  C   UNL A   1      41.214  27.298  28.649  1.00  0.00     0.074 A 
ATOM     44  C   UNL A   1      40.279  26.207  28.467  1.00  0.00     0.031 C 
ATOM     45  C   UNL A   1      46.881  24.589  27.321  1.00  0.00     0.029 A 
ATOM     46  C   UNL A   1      46.619  25.975  27.693  1.00  0.00     0.049 A 
ATOM     47  H   UNL A   1      44.795  26.818  28.238  1.00  0.00     0.167 HD
ATOM     48  C   UNL A   1      40.868  28.554  29.021  1.00  0.00     0.037 A 
ATOM     49  C   UNL A   1      47.545  26.951  27.745  1.00  0.00     0.037 A 
ATOM     50  C   UNL A   1      41.803  29.633  29.213  1.00  0.00     0.049 A 
ATOM     51  C   UNL A   1      47.127  28.346  28.111  1.00  0.00     0.074 A 
ATOM     52  C   UNL A   1      41.553  30.920  29.660  1.00  0.00     0.029 A 
ATOM     53  N   UNL A   1      43.163  29.556  28.961  1.00  0.00    -0.354 N 
ATOM     54  N   UNL A   1      45.936  28.796  28.422  1.00  0.00    -0.248 NA
ATOM     55  C   UNL A   1      48.180  29.372  28.125  1.00  0.00     0.031 C 
ATOM     56  C   UNL A   1      42.754  31.636  29.628  1.00  0.00     0.029 A 
ATOM     57  C   UNL A   1      43.760  30.784  29.205  1.00  0.00     0.049 A 
ATOM     58  H   UNL A   1      43.636  28.750  28.652  1.00  0.00     0.167 HD
ATOM     59  C   UNL A   1      46.097  30.151  28.679  1.00  0.00     0.074 A 
ATOM     60  C   UNL A   1      47.505  30.445  28.510  1.00  0.00     0.031 C 
ATOM     61  C   UNL A   1      45.160  31.068  29.022  1.00  0.00     0.037 A 
BRANCH  48  62
ATOM     62  C   UNL A   1      39.410  28.837  29.240  1.00  0.00     0.057 A 
ATOM     63  C   UNL A   1      38.810  28.683  30.497  1.00  0.00     0.134 A 
ATOM     64  C   UNL A   1      38.609  29.317  28.196  1.00  0.00     0.134 A 
ATOM     65  F   UNL A   1      39.520  28.221  31.537  1.00  0.00    -0.206 F 
ATOM     66  C   UNL A   1      37.461  28.976  30.703  1.00  0.00     0.040 A 
ATOM     67  C   UNL A   1      37.265  29.636  28.396  1.00  0.00     0.040 A 
ATOM     68  F   UNL A   1      39.123  29.496  26.971  1.00  0.00    -0.206 F 
ATOM     69  C   UNL A   1      36.686  29.461  29.650  1.00  0.00     0.006 A 
ENDBRANCH  48  62
BRANCH  49  70
ATOM     70  C   UNL A   1      48.961  26.644  27.428  1.00  0.00     0.057 A 
ATOM     71  C   UNL A   1      49.828  26.148  28.407  1.00  0.00     0.134 A 
ATOM     72  C   UNL A   1      49.483  26.842  26.143  1.00  0.00     0.134 A 
ATOM     73  F   UNL A   1      49.392  25.957  29.661  1.00  0.00    -0.206 F 
ATOM     74  C   UNL A   1      51.167  25.869  28.125  1.00  0.00     0.040 A 
ATOM     75  C   UNL A   1      50.812  26.544  25.841  1.00  0.00     0.040 A 
ATOM     76  F   UNL A   1      48.702  27.313  25.161  1.00  0.00    -0.206 F 
ATOM     77  C   UNL A   1      51.660  26.062  26.836  1.00  0.00     0.006 A 
ENDBRANCH  49  70
BRANCH  61  78
ATOM     78  C   UNL A   1      45.630  32.476  29.241  1.00  0.00     0.057 A 
ATOM     79  C   UNL A   1      45.616  33.423  28.209  1.00  0.00     0.134 A 
ATOM     80  C   UNL A   1      46.063  32.900  30.504  1.00  0.00     0.134 A 
ATOM     81  F   UNL A   1      45.228  33.074  26.973  1.00  0.00    -0.206 F 
ATOM     82  C   UNL A   1      46.032  34.737  28.421  1.00  0.00     0.040 A 
ATOM     83  C   UNL A   1      46.458  34.218  30.734  1.00  0.00     0.040 A 
ATOM     84  F   UNL A   1      46.094  32.044  31.536  1.00  0.00    -0.206 F 
ATOM     85  C   UNL A   1      46.447  35.140  29.688  1.00  0.00     0.006 A 
ENDBRANCH  61  78
ENDBRANCH  35  36
ENDBRANCH  27  30
ENDBRANCH  25  26
ENDBRANCH  24  25
ENDBRANCH  23  24
ENDBRANCH   3  23
TORSDOF 17
ENDMDL
MODEL 2
REMARK VINA RESULT:     -10.7      3.202      7.953
REMARK SMILES C=CCN(CC(=O)NCCCNC(=O)c1ccc(-c2c3nc(c(-c4c(F)cccc4F)c4ccc([nH]4)c(-c4c(F)cccc4F)c4nc(c(-c5c(F)cccc5F)c5ccc2[nH]5)C=C4)C=C3)cc1)C(=O)c1ccc(C[NH3+])cc1
REMARK SMILES IDX 6 1 7 2 8 3 5 5 4 6 3 7 2 8 1 9 69 10 70 11 71 12 72 13
REMARK SMILES IDX 78 14 73 15 77 16 74 17 75 18 76 19 9 23 10 24 11 25 12 26
REMARK SMILES IDX 13 27 14 29 15 30 16 31 68 32 17 33 67 34 18 35 19 36 20 37
REMARK SMILES IDX 61 38 21 39 66 40 60 41 62 42 22 43 65 44 59 45 58 46 23 48
REMARK SMILES IDX 49 49 32 50 48 51 33 52 36 53 47 54 63 55 34 56 35 57 46 59
REMARK SMILES IDX 64 60 37 61 24 62 25 63 30 64 26 65 27 66 29 67 31 68 28 69
REMARK SMILES IDX 50 70 51 71 56 72 52 73 53 74 55 75 57 76 54 77 38 78 39 79
REMARK SMILES IDX 44 80 40 81 41 82 43 83 45 84 42 85
REMARK H PARENT 8 4 76 20 76 21 76 22 12 28 62 47 36 58
REMARK Flexibility Score: inf
ROOT
ATOM      1  C   UNL A   1      32.008  24.857  26.666  1.00  0.00     0.239 C 
ATOM      2  O   UNL A   1      31.640  23.828  27.246  1.00  0.00    -0.273 OA
ATOM      3  N   UNL A   1      31.173  25.929  26.764  1.00  0.00    -0.354 N 
ATOM      4  H   UNL A   1      30.255  25.706  27.039  1.00  0.00     0.163 HD
ENDROOT
BRANCH   1   5
ATOM      5  C   UNL A   1      33.401  24.913  26.007  1.00  0.00     0.220 C 
BRANCH   5   6
ATOM      6  N   UNL A   1      33.564  24.305  24.681  1.00  0.00    -0.326 N 
BRANCH   6   7
ATOM      7  C   UNL A   1      33.625  22.849  24.600  1.00  0.00     0.147 C 
BRANCH   7   8
ATOM      8  C   UNL A   1      34.923  22.332  25.142  1.00  0.00    -0.014 C 
ATOM      9  C   UNL A   1      36.027  22.204  24.392  1.00  0.00     0.006 C 
ENDBRANCH   7   8
ENDBRANCH   6   7
BRANCH   6  10
ATOM     10  C   UNL A   1      33.537  25.020  23.477  1.00  0.00     0.254 C 
ATOM     11  O   UNL A   1      34.182  24.692  22.483  1.00  0.00    -0.269 OA
BRANCH  10  12
ATOM     12  C   UNL A   1      32.703  26.237  23.353  1.00  0.00     0.040 A 
ATOM     13  C   UNL A   1      31.371  26.110  22.946  1.00  0.00     0.014 A 
ATOM     14  C   UNL A   1      33.264  27.505  23.509  1.00  0.00     0.014 A 
ATOM     15  C   UNL A   1      30.589  27.255  22.752  1.00  0.00     0.010 A 
ATOM     16  C   UNL A   1      32.475  28.646  23.343  1.00  0.00     0.010 A 
ATOM     17  C   UNL A   1      31.128  28.532  22.969  1.00  0.00     0.006 A 
BRANCH  17  18
ATOM     18  C   UNL A   1      30.295  29.768  22.741  1.00  0.00     0.295 C 
BRANCH  18  19
ATOM     19  N   UNL A   1      30.402  30.225  21.362  1.00  0.00    -0.354 N 
ATOM     20  H   UNL A   1      29.492  30.558  21.043  1.00  0.00     0.344 HD
ATOM     21  H   UNL A   1      30.709  29.453  20.771  1.00  0.00     0.344 HD
ATOM     22  H   UNL A   1      31.080  30.986  21.308  1.00  0.00     0.344 HD
ENDBRANCH  18  19
ENDBRANCH  17  18
ENDBRANCH  10  12
ENDBRANCH   6  10
ENDBRANCH   5   6
ENDBRANCH   1   5
BRANCH   3  23
ATOM     23  C   UNL A   1      31.403  27.340  26.533  1.00  0.00     0.117 C 
BRANCH  23  24
ATOM     24  C   UNL A   1      32.127  28.054  27.671  1.00  0.00     0.042 C 
BRANCH  24  25
ATOM     25  C   UNL A   1      33.490  28.639  27.307  1.00  0.00     0.118 C 
BRANCH  25  26
ATOM     26  N   UNL A   1      33.614  30.053  27.635  1.00  0.00    -0.352 N 
ATOM     27  C   UNL A   1      34.639  30.770  28.202  1.00  0.00     0.251 C 
ATOM     28  H   UNL A   1      32.822  30.591  27.408  1.00  0.00     0.163 HD
ATOM     29  O   UNL A   1      34.434  31.934  28.540  1.00  0.00    -0.269 OA
BRANCH  27  30
ATOM     30  C   UNL A   1      35.972  30.171  28.439  1.00  0.00     0.039 A 
ATOM     31  C   UNL A   1      36.914  30.208  27.405  1.00  0.00     0.014 A 
ATOM     32  C   UNL A   1      36.290  29.531  29.639  1.00  0.00     0.014 A 
ATOM     33  C   UNL A   1      38.197  29.691  27.603  1.00  0.00     0.010 A 
ATOM     34  C   UNL A   1      37.589  29.069  29.860  1.00  0.00     0.010 A 
ATOM     35  C   UNL A   1      38.560  29.163  28.852  1.00  0.00    -0.014 A 
BRANCH  35  36
ATOM     36  C   UNL A   1      39.964  28.771  29.148  1.00  0.00     0.031 A 
ATOM     37  C   UNL A   1      40.930  29.754  29.746  1.00  0.00     0.074 A 
ATOM     38  C   UNL A   1      40.392  27.546  28.784  1.00  0.00     0.049 A 
ATOM     39  N   UNL A   1      42.217  29.626  29.950  1.00  0.00    -0.248 NA
ATOM     40  C   UNL A   1      40.381  31.056  30.151  1.00  0.00     0.031 C 
ATOM     41  C   UNL A   1      39.561  26.511  28.165  1.00  0.00     0.029 A 
ATOM     42  N   UNL A   1      41.635  26.972  28.859  1.00  0.00    -0.354 N 
ATOM     43  C   UNL A   1      42.636  30.834  30.495  1.00  0.00     0.074 A 
ATOM     44  C   UNL A   1      41.472  31.693  30.558  1.00  0.00     0.031 C 
ATOM     45  C   UNL A   1      40.317  25.430  27.919  1.00  0.00     0.029 A 
ATOM     46  C   UNL A   1      41.691  25.710  28.317  1.00  0.00     0.049 A 
ATOM     47  H   UNL A   1      42.414  27.421  29.261  1.00  0.00     0.167 HD
ATOM     48  C   UNL A   1      43.875  31.186  30.916  1.00  0.00     0.037 A 
ATOM     49  C   UNL A   1      42.736  24.882  28.133  1.00  0.00     0.037 A 
ATOM     50  C   UNL A   1      45.028  30.323  30.863  1.00  0.00     0.049 A 
ATOM     51  C   UNL A   1      44.108  25.316  28.562  1.00  0.00     0.074 A 
ATOM     52  C   UNL A   1      46.308  30.567  31.333  1.00  0.00     0.029 A 
ATOM     53  N   UNL A   1      45.045  29.058  30.299  1.00  0.00    -0.354 N 
ATOM     54  N   UNL A   1      44.478  26.434  29.136  1.00  0.00    -0.248 NA
ATOM     55  C   UNL A   1      45.211  24.376  28.309  1.00  0.00     0.031 C 
ATOM     56  C   UNL A   1      47.111  29.470  31.007  1.00  0.00     0.029 A 
ATOM     57  C   UNL A   1      46.322  28.523  30.374  1.00  0.00     0.049 A 
ATOM     58  H   UNL A   1      44.266  28.605  29.902  1.00  0.00     0.167 HD
ATOM     59  C   UNL A   1      45.849  26.329  29.325  1.00  0.00     0.074 A 
ATOM     60  C   UNL A   1      46.243  25.029  28.824  1.00  0.00     0.031 C 
ATOM     61  C   UNL A   1      46.705  27.233  29.862  1.00  0.00     0.037 A 
BRANCH  48  62
ATOM     62  C   UNL A   1      44.054  32.570  31.466  1.00  0.00     0.057 A 
ATOM     63  C   UNL A   1      43.859  32.854  32.825  1.00  0.00     0.134 A 
ATOM     64  C   UNL A   1      44.476  33.620  30.641  1.00  0.00     0.134 A 
ATOM     65  F   UNL A   1      43.448  31.895  33.668  1.00  0.00    -0.206 F 
ATOM     66  C   UNL A   1      44.057  34.137  33.338  1.00  0.00     0.040 A 
ATOM     67  C   UNL A   1      44.700  34.901  31.148  1.00  0.00     0.040 A 
ATOM     68  F   UNL A   1      44.690  33.414  29.334  1.00  0.00    -0.206 F 
ATOM     69  C   UNL A   1      44.485  35.164  32.498  1.00  0.00     0.006 A 
ENDBRANCH  48  62
BRANCH  49  70
ATOM     70  C   UNL A   1      42.526  23.557  27.497  1.00  0.00     0.057 A 
ATOM     71  C   UNL A   1      42.551  23.415  26.105  1.00  0.00     0.134 A 
ATOM     72  C   UNL A   1      42.293  22.407  28.260  1.00  0.00     0.134 A 
ATOM     73  F   UNL A   1      42.749  24.484  25.320  1.00  0.00    -0.206 F 
ATOM     74  C   UNL A   1      42.340  22.178  25.494  1.00  0.00     0.040 A 
ATOM     75  C   UNL A   1      42.105  21.160  27.664  1.00  0.00     0.040 A 
ATOM     76  F   UNL A   1      42.261  22.479  29.599  1.00  0.00    -0.206 F 
ATOM     77  C   UNL A   1      42.123  21.044  26.275  1.00  0.00     0.006 A 
ENDBRANCH  49  70
BRANCH  61  78
ATOM     78  C   UNL A   1      48.152  26.842  29.939  1.00  0.00     0.057 A 
ATOM     79  C   UNL A   1      48.650  26.082  31.004  1.00  0.00     0.134 A 
ATOM     80  C   UNL A   1      49.046  27.197  28.922  1.00  0.00     0.134 A 
ATOM     81  F   UNL A   1      47.848  25.725  32.018  1.00  0.00    -0.206 F 
ATOM     82  C   UNL A   1      49.991  25.702  31.062  1.00  0.00     0.040 A 
ATOM     83  C   UNL A   1      50.384  26.803  28.957  1.00  0.00     0.040 A 
ATOM     84  F   UNL A   1      48.630  27.920  27.871  1.00  0.00    -0.206 F 
ATOM     85  C   UNL A   1      50.860  26.056  30.033  1.00  0.00     0.006 A 
ENDBRANCH  61  78
ENDBRANCH  35  36
ENDBRANCH  27  30
ENDBRANCH  25  26
ENDBRANCH  24  25
ENDBRANCH  23  24
ENDBRANCH   3  23
TORSDOF 17
ENDMDL
MODEL 3
REMARK VINA RESULT:     -10.6      5.389     10.013
REMARK SMILES C=CCN(CC(=O)NCCCNC(=O)c1ccc(-c2c3nc(c(-c4c(F)cccc4F)c4ccc([nH]4)c(-c4c(F)cccc4F)c4nc(c(-c5c(F)cccc5F)c5ccc2[nH]5)C=C4)C=C3)cc1)C(=O)c1ccc(C[NH3+])cc1
REMARK SMILES IDX 6 1 7 2 8 3 5 5 4 6 3 7 2 8 1 9 69 10 70 11 71 12 72 13
REMARK SMILES IDX 78 14 73 15 77 16 74 17 75 18 76 19 9 23 10 24 11 25 12 26
REMARK SMILES IDX 13 27 14 29 15 30 16 31 68 32 17 33 67 34 18 35 19 36 20 37
REMARK SMILES IDX 61 38 21 39 66 40 60 41 62 42 22 43 65 44 59 45 58 46 23 48
REMARK SMILES IDX 49 49 32 50 48 51 33 52 36 53 47 54 63 55 34 56 35 57 46 59
REMARK SMILES IDX 64 60 37 61 24 62 25 63 30 64 26 65 27 66 29 67 31 68 28 69
REMARK SMILES IDX 50 70 51 71 56 72 52 73 53 74 55 75 57 76 54 77 38 78 39 79
REMARK SMILES IDX 44 80 40 81 41 82 43 83 45 84 42 85
REMARK H PARENT 8 4 76 20 76 21 76 22 12 28 62 47 36 58
REMARK Flexibility Score: inf
ROOT
ATOM      1  C   UNL A   1      33.533  28.531  25.658  1.00  0.00     0.239 C 
ATOM      2  O   UNL A   1      34.383  28.048  26.415  1.00  0.00    -0.273 OA
ATOM      3  N   UNL A   1      32.609  29.345  26.239  1.00  0.00    -0.354 N 
ATOM      4  H   UNL A   1      32.539  29.249  27.216  1.00  0.00     0.163 HD
ENDROOT
BRANCH   1   5
ATOM      5  C   UNL A   1      33.642  28.307  24.136  1.00  0.00     0.220 C 
BRANCH   5   6
ATOM      6  N   UNL A   1      32.930  27.164  23.552  1.00  0.00    -0.326 N 
BRANCH   6   7
ATOM      7  C   UNL A   1      31.471  27.189  23.566  1.00  0.00     0.147 C 
BRANCH   7   8
ATOM      8  C   UNL A   1      30.920  26.068  24.393  1.00  0.00    -0.014 C 
ATOM      9  C   UNL A   1      31.034  26.020  25.728  1.00  0.00     0.006 C 
ENDBRANCH   7   8
ENDBRANCH   6   7
BRANCH   6  10
ATOM     10  C   UNL A   1      33.554  26.112  22.870  1.00  0.00     0.254 C 
ATOM     11  O   UNL A   1      33.804  26.143  21.666  1.00  0.00    -0.269 OA
BRANCH  10  12
ATOM     12  C   UNL A   1      33.951  24.884  23.596  1.00  0.00     0.040 A 
ATOM     13  C   UNL A   1      33.599  23.639  23.069  1.00  0.00     0.014 A 
ATOM     14  C   UNL A   1      34.550  24.963  24.854  1.00  0.00     0.014 A 
ATOM     15  C   UNL A   1      33.901  22.471  23.779  1.00  0.00     0.010 A 
ATOM     16  C   UNL A   1      34.877  23.796  25.548  1.00  0.00     0.010 A 
ATOM     17  C   UNL A   1      34.562  22.537  25.015  1.00  0.00     0.006 A 
BRANCH  17  18
ATOM     18  C   UNL A   1      34.870  21.283  25.793  1.00  0.00     0.295 C 
BRANCH  18  19
ATOM     19  N   UNL A   1      34.808  21.528  27.227  1.00  0.00    -0.354 N 
ATOM     20  H   UNL A   1      35.424  20.873  27.711  1.00  0.00     0.344 HD
ATOM     21  H   UNL A   1      33.851  21.398  27.554  1.00  0.00     0.344 HD
ATOM     22  H   UNL A   1      35.108  22.483  27.423  1.00  0.00     0.344 HD
ENDBRANCH  18  19
ENDBRANCH  17  18
ENDBRANCH  10  12
ENDBRANCH   6  10
ENDBRANCH   5   6
ENDBRANCH   1   5
BRANCH   3  23
ATOM     23  C   UNL A   1      31.712  30.329  25.669  1.00  0.00     0.117 C 
BRANCH  23  24
ATOM     24  C   UNL A   1      31.469  31.548  26.554  1.00  0.00     0.042 C 
BRANCH  24  25
ATOM     25  C   UNL A   1      32.729  32.208  27.110  1.00  0.00     0.118 C 
BRANCH  25  26
ATOM     26  N   UNL A   1      32.523  33.595  27.507  1.00  0.00    -0.352 N 
ATOM     27  C   UNL A   1      33.150  34.376  28.447  1.00  0.00     0.251 C 
ATOM     28  H   UNL A   1      31.807  34.054  27.013  1.00  0.00     0.163 HD
ATOM     29  O   UNL A   1      32.674  35.475  28.719  1.00  0.00    -0.269 OA
BRANCH  27  30
ATOM     30  C   UNL A   1      34.367  33.918  29.156  1.00  0.00     0.039 A 
ATOM     31  C   UNL A   1      34.216  33.069  30.259  1.00  0.00     0.014 A 
ATOM     32  C   UNL A   1      35.642  34.349  28.787  1.00  0.00     0.014 A 
ATOM     33  C   UNL A   1      35.341  32.582  30.930  1.00  0.00     0.010 A 
ATOM     34  C   UNL A   1      36.768  33.815  29.416  1.00  0.00     0.010 A 
ATOM     35  C   UNL A   1      36.630  32.911  30.480  1.00  0.00    -0.014 A 
BRANCH  35  36
ATOM     36  C   UNL A   1      37.839  32.268  31.058  1.00  0.00     0.031 A 
ATOM     37  C   UNL A   1      38.543  31.156  30.333  1.00  0.00     0.074 A 
ATOM     38  C   UNL A   1      38.245  32.628  32.291  1.00  0.00     0.049 A 
ATOM     39  N   UNL A   1      39.529  30.398  30.743  1.00  0.00    -0.248 NA
ATOM     40  C   UNL A   1      38.067  30.845  28.978  1.00  0.00     0.031 C 
ATOM     41  C   UNL A   1      37.627  33.671  33.113  1.00  0.00     0.029 A 
ATOM     42  N   UNL A   1      39.258  32.142  33.079  1.00  0.00    -0.354 N 
ATOM     43  C   UNL A   1      39.783  29.512  29.704  1.00  0.00     0.074 A 
ATOM     44  C   UNL A   1      38.825  29.805  28.658  1.00  0.00     0.031 C 
ATOM     45  C   UNL A   1      38.273  33.747  34.286  1.00  0.00     0.029 A 
ATOM     46  C   UNL A   1      39.319  32.731  34.320  1.00  0.00     0.049 A 
ATOM     47  H   UNL A   1      39.881  31.439  32.786  1.00  0.00     0.167 HD
ATOM     48  C   UNL A   1      40.736  28.552  29.627  1.00  0.00     0.037 A 
ATOM     49  C   UNL A   1      40.106  32.463  35.379  1.00  0.00     0.037 A 
ATOM     50  C   UNL A   1      41.696  28.272  30.664  1.00  0.00     0.049 A 
ATOM     51  C   UNL A   1      41.121  31.360  35.285  1.00  0.00     0.074 A 
ATOM     52  C   UNL A   1      42.745  27.368  30.646  1.00  0.00     0.029 A 
ATOM     53  N   UNL A   1      41.718  28.883  31.908  1.00  0.00    -0.354 N 
ATOM     54  N   UNL A   1      41.394  30.574  34.273  1.00  0.00    -0.248 NA
ATOM     55  C   UNL A   1      41.931  31.101  36.484  1.00  0.00     0.031 C 
ATOM     56  C   UNL A   1      43.369  27.396  31.897  1.00  0.00     0.029 A 
ATOM     57  C   UNL A   1      42.738  28.348  32.680  1.00  0.00     0.049 A 
ATOM     58  H   UNL A   1      41.099  29.591  32.202  1.00  0.00     0.167 HD
ATOM     59  C   UNL A   1      42.413  29.738  34.706  1.00  0.00     0.074 A 
ATOM     60  C   UNL A   1      42.725  30.126  36.065  1.00  0.00     0.031 C 
ATOM     61  C   UNL A   1      43.032  28.735  34.036  1.00  0.00     0.037 A 
BRANCH  48  62
ATOM     62  C   UNL A   1      40.788  27.724  28.377  1.00  0.00     0.057 A 
ATOM     63  C   UNL A   1      40.074  26.524  28.257  1.00  0.00     0.134 A 
ATOM     64  C   UNL A   1      41.517  28.155  27.261  1.00  0.00     0.134 A 
ATOM     65  F   UNL A   1      39.362  26.051  29.291  1.00  0.00    -0.206 F 
ATOM     66  C   UNL A   1      40.101  25.771  27.082  1.00  0.00     0.040 A 
ATOM     67  C   UNL A   1      41.533  27.423  26.072  1.00  0.00     0.040 A 
ATOM     68  F   UNL A   1      42.215  29.299  27.305  1.00  0.00    -0.206 F 
ATOM     69  C   UNL A   1      40.828  26.226  25.982  1.00  0.00     0.006 A 
ENDBRANCH  48  62
BRANCH  49  70
ATOM     70  C   UNL A   1      39.954  33.247  36.629  1.00  0.00     0.057 A 
ATOM     71  C   UNL A   1      39.033  32.868  37.611  1.00  0.00     0.134 A 
ATOM     72  C   UNL A   1      40.722  34.394  36.872  1.00  0.00     0.134 A 
ATOM     73  F   UNL A   1      38.254  31.792  37.425  1.00  0.00    -0.206 F 
ATOM     74  C   UNL A   1      38.870  33.606  38.785  1.00  0.00     0.040 A 
ATOM     75  C   UNL A   1      40.588  35.126  38.052  1.00  0.00     0.040 A 
ATOM     76  F   UNL A   1      41.625  34.806  35.971  1.00  0.00    -0.206 F 
ATOM     77  C   UNL A   1      39.654  34.735  39.010  1.00  0.00     0.006 A 
ENDBRANCH  49  70
BRANCH  61  78
ATOM     78  C   UNL A   1      44.112  27.990  34.764  1.00  0.00     0.057 A 
ATOM     79  C   UNL A   1      45.438  28.441  34.770  1.00  0.00     0.134 A 
ATOM     80  C   UNL A   1      43.817  26.834  35.498  1.00  0.00     0.134 A 
ATOM     81  F   UNL A   1      45.787  29.533  34.074  1.00  0.00    -0.206 F 
ATOM     82  C   UNL A   1      46.436  27.759  35.466  1.00  0.00     0.040 A 
ATOM     83  C   UNL A   1      44.802  26.157  36.218  1.00  0.00     0.040 A 
ATOM     84  F   UNL A   1      42.566  26.353  35.538  1.00  0.00    -0.206 F 
ATOM     85  C   UNL A   1      46.117  26.617  36.199  1.00  0.00     0.006 A 
ENDBRANCH  61  78
ENDBRANCH  35  36
ENDBRANCH  27  30
ENDBRANCH  25  26
ENDBRANCH  24  25
ENDBRANCH  23  24
ENDBRANCH   3  23
TORSDOF 17
ENDMDL
