MODEL 1
REMARK VINA RESULT:     -13.4      0.000      0.000
REMARK SMILES O=C(NCCCNC(=O)[C@@H]1CC(=O)N(c2ccc(Cl)cc2C(=O)c2ccccc2)C1)c1ccc(-c2c3nc(c(-c4c(F)cccc4F)c4ccc([nH]4)c(-c4c(F)cccc4F)c4nc(c(-c5c(F)cccc5F)c5ccc2[nH]5)C=C4)C=C3)cc1
REMARK SMILES IDX 5 1 4 2 3 3 1 4 2 5 31 7 32 8 84 9 33 10 83 11 34 12 35 13
REMARK SMILES IDX 36 14 77 15 37 16 82 17 76 18 78 19 38 20 81 21 75 22 74 23
REMARK SMILES IDX 39 25 65 26 48 27 64 28 49 29 52 30 63 31 79 32 50 33 51 34
REMARK SMILES IDX 62 36 80 37 53 38 40 39 41 40 46 41 42 42 43 43 45 44 47 45
REMARK SMILES IDX 44 46 66 47 67 48 72 49 68 50 69 51 71 52 73 53 70 54 54 55
REMARK SMILES IDX 55 56 60 57 56 58 57 59 59 60 61 61 58 62 6 63 7 64 8 65
REMARK SMILES IDX 9 67 10 68 11 69 30 70 12 71 14 72 13 73 15 74 16 75 21 76
REMARK SMILES IDX 17 77 20 78 18 79 19 80 22 81 23 82 24 83 25 84 29 85 26 86
REMARK SMILES IDX 28 87 27 88
REMARK H PARENT 3 6 78 24 52 35 7 66
REMARK Flexibility Score: inf
ROOT
ATOM      1  C   UNL A   1      33.160  28.198  26.145  1.00  0.00     0.042 C 
ENDROOT
BRANCH   1   2
ATOM      2  C   UNL A   1      34.084  28.561  27.269  1.00  0.00     0.118 C 
BRANCH   2   3
ATOM      3  N   UNL A   1      33.964  29.984  27.569  1.00  0.00    -0.352 N 
ATOM      4  O   UNL A   1      34.388  31.808  28.833  1.00  0.00    -0.269 OA
ATOM      5  C   UNL A   1      34.782  30.748  28.360  1.00  0.00     0.251 C 
ATOM      6  H   UNL A   1      33.203  30.451  27.152  1.00  0.00     0.163 HD
BRANCH   5   7
ATOM      7  C   UNL A   1      36.142  30.253  28.624  1.00  0.00     0.039 A 
ATOM      8  C   UNL A   1      37.112  30.388  27.626  1.00  0.00     0.014 A 
ATOM      9  C   UNL A   1      36.441  29.630  29.834  1.00  0.00     0.014 A 
ATOM     10  C   UNL A   1      38.313  29.727  27.746  1.00  0.00     0.010 A 
ATOM     11  C   UNL A   1      37.727  29.136  30.029  1.00  0.00     0.010 A 
ATOM     12  C   UNL A   1      38.662  29.179  28.981  1.00  0.00    -0.014 A 
BRANCH  12  13
ATOM     13  C   UNL A   1      40.068  28.795  29.198  1.00  0.00     0.031 A 
ATOM     14  C   UNL A   1      41.053  29.777  29.733  1.00  0.00     0.074 A 
ATOM     15  C   UNL A   1      40.431  27.545  28.853  1.00  0.00     0.049 A 
ATOM     16  N   UNL A   1      42.347  29.656  29.845  1.00  0.00    -0.248 NA
ATOM     17  C   UNL A   1      40.520  31.073  30.179  1.00  0.00     0.031 C 
ATOM     18  C   UNL A   1      39.526  26.515  28.327  1.00  0.00     0.029 A 
ATOM     19  N   UNL A   1      41.650  26.925  28.880  1.00  0.00    -0.354 N 
ATOM     20  C   UNL A   1      42.794  30.872  30.339  1.00  0.00     0.074 A 
ATOM     21  C   UNL A   1      41.634  31.726  30.479  1.00  0.00     0.031 C 
ATOM     22  C   UNL A   1      40.213  25.391  28.105  1.00  0.00     0.029 A 
ATOM     23  C   UNL A   1      41.619  25.654  28.364  1.00  0.00     0.049 A 
ATOM     24  H   UNL A   1      42.465  27.348  29.233  1.00  0.00     0.167 HD
ATOM     25  C   UNL A   1      44.064  31.229  30.638  1.00  0.00     0.037 A 
ATOM     26  C   UNL A   1      42.620  24.811  28.062  1.00  0.00     0.037 A 
ATOM     27  C   UNL A   1      45.193  30.350  30.470  1.00  0.00     0.049 A 
ATOM     28  C   UNL A   1      44.021  25.252  28.341  1.00  0.00     0.074 A 
ATOM     29  C   UNL A   1      46.522  30.588  30.769  1.00  0.00     0.029 A 
ATOM     30  N   UNL A   1      45.126  29.068  29.936  1.00  0.00    -0.354 N 
ATOM     31  N   UNL A   1      44.439  26.394  28.830  1.00  0.00    -0.248 NA
ATOM     32  C   UNL A   1      45.088  24.298  28.029  1.00  0.00     0.031 C 
ATOM     33  C   UNL A   1      47.267  29.487  30.338  1.00  0.00     0.029 A 
ATOM     34  C   UNL A   1      46.395  28.521  29.859  1.00  0.00     0.049 A 
ATOM     35  H   UNL A   1      44.299  28.617  29.654  1.00  0.00     0.167 HD
ATOM     36  C   UNL A   1      45.817  26.289  28.915  1.00  0.00     0.074 A 
ATOM     37  C   UNL A   1      46.162  24.968  28.424  1.00  0.00     0.031 C 
ATOM     38  C   UNL A   1      46.713  27.199  29.370  1.00  0.00     0.037 A 
BRANCH  25  39
ATOM     39  C   UNL A   1      44.291  32.639  31.104  1.00  0.00     0.057 A 
ATOM     40  C   UNL A   1      44.282  32.995  32.460  1.00  0.00     0.134 A 
ATOM     41  C   UNL A   1      44.500  33.665  30.173  1.00  0.00     0.134 A 
ATOM     42  F   UNL A   1      44.079  32.066  33.406  1.00  0.00    -0.206 F 
ATOM     43  C   UNL A   1      44.416  34.323  32.869  1.00  0.00     0.040 A 
ATOM     44  C   UNL A   1      44.676  34.992  30.572  1.00  0.00     0.040 A 
ATOM     45  F   UNL A   1      44.532  33.401  28.859  1.00  0.00    -0.206 F 
ATOM     46  C   UNL A   1      44.616  35.326  31.922  1.00  0.00     0.006 A 
ENDBRANCH  25  39
BRANCH  26  47
ATOM     47  C   UNL A   1      42.301  23.506  27.438  1.00  0.00     0.057 A 
ATOM     48  C   UNL A   1      42.386  23.325  26.055  1.00  0.00     0.134 A 
ATOM     49  C   UNL A   1      41.984  22.385  28.219  1.00  0.00     0.134 A 
ATOM     50  F   UNL A   1      42.687  24.360  25.257  1.00  0.00    -0.206 F 
ATOM     51  C   UNL A   1      42.158  22.080  25.468  1.00  0.00     0.040 A 
ATOM     52  C   UNL A   1      41.786  21.128  27.649  1.00  0.00     0.040 A 
ATOM     53  F   UNL A   1      41.917  22.487  29.555  1.00  0.00    -0.206 F 
ATOM     54  C   UNL A   1      41.867  20.975  26.267  1.00  0.00     0.006 A 
ENDBRANCH  26  47
BRANCH  38  55
ATOM     55  C   UNL A   1      48.153  26.783  29.417  1.00  0.00     0.057 A 
ATOM     56  C   UNL A   1      49.059  27.109  28.402  1.00  0.00     0.134 A 
ATOM     57  C   UNL A   1      48.652  26.121  30.546  1.00  0.00     0.134 A 
ATOM     58  F   UNL A   1      48.639  27.726  27.287  1.00  0.00    -0.206 F 
ATOM     59  C   UNL A   1      50.413  26.790  28.508  1.00  0.00     0.040 A 
ATOM     60  C   UNL A   1      50.008  25.827  30.680  1.00  0.00     0.040 A 
ATOM     61  F   UNL A   1      47.834  25.784  31.556  1.00  0.00    -0.206 F 
ATOM     62  C   UNL A   1      50.892  26.161  29.657  1.00  0.00     0.006 A 
ENDBRANCH  38  55
ENDBRANCH  12  13
ENDBRANCH   5   7
ENDBRANCH   2   3
ENDBRANCH   1   2
BRANCH   1  63
ATOM     63  C   UNL A   1      33.757  28.660  24.821  1.00  0.00     0.117 C 
BRANCH  63  64
ATOM     64  N   UNL A   1      32.725  28.476  23.537  1.00  0.00    -0.356 N 
ATOM     65  C   UNL A   1      31.040  27.625  23.019  1.00  0.00     0.225 C 
ATOM     66  H   UNL A   1      33.085  28.967  22.764  1.00  0.00     0.163 HD
ATOM     67  O   UNL A   1      30.337  27.792  21.961  1.00  0.00    -0.275 OA
BRANCH  65  68
ATOM     68  C   UNL A   1      30.144  26.273  23.775  1.00  0.00     0.107 C 
ATOM     69  C   UNL A   1      29.600  25.935  25.182  1.00  0.00     0.116 C 
ATOM     70  C   UNL A   1      30.843  24.956  23.417  1.00  0.00     0.139 C 
ATOM     71  C   UNL A   1      30.609  24.940  25.742  1.00  0.00     0.227 C 
ATOM     72  N   UNL A   1      31.432  24.540  24.672  1.00  0.00    -0.311 N 
ATOM     73  O   UNL A   1      30.748  24.715  26.934  1.00  0.00    -0.274 OA
BRANCH  72  74
ATOM     74  C   UNL A   1      32.779  24.112  24.850  1.00  0.00     0.055 A 
ATOM     75  C   UNL A   1      33.794  25.074  24.698  1.00  0.00     0.028 A 
ATOM     76  C   UNL A   1      33.169  22.791  25.166  1.00  0.00     0.048 A 
ATOM     77  C   UNL A   1      35.133  24.778  24.980  1.00  0.00     0.023 A 
ATOM     78  C   UNL A   1      34.514  22.518  25.503  1.00  0.00     0.035 A 
ATOM     79  C   UNL A   1      35.481  23.511  25.422  1.00  0.00     0.041 A 
ATOM     80  Cl  UNL A   1      37.112  23.159  25.834  1.00  0.00    -0.084 Cl
BRANCH  76  81
ATOM     81  C   UNL A   1      32.323  21.570  25.073  1.00  0.00     0.195 C 
ATOM     82  O   UNL A   1      31.236  21.544  25.649  1.00  0.00    -0.289 OA
BRANCH  81  83
ATOM     83  C   UNL A   1      32.705  20.349  24.344  1.00  0.00     0.023 A 
ATOM     84  C   UNL A   1      33.736  19.177  25.274  1.00  0.00     0.012 A 
ATOM     85  C   UNL A   1      32.118  19.914  22.659  1.00  0.00     0.012 A 
ATOM     86  C   UNL A   1      34.158  17.544  24.566  1.00  0.00     0.001 A 
ATOM     87  C   UNL A   1      32.477  18.220  21.979  1.00  0.00     0.001 A 
ATOM     88  C   UNL A   1      33.511  17.073  22.939  1.00  0.00     0.000 A 
ENDBRANCH  81  83
ENDBRANCH  76  81
ENDBRANCH  72  74
ENDBRANCH  65  68
ENDBRANCH  63  64
ENDBRANCH   1  63
TORSDOF 13
ENDMDL
MODEL 2
REMARK VINA RESULT:     -13.3      3.760      7.640
REMARK SMILES O=C(NCCCNC(=O)[C@@H]1CC(=O)N(c2ccc(Cl)cc2C(=O)c2ccccc2)C1)c1ccc(-c2c3nc(c(-c4c(F)cccc4F)c4ccc([nH]4)c(-c4c(F)cccc4F)c4nc(c(-c5c(F)cccc5F)c5ccc2[nH]5)C=C4)C=C3)cc1
REMARK SMILES IDX 5 1 4 2 3 3 1 4 2 5 31 7 32 8 84 9 33 10 83 11 34 12 35 13
REMARK SMILES IDX 36 14 77 15 37 16 82 17 76 18 78 19 38 20 81 21 75 22 74 23
REMARK SMILES IDX 39 25 65 26 48 27 64 28 49 29 52 30 63 31 79 32 50 33 51 34
REMARK SMILES IDX 62 36 80 37 53 38 40 39 41 40 46 41 42 42 43 43 45 44 47 45
REMARK SMILES IDX 44 46 66 47 67 48 72 49 68 50 69 51 71 52 73 53 70 54 54 55
REMARK SMILES IDX 55 56 60 57 56 58 57 59 59 60 61 61 58 62 6 63 7 64 8 65
REMARK SMILES IDX 9 67 10 68 11 69 30 70 12 71 14 72 13 73 15 74 16 75 21 76
REMARK SMILES IDX 17 77 20 78 18 79 19 80 22 81 23 82 24 83 25 84 29 85 26 86
REMARK SMILES IDX 28 87 27 88
REMARK H PARENT 3 6 78 24 52 35 7 66
REMARK Flexibility Score: inf
ROOT
ATOM      1  C   UNL A   1      31.497  31.861  26.464  1.00  0.00     0.042 C 
ENDROOT
BRANCH   1   2
ATOM      2  C   UNL A   1      32.660  32.389  27.251  1.00  0.00     0.118 C 
BRANCH   2   3
ATOM      3  N   UNL A   1      32.451  33.802  27.553  1.00  0.00    -0.352 N 
ATOM      4  O   UNL A   1      32.551  35.592  28.928  1.00  0.00    -0.269 OA
ATOM      5  C   UNL A   1      33.059  34.551  28.527  1.00  0.00     0.251 C 
ATOM      6  H   UNL A   1      31.795  34.273  26.989  1.00  0.00     0.163 HD
BRANCH   5   7
ATOM      7  C   UNL A   1      34.333  34.062  29.076  1.00  0.00     0.039 A 
ATOM      8  C   UNL A   1      34.308  33.251  30.214  1.00  0.00     0.014 A 
ATOM      9  C   UNL A   1      35.541  34.434  28.488  1.00  0.00     0.014 A 
ATOM     10  C   UNL A   1      35.478  32.979  30.886  1.00  0.00     0.010 A 
ATOM     11  C   UNL A   1      36.727  33.987  29.062  1.00  0.00     0.010 A 
ATOM     12  C   UNL A   1      36.695  33.264  30.266  1.00  0.00    -0.014 A 
BRANCH  12  13
ATOM     13  C   UNL A   1      37.917  32.658  30.823  1.00  0.00     0.031 A 
ATOM     14  C   UNL A   1      38.546  31.474  30.173  1.00  0.00     0.074 A 
ATOM     15  C   UNL A   1      38.411  33.186  31.959  1.00  0.00     0.049 A 
ATOM     16  N   UNL A   1      39.526  30.730  30.606  1.00  0.00    -0.248 NA
ATOM     17  C   UNL A   1      37.987  31.055  28.879  1.00  0.00     0.031 C 
ATOM     18  C   UNL A   1      37.859  34.353  32.661  1.00  0.00     0.029 A 
ATOM     19  N   UNL A   1      39.475  32.814  32.733  1.00  0.00    -0.354 N 
ATOM     20  C   UNL A   1      39.682  29.729  29.658  1.00  0.00     0.074 A 
ATOM     21  C   UNL A   1      38.675  29.948  28.641  1.00  0.00     0.031 C 
ATOM     22  C   UNL A   1      38.600  34.613  33.741  1.00  0.00     0.029 A 
ATOM     23  C   UNL A   1      39.603  33.570  33.871  1.00  0.00     0.049 A 
ATOM     24  H   UNL A   1      40.085  32.079  32.498  1.00  0.00     0.167 HD
ATOM     25  C   UNL A   1      40.586  28.723  29.656  1.00  0.00     0.037 A 
ATOM     26  C   UNL A   1      40.396  33.405  34.943  1.00  0.00     0.037 A 
ATOM     27  C   UNL A   1      41.563  28.535  30.697  1.00  0.00     0.049 A 
ATOM     28  C   UNL A   1      41.342  32.247  34.948  1.00  0.00     0.074 A 
ATOM     29  C   UNL A   1      42.550  27.572  30.788  1.00  0.00     0.029 A 
ATOM     30  N   UNL A   1      41.660  29.318  31.842  1.00  0.00    -0.354 N 
ATOM     31  N   UNL A   1      41.503  31.316  34.039  1.00  0.00    -0.248 NA
ATOM     32  C   UNL A   1      42.214  32.112  36.118  1.00  0.00     0.031 C 
ATOM     33  C   UNL A   1      43.187  27.719  32.024  1.00  0.00     0.029 A 
ATOM     34  C   UNL A   1      42.664  28.832  32.663  1.00  0.00     0.049 A 
ATOM     35  H   UNL A   1      41.098  30.100  32.040  1.00  0.00     0.167 HD
ATOM     36  C   UNL A   1      42.516  30.497  34.511  1.00  0.00     0.074 A 
ATOM     37  C   UNL A   1      42.931  31.046  35.788  1.00  0.00     0.031 C 
ATOM     38  C   UNL A   1      43.061  29.400  33.931  1.00  0.00     0.037 A 
BRANCH  25  39
ATOM     39  C   UNL A   1      40.503  27.726  28.535  1.00  0.00     0.057 A 
ATOM     40  C   UNL A   1      39.727  26.561  28.619  1.00  0.00     0.134 A 
ATOM     41  C   UNL A   1      41.232  27.927  27.356  1.00  0.00     0.134 A 
ATOM     42  F   UNL A   1      39.009  26.299  29.721  1.00  0.00    -0.206 F 
ATOM     43  C   UNL A   1      39.725  25.608  27.598  1.00  0.00     0.040 A 
ATOM     44  C   UNL A   1      41.206  27.001  26.311  1.00  0.00     0.040 A 
ATOM     45  F   UNL A   1      41.989  29.023  27.198  1.00  0.00    -0.206 F 
ATOM     46  C   UNL A   1      40.466  25.829  26.439  1.00  0.00     0.006 A 
ENDBRANCH  25  39
BRANCH  26  47
ATOM     47  C   UNL A   1      40.276  34.345  36.081  1.00  0.00     0.057 A 
ATOM     48  C   UNL A   1      40.983  35.550  36.103  1.00  0.00     0.134 A 
ATOM     49  C   UNL A   1      39.386  34.097  37.137  1.00  0.00     0.134 A 
ATOM     50  F   UNL A   1      41.846  35.843  35.120  1.00  0.00    -0.206 F 
ATOM     51  C   UNL A   1      40.819  36.473  37.137  1.00  0.00     0.040 A 
ATOM     52  C   UNL A   1      39.188  35.024  38.160  1.00  0.00     0.040 A 
ATOM     53  F   UNL A   1      38.656  32.972  37.159  1.00  0.00    -0.206 F 
ATOM     54  C   UNL A   1      39.912  36.215  38.164  1.00  0.00     0.006 A 
ENDBRANCH  26  47
BRANCH  38  55
ATOM     55  C   UNL A   1      44.209  28.746  34.640  1.00  0.00     0.057 A 
ATOM     56  C   UNL A   1      45.527  29.199  34.507  1.00  0.00     0.134 A 
ATOM     57  C   UNL A   1      43.969  27.701  35.542  1.00  0.00     0.134 A 
ATOM     58  F   UNL A   1      45.824  30.185  33.646  1.00  0.00    -0.206 F 
ATOM     59  C   UNL A   1      46.566  28.633  35.246  1.00  0.00     0.040 A 
ATOM     60  C   UNL A   1      44.993  27.150  36.310  1.00  0.00     0.040 A 
ATOM     61  F   UNL A   1      42.726  27.223  35.717  1.00  0.00    -0.206 F 
ATOM     62  C   UNL A   1      46.297  27.616  36.161  1.00  0.00     0.006 A 
ENDBRANCH  38  55
ENDBRANCH  12  13
ENDBRANCH   5   7
ENDBRANCH   2   3
ENDBRANCH   1   2
BRANCH   1  63
ATOM     63  C   UNL A   1      31.773  30.421  26.047  1.00  0.00     0.117 C 
BRANCH  63  64
ATOM     64  N   UNL A   1      31.192  30.053  24.538  1.00  0.00    -0.356 N 
ATOM     65  C   UNL A   1      31.400  28.773  23.071  1.00  0.00     0.225 C 
ATOM     66  H   UNL A   1      30.499  30.709  24.294  1.00  0.00     0.163 HD
ATOM     67  O   UNL A   1      30.667  28.599  22.035  1.00  0.00    -0.275 OA
BRANCH  65  68
ATOM     68  C   UNL A   1      32.743  27.655  22.691  1.00  0.00     0.107 C 
ATOM     69  C   UNL A   1      33.016  26.539  21.657  1.00  0.00     0.116 C 
ATOM     70  C   UNL A   1      33.188  26.959  23.983  1.00  0.00     0.139 C 
ATOM     71  C   UNL A   1      32.807  25.248  22.439  1.00  0.00     0.227 C 
ATOM     72  N   UNL A   1      32.735  25.597  23.801  1.00  0.00    -0.311 N 
ATOM     73  O   UNL A   1      32.566  24.171  21.917  1.00  0.00    -0.274 OA
BRANCH  72  74
ATOM     74  C   UNL A   1      32.004  24.836  24.758  1.00  0.00     0.055 A 
ATOM     75  C   UNL A   1      30.954  25.477  25.439  1.00  0.00     0.028 A 
ATOM     76  C   UNL A   1      32.260  23.481  25.074  1.00  0.00     0.048 A 
ATOM     77  C   UNL A   1      30.100  24.777  26.299  1.00  0.00     0.023 A 
ATOM     78  C   UNL A   1      31.359  22.772  25.899  1.00  0.00     0.035 A 
ATOM     79  C   UNL A   1      30.282  23.417  26.493  1.00  0.00     0.041 A 
ATOM     80  Cl  UNL A   1      29.198  22.536  27.495  1.00  0.00    -0.084 Cl
BRANCH  76  81
ATOM     81  C   UNL A   1      33.479  22.704  24.723  1.00  0.00     0.195 C 
ATOM     82  O   UNL A   1      34.584  23.233  24.836  1.00  0.00    -0.289 OA
BRANCH  81  83
ATOM     83  C   UNL A   1      33.466  21.321  24.217  1.00  0.00     0.023 A 
ATOM     84  C   UNL A   1      34.675  20.200  24.980  1.00  0.00     0.012 A 
ATOM     85  C   UNL A   1      32.261  20.671  22.993  1.00  0.00     0.012 A 
ATOM     86  C   UNL A   1      34.676  18.417  24.576  1.00  0.00     0.001 A 
ATOM     87  C   UNL A   1      32.209  18.843  22.649  1.00  0.00     0.001 A 
ATOM     88  C   UNL A   1      33.434  17.752  23.433  1.00  0.00     0.000 A 
ENDBRANCH  81  83
ENDBRANCH  76  81
ENDBRANCH  72  74
ENDBRANCH  65  68
ENDBRANCH  63  64
ENDBRANCH   1  63
TORSDOF 13
ENDMDL
MODEL 3
REMARK VINA RESULT:     -13.3      2.500      7.461
REMARK SMILES O=C(NCCCNC(=O)[C@@H]1CC(=O)N(c2ccc(Cl)cc2C(=O)c2ccccc2)C1)c1ccc(-c2c3nc(c(-c4c(F)cccc4F)c4ccc([nH]4)c(-c4c(F)cccc4F)c4nc(c(-c5c(F)cccc5F)c5ccc2[nH]5)C=C4)C=C3)cc1
REMARK SMILES IDX 5 1 4 2 3 3 1 4 2 5 31 7 32 8 84 9 33 10 83 11 34 12 35 13
REMARK SMILES IDX 36 14 77 15 37 16 82 17 76 18 78 19 38 20 81 21 75 22 74 23
REMARK SMILES IDX 39 25 65 26 48 27 64 28 49 29 52 30 63 31 79 32 50 33 51 34
REMARK SMILES IDX 62 36 80 37 53 38 40 39 41 40 46 41 42 42 43 43 45 44 47 45
REMARK SMILES IDX 44 46 66 47 67 48 72 49 68 50 69 51 71 52 73 53 70 54 54 55
REMARK SMILES IDX 55 56 60 57 56 58 57 59 59 60 61 61 58 62 6 63 7 64 8 65
REMARK SMILES IDX 9 67 10 68 11 69 30 70 12 71 14 72 13 73 15 74 16 75 21 76
REMARK SMILES IDX 17 77 20 78 18 79 19 80 22 81 23 82 24 83 25 84 29 85 26 86
REMARK SMILES IDX 28 87 27 88
REMARK H PARENT 3 6 78 24 52 35 7 66
REMARK Flexibility Score: inf
ROOT
ATOM      1  C   UNL A   1      36.858  20.534  25.204  1.00  0.00     0.042 C 
ENDROOT
BRANCH   1   2
ATOM      2  C   UNL A   1      38.296  20.963  25.217  1.00  0.00     0.118 C 
BRANCH   2   3
ATOM      3  N   UNL A   1      39.152  19.818  25.510  1.00  0.00    -0.352 N 
ATOM      4  O   UNL A   1      41.172  18.843  25.776  1.00  0.00    -0.269 OA
ATOM      5  C   UNL A   1      40.459  19.829  25.921  1.00  0.00     0.251 C 
ATOM      6  H   UNL A   1      38.739  18.930  25.398  1.00  0.00     0.163 HD
BRANCH   5   7
ATOM      7  C   UNL A   1      40.976  21.062  26.536  1.00  0.00     0.039 A 
ATOM      8  C   UNL A   1      41.347  22.123  25.705  1.00  0.00     0.014 A 
ATOM      9  C   UNL A   1      41.123  21.150  27.919  1.00  0.00     0.014 A 
ATOM     10  C   UNL A   1      42.050  23.185  26.225  1.00  0.00     0.010 A 
ATOM     11  C   UNL A   1      41.656  22.315  28.460  1.00  0.00     0.010 A 
ATOM     12  C   UNL A   1      42.126  23.332  27.611  1.00  0.00    -0.014 A 
BRANCH  12  13
ATOM     13  C   UNL A   1      42.564  24.631  28.149  1.00  0.00     0.031 A 
ATOM     14  C   UNL A   1      41.574  25.698  28.467  1.00  0.00     0.074 A 
ATOM     15  C   UNL A   1      43.888  24.829  28.296  1.00  0.00     0.049 A 
ATOM     16  N   UNL A   1      41.791  26.940  28.804  1.00  0.00    -0.248 NA
ATOM     17  C   UNL A   1      40.153  25.331  28.375  1.00  0.00     0.031 C 
ATOM     18  C   UNL A   1      44.930  23.833  28.013  1.00  0.00     0.029 A 
ATOM     19  N   UNL A   1      44.591  25.928  28.708  1.00  0.00    -0.354 N 
ATOM     20  C   UNL A   1      40.537  27.518  28.927  1.00  0.00     0.074 A 
ATOM     21  C   UNL A   1      39.564  26.496  28.602  1.00  0.00     0.031 C 
ATOM     22  C   UNL A   1      46.129  24.356  28.281  1.00  0.00     0.029 A 
ATOM     23  C   UNL A   1      45.950  25.752  28.644  1.00  0.00     0.049 A 
ATOM     24  H   UNL A   1      44.165  26.759  29.017  1.00  0.00     0.167 HD
ATOM     25  C   UNL A   1      40.242  28.791  29.275  1.00  0.00     0.037 A 
ATOM     26  C   UNL A   1      46.951  26.635  28.790  1.00  0.00     0.037 A 
ATOM     27  C   UNL A   1      41.243  29.781  29.578  1.00  0.00     0.049 A 
ATOM     28  C   UNL A   1      46.599  28.053  29.111  1.00  0.00     0.074 A 
ATOM     29  C   UNL A   1      41.065  31.094  29.974  1.00  0.00     0.029 A 
ATOM     30  N   UNL A   1      42.615  29.570  29.496  1.00  0.00    -0.354 N 
ATOM     31  N   UNL A   1      45.412  28.591  29.250  1.00  0.00    -0.248 NA
ATOM     32  C   UNL A   1      47.715  28.984  29.295  1.00  0.00     0.031 C 
ATOM     33  C   UNL A   1      42.323  31.698  30.049  1.00  0.00     0.029 A 
ATOM     34  C   UNL A   1      43.293  30.740  29.793  1.00  0.00     0.049 A 
ATOM     35  H   UNL A   1      43.041  28.715  29.260  1.00  0.00     0.167 HD
ATOM     36  C   UNL A   1      45.634  29.921  29.568  1.00  0.00     0.074 A 
ATOM     37  C   UNL A   1      47.073  30.104  29.600  1.00  0.00     0.031 C 
ATOM     38  C   UNL A   1      44.728  30.896  29.823  1.00  0.00     0.037 A 
BRANCH  25  39
ATOM     39  C   UNL A   1      38.792  29.186  29.275  1.00  0.00     0.057 A 
ATOM     40  C   UNL A   1      38.137  29.647  28.125  1.00  0.00     0.134 A 
ATOM     41  C   UNL A   1      38.043  29.125  30.458  1.00  0.00     0.134 A 
ATOM     42  F   UNL A   1      38.794  29.740  26.959  1.00  0.00    -0.206 F 
ATOM     43  C   UNL A   1      36.811  30.084  28.163  1.00  0.00     0.040 A 
ATOM     44  C   UNL A   1      36.705  29.521  30.499  1.00  0.00     0.040 A 
ATOM     45  F   UNL A   1      38.598  28.685  31.597  1.00  0.00    -0.206 F 
ATOM     46  C   UNL A   1      36.091  30.019  29.353  1.00  0.00     0.006 A 
ENDBRANCH  25  39
BRANCH  26  47
ATOM     47  C   UNL A   1      48.348  26.183  28.594  1.00  0.00     0.057 A 
ATOM     48  C   UNL A   1      48.965  26.259  27.343  1.00  0.00     0.134 A 
ATOM     49  C   UNL A   1      49.127  25.740  29.674  1.00  0.00     0.134 A 
ATOM     50  F   UNL A   1      48.272  26.677  26.274  1.00  0.00    -0.206 F 
ATOM     51  C   UNL A   1      50.303  25.903  27.167  1.00  0.00     0.040 A 
ATOM     52  C   UNL A   1      50.473  25.411  29.519  1.00  0.00     0.040 A 
ATOM     53  F   UNL A   1      48.601  25.673  30.906  1.00  0.00    -0.206 F 
ATOM     54  C   UNL A   1      51.063  25.487  28.259  1.00  0.00     0.006 A 
ENDBRANCH  26  47
BRANCH  38  55
ATOM     55  C   UNL A   1      45.259  32.242  30.219  1.00  0.00     0.057 A 
ATOM     56  C   UNL A   1      45.459  33.269  29.289  1.00  0.00     0.134 A 
ATOM     57  C   UNL A   1      45.486  32.534  31.570  1.00  0.00     0.134 A 
ATOM     58  F   UNL A   1      45.277  33.047  27.979  1.00  0.00    -0.206 F 
ATOM     59  C   UNL A   1      45.869  34.541  29.691  1.00  0.00     0.040 A 
ATOM     60  C   UNL A   1      45.862  33.810  31.987  1.00  0.00     0.040 A 
ATOM     61  F   UNL A   1      45.308  31.593  32.510  1.00  0.00    -0.206 F 
ATOM     62  C   UNL A   1      46.056  34.817  31.046  1.00  0.00     0.006 A 
ENDBRANCH  38  55
ENDBRANCH  12  13
ENDBRANCH   5   7
ENDBRANCH   2   3
ENDBRANCH   1   2
BRANCH   1  63
ATOM     63  C   UNL A   1      35.979  21.675  25.703  1.00  0.00     0.117 C 
BRANCH  63  64
ATOM     64  N   UNL A   1      34.411  21.216  25.987  1.00  0.00    -0.356 N 
ATOM     65  C   UNL A   1      32.682  20.988  25.098  1.00  0.00     0.225 C 
ATOM     66  H   UNL A   1      34.317  20.974  26.936  1.00  0.00     0.163 HD
ATOM     67  O   UNL A   1      31.616  20.424  25.528  1.00  0.00    -0.275 OA
BRANCH  65  68
ATOM     68  C   UNL A   1      32.076  21.658  23.554  1.00  0.00     0.107 C 
ATOM     69  C   UNL A   1      32.669  21.992  22.166  1.00  0.00     0.116 C 
ATOM     70  C   UNL A   1      31.297  22.946  23.846  1.00  0.00     0.139 C 
ATOM     71  C   UNL A   1      32.849  23.505  22.192  1.00  0.00     0.227 C 
ATOM     72  N   UNL A   1      32.159  23.983  23.321  1.00  0.00    -0.311 N 
ATOM     73  O   UNL A   1      33.613  24.109  21.455  1.00  0.00    -0.274 OA
BRANCH  72  74
ATOM     74  C   UNL A   1      32.532  25.173  24.010  1.00  0.00     0.055 A 
ATOM     75  C   UNL A   1      33.267  25.033  25.202  1.00  0.00     0.028 A 
ATOM     76  C   UNL A   1      32.216  26.483  23.584  1.00  0.00     0.048 A 
ATOM     77  C   UNL A   1      33.789  26.143  25.877  1.00  0.00     0.023 A 
ATOM     78  C   UNL A   1      32.794  27.593  24.242  1.00  0.00     0.035 A 
ATOM     79  C   UNL A   1      33.584  27.417  25.370  1.00  0.00     0.041 A 
ATOM     80  Cl  UNL A   1      34.277  28.780  26.155  1.00  0.00    -0.084 Cl
BRANCH  76  81
ATOM     81  C   UNL A   1      31.212  26.863  22.554  1.00  0.00     0.195 C 
ATOM     82  O   UNL A   1      31.292  26.377  21.426  1.00  0.00    -0.289 OA
BRANCH  81  83
ATOM     83  C   UNL A   1      30.113  27.818  22.777  1.00  0.00     0.023 A 
ATOM     84  C   UNL A   1      30.443  29.524  22.247  1.00  0.00     0.012 A 
ATOM     85  C   UNL A   1      28.455  27.365  23.425  1.00  0.00     0.012 A 
ATOM     86  C   UNL A   1      29.124  30.789  22.308  1.00  0.00     0.001 A 
ATOM     87  C   UNL A   1      27.093  28.632  23.405  1.00  0.00     0.001 A 
ATOM     88  C   UNL A   1      27.460  30.330  22.865  1.00  0.00     0.000 A 
ENDBRANCH  81  83
ENDBRANCH  76  81
ENDBRANCH  72  74
ENDBRANCH  65  68
ENDBRANCH  63  64
ENDBRANCH   1  63
TORSDOF 13
ENDMDL
