MODEL 1
REMARK VINA RESULT:     -11.5      0.000      0.000
REMARK SMILES O=C(C[C@@H]1CN(C(=O)NC[C@H]2C[C@H]3CC[C@@H]2C3)CCO1)NCCCNC(=O)c1ccc(-c2c3nc(c(-c4c(F)cccc4F)c4ccc([nH]4)c(-c4c(F)cccc4F)c4nc(c(-c5c(F)cccc5F)c5ccc2[nH]5)C=C4)C=C3)cc1
REMARK SMILES IDX 22 1 21 2 1 3 2 4 3 6 4 7 5 8 20 9 6 10 19 11 18 12 7 13
REMARK SMILES IDX 8 14 9 15 10 17 11 18 12 19 16 20 13 21 15 22 17 23 14 24
REMARK SMILES IDX 23 25 24 26 25 27 26 28 27 30 28 31 29 32 81 33 30 34 80 35
REMARK SMILES IDX 31 36 32 37 33 38 74 39 34 40 79 41 73 42 75 43 35 44 78 45
REMARK SMILES IDX 72 46 71 47 36 49 62 50 45 51 61 52 46 53 49 54 60 55 76 56
REMARK SMILES IDX 47 57 48 58 59 60 77 61 50 62 37 63 38 64 43 65 39 66 40 67
REMARK SMILES IDX 42 68 44 69 41 70 63 71 64 72 69 73 65 74 66 75 68 76 70 77
REMARK SMILES IDX 67 78 51 79 52 80 57 81 53 82 54 83 56 84 58 85 55 86
REMARK H PARENT 21 5 9 16 25 29 75 48 49 59
REMARK Flexibility Score: inf
ROOT
ATOM      1  C   UNL A   1      37.527  21.255  24.443  1.00  0.00     0.117 C 
ENDROOT
BRANCH   1   2
ATOM      2  N   UNL A   1      36.394  21.716  25.211  1.00  0.00    -0.356 N 
ATOM      3  O   UNL A   1      37.317  23.689  25.920  1.00  0.00    -0.275 OA
ATOM      4  C   UNL A   1      36.362  22.919  25.868  1.00  0.00     0.222 C 
ATOM      5  H   UNL A   1      35.602  21.135  25.264  1.00  0.00     0.163 HD
BRANCH   4   6
ATOM      6  C   UNL A   1      35.103  23.170  26.669  1.00  0.00     0.133 C 
BRANCH   6   7
ATOM      7  C   UNL A   1      33.786  23.397  25.911  1.00  0.00     0.147 C 
ATOM      8  C   UNL A   1      32.581  23.153  26.849  1.00  0.00     0.154 C 
ATOM      9  O   UNL A   1      33.646  22.560  24.749  1.00  0.00    -0.374 OA
ATOM     10  N   UNL A   1      31.313  23.412  26.168  1.00  0.00    -0.320 N 
ATOM     11  C   UNL A   1      32.464  22.928  24.018  1.00  0.00     0.182 C 
ATOM     12  C   UNL A   1      31.212  22.722  24.872  1.00  0.00     0.150 C 
BRANCH  10  13
ATOM     13  C   UNL A   1      30.178  23.983  26.650  1.00  0.00     0.317 C 
ATOM     14  O   UNL A   1      29.469  23.399  27.477  1.00  0.00    -0.249 OA
ATOM     15  N   UNL A   1      29.714  25.185  26.289  1.00  0.00    -0.338 N 
ATOM     16  H   UNL A   1      28.927  25.415  26.835  1.00  0.00     0.165 HD
BRANCH  15  17
ATOM     17  C   UNL A   1      29.993  26.258  25.356  1.00  0.00     0.121 C 
BRANCH  17  18
ATOM     18  C   UNL A   1      31.426  26.804  25.321  1.00  0.00     0.012 C 
ATOM     19  C   UNL A   1      31.639  28.158  24.625  1.00  0.00     0.009 C 
ATOM     20  C   UNL A   1      32.208  26.983  26.651  1.00  0.00    -0.006 C 
ATOM     21  C   UNL A   1      32.585  28.903  25.579  1.00  0.00    -0.011 C 
ATOM     22  C   UNL A   1      31.606  28.038  27.592  1.00  0.00     0.004 C 
ATOM     23  C   UNL A   1      33.432  27.764  26.143  1.00  0.00     0.007 C 
ATOM     24  C   UNL A   1      31.769  29.346  26.807  1.00  0.00     0.004 C 
ENDBRANCH  17  18
ENDBRANCH  15  17
ENDBRANCH  10  13
ENDBRANCH   6   7
ENDBRANCH   4   6
ENDBRANCH   1   2
BRANCH   1  25
ATOM     25  C   UNL A   1      38.022  19.888  24.899  1.00  0.00     0.042 C 
BRANCH  25  26
ATOM     26  C   UNL A   1      39.015  19.916  26.059  1.00  0.00     0.118 C 
BRANCH  26  27
ATOM     27  N   UNL A   1      40.259  19.212  25.779  1.00  0.00    -0.352 N 
ATOM     28  C   UNL A   1      41.565  19.609  25.913  1.00  0.00     0.251 C 
ATOM     29  H   UNL A   1      40.143  18.298  25.435  1.00  0.00     0.163 HD
ATOM     30  O   UNL A   1      42.459  18.869  25.497  1.00  0.00    -0.269 OA
BRANCH  28  31
ATOM     31  C   UNL A   1      41.924  20.910  26.519  1.00  0.00     0.039 A 
ATOM     32  C   UNL A   1      42.291  21.959  25.668  1.00  0.00     0.014 A 
ATOM     33  C   UNL A   1      41.950  21.105  27.903  1.00  0.00     0.014 A 
ATOM     34  C   UNL A   1      42.621  23.209  26.198  1.00  0.00     0.010 A 
ATOM     35  C   UNL A   1      42.209  22.374  28.427  1.00  0.00     0.010 A 
ATOM     36  C   UNL A   1      42.551  23.440  27.581  1.00  0.00    -0.014 A 
BRANCH  36  37
ATOM     37  C   UNL A   1      42.822  24.790  28.140  1.00  0.00     0.031 A 
ATOM     38  C   UNL A   1      44.216  25.196  28.535  1.00  0.00     0.074 A 
ATOM     39  C   UNL A   1      41.800  25.649  28.324  1.00  0.00     0.049 A 
ATOM     40  N   UNL A   1      44.636  26.333  29.035  1.00  0.00    -0.248 NA
ATOM     41  C   UNL A   1      45.274  24.188  28.372  1.00  0.00     0.031 C 
ATOM     42  C   UNL A   1      40.393  25.362  28.039  1.00  0.00     0.029 A 
ATOM     43  N   UNL A   1      41.786  26.937  28.797  1.00  0.00    -0.354 N 
ATOM     44  C   UNL A   1      45.998  26.172  29.253  1.00  0.00     0.074 A 
ATOM     45  C   UNL A   1      46.326  24.812  28.882  1.00  0.00     0.031 C 
ATOM     46  C   UNL A   1      39.658  26.453  28.310  1.00  0.00     0.029 A 
ATOM     47  C   UNL A   1      40.534  27.504  28.814  1.00  0.00     0.049 A 
ATOM     48  H   UNL A   1      42.596  27.411  29.094  1.00  0.00     0.167 HD
ATOM     49  C   UNL A   1      46.900  27.081  29.697  1.00  0.00     0.037 A 
ATOM     50  C   UNL A   1      40.137  28.735  29.189  1.00  0.00     0.037 A 
ATOM     51  C   UNL A   1      46.582  28.441  30.045  1.00  0.00     0.049 A 
ATOM     52  C   UNL A   1      41.160  29.730  29.660  1.00  0.00     0.074 A 
ATOM     53  C   UNL A   1      47.438  29.451  30.448  1.00  0.00     0.029 A 
ATOM     54  N   UNL A   1      45.306  28.983  30.029  1.00  0.00    -0.354 N 
ATOM     55  N   UNL A   1      42.456  29.586  29.790  1.00  0.00    -0.248 NA
ATOM     56  C   UNL A   1      40.664  31.064  30.027  1.00  0.00     0.031 C 
ATOM     57  C   UNL A   1      46.676  30.595  30.713  1.00  0.00     0.029 A 
ATOM     58  C   UNL A   1      45.350  30.309  30.431  1.00  0.00     0.049 A 
ATOM     59  H   UNL A   1      44.490  28.498  29.770  1.00  0.00     0.167 HD
ATOM     60  C   UNL A   1      42.933  30.815  30.226  1.00  0.00     0.074 A 
ATOM     61  C   UNL A   1      41.790  31.698  30.321  1.00  0.00     0.031 C 
ATOM     62  C   UNL A   1      44.206  31.179  30.520  1.00  0.00     0.037 A 
BRANCH  49  63
ATOM     63  C   UNL A   1      48.327  26.631  29.826  1.00  0.00     0.057 A 
ATOM     64  C   UNL A   1      49.260  26.836  28.800  1.00  0.00     0.134 A 
ATOM     65  C   UNL A   1      48.784  26.019  31.001  1.00  0.00     0.134 A 
ATOM     66  F   UNL A   1      48.885  27.406  27.646  1.00  0.00    -0.206 F 
ATOM     67  C   UNL A   1      50.589  26.426  28.928  1.00  0.00     0.040 A 
ATOM     68  C   UNL A   1      50.116  25.629  31.150  1.00  0.00     0.040 A 
ATOM     69  F   UNL A   1      47.946  25.799  32.024  1.00  0.00    -0.206 F 
ATOM     70  C   UNL A   1      51.021  25.826  30.109  1.00  0.00     0.006 A 
ENDBRANCH  49  63
BRANCH  50  71
ATOM     71  C   UNL A   1      38.705  29.112  29.096  1.00  0.00     0.057 A 
ATOM     72  C   UNL A   1      38.149  29.540  27.884  1.00  0.00     0.134 A 
ATOM     73  C   UNL A   1      37.861  29.063  30.211  1.00  0.00     0.134 A 
ATOM     74  F   UNL A   1      38.913  29.625  26.785  1.00  0.00    -0.206 F 
ATOM     75  C   UNL A   1      36.812  29.926  27.787  1.00  0.00     0.040 A 
ATOM     76  C   UNL A   1      36.516  29.423  30.124  1.00  0.00     0.040 A 
ATOM     77  F   UNL A   1      38.331  28.655  31.399  1.00  0.00    -0.206 F 
ATOM     78  C   UNL A   1      35.989  29.863  28.911  1.00  0.00     0.006 A 
ENDBRANCH  50  71
BRANCH  62  79
ATOM     79  C   UNL A   1      44.428  32.602  30.943  1.00  0.00     0.057 A 
ATOM     80  C   UNL A   1      44.401  32.988  32.289  1.00  0.00     0.134 A 
ATOM     81  C   UNL A   1      44.689  33.595  29.990  1.00  0.00     0.134 A 
ATOM     82  F   UNL A   1      44.142  32.086  33.249  1.00  0.00    -0.206 F 
ATOM     83  C   UNL A   1      44.595  34.315  32.671  1.00  0.00     0.040 A 
ATOM     84  C   UNL A   1      44.911  34.922  30.362  1.00  0.00     0.040 A 
ATOM     85  F   UNL A   1      44.738  33.292  28.684  1.00  0.00    -0.206 F 
ATOM     86  C   UNL A   1      44.856  35.286  31.706  1.00  0.00     0.006 A 
ENDBRANCH  62  79
ENDBRANCH  36  37
ENDBRANCH  28  31
ENDBRANCH  26  27
ENDBRANCH  25  26
ENDBRANCH   1  25
TORSDOF 14
ENDMDL
MODEL 2
REMARK VINA RESULT:     -11.4      2.254      7.528
REMARK SMILES O=C(C[C@@H]1CN(C(=O)NC[C@H]2C[C@H]3CC[C@@H]2C3)CCO1)NCCCNC(=O)c1ccc(-c2c3nc(c(-c4c(F)cccc4F)c4ccc([nH]4)c(-c4c(F)cccc4F)c4nc(c(-c5c(F)cccc5F)c5ccc2[nH]5)C=C4)C=C3)cc1
REMARK SMILES IDX 22 1 21 2 1 3 2 4 3 6 4 7 5 8 20 9 6 10 19 11 18 12 7 13
REMARK SMILES IDX 8 14 9 15 10 17 11 18 12 19 16 20 13 21 15 22 17 23 14 24
REMARK SMILES IDX 23 25 24 26 25 27 26 28 27 30 28 31 29 32 81 33 30 34 80 35
REMARK SMILES IDX 31 36 32 37 33 38 74 39 34 40 79 41 73 42 75 43 35 44 78 45
REMARK SMILES IDX 72 46 71 47 36 49 62 50 45 51 61 52 46 53 49 54 60 55 76 56
REMARK SMILES IDX 47 57 48 58 59 60 77 61 50 62 37 63 38 64 43 65 39 66 40 67
REMARK SMILES IDX 42 68 44 69 41 70 63 71 64 72 69 73 65 74 66 75 68 76 70 77
REMARK SMILES IDX 67 78 51 79 52 80 57 81 53 82 54 83 56 84 58 85 55 86
REMARK H PARENT 21 5 9 16 25 29 75 48 49 59
REMARK Flexibility Score: inf
ROOT
ATOM      1  C   UNL A   1      32.781  28.608  24.762  1.00  0.00     0.117 C 
ENDROOT
BRANCH   1   2
ATOM      2  N   UNL A   1      32.280  27.285  24.469  1.00  0.00    -0.356 N 
ATOM      3  O   UNL A   1      33.224  27.078  22.393  1.00  0.00    -0.275 OA
ATOM      4  C   UNL A   1      32.567  26.603  23.315  1.00  0.00     0.222 C 
ATOM      5  H   UNL A   1      31.701  26.850  25.135  1.00  0.00     0.163 HD
BRANCH   4   6
ATOM      6  C   UNL A   1      31.879  25.261  23.184  1.00  0.00     0.133 C 
BRANCH   6   7
ATOM      7  C   UNL A   1      31.777  24.366  24.428  1.00  0.00     0.147 C 
ATOM      8  C   UNL A   1      31.786  22.876  24.015  1.00  0.00     0.154 C 
ATOM      9  O   UNL A   1      30.602  24.621  25.218  1.00  0.00    -0.374 OA
ATOM     10  N   UNL A   1      31.741  21.998  25.184  1.00  0.00    -0.320 N 
ATOM     11  C   UNL A   1      30.649  23.851  26.432  1.00  0.00     0.182 C 
ATOM     12  C   UNL A   1      30.664  22.353  26.122  1.00  0.00     0.150 C 
BRANCH  10  13
ATOM     13  C   UNL A   1      32.377  20.815  25.397  1.00  0.00     0.317 C 
ATOM     14  O   UNL A   1      31.901  19.751  24.987  1.00  0.00    -0.249 OA
ATOM     15  N   UNL A   1      33.532  20.676  26.058  1.00  0.00    -0.338 N 
ATOM     16  H   UNL A   1      33.832  19.739  26.008  1.00  0.00     0.165 HD
BRANCH  15  17
ATOM     17  C   UNL A   1      34.483  21.454  26.824  1.00  0.00     0.121 C 
BRANCH  17  18
ATOM     18  C   UNL A   1      35.789  21.853  26.125  1.00  0.00     0.012 C 
ATOM     19  C   UNL A   1      35.955  21.426  24.658  1.00  0.00     0.009 C 
ATOM     20  C   UNL A   1      36.211  23.348  26.089  1.00  0.00    -0.006 C 
ATOM     21  C   UNL A   1      36.535  22.679  23.985  1.00  0.00    -0.011 C 
ATOM     22  C   UNL A   1      35.259  24.245  25.280  1.00  0.00     0.004 C 
ATOM     23  C   UNL A   1      37.389  23.274  25.103  1.00  0.00     0.007 C 
ATOM     24  C   UNL A   1      35.404  23.712  23.849  1.00  0.00     0.004 C 
ENDBRANCH  17  18
ENDBRANCH  15  17
ENDBRANCH  10  13
ENDBRANCH   6   7
ENDBRANCH   4   6
ENDBRANCH   1   2
BRANCH   1  25
ATOM     25  C   UNL A   1      34.028  28.576  25.638  1.00  0.00     0.042 C 
BRANCH  25  26
ATOM     26  C   UNL A   1      33.761  28.602  27.141  1.00  0.00     0.118 C 
BRANCH  26  27
ATOM     27  N   UNL A   1      33.725  29.945  27.704  1.00  0.00    -0.352 N 
ATOM     28  C   UNL A   1      34.685  30.667  28.366  1.00  0.00     0.251 C 
ATOM     29  H   UNL A   1      32.867  30.412  27.591  1.00  0.00     0.163 HD
ATOM     30  O   UNL A   1      34.379  31.756  28.857  1.00  0.00    -0.269 OA
BRANCH  28  31
ATOM     31  C   UNL A   1      36.066  30.162  28.527  1.00  0.00     0.039 A 
ATOM     32  C   UNL A   1      36.943  30.276  27.442  1.00  0.00     0.014 A 
ATOM     33  C   UNL A   1      36.501  29.542  29.701  1.00  0.00     0.014 A 
ATOM     34  C   UNL A   1      38.262  29.827  27.556  1.00  0.00     0.010 A 
ATOM     35  C   UNL A   1      37.838  29.161  29.840  1.00  0.00     0.010 A 
ATOM     36  C   UNL A   1      38.733  29.296  28.767  1.00  0.00    -0.014 A 
BRANCH  36  37
ATOM     37  C   UNL A   1      40.156  28.894  28.917  1.00  0.00     0.031 A 
ATOM     38  C   UNL A   1      41.168  29.843  29.501  1.00  0.00     0.074 A 
ATOM     39  C   UNL A   1      40.550  27.678  28.494  1.00  0.00     0.049 A 
ATOM     40  N   UNL A   1      42.449  29.660  29.708  1.00  0.00    -0.248 NA
ATOM     41  C   UNL A   1      40.686  31.180  29.879  1.00  0.00     0.031 C 
ATOM     42  C   UNL A   1      39.685  26.683  27.856  1.00  0.00     0.029 A 
ATOM     43  N   UNL A   1      41.779  27.068  28.535  1.00  0.00    -0.354 N 
ATOM     44  C   UNL A   1      42.924  30.857  30.230  1.00  0.00     0.074 A 
ATOM     45  C   UNL A   1      41.807  31.776  30.258  1.00  0.00     0.031 C 
ATOM     46  C   UNL A   1      40.401  25.577  27.597  1.00  0.00     0.029 A 
ATOM     47  C   UNL A   1      41.780  25.793  28.023  1.00  0.00     0.049 A 
ATOM     48  H   UNL A   1      42.585  27.503  28.899  1.00  0.00     0.167 HD
ATOM     49  C   UNL A   1      44.171  31.156  30.670  1.00  0.00     0.037 A 
ATOM     50  C   UNL A   1      42.777  24.896  27.912  1.00  0.00     0.037 A 
ATOM     51  C   UNL A   1      45.278  30.237  30.666  1.00  0.00     0.049 A 
ATOM     52  C   UNL A   1      44.146  25.246  28.425  1.00  0.00     0.074 A 
ATOM     53  C   UNL A   1      46.563  30.430  31.145  1.00  0.00     0.029 A 
ATOM     54  N   UNL A   1      45.233  28.947  30.157  1.00  0.00    -0.354 N 
ATOM     55  N   UNL A   1      44.562  26.356  28.984  1.00  0.00    -0.248 NA
ATOM     56  C   UNL A   1      45.183  24.211  28.300  1.00  0.00     0.031 C 
ATOM     57  C   UNL A   1      47.306  29.271  30.892  1.00  0.00     0.029 A 
ATOM     58  C   UNL A   1      46.472  28.340  30.296  1.00  0.00     0.049 A 
ATOM     59  H   UNL A   1      44.439  28.526  29.757  1.00  0.00     0.167 HD
ATOM     60  C   UNL A   1      45.896  26.144  29.302  1.00  0.00     0.074 A 
ATOM     61  C   UNL A   1      46.216  24.794  28.890  1.00  0.00     0.031 C 
ATOM     62  C   UNL A   1      46.778  26.994  29.884  1.00  0.00     0.037 A 
BRANCH  49  63
ATOM     63  C   UNL A   1      44.401  32.541  31.202  1.00  0.00     0.057 A 
ATOM     64  C   UNL A   1      44.279  32.835  32.568  1.00  0.00     0.134 A 
ATOM     65  C   UNL A   1      44.785  33.584  30.349  1.00  0.00     0.134 A 
ATOM     66  F   UNL A   1      43.905  31.885  33.436  1.00  0.00    -0.206 F 
ATOM     67  C   UNL A   1      44.505  34.122  33.060  1.00  0.00     0.040 A 
ATOM     68  C   UNL A   1      45.038  34.868  30.834  1.00  0.00     0.040 A 
ATOM     69  F   UNL A   1      44.927  33.369  29.033  1.00  0.00    -0.206 F 
ATOM     70  C   UNL A   1      44.892  35.142  32.193  1.00  0.00     0.006 A 
ENDBRANCH  49  63
BRANCH  50  71
ATOM     71  C   UNL A   1      42.511  23.559  27.325  1.00  0.00     0.057 A 
ATOM     72  C   UNL A   1      42.635  23.338  25.948  1.00  0.00     0.134 A 
ATOM     73  C   UNL A   1      42.120  22.476  28.120  1.00  0.00     0.134 A 
ATOM     74  F   UNL A   1      42.988  24.343  25.133  1.00  0.00    -0.206 F 
ATOM     75  C   UNL A   1      42.359  22.094  25.379  1.00  0.00     0.040 A 
ATOM     76  C   UNL A   1      41.865  21.220  27.568  1.00  0.00     0.040 A 
ATOM     77  F   UNL A   1      41.991  22.621  29.447  1.00  0.00    -0.206 F 
ATOM     78  C   UNL A   1      41.977  21.029  26.192  1.00  0.00     0.006 A 
ENDBRANCH  50  71
BRANCH  62  79
ATOM     79  C   UNL A   1      48.163  26.474  30.136  1.00  0.00     0.057 A 
ATOM     80  C   UNL A   1      49.196  26.634  29.204  1.00  0.00     0.134 A 
ATOM     81  C   UNL A   1      48.470  25.818  31.335  1.00  0.00     0.134 A 
ATOM     82  F   UNL A   1      48.963  27.242  28.030  1.00  0.00    -0.206 F 
ATOM     83  C   UNL A   1      50.477  26.134  29.441  1.00  0.00     0.040 A 
ATOM     84  C   UNL A   1      49.754  25.336  31.596  1.00  0.00     0.040 A 
ATOM     85  F   UNL A   1      47.530  25.638  32.275  1.00  0.00    -0.206 F 
ATOM     86  C   UNL A   1      50.760  25.487  30.643  1.00  0.00     0.006 A 
ENDBRANCH  62  79
ENDBRANCH  36  37
ENDBRANCH  28  31
ENDBRANCH  26  27
ENDBRANCH  25  26
ENDBRANCH   1  25
TORSDOF 14
ENDMDL
MODEL 3
REMARK VINA RESULT:     -11.3      1.038      2.023
REMARK SMILES O=C(C[C@@H]1CN(C(=O)NC[C@H]2C[C@H]3CC[C@@H]2C3)CCO1)NCCCNC(=O)c1ccc(-c2c3nc(c(-c4c(F)cccc4F)c4ccc([nH]4)c(-c4c(F)cccc4F)c4nc(c(-c5c(F)cccc5F)c5ccc2[nH]5)C=C4)C=C3)cc1
REMARK SMILES IDX 22 1 21 2 1 3 2 4 3 6 4 7 5 8 20 9 6 10 19 11 18 12 7 13
REMARK SMILES IDX 8 14 9 15 10 17 11 18 12 19 16 20 13 21 15 22 17 23 14 24
REMARK SMILES IDX 23 25 24 26 25 27 26 28 27 30 28 31 29 32 81 33 30 34 80 35
REMARK SMILES IDX 31 36 32 37 33 38 74 39 34 40 79 41 73 42 75 43 35 44 78 45
REMARK SMILES IDX 72 46 71 47 36 49 62 50 45 51 61 52 46 53 49 54 60 55 76 56
REMARK SMILES IDX 47 57 48 58 59 60 77 61 50 62 37 63 38 64 43 65 39 66 40 67
REMARK SMILES IDX 42 68 44 69 41 70 63 71 64 72 69 73 65 74 66 75 68 76 70 77
REMARK SMILES IDX 67 78 51 79 52 80 57 81 53 82 54 83 56 84 58 85 55 86
REMARK H PARENT 21 5 9 16 25 29 75 48 49 59
REMARK Flexibility Score: inf
ROOT
ATOM      1  C   UNL A   1      36.610  18.681  24.926  1.00  0.00     0.117 C 
ENDROOT
BRANCH   1   2
ATOM      2  N   UNL A   1      35.420  19.498  24.867  1.00  0.00    -0.356 N 
ATOM      3  O   UNL A   1      33.976  17.848  24.203  1.00  0.00    -0.275 OA
ATOM      4  C   UNL A   1      34.181  19.011  24.540  1.00  0.00     0.222 C 
ATOM      5  H   UNL A   1      35.504  20.456  25.074  1.00  0.00     0.163 HD
BRANCH   4   6
ATOM      6  C   UNL A   1      33.088  20.056  24.470  1.00  0.00     0.133 C 
BRANCH   6   7
ATOM      7  C   UNL A   1      32.782  20.880  25.730  1.00  0.00     0.147 C 
ATOM      8  C   UNL A   1      31.936  22.122  25.363  1.00  0.00     0.154 C 
ATOM      9  O   UNL A   1      33.963  21.315  26.428  1.00  0.00    -0.374 OA
ATOM     10  N   UNL A   1      31.585  22.899  26.551  1.00  0.00    -0.320 N 
ATOM     11  C   UNL A   1      33.597  21.952  27.663  1.00  0.00     0.182 C 
ATOM     12  C   UNL A   1      32.750  23.198  27.399  1.00  0.00     0.150 C 
BRANCH  10  13
ATOM     13  C   UNL A   1      30.429  23.551  26.843  1.00  0.00     0.317 C 
ATOM     14  O   UNL A   1      29.508  22.982  27.440  1.00  0.00    -0.249 OA
ATOM     15  N   UNL A   1      30.164  24.822  26.519  1.00  0.00    -0.338 N 
ATOM     16  H   UNL A   1      29.301  25.091  26.910  1.00  0.00     0.165 HD
BRANCH  15  17
ATOM     17  C   UNL A   1      30.733  25.929  25.779  1.00  0.00     0.121 C 
BRANCH  17  18
ATOM     18  C   UNL A   1      32.006  26.572  26.344  1.00  0.00     0.012 C 
ATOM     19  C   UNL A   1      33.227  26.639  25.412  1.00  0.00     0.009 C 
ATOM     20  C   UNL A   1      31.944  28.013  26.921  1.00  0.00    -0.006 C 
ATOM     21  C   UNL A   1      33.768  28.060  25.637  1.00  0.00    -0.011 C 
ATOM     22  C   UNL A   1      31.614  29.090  25.874  1.00  0.00     0.004 C 
ATOM     23  C   UNL A   1      33.444  28.295  27.111  1.00  0.00     0.007 C 
ATOM     24  C   UNL A   1      32.822  29.046  24.930  1.00  0.00     0.004 C 
ENDBRANCH  17  18
ENDBRANCH  15  17
ENDBRANCH  10  13
ENDBRANCH   6   7
ENDBRANCH   4   6
ENDBRANCH   1   2
BRANCH   1  25
ATOM     25  C   UNL A   1      37.870  19.462  24.574  1.00  0.00     0.042 C 
BRANCH  25  26
ATOM     26  C   UNL A   1      38.777  19.789  25.759  1.00  0.00     0.118 C 
BRANCH  26  27
ATOM     27  N   UNL A   1      40.057  19.096  25.722  1.00  0.00    -0.352 N 
ATOM     28  C   UNL A   1      41.327  19.542  25.987  1.00  0.00     0.251 C 
ATOM     29  H   UNL A   1      40.002  18.149  25.462  1.00  0.00     0.163 HD
ATOM     30  O   UNL A   1      42.280  18.789  25.773  1.00  0.00    -0.269 OA
BRANCH  28  31
ATOM     31  C   UNL A   1      41.582  20.907  26.497  1.00  0.00     0.039 A 
ATOM     32  C   UNL A   1      41.350  21.161  27.853  1.00  0.00     0.014 A 
ATOM     33  C   UNL A   1      42.001  21.948  25.664  1.00  0.00     0.014 A 
ATOM     34  C   UNL A   1      41.594  22.432  28.381  1.00  0.00     0.010 A 
ATOM     35  C   UNL A   1      42.315  23.197  26.205  1.00  0.00     0.010 A 
ATOM     36  C   UNL A   1      42.111  23.454  27.569  1.00  0.00    -0.014 A 
BRANCH  36  37
ATOM     37  C   UNL A   1      42.449  24.782  28.145  1.00  0.00     0.031 A 
ATOM     38  C   UNL A   1      43.862  25.114  28.545  1.00  0.00     0.074 A 
ATOM     39  C   UNL A   1      41.471  25.688  28.342  1.00  0.00     0.049 A 
ATOM     40  N   UNL A   1      44.338  26.221  29.059  1.00  0.00    -0.248 NA
ATOM     41  C   UNL A   1      44.868  24.056  28.367  1.00  0.00     0.031 C 
ATOM     42  C   UNL A   1      40.052  25.476  28.054  1.00  0.00     0.029 A 
ATOM     43  N   UNL A   1      41.521  26.970  28.831  1.00  0.00    -0.354 N 
ATOM     44  C   UNL A   1      45.691  25.990  29.273  1.00  0.00     0.074 A 
ATOM     45  C   UNL A   1      45.950  24.620  28.884  1.00  0.00     0.031 C 
ATOM     46  C   UNL A   1      39.372  26.598  28.340  1.00  0.00     0.029 A 
ATOM     47  C   UNL A   1      40.300  27.598  28.857  1.00  0.00     0.049 A 
ATOM     48  H   UNL A   1      42.355  27.399  29.134  1.00  0.00     0.167 HD
ATOM     49  C   UNL A   1      46.637  26.847  29.728  1.00  0.00     0.037 A 
ATOM     50  C   UNL A   1      39.965  28.842  29.249  1.00  0.00     0.037 A 
ATOM     51  C   UNL A   1      46.388  28.216  30.093  1.00  0.00     0.049 A 
ATOM     52  C   UNL A   1      41.036  29.778  29.732  1.00  0.00     0.074 A 
ATOM     53  C   UNL A   1      47.293  29.178  30.509  1.00  0.00     0.029 A 
ATOM     54  N   UNL A   1      45.139  28.821  30.086  1.00  0.00    -0.354 N 
ATOM     55  N   UNL A   1      42.323  29.569  29.858  1.00  0.00    -0.248 NA
ATOM     56  C   UNL A   1      40.607  31.131  30.116  1.00  0.00     0.031 C 
ATOM     57  C   UNL A   1      46.588  30.354  30.790  1.00  0.00     0.029 A 
ATOM     58  C   UNL A   1      45.250  30.138  30.505  1.00  0.00     0.049 A 
ATOM     59  H   UNL A   1      44.301  28.381  29.822  1.00  0.00     0.167 HD
ATOM     60  C   UNL A   1      42.861  30.767  30.309  1.00  0.00     0.074 A 
ATOM     61  C   UNL A   1      41.763  31.704  30.417  1.00  0.00     0.031 C 
ATOM     62  C   UNL A   1      44.150  31.063  30.607  1.00  0.00     0.037 A 
BRANCH  49  63
ATOM     63  C   UNL A   1      48.040  26.325  29.850  1.00  0.00     0.057 A 
ATOM     64  C   UNL A   1      48.510  25.742  31.035  1.00  0.00     0.134 A 
ATOM     65  C   UNL A   1      48.921  26.372  28.761  1.00  0.00     0.134 A 
ATOM     66  F   UNL A   1      47.721  25.676  32.117  1.00  0.00    -0.206 F 
ATOM     67  C   UNL A   1      49.811  25.248  31.140  1.00  0.00     0.040 A 
ATOM     68  C   UNL A   1      50.216  25.857  28.847  1.00  0.00     0.040 A 
ATOM     69  F   UNL A   1      48.533  26.909  27.595  1.00  0.00    -0.206 F 
ATOM     70  C   UNL A   1      50.666  25.300  30.042  1.00  0.00     0.006 A 
ENDBRANCH  49  63
BRANCH  50  71
ATOM     71  C   UNL A   1      38.553  29.291  29.162  1.00  0.00     0.057 A 
ATOM     72  C   UNL A   1      38.014  29.746  27.952  1.00  0.00     0.134 A 
ATOM     73  C   UNL A   1      37.712  29.285  30.281  1.00  0.00     0.134 A 
ATOM     74  F   UNL A   1      38.777  29.794  26.850  1.00  0.00    -0.206 F 
ATOM     75  C   UNL A   1      36.697  30.200  27.862  1.00  0.00     0.040 A 
ATOM     76  C   UNL A   1      36.387  29.712  30.200  1.00  0.00     0.040 A 
ATOM     77  F   UNL A   1      38.167  28.853  31.466  1.00  0.00    -0.206 F 
ATOM     78  C   UNL A   1      35.878  30.178  28.989  1.00  0.00     0.006 A 
ENDBRANCH  50  71
BRANCH  62  79
ATOM     79  C   UNL A   1      44.443  32.467  31.047  1.00  0.00     0.057 A 
ATOM     80  C   UNL A   1      44.733  33.486  30.131  1.00  0.00     0.134 A 
ATOM     81  C   UNL A   1      44.420  32.807  32.406  1.00  0.00     0.134 A 
ATOM     82  F   UNL A   1      44.784  33.223  28.815  1.00  0.00    -0.206 F 
ATOM     83  C   UNL A   1      45.018  34.786  30.551  1.00  0.00     0.040 A 
ATOM     84  C   UNL A   1      44.678  34.109  32.837  1.00  0.00     0.040 A 
ATOM     85  F   UNL A   1      44.142  31.881  33.336  1.00  0.00    -0.206 F 
ATOM     86  C   UNL A   1      44.987  35.101  31.909  1.00  0.00     0.006 A 
ENDBRANCH  62  79
ENDBRANCH  36  37
ENDBRANCH  28  31
ENDBRANCH  26  27
ENDBRANCH  25  26
ENDBRANCH   1  25
TORSDOF 14
ENDMDL
