MODEL 1
REMARK VINA RESULT:     -12.5      0.000      0.000
REMARK SMILES C[C@]1(C(=O)NCCCNC(=O)c2ccc(-c3c4nc(c(-c5c(F)cccc5F)c5ccc([nH]5)c(-c5c(F)cccc5F)c5nc(c(-c6c(F)cccc6F)c6ccc3[nH]6)C=C5)C=C4)cc2)CCN(c2ccc([N+](=O)[O-])c(N)n2)C1
REMARK SMILES IDX 7 1 6 2 5 3 3 4 4 5 2 7 1 8 66 9 79 10 67 11 68 12 69 13
REMARK SMILES IDX 70 14 78 15 71 16 76 17 72 18 77 19 73 22 74 23 75 24 8 25
REMARK SMILES IDX 9 26 10 27 11 29 12 30 13 31 65 32 14 33 64 34 15 35 16 36
REMARK SMILES IDX 17 37 58 38 18 39 63 40 57 41 59 42 19 43 62 44 56 45 55 46
REMARK SMILES IDX 20 48 46 49 29 50 45 51 30 52 33 53 44 54 60 55 31 56 32 57
REMARK SMILES IDX 43 59 61 60 34 61 21 62 22 63 27 64 23 65 24 66 26 67 28 68
REMARK SMILES IDX 25 69 47 70 48 71 53 72 49 73 50 74 52 75 54 76 51 77 35 78
REMARK SMILES IDX 36 79 41 80 37 81 38 82 40 83 42 84 39 85
REMARK H PARENT 5 6 77 20 77 21 9 28 59 47 33 58
REMARK Flexibility Score: inf
ROOT
ATOM      1  C   UNL A   1      32.189  27.905  27.363  1.00  0.00     0.042 C 
ENDROOT
BRANCH   1   2
ATOM      2  C   UNL A   1      31.922  26.842  26.297  1.00  0.00     0.117 C 
BRANCH   2   3
ATOM      3  N   UNL A   1      31.436  25.611  26.894  1.00  0.00    -0.356 N 
ATOM      4  C   UNL A   1      31.137  24.377  26.428  1.00  0.00     0.227 C 
ATOM      5  O   UNL A   1      30.563  23.656  27.254  1.00  0.00    -0.274 OA
ATOM      6  H   UNL A   1      31.291  25.695  27.864  1.00  0.00     0.163 HD
BRANCH   4   7
ATOM      7  C   UNL A   1      31.571  23.815  25.068  1.00  0.00     0.066 C 
ATOM      8  C   UNL A   1      30.775  24.250  23.834  1.00  0.00     0.024 C 
ATOM      9  C   UNL A   1      33.083  24.052  24.876  1.00  0.00     0.040 C 
ATOM     10  C   UNL A   1      31.526  22.270  25.145  1.00  0.00     0.134 C 
ATOM     11  C   UNL A   1      33.589  22.860  24.051  1.00  0.00     0.119 C 
ATOM     12  N   UNL A   1      32.549  21.849  24.192  1.00  0.00    -0.355 N 
BRANCH  12  13
ATOM     13  C   UNL A   1      32.829  20.507  24.078  1.00  0.00     0.131 A 
ATOM     14  C   UNL A   1      33.801  19.935  24.897  1.00  0.00     0.054 A 
ATOM     15  N   UNL A   1      32.172  19.767  23.158  1.00  0.00    -0.207 NA
ATOM     16  C   UNL A   1      34.116  18.589  24.759  1.00  0.00     0.093 A 
ATOM     17  C   UNL A   1      32.501  18.468  22.978  1.00  0.00     0.204 A 
ATOM     18  C   UNL A   1      33.460  17.850  23.774  1.00  0.00     0.311 A 
BRANCH  17  19
ATOM     19  N   UNL A   1      31.754  17.830  22.008  1.00  0.00    -0.378 N 
ATOM     20  H   UNL A   1      32.133  17.064  21.520  1.00  0.00     0.158 HD
ATOM     21  H   UNL A   1      30.842  18.139  21.806  1.00  0.00     0.158 HD
ENDBRANCH  17  19
BRANCH  18  22
ATOM     22  N   UNL A   1      33.819  16.454  23.586  1.00  0.00     0.066 N 
ATOM     23  O   UNL A   1      33.560  15.670  24.512  1.00  0.00    -0.258 OA
ATOM     24  O   UNL A   1      34.404  16.132  22.541  1.00  0.00    -0.258 OA
ENDBRANCH  18  22
ENDBRANCH  12  13
ENDBRANCH   4   7
ENDBRANCH   2   3
ENDBRANCH   1   2
BRANCH   1  25
ATOM     25  C   UNL A   1      33.584  28.524  27.294  1.00  0.00     0.118 C 
BRANCH  25  26
ATOM     26  N   UNL A   1      33.579  29.945  27.611  1.00  0.00    -0.352 N 
ATOM     27  C   UNL A   1      34.534  30.730  28.208  1.00  0.00     0.251 C 
ATOM     28  H   UNL A   1      32.756  30.420  27.356  1.00  0.00     0.163 HD
ATOM     29  O   UNL A   1      34.242  31.870  28.556  1.00  0.00    -0.269 OA
BRANCH  27  30
ATOM     30  C   UNL A   1      35.902  30.220  28.447  1.00  0.00     0.039 A 
ATOM     31  C   UNL A   1      36.826  30.266  27.398  1.00  0.00     0.014 A 
ATOM     32  C   UNL A   1      36.268  29.651  29.671  1.00  0.00     0.014 A 
ATOM     33  C   UNL A   1      38.129  29.799  27.594  1.00  0.00     0.010 A 
ATOM     34  C   UNL A   1      37.586  29.249  29.885  1.00  0.00     0.010 A 
ATOM     35  C   UNL A   1      38.529  29.317  28.850  1.00  0.00    -0.014 A 
BRANCH  35  36
ATOM     36  C   UNL A   1      39.928  28.882  29.099  1.00  0.00     0.031 A 
ATOM     37  C   UNL A   1      40.913  29.821  29.738  1.00  0.00     0.074 A 
ATOM     38  C   UNL A   1      40.328  27.661  28.692  1.00  0.00     0.049 A 
ATOM     39  N   UNL A   1      42.194  29.654  29.953  1.00  0.00    -0.248 NA
ATOM     40  C   UNL A   1      40.397  31.129  30.172  1.00  0.00     0.031 C 
ATOM     41  C   UNL A   1      39.480  26.670  28.027  1.00  0.00     0.029 A 
ATOM     42  N   UNL A   1      41.555  27.051  28.768  1.00  0.00    -0.354 N 
ATOM     43  C   UNL A   1      42.639  30.837  30.531  1.00  0.00     0.074 A 
ATOM     44  C   UNL A   1      41.502  31.729  30.592  1.00  0.00     0.031 C 
ATOM     45  C   UNL A   1      40.207  25.570  27.772  1.00  0.00     0.029 A 
ATOM     46  C   UNL A   1      41.579  25.791  28.219  1.00  0.00     0.049 A 
ATOM     47  H   UNL A   1      42.343  27.475  29.177  1.00  0.00     0.167 HD
ATOM     48  C   UNL A   1      43.876  31.145  30.987  1.00  0.00     0.037 A 
ATOM     49  C   UNL A   1      42.593  24.918  28.081  1.00  0.00     0.037 A 
ATOM     50  C   UNL A   1      45.002  30.247  30.954  1.00  0.00     0.049 A 
ATOM     51  C   UNL A   1      43.959  25.286  28.592  1.00  0.00     0.074 A 
ATOM     52  C   UNL A   1      46.282  30.451  31.436  1.00  0.00     0.029 A 
ATOM     53  N   UNL A   1      44.978  28.972  30.410  1.00  0.00    -0.354 N 
ATOM     54  N   UNL A   1      44.350  26.390  29.181  1.00  0.00    -0.248 NA
ATOM     55  C   UNL A   1      45.022  24.286  28.422  1.00  0.00     0.031 C 
ATOM     56  C   UNL A   1      47.044  29.313  31.154  1.00  0.00     0.029 A 
ATOM     57  C   UNL A   1      46.226  28.384  30.532  1.00  0.00     0.049 A 
ATOM     58  H   UNL A   1      44.191  28.549  29.996  1.00  0.00     0.167 HD
ATOM     59  C   UNL A   1      45.694  26.206  29.478  1.00  0.00     0.074 A 
ATOM     60  C   UNL A   1      46.048  24.879  29.015  1.00  0.00     0.031 C 
ATOM     61  C   UNL A   1      46.558  27.057  30.080  1.00  0.00     0.037 A 
BRANCH  48  62
ATOM     62  C   UNL A   1      44.079  32.509  31.577  1.00  0.00     0.057 A 
ATOM     63  C   UNL A   1      43.896  32.755  32.943  1.00  0.00     0.134 A 
ATOM     64  C   UNL A   1      44.507  33.579  30.779  1.00  0.00     0.134 A 
ATOM     65  F   UNL A   1      43.476  31.776  33.759  1.00  0.00    -0.206 F 
ATOM     66  C   UNL A   1      44.112  34.019  33.493  1.00  0.00     0.040 A 
ATOM     67  C   UNL A   1      44.751  34.841  31.322  1.00  0.00     0.040 A 
ATOM     68  F   UNL A   1      44.708  33.409  29.463  1.00  0.00    -0.206 F 
ATOM     69  C   UNL A   1      44.548  35.065  32.682  1.00  0.00     0.006 A 
ENDBRANCH  48  62
BRANCH  49  70
ATOM     70  C   UNL A   1      42.360  23.597  27.446  1.00  0.00     0.057 A 
ATOM     71  C   UNL A   1      42.066  22.468  28.220  1.00  0.00     0.134 A 
ATOM     72  C   UNL A   1      42.446  23.425  26.060  1.00  0.00     0.134 A 
ATOM     73  F   UNL A   1      41.989  22.566  29.555  1.00  0.00    -0.206 F 
ATOM     74  C   UNL A   1      41.889  21.211  27.640  1.00  0.00     0.040 A 
ATOM     75  C   UNL A   1      42.248  22.179  25.465  1.00  0.00     0.040 A 
ATOM     76  F   UNL A   1      42.718  24.470  25.263  1.00  0.00    -0.206 F 
ATOM     77  C   UNL A   1      41.977  21.065  26.258  1.00  0.00     0.006 A 
ENDBRANCH  49  70
BRANCH  61  78
ATOM     78  C   UNL A   1      47.957  26.567  30.309  1.00  0.00     0.057 A 
ATOM     79  C   UNL A   1      48.979  26.785  29.377  1.00  0.00     0.134 A 
ATOM     80  C   UNL A   1      48.290  25.899  31.495  1.00  0.00     0.134 A 
ATOM     81  F   UNL A   1      48.718  27.406  28.216  1.00  0.00    -0.206 F 
ATOM     82  C   UNL A   1      50.280  26.336  29.606  1.00  0.00     0.040 A 
ATOM     83  C   UNL A   1      49.594  25.467  31.745  1.00  0.00     0.040 A 
ATOM     84  F   UNL A   1      47.359  25.667  32.431  1.00  0.00    -0.206 F 
ATOM     85  C   UNL A   1      50.591  25.680  30.797  1.00  0.00     0.006 A 
ENDBRANCH  61  78
ENDBRANCH  35  36
ENDBRANCH  27  30
ENDBRANCH  25  26
ENDBRANCH   1  25
TORSDOF 13
ENDMDL
MODEL 2
REMARK VINA RESULT:     -12.3      1.832      2.283
REMARK SMILES C[C@]1(C(=O)NCCCNC(=O)c2ccc(-c3c4nc(c(-c5c(F)cccc5F)c5ccc([nH]5)c(-c5c(F)cccc5F)c5nc(c(-c6c(F)cccc6F)c6ccc3[nH]6)C=C5)C=C4)cc2)CCN(c2ccc([N+](=O)[O-])c(N)n2)C1
REMARK SMILES IDX 7 1 6 2 5 3 3 4 4 5 2 7 1 8 66 9 79 10 67 11 68 12 69 13
REMARK SMILES IDX 70 14 78 15 71 16 76 17 72 18 77 19 73 22 74 23 75 24 8 25
REMARK SMILES IDX 9 26 10 27 11 29 12 30 13 31 65 32 14 33 64 34 15 35 16 36
REMARK SMILES IDX 17 37 58 38 18 39 63 40 57 41 59 42 19 43 62 44 56 45 55 46
REMARK SMILES IDX 20 48 46 49 29 50 45 51 30 52 33 53 44 54 60 55 31 56 32 57
REMARK SMILES IDX 43 59 61 60 34 61 21 62 22 63 27 64 23 65 24 66 26 67 28 68
REMARK SMILES IDX 25 69 47 70 48 71 53 72 49 73 50 74 52 75 54 76 51 77 35 78
REMARK SMILES IDX 36 79 41 80 37 81 38 82 40 83 42 84 39 85
REMARK H PARENT 5 6 77 20 77 21 9 28 59 47 33 58
REMARK Flexibility Score: inf
ROOT
ATOM      1  C   UNL A   1      33.255  27.692  26.810  1.00  0.00     0.042 C 
ENDROOT
BRANCH   1   2
ATOM      2  C   UNL A   1      31.994  27.117  26.165  1.00  0.00     0.117 C 
BRANCH   2   3
ATOM      3  N   UNL A   1      31.598  25.875  26.804  1.00  0.00    -0.356 N 
ATOM      4  C   UNL A   1      31.410  24.603  26.383  1.00  0.00     0.227 C 
ATOM      5  O   UNL A   1      30.880  23.870  27.228  1.00  0.00    -0.274 OA
ATOM      6  H   UNL A   1      31.425  25.984  27.766  1.00  0.00     0.163 HD
BRANCH   4   7
ATOM      7  C   UNL A   1      31.917  24.025  25.056  1.00  0.00     0.066 C 
ATOM      8  C   UNL A   1      31.259  24.527  23.767  1.00  0.00     0.024 C 
ATOM      9  C   UNL A   1      33.453  24.158  24.994  1.00  0.00     0.040 C 
ATOM     10  C   UNL A   1      31.760  22.486  25.105  1.00  0.00     0.134 C 
ATOM     11  C   UNL A   1      33.943  22.942  24.195  1.00  0.00     0.119 C 
ATOM     12  N   UNL A   1      32.829  22.005  24.234  1.00  0.00    -0.355 N 
BRANCH  12  13
ATOM     13  C   UNL A   1      33.024  20.648  24.122  1.00  0.00     0.131 A 
ATOM     14  C   UNL A   1      33.993  20.026  24.908  1.00  0.00     0.054 A 
ATOM     15  N   UNL A   1      32.288  19.941  23.236  1.00  0.00    -0.207 NA
ATOM     16  C   UNL A   1      34.223  18.662  24.771  1.00  0.00     0.093 A 
ATOM     17  C   UNL A   1      32.533  18.623  23.057  1.00  0.00     0.204 A 
ATOM     18  C   UNL A   1      33.485  17.955  23.821  1.00  0.00     0.311 A 
BRANCH  17  19
ATOM     19  N   UNL A   1      31.712  18.022  22.124  1.00  0.00    -0.378 N 
ATOM     20  H   UNL A   1      30.864  18.452  21.865  1.00  0.00     0.158 HD
ATOM     21  H   UNL A   1      31.973  17.165  21.717  1.00  0.00     0.158 HD
ENDBRANCH  17  19
BRANCH  18  22
ATOM     22  N   UNL A   1      33.754  16.540  23.633  1.00  0.00     0.066 N 
ATOM     23  O   UNL A   1      34.343  16.206  22.593  1.00  0.00    -0.258 OA
ATOM     24  O   UNL A   1      33.342  15.743  24.489  1.00  0.00    -0.258 OA
ENDBRANCH  18  22
ENDBRANCH  12  13
ENDBRANCH   4   7
ENDBRANCH   2   3
ENDBRANCH   1   2
BRANCH   1  25
ATOM     25  C   UNL A   1      33.995  28.709  25.943  1.00  0.00     0.118 C 
BRANCH  25  26
ATOM     26  N   UNL A   1      33.795  30.078  26.397  1.00  0.00    -0.352 N 
ATOM     27  C   UNL A   1      34.467  30.812  27.341  1.00  0.00     0.251 C 
ATOM     28  H   UNL A   1      33.056  30.554  25.954  1.00  0.00     0.163 HD
ATOM     29  O   UNL A   1      34.004  31.889  27.705  1.00  0.00    -0.269 OA
BRANCH  27  30
ATOM     30  C   UNL A   1      35.731  30.322  27.934  1.00  0.00     0.039 A 
ATOM     31  C   UNL A   1      35.687  29.715  29.194  1.00  0.00     0.014 A 
ATOM     32  C   UNL A   1      36.959  30.499  27.291  1.00  0.00     0.014 A 
ATOM     33  C   UNL A   1      36.861  29.234  29.779  1.00  0.00     0.010 A 
ATOM     34  C   UNL A   1      38.119  29.958  27.845  1.00  0.00     0.010 A 
ATOM     35  C   UNL A   1      38.083  29.322  29.094  1.00  0.00    -0.014 A 
BRANCH  35  36
ATOM     36  C   UNL A   1      39.331  28.754  29.667  1.00  0.00     0.031 A 
ATOM     37  C   UNL A   1      39.953  29.369  30.890  1.00  0.00     0.074 A 
ATOM     38  C   UNL A   1      39.937  27.721  29.050  1.00  0.00     0.049 A 
ATOM     39  N   UNL A   1      41.083  29.069  31.481  1.00  0.00    -0.248 NA
ATOM     40  C   UNL A   1      39.223  30.480  31.519  1.00  0.00     0.031 C 
ATOM     41  C   UNL A   1      39.455  27.058  27.836  1.00  0.00     0.029 A 
ATOM     42  N   UNL A   1      41.099  27.056  29.352  1.00  0.00    -0.354 N 
ATOM     43  C   UNL A   1      41.206  29.963  32.538  1.00  0.00     0.074 A 
ATOM     44  C   UNL A   1      40.059  30.844  32.481  1.00  0.00     0.031 C 
ATOM     45  C   UNL A   1      40.304  26.071  27.508  1.00  0.00     0.029 A 
ATOM     46  C   UNL A   1      41.408  26.055  28.463  1.00  0.00     0.049 A 
ATOM     47  H   UNL A   1      41.657  27.274  30.133  1.00  0.00     0.167 HD
ATOM     48  C   UNL A   1      42.175  30.033  33.481  1.00  0.00     0.037 A 
ATOM     49  C   UNL A   1      42.467  25.225  28.416  1.00  0.00     0.037 A 
ATOM     50  C   UNL A   1      43.302  29.139  33.557  1.00  0.00     0.049 A 
ATOM     51  C   UNL A   1      43.531  25.326  29.473  1.00  0.00     0.074 A 
ATOM     52  C   UNL A   1      44.309  29.100  34.504  1.00  0.00     0.029 A 
ATOM     53  N   UNL A   1      43.566  28.125  32.650  1.00  0.00    -0.354 N 
ATOM     54  N   UNL A   1      43.606  26.144  30.494  1.00  0.00    -0.248 NA
ATOM     55  C   UNL A   1      44.656  24.385  29.373  1.00  0.00     0.031 C 
ATOM     56  C   UNL A   1      45.203  28.083  34.153  1.00  0.00     0.029 A 
ATOM     57  C   UNL A   1      44.729  27.463  33.008  1.00  0.00     0.049 A 
ATOM     58  H   UNL A   1      43.011  27.908  31.866  1.00  0.00     0.167 HD
ATOM     59  C   UNL A   1      44.767  25.798  31.173  1.00  0.00     0.074 A 
ATOM     60  C   UNL A   1      45.358  24.688  30.455  1.00  0.00     0.031 C 
ATOM     61  C   UNL A   1      45.296  26.350  32.291  1.00  0.00     0.037 A 
BRANCH  48  62
ATOM     62  C   UNL A   1      42.055  31.107  34.522  1.00  0.00     0.057 A 
ATOM     63  C   UNL A   1      41.303  30.919  35.689  1.00  0.00     0.134 A 
ATOM     64  C   UNL A   1      42.735  32.323  34.379  1.00  0.00     0.134 A 
ATOM     65  F   UNL A   1      40.618  29.781  35.881  1.00  0.00    -0.206 F 
ATOM     66  C   UNL A   1      41.216  31.910  36.668  1.00  0.00     0.040 A 
ATOM     67  C   UNL A   1      42.676  33.311  35.363  1.00  0.00     0.040 A 
ATOM     68  F   UNL A   1      43.479  32.564  33.289  1.00  0.00    -0.206 F 
ATOM     69  C   UNL A   1      41.910  33.108  36.509  1.00  0.00     0.006 A 
ENDBRANCH  48  62
BRANCH  49  70
ATOM     70  C   UNL A   1      42.571  24.209  27.339  1.00  0.00     0.057 A 
ATOM     71  C   UNL A   1      42.108  22.903  27.533  1.00  0.00     0.134 A 
ATOM     72  C   UNL A   1      43.154  24.510  26.102  1.00  0.00     0.134 A 
ATOM     73  F   UNL A   1      41.557  22.550  28.704  1.00  0.00    -0.206 F 
ATOM     74  C   UNL A   1      42.241  21.925  26.546  1.00  0.00     0.040 A 
ATOM     75  C   UNL A   1      43.272  23.549  25.097  1.00  0.00     0.040 A 
ATOM     76  F   UNL A   1      43.612  25.745  25.852  1.00  0.00    -0.206 F 
ATOM     77  C   UNL A   1      42.821  22.249  25.322  1.00  0.00     0.006 A 
ENDBRANCH  49  70
BRANCH  61  78
ATOM     78  C   UNL A   1      46.555  25.736  32.829  1.00  0.00     0.057 A 
ATOM     79  C   UNL A   1      47.822  26.171  32.422  1.00  0.00     0.134 A 
ATOM     80  C   UNL A   1      46.495  24.721  33.793  1.00  0.00     0.134 A 
ATOM     81  F   UNL A   1      47.945  27.129  31.491  1.00  0.00    -0.206 F 
ATOM     82  C   UNL A   1      48.987  25.602  32.939  1.00  0.00     0.040 A 
ATOM     83  C   UNL A   1      47.653  24.162  34.334  1.00  0.00     0.040 A 
ATOM     84  F   UNL A   1      45.311  24.266  34.231  1.00  0.00    -0.206 F 
ATOM     85  C   UNL A   1      48.903  24.598  33.903  1.00  0.00     0.006 A 
ENDBRANCH  61  78
ENDBRANCH  35  36
ENDBRANCH  27  30
ENDBRANCH  25  26
ENDBRANCH   1  25
TORSDOF 13
ENDMDL
MODEL 3
REMARK VINA RESULT:     -12.0      2.953      6.759
REMARK SMILES C[C@]1(C(=O)NCCCNC(=O)c2ccc(-c3c4nc(c(-c5c(F)cccc5F)c5ccc([nH]5)c(-c5c(F)cccc5F)c5nc(c(-c6c(F)cccc6F)c6ccc3[nH]6)C=C5)C=C4)cc2)CCN(c2ccc([N+](=O)[O-])c(N)n2)C1
REMARK SMILES IDX 7 1 6 2 5 3 3 4 4 5 2 7 1 8 66 9 79 10 67 11 68 12 69 13
REMARK SMILES IDX 70 14 78 15 71 16 76 17 72 18 77 19 73 22 74 23 75 24 8 25
REMARK SMILES IDX 9 26 10 27 11 29 12 30 13 31 65 32 14 33 64 34 15 35 16 36
REMARK SMILES IDX 17 37 58 38 18 39 63 40 57 41 59 42 19 43 62 44 56 45 55 46
REMARK SMILES IDX 20 48 46 49 29 50 45 51 30 52 33 53 44 54 60 55 31 56 32 57
REMARK SMILES IDX 43 59 61 60 34 61 21 62 22 63 27 64 23 65 24 66 26 67 28 68
REMARK SMILES IDX 25 69 47 70 48 71 53 72 49 73 50 74 52 75 54 76 51 77 35 78
REMARK SMILES IDX 36 79 41 80 37 81 38 82 40 83 42 84 39 85
REMARK H PARENT 5 6 77 20 77 21 9 28 59 47 33 58
REMARK Flexibility Score: inf
ROOT
ATOM      1  C   UNL A   1      32.172  27.857  26.563  1.00  0.00     0.042 C 
ENDROOT
BRANCH   1   2
ATOM      2  C   UNL A   1      31.129  26.977  25.872  1.00  0.00     0.117 C 
BRANCH   2   3
ATOM      3  N   UNL A   1      30.942  25.727  26.586  1.00  0.00    -0.356 N 
ATOM      4  C   UNL A   1      30.929  24.421  26.236  1.00  0.00     0.227 C 
ATOM      5  O   UNL A   1      30.541  23.666  27.137  1.00  0.00    -0.274 OA
ATOM      6  H   UNL A   1      30.787  25.863  27.548  1.00  0.00     0.163 HD
BRANCH   4   7
ATOM      7  C   UNL A   1      31.471  23.851  24.919  1.00  0.00     0.066 C 
ATOM      8  C   UNL A   1      30.769  24.270  23.623  1.00  0.00     0.024 C 
ATOM      9  C   UNL A   1      32.992  24.100  24.841  1.00  0.00     0.040 C 
ATOM     10  C   UNL A   1      31.432  22.307  25.005  1.00  0.00     0.134 C 
ATOM     11  C   UNL A   1      33.569  22.906  24.068  1.00  0.00     0.119 C 
ATOM     12  N   UNL A   1      32.530  21.887  24.137  1.00  0.00    -0.355 N 
BRANCH  12  13
ATOM     13  C   UNL A   1      32.828  20.547  24.057  1.00  0.00     0.131 A 
ATOM     14  C   UNL A   1      33.812  20.010  24.885  1.00  0.00     0.054 A 
ATOM     15  N   UNL A   1      32.177  19.774  23.159  1.00  0.00    -0.207 NA
ATOM     16  C   UNL A   1      34.146  18.665  24.780  1.00  0.00     0.093 A 
ATOM     17  C   UNL A   1      32.524  18.476  23.012  1.00  0.00     0.204 A 
ATOM     18  C   UNL A   1      33.496  17.892  23.818  1.00  0.00     0.311 A 
BRANCH  17  19
ATOM     19  N   UNL A   1      31.781  17.802  22.062  1.00  0.00    -0.378 N 
ATOM     20  H   UNL A   1      31.102  18.282  21.537  1.00  0.00     0.158 HD
ATOM     21  H   UNL A   1      31.931  16.841  21.911  1.00  0.00     0.158 HD
ENDBRANCH  17  19
BRANCH  18  22
ATOM     22  N   UNL A   1      33.874  16.497  23.664  1.00  0.00     0.066 N 
ATOM     23  O   UNL A   1      33.786  15.770  24.666  1.00  0.00    -0.258 OA
ATOM     24  O   UNL A   1      34.306  16.122  22.564  1.00  0.00    -0.258 OA
ENDBRANCH  18  22
ENDBRANCH  12  13
ENDBRANCH   4   7
ENDBRANCH   2   3
ENDBRANCH   1   2
BRANCH   1  25
ATOM     25  C   UNL A   1      32.789  28.922  25.660  1.00  0.00     0.118 C 
BRANCH  25  26
ATOM     26  N   UNL A   1      32.329  30.265  25.986  1.00  0.00    -0.352 N 
ATOM     27  C   UNL A   1      32.815  31.181  26.886  1.00  0.00     0.251 C 
ATOM     28  H   UNL A   1      31.541  30.564  25.480  1.00  0.00     0.163 HD
ATOM     29  O   UNL A   1      32.152  32.182  27.139  1.00  0.00    -0.269 OA
BRANCH  27  30
ATOM     30  C   UNL A   1      34.115  30.974  27.561  1.00  0.00     0.039 A 
ATOM     31  C   UNL A   1      34.970  32.071  27.715  1.00  0.00     0.014 A 
ATOM     32  C   UNL A   1      34.522  29.709  27.995  1.00  0.00     0.014 A 
ATOM     33  C   UNL A   1      36.202  31.911  28.355  1.00  0.00     0.010 A 
ATOM     34  C   UNL A   1      35.721  29.565  28.693  1.00  0.00     0.010 A 
ATOM     35  C   UNL A   1      36.573  30.663  28.879  1.00  0.00    -0.014 A 
BRANCH  35  36
ATOM     36  C   UNL A   1      37.847  30.488  29.624  1.00  0.00     0.031 A 
ATOM     37  C   UNL A   1      38.983  29.713  29.016  1.00  0.00     0.074 A 
ATOM     38  C   UNL A   1      37.958  30.975  30.876  1.00  0.00     0.049 A 
ATOM     39  N   UNL A   1      40.133  29.380  29.546  1.00  0.00    -0.248 NA
ATOM     40  C   UNL A   1      38.794  29.229  27.640  1.00  0.00     0.031 C 
ATOM     41  C   UNL A   1      36.916  31.713  31.593  1.00  0.00     0.029 A 
ATOM     42  N   UNL A   1      38.996  30.911  31.771  1.00  0.00    -0.354 N 
ATOM     43  C   UNL A   1      40.796  28.636  28.578  1.00  0.00     0.074 A 
ATOM     44  C   UNL A   1      39.902  28.529  27.444  1.00  0.00     0.031 C 
ATOM     45  C   UNL A   1      37.374  32.048  32.811  1.00  0.00     0.029 A 
ATOM     46  C   UNL A   1      38.724  31.517  32.975  1.00  0.00     0.049 A 
ATOM     47  H   UNL A   1      39.854  30.473  31.571  1.00  0.00     0.167 HD
ATOM     48  C   UNL A   1      42.041  28.107  28.619  1.00  0.00     0.037 A 
ATOM     49  C   UNL A   1      39.473  31.624  34.088  1.00  0.00     0.037 A 
ATOM     50  C   UNL A   1      42.943  28.238  29.735  1.00  0.00     0.049 A 
ATOM     51  C   UNL A   1      40.851  31.023  34.110  1.00  0.00     0.074 A 
ATOM     52  C   UNL A   1      44.243  27.778  29.852  1.00  0.00     0.029 A 
ATOM     53  N   UNL A   1      42.637  28.878  30.925  1.00  0.00    -0.354 N 
ATOM     54  N   UNL A   1      41.482  30.367  33.166  1.00  0.00    -0.248 NA
ATOM     55  C   UNL A   1      41.624  31.183  35.350  1.00  0.00     0.031 C 
ATOM     56  C   UNL A   1      44.713  28.112  31.126  1.00  0.00     0.029 A 
ATOM     57  C   UNL A   1      43.720  28.814  31.787  1.00  0.00     0.049 A 
ATOM     58  H   UNL A   1      41.778  29.313  31.129  1.00  0.00     0.167 HD
ATOM     59  C   UNL A   1      42.732  30.061  33.687  1.00  0.00     0.074 A 
ATOM     60  C   UNL A   1      42.777  30.615  35.025  1.00  0.00     0.031 C 
ATOM     61  C   UNL A   1      43.753  29.383  33.110  1.00  0.00     0.037 A 
BRANCH  48  62
ATOM     62  C   UNL A   1      42.514  27.346  27.416  1.00  0.00     0.057 A 
ATOM     63  C   UNL A   1      43.167  27.983  26.353  1.00  0.00     0.134 A 
ATOM     64  C   UNL A   1      42.356  25.956  27.339  1.00  0.00     0.134 A 
ATOM     65  F   UNL A   1      43.339  29.314  26.360  1.00  0.00    -0.206 F 
ATOM     66  C   UNL A   1      43.629  27.267  25.247  1.00  0.00     0.040 A 
ATOM     67  C   UNL A   1      42.836  25.227  26.250  1.00  0.00     0.040 A 
ATOM     68  F   UNL A   1      41.745  25.285  28.327  1.00  0.00    -0.206 F 
ATOM     69  C   UNL A   1      43.470  25.884  25.198  1.00  0.00     0.006 A 
ENDBRANCH  48  62
BRANCH  49  70
ATOM     70  C   UNL A   1      38.948  32.342  35.275  1.00  0.00     0.057 A 
ATOM     71  C   UNL A   1      39.103  33.727  35.405  1.00  0.00     0.134 A 
ATOM     72  C   UNL A   1      38.300  31.665  36.314  1.00  0.00     0.134 A 
ATOM     73  F   UNL A   1      39.733  34.429  34.451  1.00  0.00    -0.206 F 
ATOM     74  C   UNL A   1      38.654  34.410  36.537  1.00  0.00     0.040 A 
ATOM     75  C   UNL A   1      37.825  32.338  37.441  1.00  0.00     0.040 A 
ATOM     76  F   UNL A   1      38.114  30.338  36.245  1.00  0.00    -0.206 F 
ATOM     77  C   UNL A   1      38.010  33.714  37.557  1.00  0.00     0.006 A 
ENDBRANCH  49  70
BRANCH  61  78
ATOM     78  C   UNL A   1      45.017  29.238  33.905  1.00  0.00     0.057 A 
ATOM     79  C   UNL A   1      45.256  28.121  34.714  1.00  0.00     0.134 A 
ATOM     80  C   UNL A   1      46.019  30.214  33.831  1.00  0.00     0.134 A 
ATOM     81  F   UNL A   1      44.329  27.159  34.837  1.00  0.00    -0.206 F 
ATOM     82  C   UNL A   1      46.441  27.989  35.439  1.00  0.00     0.040 A 
ATOM     83  C   UNL A   1      47.217  30.081  34.533  1.00  0.00     0.040 A 
ATOM     84  F   UNL A   1      45.853  31.305  33.067  1.00  0.00    -0.206 F 
ATOM     85  C   UNL A   1      47.428  28.969  35.345  1.00  0.00     0.006 A 
ENDBRANCH  61  78
ENDBRANCH  35  36
ENDBRANCH  27  30
ENDBRANCH  25  26
ENDBRANCH   1  25
TORSDOF 13
ENDMDL
