MODEL 1
REMARK VINA RESULT:     -11.0      0.000      0.000
REMARK SMILES CC(C)C[C@H](NC(=O)[C@H](Cc1ccccc1)NC(=O)CNC(=O)C[NH3+])C(=O)NCCCNC(=O)c1ccc(-c2c3nc(c(-c4c(F)cccc4F)c4ccc([nH]4)c(-c4c(F)cccc4F)c4nc(c(-c5c(F)cccc5F)c5ccc2[nH]5)C=C4)C=C3)cc1
REMARK SMILES IDX 26 1 27 2 28 3 5 5 4 6 2 7 1 8 3 9 6 10 7 11 8 13 9 14 17 15
REMARK SMILES IDX 18 16 19 18 20 19 21 20 22 21 23 23 24 24 25 25 10 29 11 30
REMARK SMILES IDX 12 31 16 32 13 33 15 34 14 35 29 36 30 37 31 38 32 39 33 40
REMARK SMILES IDX 34 42 35 43 36 44 88 45 37 46 87 47 38 48 39 49 40 50 81 51
REMARK SMILES IDX 41 52 86 53 80 54 82 55 42 56 85 57 79 58 78 59 43 61 69 62
REMARK SMILES IDX 52 63 68 64 53 65 56 66 67 67 83 68 54 69 55 70 66 72 84 73
REMARK SMILES IDX 57 74 44 75 45 76 50 77 46 78 47 79 49 80 51 81 48 82 70 83
REMARK SMILES IDX 71 84 76 85 72 86 73 87 75 88 77 89 74 90 58 91 59 92 64 93
REMARK SMILES IDX 60 94 61 95 63 96 65 97 62 98
REMARK H PARENT 28 4 6 12 17 17 21 22 25 26 25 27 25 28 32 41 82 60 56 71
REMARK Flexibility Score: inf
ROOT
ATOM      1  C   UNL A   1      33.723  29.355  26.777  1.00  0.00     0.242 C 
ATOM      2  O   UNL A   1      34.836  29.231  27.291  1.00  0.00    -0.273 OA
ATOM      3  N   UNL A   1      32.900  30.314  27.284  1.00  0.00    -0.354 N 
ATOM      4  H   UNL A   1      33.239  30.784  28.081  1.00  0.00     0.163 HD
ENDROOT
BRANCH   1   5
ATOM      5  C   UNL A   1      33.245  28.360  25.699  1.00  0.00     0.171 C 
BRANCH   5   6
ATOM      6  C   UNL A   1      33.194  26.887  26.179  1.00  0.00     0.038 C 
BRANCH   6   7
ATOM      7  C   UNL A   1      31.862  26.192  26.552  1.00  0.00    -0.015 C 
ATOM      8  C   UNL A   1      30.665  26.410  25.618  1.00  0.00     0.007 C 
ATOM      9  C   UNL A   1      32.120  24.674  26.581  1.00  0.00     0.007 C 
ENDBRANCH   6   7
ENDBRANCH   5   6
BRANCH   5  10
ATOM     10  N   UNL A   1      33.915  28.661  24.441  1.00  0.00    -0.343 N 
ATOM     11  C   UNL A   1      33.583  28.353  23.149  1.00  0.00     0.243 C 
ATOM     12  H   UNL A   1      34.750  29.175  24.535  1.00  0.00     0.164 HD
ATOM     13  O   UNL A   1      34.434  28.663  22.307  1.00  0.00    -0.273 OA
BRANCH  11  14
ATOM     14  C   UNL A   1      32.223  27.719  22.737  1.00  0.00     0.175 C 
BRANCH  14  15
ATOM     15  N   UNL A   1      31.458  28.688  21.926  1.00  0.00    -0.342 N 
ATOM     16  C   UNL A   1      30.249  29.282  22.101  1.00  0.00     0.240 C 
ATOM     17  H   UNL A   1      31.913  28.954  21.094  1.00  0.00     0.164 HD
ATOM     18  O   UNL A   1      29.917  30.136  21.270  1.00  0.00    -0.273 OA
BRANCH  16  19
ATOM     19  C   UNL A   1      29.373  29.053  23.337  1.00  0.00     0.216 C 
BRANCH  19  20
ATOM     20  N   UNL A   1      28.125  29.793  23.411  1.00  0.00    -0.342 N 
ATOM     21  C   UNL A   1      27.950  31.126  23.656  1.00  0.00     0.275 C 
ATOM     22  H   UNL A   1      27.303  29.270  23.268  1.00  0.00     0.164 HD
ATOM     23  O   UNL A   1      26.815  31.603  23.608  1.00  0.00    -0.268 OA
BRANCH  21  24
ATOM     24  C   UNL A   1      29.167  32.006  23.949  1.00  0.00     0.360 C 
BRANCH  24  25
ATOM     25  N   UNL A   1      29.435  32.926  22.838  1.00  0.00    -0.350 N 
ATOM     26  H   UNL A   1      28.592  33.463  22.632  1.00  0.00     0.344 HD
ATOM     27  H   UNL A   1      29.708  32.391  22.013  1.00  0.00     0.344 HD
ATOM     28  H   UNL A   1      30.190  33.561  23.097  1.00  0.00     0.344 HD
ENDBRANCH  24  25
ENDBRANCH  21  24
ENDBRANCH  19  20
ENDBRANCH  16  19
ENDBRANCH  14  15
BRANCH  14  29
ATOM     29  C   UNL A   1      32.228  26.377  21.984  1.00  0.00     0.070 C 
BRANCH  29  30
ATOM     30  C   UNL A   1      32.601  25.097  22.711  1.00  0.00    -0.045 A 
ATOM     31  C   UNL A   1      31.719  24.027  22.912  1.00  0.00     0.004 A 
ATOM     32  C   UNL A   1      33.940  24.918  23.096  1.00  0.00     0.004 A 
ATOM     33  C   UNL A   1      32.148  22.828  23.486  1.00  0.00     0.000 A 
ATOM     34  C   UNL A   1      34.371  23.720  23.672  1.00  0.00     0.000 A 
ATOM     35  C   UNL A   1      33.475  22.674  23.866  1.00  0.00     0.000 A 
ENDBRANCH  29  30
ENDBRANCH  14  29
ENDBRANCH  11  14
ENDBRANCH   5  10
ENDBRANCH   1   5
BRANCH   3  36
ATOM     36  C   UNL A   1      31.601  30.742  26.817  1.00  0.00     0.117 C 
BRANCH  36  37
ATOM     37  C   UNL A   1      31.381  32.239  26.905  1.00  0.00     0.042 C 
BRANCH  37  38
ATOM     38  C   UNL A   1      32.686  33.013  26.838  1.00  0.00     0.118 C 
BRANCH  38  39
ATOM     39  N   UNL A   1      32.621  34.241  27.621  1.00  0.00    -0.352 N 
ATOM     40  C   UNL A   1      33.257  34.567  28.791  1.00  0.00     0.251 C 
ATOM     41  H   UNL A   1      32.033  34.941  27.254  1.00  0.00     0.163 HD
ATOM     42  O   UNL A   1      32.859  35.508  29.466  1.00  0.00    -0.269 OA
BRANCH  40  43
ATOM     43  C   UNL A   1      34.420  33.773  29.227  1.00  0.00     0.039 A 
ATOM     44  C   UNL A   1      35.708  34.260  28.997  1.00  0.00     0.014 A 
ATOM     45  C   UNL A   1      34.228  32.544  29.862  1.00  0.00     0.014 A 
ATOM     46  C   UNL A   1      36.804  33.539  29.469  1.00  0.00     0.010 A 
ATOM     47  C   UNL A   1      35.311  31.881  30.417  1.00  0.00     0.010 A 
ATOM     48  C   UNL A   1      36.610  32.366  30.217  1.00  0.00    -0.014 A 
BRANCH  48  49
ATOM     49  C   UNL A   1      37.748  31.617  30.796  1.00  0.00     0.031 A 
ATOM     50  C   UNL A   1      38.228  31.945  32.182  1.00  0.00     0.074 A 
ATOM     51  C   UNL A   1      38.399  30.711  30.043  1.00  0.00     0.049 A 
ATOM     52  N   UNL A   1      39.269  31.487  32.826  1.00  0.00    -0.248 NA
ATOM     53  C   UNL A   1      37.451  32.946  32.934  1.00  0.00     0.031 C 
ATOM     54  C   UNL A   1      38.054  30.348  28.666  1.00  0.00     0.029 A 
ATOM     55  N   UNL A   1      39.499  29.942  30.323  1.00  0.00    -0.354 N 
ATOM     56  C   UNL A   1      39.282  32.155  34.044  1.00  0.00     0.074 A 
ATOM     57  C   UNL A   1      38.181  33.093  34.027  1.00  0.00     0.031 C 
ATOM     58  C   UNL A   1      38.910  29.411  28.231  1.00  0.00     0.029 A 
ATOM     59  C   UNL A   1      39.892  29.142  29.277  1.00  0.00     0.049 A 
ATOM     60  H   UNL A   1      39.963  29.960  31.191  1.00  0.00     0.167 HD
ATOM     61  C   UNL A   1      40.122  31.983  35.091  1.00  0.00     0.037 A 
ATOM     62  C   UNL A   1      40.935  28.300  29.171  1.00  0.00     0.037 A 
ATOM     63  C   UNL A   1      41.200  31.031  35.107  1.00  0.00     0.049 A 
ATOM     64  C   UNL A   1      41.866  28.141  30.342  1.00  0.00     0.074 A 
ATOM     65  C   UNL A   1      42.070  30.731  36.140  1.00  0.00     0.029 A 
ATOM     66  N   UNL A   1      41.558  30.227  34.034  1.00  0.00    -0.354 N 
ATOM     67  N   UNL A   1      41.823  28.724  31.515  1.00  0.00    -0.248 NA
ATOM     68  C   UNL A   1      42.987  27.207  30.174  1.00  0.00     0.031 C 
ATOM     69  C   UNL A   1      42.986  29.783  35.675  1.00  0.00     0.029 A 
ATOM     70  C   UNL A   1      42.654  29.452  34.370  1.00  0.00     0.049 A 
ATOM     71  H   UNL A   1      41.100  30.211  33.162  1.00  0.00     0.167 HD
ATOM     72  C   UNL A   1      42.894  28.210  32.235  1.00  0.00     0.074 A 
ATOM     73  C   UNL A   1      43.557  27.256  31.370  1.00  0.00     0.031 C 
ATOM     74  C   UNL A   1      43.295  28.503  33.496  1.00  0.00     0.037 A 
BRANCH  61  75
ATOM     75  C   UNL A   1      39.905  32.842  36.304  1.00  0.00     0.057 A 
ATOM     76  C   UNL A   1      40.648  34.010  36.527  1.00  0.00     0.134 A 
ATOM     77  C   UNL A   1      38.923  32.514  37.246  1.00  0.00     0.134 A 
ATOM     78  F   UNL A   1      41.615  34.374  35.671  1.00  0.00    -0.206 F 
ATOM     79  C   UNL A   1      40.441  34.804  37.655  1.00  0.00     0.040 A 
ATOM     80  C   UNL A   1      38.686  33.316  38.364  1.00  0.00     0.040 A 
ATOM     81  F   UNL A   1      38.172  31.412  37.093  1.00  0.00    -0.206 F 
ATOM     82  C   UNL A   1      39.451  34.461  38.574  1.00  0.00     0.006 A 
ENDBRANCH  61  75
BRANCH  62  83
ATOM     83  C   UNL A   1      41.149  27.533  27.918  1.00  0.00     0.057 A 
ATOM     84  C   UNL A   1      40.613  26.250  27.756  1.00  0.00     0.134 A 
ATOM     85  C   UNL A   1      41.896  28.058  26.856  1.00  0.00     0.134 A 
ATOM     86  F   UNL A   1      39.902  25.687  28.744  1.00  0.00    -0.206 F 
ATOM     87  C   UNL A   1      40.829  25.508  26.595  1.00  0.00     0.040 A 
ATOM     88  C   UNL A   1      42.097  27.338  25.677  1.00  0.00     0.040 A 
ATOM     89  F   UNL A   1      42.427  29.286  26.942  1.00  0.00    -0.206 F 
ATOM     90  C   UNL A   1      41.569  26.054  25.548  1.00  0.00     0.006 A 
ENDBRANCH  62  83
BRANCH  74  91
ATOM     91  C   UNL A   1      44.486  27.760  34.028  1.00  0.00     0.057 A 
ATOM     92  C   UNL A   1      45.776  28.300  33.975  1.00  0.00     0.134 A 
ATOM     93  C   UNL A   1      44.328  26.514  34.648  1.00  0.00     0.134 A 
ATOM     94  F   UNL A   1      45.996  29.483  33.383  1.00  0.00    -0.206 F 
ATOM     95  C   UNL A   1      46.873  27.616  34.503  1.00  0.00     0.040 A 
ATOM     96  C   UNL A   1      45.412  25.835  35.205  1.00  0.00     0.040 A 
ATOM     97  F   UNL A   1      43.116  25.947  34.741  1.00  0.00    -0.206 F 
ATOM     98  C   UNL A   1      46.690  26.384  35.129  1.00  0.00     0.006 A 
ENDBRANCH  74  91
ENDBRANCH  48  49
ENDBRANCH  40  43
ENDBRANCH  38  39
ENDBRANCH  37  38
ENDBRANCH  36  37
ENDBRANCH   3  36
TORSDOF 21
ENDMDL
MODEL 2
REMARK VINA RESULT:     -10.8      3.348      5.019
REMARK SMILES CC(C)C[C@H](NC(=O)[C@H](Cc1ccccc1)NC(=O)CNC(=O)C[NH3+])C(=O)NCCCNC(=O)c1ccc(-c2c3nc(c(-c4c(F)cccc4F)c4ccc([nH]4)c(-c4c(F)cccc4F)c4nc(c(-c5c(F)cccc5F)c5ccc2[nH]5)C=C4)C=C3)cc1
REMARK SMILES IDX 26 1 27 2 28 3 5 5 4 6 2 7 1 8 3 9 6 10 7 11 8 13 9 14 17 15
REMARK SMILES IDX 18 16 19 18 20 19 21 20 22 21 23 23 24 24 25 25 10 29 11 30
REMARK SMILES IDX 12 31 16 32 13 33 15 34 14 35 29 36 30 37 31 38 32 39 33 40
REMARK SMILES IDX 34 42 35 43 36 44 88 45 37 46 87 47 38 48 39 49 40 50 81 51
REMARK SMILES IDX 41 52 86 53 80 54 82 55 42 56 85 57 79 58 78 59 43 61 69 62
REMARK SMILES IDX 52 63 68 64 53 65 56 66 67 67 83 68 54 69 55 70 66 72 84 73
REMARK SMILES IDX 57 74 44 75 45 76 50 77 46 78 47 79 49 80 51 81 48 82 70 83
REMARK SMILES IDX 71 84 76 85 72 86 73 87 75 88 77 89 74 90 58 91 59 92 64 93
REMARK SMILES IDX 60 94 61 95 63 96 65 97 62 98
REMARK H PARENT 28 4 6 12 17 17 21 22 25 26 25 27 25 28 32 41 82 60 56 71
REMARK Flexibility Score: inf
ROOT
ATOM      1  C   UNL A   1      33.634  26.479  22.833  1.00  0.00     0.242 C 
ATOM      2  O   UNL A   1      33.885  26.678  21.643  1.00  0.00    -0.273 OA
ATOM      3  N   UNL A   1      33.548  27.567  23.647  1.00  0.00    -0.354 N 
ATOM      4  H   UNL A   1      33.773  28.429  23.227  1.00  0.00     0.163 HD
ENDROOT
BRANCH   1   5
ATOM      5  C   UNL A   1      33.565  25.041  23.388  1.00  0.00     0.171 C 
BRANCH   5   6
ATOM      6  C   UNL A   1      34.904  24.266  23.301  1.00  0.00     0.038 C 
BRANCH   6   7
ATOM      7  C   UNL A   1      35.382  23.326  24.434  1.00  0.00    -0.015 C 
ATOM      8  C   UNL A   1      36.609  22.449  24.155  1.00  0.00     0.007 C 
ATOM      9  C   UNL A   1      35.741  24.203  25.648  1.00  0.00     0.007 C 
ENDBRANCH   6   7
ENDBRANCH   5   6
BRANCH   5  10
ATOM     10  N   UNL A   1      32.353  24.398  22.896  1.00  0.00    -0.343 N 
ATOM     11  C   UNL A   1      31.140  24.191  23.494  1.00  0.00     0.243 C 
ATOM     12  H   UNL A   1      32.419  24.054  21.976  1.00  0.00     0.164 HD
ATOM     13  O   UNL A   1      30.348  23.504  22.836  1.00  0.00    -0.273 OA
BRANCH  11  14
ATOM     14  C   UNL A   1      30.737  24.808  24.864  1.00  0.00     0.175 C 
BRANCH  14  15
ATOM     15  N   UNL A   1      29.399  25.425  24.748  1.00  0.00    -0.342 N 
ATOM     16  C   UNL A   1      28.949  26.529  24.096  1.00  0.00     0.240 C 
ATOM     17  H   UNL A   1      28.697  24.943  25.240  1.00  0.00     0.164 HD
ATOM     18  O   UNL A   1      27.730  26.736  24.117  1.00  0.00    -0.273 OA
BRANCH  16  19
ATOM     19  C   UNL A   1      29.849  27.419  23.232  1.00  0.00     0.216 C 
BRANCH  19  20
ATOM     20  N   UNL A   1      29.974  28.813  23.622  1.00  0.00    -0.342 N 
ATOM     21  C   UNL A   1      29.238  29.878  23.186  1.00  0.00     0.275 C 
ATOM     22  H   UNL A   1      30.677  29.015  24.282  1.00  0.00     0.164 HD
ATOM     23  O   UNL A   1      29.432  30.988  23.683  1.00  0.00    -0.268 OA
BRANCH  21  24
ATOM     24  C   UNL A   1      28.164  29.666  22.116  1.00  0.00     0.360 C 
BRANCH  24  25
ATOM     25  N   UNL A   1      26.904  29.211  22.715  1.00  0.00    -0.350 N 
ATOM     26  H   UNL A   1      27.104  28.563  23.476  1.00  0.00     0.344 HD
ATOM     27  H   UNL A   1      26.341  28.741  22.006  1.00  0.00     0.344 HD
ATOM     28  H   UNL A   1      26.392  30.016  23.078  1.00  0.00     0.344 HD
ENDBRANCH  24  25
ENDBRANCH  21  24
ENDBRANCH  19  20
ENDBRANCH  16  19
ENDBRANCH  14  15
BRANCH  14  29
ATOM     29  C   UNL A   1      30.731  23.907  26.111  1.00  0.00     0.070 C 
BRANCH  29  30
ATOM     30  C   UNL A   1      31.868  22.930  26.351  1.00  0.00    -0.045 A 
ATOM     31  C   UNL A   1      32.735  22.995  27.450  1.00  0.00     0.004 A 
ATOM     32  C   UNL A   1      31.986  21.824  25.494  1.00  0.00     0.004 A 
ATOM     33  C   UNL A   1      33.692  22.004  27.682  1.00  0.00     0.000 A 
ATOM     34  C   UNL A   1      32.943  20.832  25.722  1.00  0.00     0.000 A 
ATOM     35  C   UNL A   1      33.796  20.922  26.817  1.00  0.00     0.000 A 
ENDBRANCH  29  30
ENDBRANCH  14  29
ENDBRANCH  11  14
ENDBRANCH   5  10
ENDBRANCH   1   5
BRANCH   3  36
ATOM     36  C   UNL A   1      33.172  27.638  25.041  1.00  0.00     0.117 C 
BRANCH  36  37
ATOM     37  C   UNL A   1      34.242  28.232  25.935  1.00  0.00     0.042 C 
BRANCH  37  38
ATOM     38  C   UNL A   1      33.718  28.530  27.329  1.00  0.00     0.118 C 
BRANCH  38  39
ATOM     39  N   UNL A   1      33.744  29.960  27.616  1.00  0.00    -0.352 N 
ATOM     40  C   UNL A   1      34.694  30.705  28.264  1.00  0.00     0.251 C 
ATOM     41  H   UNL A   1      32.961  30.465  27.294  1.00  0.00     0.163 HD
ATOM     42  O   UNL A   1      34.418  31.823  28.683  1.00  0.00    -0.269 OA
BRANCH  40  43
ATOM     43  C   UNL A   1      36.045  30.147  28.454  1.00  0.00     0.039 A 
ATOM     44  C   UNL A   1      36.973  30.230  27.415  1.00  0.00     0.014 A 
ATOM     45  C   UNL A   1      36.386  29.541  29.665  1.00  0.00     0.014 A 
ATOM     46  C   UNL A   1      38.270  29.761  27.619  1.00  0.00     0.010 A 
ATOM     47  C   UNL A   1      37.700  29.169  29.900  1.00  0.00     0.010 A 
ATOM     48  C   UNL A   1      38.652  29.265  28.876  1.00  0.00    -0.014 A 
BRANCH  48  49
ATOM     49  C   UNL A   1      40.041  28.829  29.150  1.00  0.00     0.031 A 
ATOM     50  C   UNL A   1      41.008  29.782  29.793  1.00  0.00     0.074 A 
ATOM     51  C   UNL A   1      40.448  27.613  28.740  1.00  0.00     0.049 A 
ATOM     52  N   UNL A   1      42.288  29.636  30.016  1.00  0.00    -0.248 NA
ATOM     53  C   UNL A   1      40.472  31.088  30.214  1.00  0.00     0.031 C 
ATOM     54  C   UNL A   1      39.609  26.623  28.059  1.00  0.00     0.029 A 
ATOM     55  N   UNL A   1      41.676  27.009  28.820  1.00  0.00    -0.354 N 
ATOM     56  C   UNL A   1      42.711  30.832  30.581  1.00  0.00     0.074 A 
ATOM     57  C   UNL A   1      41.566  31.716  30.614  1.00  0.00     0.031 C 
ATOM     58  C   UNL A   1      40.341  25.528  27.804  1.00  0.00     0.029 A 
ATOM     59  C   UNL A   1      41.709  25.755  28.259  1.00  0.00     0.049 A 
ATOM     60  H   UNL A   1      42.459  27.433  29.239  1.00  0.00     0.167 HD
ATOM     61  C   UNL A   1      43.937  31.154  31.054  1.00  0.00     0.037 A 
ATOM     62  C   UNL A   1      42.733  24.894  28.116  1.00  0.00     0.037 A 
ATOM     63  C   UNL A   1      45.063  30.260  31.038  1.00  0.00     0.049 A 
ATOM     64  C   UNL A   1      44.090  25.284  28.631  1.00  0.00     0.074 A 
ATOM     65  C   UNL A   1      46.332  30.462  31.550  1.00  0.00     0.029 A 
ATOM     66  N   UNL A   1      45.055  28.991  30.476  1.00  0.00    -0.354 N 
ATOM     67  N   UNL A   1      44.460  26.389  29.231  1.00  0.00    -0.248 NA
ATOM     68  C   UNL A   1      45.172  24.306  28.451  1.00  0.00     0.031 C 
ATOM     69  C   UNL A   1      47.107  29.337  31.251  1.00  0.00     0.029 A 
ATOM     70  C   UNL A   1      46.305  28.410  30.602  1.00  0.00     0.049 A 
ATOM     71  H   UNL A   1      44.274  28.566  30.050  1.00  0.00     0.167 HD
ATOM     72  C   UNL A   1      45.808  26.231  29.524  1.00  0.00     0.074 A 
ATOM     73  C   UNL A   1      46.186  24.916  29.049  1.00  0.00     0.031 C 
ATOM     74  C   UNL A   1      46.658  27.097  30.128  1.00  0.00     0.037 A 
BRANCH  61  75
ATOM     75  C   UNL A   1      44.121  32.529  31.628  1.00  0.00     0.057 A 
ATOM     76  C   UNL A   1      44.507  33.618  30.833  1.00  0.00     0.134 A 
ATOM     77  C   UNL A   1      43.882  32.776  32.985  1.00  0.00     0.134 A 
ATOM     78  F   UNL A   1      44.767  33.448  29.528  1.00  0.00    -0.206 F 
ATOM     79  C   UNL A   1      44.676  34.894  31.373  1.00  0.00     0.040 A 
ATOM     80  C   UNL A   1      44.018  34.054  33.531  1.00  0.00     0.040 A 
ATOM     81  F   UNL A   1      43.506  31.781  33.803  1.00  0.00    -0.206 F 
ATOM     82  C   UNL A   1      44.423  35.116  32.724  1.00  0.00     0.006 A 
ENDBRANCH  61  75
BRANCH  62  83
ATOM     83  C   UNL A   1      42.512  23.576  27.468  1.00  0.00     0.057 A 
ATOM     84  C   UNL A   1      42.602  23.431  26.078  1.00  0.00     0.134 A 
ATOM     85  C   UNL A   1      42.203  22.434  28.217  1.00  0.00     0.134 A 
ATOM     86  F   UNL A   1      42.879  24.492  25.306  1.00  0.00    -0.206 F 
ATOM     87  C   UNL A   1      42.370  22.205  25.454  1.00  0.00     0.040 A 
ATOM     88  C   UNL A   1      41.997  21.194  27.608  1.00  0.00     0.040 A 
ATOM     89  F   UNL A   1      42.115  22.502  29.552  1.00  0.00    -0.206 F 
ATOM     90  C   UNL A   1      42.072  21.080  26.221  1.00  0.00     0.006 A 
ENDBRANCH  62  83
BRANCH  74  91
ATOM     91  C   UNL A   1      48.071  26.637  30.339  1.00  0.00     0.057 A 
ATOM     92  C   UNL A   1      48.450  25.917  31.479  1.00  0.00     0.134 A 
ATOM     93  C   UNL A   1      49.050  26.873  29.366  1.00  0.00     0.134 A 
ATOM     94  F   UNL A   1      47.564  25.670  32.454  1.00  0.00    -0.206 F 
ATOM     95  C   UNL A   1      49.759  25.464  31.651  1.00  0.00     0.040 A 
ATOM     96  C   UNL A   1      50.354  26.400  29.513  1.00  0.00     0.040 A 
ATOM     97  F   UNL A   1      48.749  27.548  28.246  1.00  0.00    -0.206 F 
ATOM     98  C   UNL A   1      50.713  25.697  30.661  1.00  0.00     0.006 A 
ENDBRANCH  74  91
ENDBRANCH  48  49
ENDBRANCH  40  43
ENDBRANCH  38  39
ENDBRANCH  37  38
ENDBRANCH  36  37
ENDBRANCH   3  36
TORSDOF 21
ENDMDL
MODEL 3
REMARK VINA RESULT:     -10.8      1.673      6.573
REMARK SMILES CC(C)C[C@H](NC(=O)[C@H](Cc1ccccc1)NC(=O)CNC(=O)C[NH3+])C(=O)NCCCNC(=O)c1ccc(-c2c3nc(c(-c4c(F)cccc4F)c4ccc([nH]4)c(-c4c(F)cccc4F)c4nc(c(-c5c(F)cccc5F)c5ccc2[nH]5)C=C4)C=C3)cc1
REMARK SMILES IDX 26 1 27 2 28 3 5 5 4 6 2 7 1 8 3 9 6 10 7 11 8 13 9 14 17 15
REMARK SMILES IDX 18 16 19 18 20 19 21 20 22 21 23 23 24 24 25 25 10 29 11 30
REMARK SMILES IDX 12 31 16 32 13 33 15 34 14 35 29 36 30 37 31 38 32 39 33 40
REMARK SMILES IDX 34 42 35 43 36 44 88 45 37 46 87 47 38 48 39 49 40 50 81 51
REMARK SMILES IDX 41 52 86 53 80 54 82 55 42 56 85 57 79 58 78 59 43 61 69 62
REMARK SMILES IDX 52 63 68 64 53 65 56 66 67 67 83 68 54 69 55 70 66 72 84 73
REMARK SMILES IDX 57 74 44 75 45 76 50 77 46 78 47 79 49 80 51 81 48 82 70 83
REMARK SMILES IDX 71 84 76 85 72 86 73 87 75 88 77 89 74 90 58 91 59 92 64 93
REMARK SMILES IDX 60 94 61 95 63 96 65 97 62 98
REMARK H PARENT 28 4 6 12 17 17 21 22 25 26 25 27 25 28 32 41 82 60 56 71
REMARK Flexibility Score: inf
ROOT
ATOM      1  C   UNL A   1      31.181  29.317  23.605  1.00  0.00     0.242 C 
ATOM      2  O   UNL A   1      30.659  29.235  22.492  1.00  0.00    -0.273 OA
ATOM      3  N   UNL A   1      30.729  30.293  24.441  1.00  0.00    -0.354 N 
ATOM      4  H   UNL A   1      30.066  30.909  24.052  1.00  0.00     0.163 HD
ENDROOT
BRANCH   1   5
ATOM      5  C   UNL A   1      32.394  28.435  23.967  1.00  0.00     0.171 C 
BRANCH   5   6
ATOM      6  C   UNL A   1      33.447  29.143  24.856  1.00  0.00     0.038 C 
BRANCH   6   7
ATOM      7  C   UNL A   1      34.045  28.467  26.114  1.00  0.00    -0.015 C 
ATOM      8  C   UNL A   1      34.680  29.378  27.172  1.00  0.00     0.007 C 
ATOM      9  C   UNL A   1      32.907  27.708  26.821  1.00  0.00     0.007 C 
ENDBRANCH   6   7
ENDBRANCH   5   6
BRANCH   5  10
ATOM     10  N   UNL A   1      32.847  27.734  22.772  1.00  0.00    -0.343 N 
ATOM     11  C   UNL A   1      33.345  26.470  22.606  1.00  0.00     0.243 C 
ATOM     12  H   UNL A   1      32.785  28.260  21.942  1.00  0.00     0.164 HD
ATOM     13  O   UNL A   1      33.748  26.218  21.463  1.00  0.00    -0.273 OA
BRANCH  11  14
ATOM     14  C   UNL A   1      33.360  25.395  23.730  1.00  0.00     0.175 C 
BRANCH  14  15
ATOM     15  N   UNL A   1      33.165  24.058  23.130  1.00  0.00    -0.342 N 
ATOM     16  C   UNL A   1      32.149  23.160  23.194  1.00  0.00     0.240 C 
ATOM     17  H   UNL A   1      33.922  23.760  22.575  1.00  0.00     0.164 HD
ATOM     18  O   UNL A   1      32.248  22.147  22.492  1.00  0.00    -0.273 OA
BRANCH  16  19
ATOM     19  C   UNL A   1      30.849  23.418  23.965  1.00  0.00     0.216 C 
BRANCH  19  20
ATOM     20  N   UNL A   1      30.038  24.545  23.539  1.00  0.00    -0.342 N 
ATOM     21  C   UNL A   1      29.678  25.645  24.266  1.00  0.00     0.275 C 
ATOM     22  H   UNL A   1      29.707  24.513  22.613  1.00  0.00     0.164 HD
ATOM     23  O   UNL A   1      29.044  26.547  23.718  1.00  0.00    -0.268 OA
BRANCH  21  24
ATOM     24  C   UNL A   1      30.099  25.750  25.734  1.00  0.00     0.360 C 
BRANCH  24  25
ATOM     25  N   UNL A   1      29.216  24.956  26.596  1.00  0.00    -0.350 N 
ATOM     26  H   UNL A   1      28.426  24.613  26.049  1.00  0.00     0.344 HD
ATOM     27  H   UNL A   1      28.873  25.538  27.360  1.00  0.00     0.344 HD
ATOM     28  H   UNL A   1      29.736  24.165  26.977  1.00  0.00     0.344 HD
ENDBRANCH  24  25
ENDBRANCH  21  24
ENDBRANCH  19  20
ENDBRANCH  16  19
ENDBRANCH  14  15
BRANCH  14  29
ATOM     29  C   UNL A   1      34.578  25.316  24.666  1.00  0.00     0.070 C 
BRANCH  29  30
ATOM     30  C   UNL A   1      35.130  23.966  25.086  1.00  0.00    -0.045 A 
ATOM     31  C   UNL A   1      34.615  23.206  26.145  1.00  0.00     0.004 A 
ATOM     32  C   UNL A   1      36.133  23.384  24.294  1.00  0.00     0.004 A 
ATOM     33  C   UNL A   1      35.088  21.919  26.414  1.00  0.00     0.000 A 
ATOM     34  C   UNL A   1      36.610  22.098  24.563  1.00  0.00     0.000 A 
ATOM     35  C   UNL A   1      36.086  21.365  25.623  1.00  0.00     0.000 A 
ENDBRANCH  29  30
ENDBRANCH  14  29
ENDBRANCH  11  14
ENDBRANCH   5  10
ENDBRANCH   1   5
BRANCH   3  36
ATOM     36  C   UNL A   1      31.082  30.551  25.818  1.00  0.00     0.117 C 
BRANCH  36  37
ATOM     37  C   UNL A   1      31.137  32.024  26.171  1.00  0.00     0.042 C 
BRANCH  37  38
ATOM     38  C   UNL A   1      32.401  32.382  26.932  1.00  0.00     0.118 C 
BRANCH  38  39
ATOM     39  N   UNL A   1      32.379  33.767  27.386  1.00  0.00    -0.352 N 
ATOM     40  C   UNL A   1      33.108  34.376  28.375  1.00  0.00     0.251 C 
ATOM     41  H   UNL A   1      31.747  34.354  26.909  1.00  0.00     0.163 HD
ATOM     42  O   UNL A   1      32.750  35.457  28.825  1.00  0.00    -0.269 OA
BRANCH  40  43
ATOM     43  C   UNL A   1      34.321  33.714  28.890  1.00  0.00     0.039 A 
ATOM     44  C   UNL A   1      35.572  34.261  28.607  1.00  0.00     0.014 A 
ATOM     45  C   UNL A   1      34.209  32.550  29.653  1.00  0.00     0.014 A 
ATOM     46  C   UNL A   1      36.714  33.672  29.150  1.00  0.00     0.010 A 
ATOM     47  C   UNL A   1      35.333  32.026  30.273  1.00  0.00     0.010 A 
ATOM     48  C   UNL A   1      36.596  32.575  30.019  1.00  0.00    -0.014 A 
BRANCH  48  49
ATOM     49  C   UNL A   1      37.781  31.972  30.673  1.00  0.00     0.031 A 
ATOM     50  C   UNL A   1      38.542  30.880  29.975  1.00  0.00     0.074 A 
ATOM     51  C   UNL A   1      38.110  32.345  31.923  1.00  0.00     0.049 A 
ATOM     52  N   UNL A   1      39.532  30.150  30.418  1.00  0.00    -0.248 NA
ATOM     53  C   UNL A   1      38.112  30.542  28.607  1.00  0.00     0.031 C 
ATOM     54  C   UNL A   1      37.412  33.358  32.718  1.00  0.00     0.029 A 
ATOM     55  N   UNL A   1      39.108  31.902  32.754  1.00  0.00    -0.354 N 
ATOM     56  C   UNL A   1      39.828  29.258  29.395  1.00  0.00     0.074 A 
ATOM     57  C   UNL A   1      38.877  29.497  28.333  1.00  0.00     0.031 C 
ATOM     58  C   UNL A   1      38.016  33.475  33.910  1.00  0.00     0.029 A 
ATOM     59  C   UNL A   1      39.111  32.514  33.984  1.00  0.00     0.049 A 
ATOM     60  H   UNL A   1      39.759  31.212  32.493  1.00  0.00     0.167 HD
ATOM     61  C   UNL A   1      40.821  28.340  29.338  1.00  0.00     0.037 A 
ATOM     62  C   UNL A   1      39.902  32.311  35.053  1.00  0.00     0.037 A 
ATOM     63  C   UNL A   1      41.777  28.127  30.391  1.00  0.00     0.049 A 
ATOM     64  C   UNL A   1      40.985  31.271  34.971  1.00  0.00     0.074 A 
ATOM     65  C   UNL A   1      42.862  27.268  30.409  1.00  0.00     0.029 A 
ATOM     66  N   UNL A   1      41.759  28.777  31.617  1.00  0.00    -0.354 N 
ATOM     67  N   UNL A   1      41.302  30.486  33.971  1.00  0.00    -0.248 NA
ATOM     68  C   UNL A   1      41.820  31.091  36.167  1.00  0.00     0.031 C 
ATOM     69  C   UNL A   1      43.469  27.361  31.665  1.00  0.00     0.029 A 
ATOM     70  C   UNL A   1      42.796  28.318  32.410  1.00  0.00     0.049 A 
ATOM     71  H   UNL A   1      41.105  29.464  31.882  1.00  0.00     0.167 HD
ATOM     72  C   UNL A   1      42.389  29.737  34.404  1.00  0.00     0.074 A 
ATOM     73  C   UNL A   1      42.685  30.175  35.753  1.00  0.00     0.031 C 
ATOM     74  C   UNL A   1      43.077  28.772  33.748  1.00  0.00     0.037 A 
BRANCH  61  75
ATOM     75  C   UNL A   1      40.922  27.502  28.096  1.00  0.00     0.057 A 
ATOM     76  C   UNL A   1      41.684  27.905  26.990  1.00  0.00     0.134 A 
ATOM     77  C   UNL A   1      40.273  26.264  28.014  1.00  0.00     0.134 A 
ATOM     78  F   UNL A   1      42.318  29.088  26.997  1.00  0.00    -0.206 F 
ATOM     79  C   UNL A   1      41.774  27.121  25.840  1.00  0.00     0.040 A 
ATOM     80  C   UNL A   1      40.381  25.457  26.880  1.00  0.00     0.040 A 
ATOM     81  F   UNL A   1      39.530  25.815  29.037  1.00  0.00    -0.206 F 
ATOM     82  C   UNL A   1      41.127  25.889  25.786  1.00  0.00     0.006 A 
ENDBRANCH  61  75
BRANCH  62  83
ATOM     83  C   UNL A   1      39.707  33.115  36.287  1.00  0.00     0.057 A 
ATOM     84  C   UNL A   1      40.377  34.330  36.469  1.00  0.00     0.134 A 
ATOM     85  C   UNL A   1      38.855  32.688  37.313  1.00  0.00     0.134 A 
ATOM     86  F   UNL A   1      41.218  34.784  35.529  1.00  0.00    -0.206 F 
ATOM     87  C   UNL A   1      40.224  35.082  37.635  1.00  0.00     0.040 A 
ATOM     88  C   UNL A   1      38.671  33.443  38.472  1.00  0.00     0.040 A 
ATOM     89  F   UNL A   1      38.175  31.538  37.195  1.00  0.00    -0.206 F 
ATOM     90  C   UNL A   1      39.364  34.641  38.639  1.00  0.00     0.006 A 
ENDBRANCH  62  83
BRANCH  74  91
ATOM     91  C   UNL A   1      44.238  28.148  34.465  1.00  0.00     0.057 A 
ATOM     92  C   UNL A   1      44.099  26.970  35.210  1.00  0.00     0.134 A 
ATOM     93  C   UNL A   1      45.519  28.703  34.364  1.00  0.00     0.134 A 
ATOM     94  F   UNL A   1      42.896  26.396  35.357  1.00  0.00    -0.206 F 
ATOM     95  C   UNL A   1      45.191  26.379  35.846  1.00  0.00     0.040 A 
ATOM     96  C   UNL A   1      46.624  28.105  34.971  1.00  0.00     0.040 A 
ATOM     97  F   UNL A   1      45.723  29.825  33.657  1.00  0.00    -0.206 F 
ATOM     98  C   UNL A   1      46.460  26.941  35.719  1.00  0.00     0.006 A 
ENDBRANCH  74  91
ENDBRANCH  48  49
ENDBRANCH  40  43
ENDBRANCH  38  39
ENDBRANCH  37  38
ENDBRANCH  36  37
ENDBRANCH   3  36
TORSDOF 21
ENDMDL
