MODEL 1
REMARK VINA RESULT:     -11.7      0.000      0.000
REMARK SMILES Cc1sc(NC(=O)c2ccc(Br)nc2)c(C(=O)NCCCNC(=O)c2ccc(-c3c4nc(c(-c5c(F)cccc5F)c5ccc([nH]5)c(-c5c(F)cccc5F)c5nc(c(-c6c(F)cccc6F)c6ccc3[nH]6)C=C5)C=C4)cc2)c1C
REMARK SMILES IDX 20 1 19 2 18 3 16 4 17 5 15 7 1 8 2 9 3 10 79 11 4 12 80 13
REMARK SMILES IDX 5 14 6 15 7 17 8 18 9 19 14 20 10 21 13 22 11 23 12 24 21 25
REMARK SMILES IDX 22 26 23 27 24 29 25 30 26 31 78 32 27 33 77 34 28 35 29 36
REMARK SMILES IDX 30 37 71 38 31 39 76 40 70 41 72 42 32 43 75 44 69 45 68 46
REMARK SMILES IDX 33 48 59 49 42 50 58 51 43 52 46 53 57 54 73 55 44 56 45 57
REMARK SMILES IDX 56 59 74 60 47 61 34 62 35 63 40 64 36 65 37 66 39 67 41 68
REMARK SMILES IDX 38 69 60 70 61 71 66 72 62 73 63 74 65 75 67 76 64 77 48 78
REMARK SMILES IDX 49 79 54 80 50 81 51 82 53 83 55 84 52 85
REMARK H PARENT 18 6 5 16 22 28 72 47 46 58
REMARK Flexibility Score: inf
ROOT
ATOM      1  C   UNL A   1      37.445  21.874  24.463  1.00  0.00     0.042 C 
ENDROOT
BRANCH   1   2
ATOM      2  C   UNL A   1      36.996  23.326  24.486  1.00  0.00     0.118 C 
BRANCH   2   3
ATOM      3  N   UNL A   1      36.063  23.635  25.555  1.00  0.00    -0.352 N 
ATOM      4  C   UNL A   1      34.707  23.414  25.616  1.00  0.00     0.254 C 
ATOM      5  O   UNL A   1      34.086  23.915  26.552  1.00  0.00    -0.269 OA
ATOM      6  H   UNL A   1      36.458  24.063  26.349  1.00  0.00     0.163 HD
BRANCH   4   7
ATOM      7  C   UNL A   1      34.035  22.671  24.548  1.00  0.00     0.077 A 
ATOM      8  C   UNL A   1      32.117  19.562  23.487  1.00  0.00     0.057 C 
ATOM      9  C   UNL A   1      32.818  20.869  23.661  1.00  0.00     0.007 A 
ATOM     10  S   UNL A   1      32.544  22.123  22.536  1.00  0.00    -0.122 S 
ATOM     11  C   UNL A   1      33.733  21.246  24.632  1.00  0.00    -0.022 A 
ATOM     12  C   UNL A   1      33.695  23.125  23.287  1.00  0.00     0.109 A 
ATOM     13  C   UNL A   1      34.311  20.333  25.670  1.00  0.00     0.046 C 
BRANCH  12  14
ATOM     14  N   UNL A   1      34.020  24.205  22.495  1.00  0.00    -0.313 N 
ATOM     15  C   UNL A   1      33.588  25.509  22.593  1.00  0.00     0.257 C 
ATOM     16  H   UNL A   1      34.647  24.019  21.760  1.00  0.00     0.171 HD
ATOM     17  O   UNL A   1      33.656  26.247  21.613  1.00  0.00    -0.269 OA
BRANCH  15  18
ATOM     18  C   UNL A   1      33.055  26.057  23.854  1.00  0.00     0.058 A 
ATOM     19  C   UNL A   1      31.731  25.884  24.257  1.00  0.00     0.018 A 
ATOM     20  C   UNL A   1      33.901  26.791  24.675  1.00  0.00     0.126 A 
ATOM     21  C   UNL A   1      31.281  26.545  25.399  1.00  0.00     0.037 A 
ATOM     22  N   UNL A   1      33.489  27.445  25.787  1.00  0.00    -0.249 NA
ATOM     23  C   UNL A   1      32.181  27.328  26.110  1.00  0.00     0.106 A 
ATOM     24  Br  UNL A   1      31.557  28.305  27.611  1.00  0.00    -0.029 Br
ENDBRANCH  15  18
ENDBRANCH  12  14
ENDBRANCH   4   7
ENDBRANCH   2   3
ENDBRANCH   1   2
BRANCH   1  25
ATOM     25  C   UNL A   1      38.276  21.423  25.659  1.00  0.00     0.118 C 
BRANCH  25  26
ATOM     26  N   UNL A   1      39.095  20.235  25.460  1.00  0.00    -0.352 N 
ATOM     27  C   UNL A   1      40.371  19.974  25.923  1.00  0.00     0.251 C 
ATOM     28  H   UNL A   1      38.684  19.520  24.922  1.00  0.00     0.163 HD
ATOM     29  O   UNL A   1      40.889  18.879  25.727  1.00  0.00    -0.269 OA
BRANCH  27  30
ATOM     30  C   UNL A   1      41.164  21.050  26.564  1.00  0.00     0.039 A 
ATOM     31  C   UNL A   1      41.806  21.971  25.730  1.00  0.00     0.014 A 
ATOM     32  C   UNL A   1      41.190  21.227  27.946  1.00  0.00     0.014 A 
ATOM     33  C   UNL A   1      42.339  23.141  26.271  1.00  0.00     0.010 A 
ATOM     34  C   UNL A   1      41.627  22.441  28.473  1.00  0.00     0.010 A 
ATOM     35  C   UNL A   1      42.175  23.425  27.637  1.00  0.00    -0.014 A 
BRANCH  35  36
ATOM     36  C   UNL A   1      42.501  24.772  28.179  1.00  0.00     0.031 A 
ATOM     37  C   UNL A   1      43.904  25.122  28.585  1.00  0.00     0.074 A 
ATOM     38  C   UNL A   1      41.504  25.658  28.384  1.00  0.00     0.049 A 
ATOM     39  N   UNL A   1      44.357  26.232  29.114  1.00  0.00    -0.248 NA
ATOM     40  C   UNL A   1      44.927  24.080  28.409  1.00  0.00     0.031 C 
ATOM     41  C   UNL A   1      40.083  25.416  28.122  1.00  0.00     0.029 A 
ATOM     42  N   UNL A   1      41.534  26.946  28.861  1.00  0.00    -0.354 N 
ATOM     43  C   UNL A   1      45.706  26.011  29.356  1.00  0.00     0.074 A 
ATOM     44  C   UNL A   1      45.987  24.646  28.965  1.00  0.00     0.031 C 
ATOM     45  C   UNL A   1      39.385  26.531  28.397  1.00  0.00     0.029 A 
ATOM     46  C   UNL A   1      40.302  27.556  28.881  1.00  0.00     0.049 A 
ATOM     47  H   UNL A   1      42.360  27.391  29.160  1.00  0.00     0.167 HD
ATOM     48  C   UNL A   1      46.635  26.873  29.833  1.00  0.00     0.037 A 
ATOM     49  C   UNL A   1      39.952  28.806  29.236  1.00  0.00     0.037 A 
ATOM     50  C   UNL A   1      46.369  28.244  30.181  1.00  0.00     0.049 A 
ATOM     51  C   UNL A   1      41.012  29.766  29.695  1.00  0.00     0.074 A 
ATOM     52  C   UNL A   1      47.258  29.216  30.609  1.00  0.00     0.029 A 
ATOM     53  N   UNL A   1      45.120  28.842  30.130  1.00  0.00    -0.354 N 
ATOM     54  N   UNL A   1      42.297  29.564  29.847  1.00  0.00    -0.248 NA
ATOM     55  C   UNL A   1      40.572  31.130  30.020  1.00  0.00     0.031 C 
ATOM     56  C   UNL A   1      46.542  30.396  30.836  1.00  0.00     0.029 A 
ATOM     57  C   UNL A   1      45.212  30.167  30.521  1.00  0.00     0.049 A 
ATOM     58  H   UNL A   1      44.288  28.391  29.857  1.00  0.00     0.167 HD
ATOM     59  C   UNL A   1      42.825  30.779  30.261  1.00  0.00     0.074 A 
ATOM     60  C   UNL A   1      41.722  31.716  30.322  1.00  0.00     0.031 C 
ATOM     61  C   UNL A   1      44.108  31.089  30.567  1.00  0.00     0.037 A 
BRANCH  48  62
ATOM     62  C   UNL A   1      48.033  26.354  29.988  1.00  0.00     0.057 A 
ATOM     63  C   UNL A   1      48.964  26.427  28.943  1.00  0.00     0.134 A 
ATOM     64  C   UNL A   1      48.459  25.785  31.195  1.00  0.00     0.134 A 
ATOM     65  F   UNL A   1      48.614  26.947  27.757  1.00  0.00    -0.206 F 
ATOM     66  C   UNL A   1      50.258  25.923  29.081  1.00  0.00     0.040 A 
ATOM     67  C   UNL A   1      49.759  25.300  31.353  1.00  0.00     0.040 A 
ATOM     68  F   UNL A   1      47.620  25.690  32.237  1.00  0.00    -0.206 F 
ATOM     69  C   UNL A   1      50.660  25.362  30.291  1.00  0.00     0.006 A 
ENDBRANCH  48  62
BRANCH  49  70
ATOM     70  C   UNL A   1      38.539  29.244  29.118  1.00  0.00     0.057 A 
ATOM     71  C   UNL A   1      38.028  29.689  27.893  1.00  0.00     0.134 A 
ATOM     72  C   UNL A   1      37.673  29.240  30.217  1.00  0.00     0.134 A 
ATOM     73  F   UNL A   1      38.816  29.730  26.810  1.00  0.00    -0.206 F 
ATOM     74  C   UNL A   1      36.711  30.134  27.769  1.00  0.00     0.040 A 
ATOM     75  C   UNL A   1      36.348  29.664  30.103  1.00  0.00     0.040 A 
ATOM     76  F   UNL A   1      38.102  28.818  31.416  1.00  0.00    -0.206 F 
ATOM     77  C   UNL A   1      35.866  30.119  28.877  1.00  0.00     0.006 A 
ENDBRANCH  49  70
BRANCH  61  78
ATOM     78  C   UNL A   1      44.387  32.507  30.964  1.00  0.00     0.057 A 
ATOM     79  C   UNL A   1      44.351  32.919  32.301  1.00  0.00     0.134 A 
ATOM     80  C   UNL A   1      44.713  33.467  29.997  1.00  0.00     0.134 A 
ATOM     81  F   UNL A   1      44.031  32.050  33.272  1.00  0.00    -0.206 F 
ATOM     82  C   UNL A   1      44.607  34.243  32.662  1.00  0.00     0.040 A 
ATOM     83  C   UNL A   1      44.991  34.788  30.348  1.00  0.00     0.040 A 
ATOM     84  F   UNL A   1      44.768  33.134  28.698  1.00  0.00    -0.206 F 
ATOM     85  C   UNL A   1      44.932  35.180  31.684  1.00  0.00     0.006 A 
ENDBRANCH  61  78
ENDBRANCH  35  36
ENDBRANCH  27  30
ENDBRANCH  25  26
ENDBRANCH   1  25
TORSDOF 12
ENDMDL
MODEL 2
REMARK VINA RESULT:     -11.6      0.211      1.323
REMARK SMILES Cc1sc(NC(=O)c2ccc(Br)nc2)c(C(=O)NCCCNC(=O)c2ccc(-c3c4nc(c(-c5c(F)cccc5F)c5ccc([nH]5)c(-c5c(F)cccc5F)c5nc(c(-c6c(F)cccc6F)c6ccc3[nH]6)C=C5)C=C4)cc2)c1C
REMARK SMILES IDX 20 1 19 2 18 3 16 4 17 5 15 7 1 8 2 9 3 10 79 11 4 12 80 13
REMARK SMILES IDX 5 14 6 15 7 17 8 18 9 19 14 20 10 21 13 22 11 23 12 24 21 25
REMARK SMILES IDX 22 26 23 27 24 29 25 30 26 31 78 32 27 33 77 34 28 35 29 36
REMARK SMILES IDX 30 37 71 38 31 39 76 40 70 41 72 42 32 43 75 44 69 45 68 46
REMARK SMILES IDX 33 48 59 49 42 50 58 51 43 52 46 53 57 54 73 55 44 56 45 57
REMARK SMILES IDX 56 59 74 60 47 61 34 62 35 63 40 64 36 65 37 66 39 67 41 68
REMARK SMILES IDX 38 69 60 70 61 71 66 72 62 73 63 74 65 75 67 76 64 77 48 78
REMARK SMILES IDX 49 79 54 80 50 81 51 82 53 83 55 84 52 85
REMARK H PARENT 18 6 5 16 22 28 72 47 46 58
REMARK Flexibility Score: inf
ROOT
ATOM      1  C   UNL A   1      37.475  21.558  24.729  1.00  0.00     0.042 C 
ENDROOT
BRANCH   1   2
ATOM      2  C   UNL A   1      37.032  23.003  24.563  1.00  0.00     0.118 C 
BRANCH   2   3
ATOM      3  N   UNL A   1      36.089  23.447  25.574  1.00  0.00    -0.352 N 
ATOM      4  C   UNL A   1      34.717  23.346  25.586  1.00  0.00     0.254 C 
ATOM      5  O   UNL A   1      34.106  23.948  26.468  1.00  0.00    -0.269 OA
ATOM      6  H   UNL A   1      36.488  23.882  26.362  1.00  0.00     0.163 HD
BRANCH   4   7
ATOM      7  C   UNL A   1      34.025  22.606  24.529  1.00  0.00     0.077 A 
ATOM      8  C   UNL A   1      32.064  19.513  23.501  1.00  0.00     0.057 C 
ATOM      9  C   UNL A   1      32.779  20.813  23.662  1.00  0.00     0.007 A 
ATOM     10  S   UNL A   1      32.505  22.067  22.536  1.00  0.00    -0.122 S 
ATOM     11  C   UNL A   1      33.710  21.184  24.621  1.00  0.00    -0.022 A 
ATOM     12  C   UNL A   1      33.675  23.060  23.270  1.00  0.00     0.109 A 
ATOM     13  C   UNL A   1      34.291  20.269  25.656  1.00  0.00     0.046 C 
BRANCH  12  14
ATOM     14  N   UNL A   1      34.001  24.134  22.471  1.00  0.00    -0.313 N 
ATOM     15  C   UNL A   1      33.581  25.442  22.569  1.00  0.00     0.257 C 
ATOM     16  H   UNL A   1      34.619  23.940  21.730  1.00  0.00     0.171 HD
ATOM     17  O   UNL A   1      33.646  26.176  21.585  1.00  0.00    -0.269 OA
BRANCH  15  18
ATOM     18  C   UNL A   1      33.065  25.999  23.832  1.00  0.00     0.058 A 
ATOM     19  C   UNL A   1      31.772  25.759  24.296  1.00  0.00     0.018 A 
ATOM     20  C   UNL A   1      33.896  26.811  24.593  1.00  0.00     0.126 A 
ATOM     21  C   UNL A   1      31.327  26.430  25.434  1.00  0.00     0.037 A 
ATOM     22  N   UNL A   1      33.488  27.477  25.701  1.00  0.00    -0.249 NA
ATOM     23  C   UNL A   1      32.204  27.291  26.082  1.00  0.00     0.106 A 
ATOM     24  Br  UNL A   1      31.581  28.278  27.576  1.00  0.00    -0.029 Br
ENDBRANCH  15  18
ENDBRANCH  12  14
ENDBRANCH   4   7
ENDBRANCH   2   3
ENDBRANCH   1   2
BRANCH   1  25
ATOM     25  C   UNL A   1      38.573  21.320  25.760  1.00  0.00     0.118 C 
BRANCH  25  26
ATOM     26  N   UNL A   1      39.430  20.166  25.530  1.00  0.00    -0.352 N 
ATOM     27  C   UNL A   1      40.727  19.952  25.955  1.00  0.00     0.251 C 
ATOM     28  H   UNL A   1      39.032  19.439  24.999  1.00  0.00     0.163 HD
ATOM     29  O   UNL A   1      41.282  18.878  25.737  1.00  0.00    -0.269 OA
BRANCH  27  30
ATOM     30  C   UNL A   1      41.498  21.053  26.581  1.00  0.00     0.039 A 
ATOM     31  C   UNL A   1      42.080  22.003  25.736  1.00  0.00     0.014 A 
ATOM     32  C   UNL A   1      41.556  21.223  27.963  1.00  0.00     0.014 A 
ATOM     33  C   UNL A   1      42.583  23.189  26.270  1.00  0.00     0.010 A 
ATOM     34  C   UNL A   1      41.962  22.449  28.486  1.00  0.00     0.010 A 
ATOM     35  C   UNL A   1      42.447  23.459  27.642  1.00  0.00    -0.014 A 
BRANCH  35  36
ATOM     36  C   UNL A   1      42.737  24.814  28.184  1.00  0.00     0.031 A 
ATOM     37  C   UNL A   1      44.131  25.203  28.587  1.00  0.00     0.074 A 
ATOM     38  C   UNL A   1      41.716  25.672  28.391  1.00  0.00     0.049 A 
ATOM     39  N   UNL A   1      44.554  26.324  29.116  1.00  0.00    -0.248 NA
ATOM     40  C   UNL A   1      45.181  24.190  28.408  1.00  0.00     0.031 C 
ATOM     41  C   UNL A   1      40.301  25.391  28.133  1.00  0.00     0.029 A 
ATOM     42  N   UNL A   1      41.712  26.960  28.869  1.00  0.00    -0.354 N 
ATOM     43  C   UNL A   1      45.909  26.141  29.355  1.00  0.00     0.074 A 
ATOM     44  C   UNL A   1      46.227  24.784  28.963  1.00  0.00     0.031 C 
ATOM     45  C   UNL A   1      39.574  26.486  28.409  1.00  0.00     0.029 A 
ATOM     46  C   UNL A   1      40.464  27.536  28.893  1.00  0.00     0.049 A 
ATOM     47  H   UNL A   1      42.526  27.427  29.167  1.00  0.00     0.167 HD
ATOM     48  C   UNL A   1      46.815  27.028  29.831  1.00  0.00     0.037 A 
ATOM     49  C   UNL A   1      40.079  28.775  29.249  1.00  0.00     0.037 A 
ATOM     50  C   UNL A   1      46.512  28.391  30.179  1.00  0.00     0.049 A 
ATOM     51  C   UNL A   1      41.113  29.764  29.706  1.00  0.00     0.074 A 
ATOM     52  C   UNL A   1      47.375  29.387  30.606  1.00  0.00     0.029 A 
ATOM     53  N   UNL A   1      45.246  28.953  30.132  1.00  0.00    -0.354 N 
ATOM     54  N   UNL A   1      42.404  29.598  29.855  1.00  0.00    -0.248 NA
ATOM     55  C   UNL A   1      40.637  31.115  30.033  1.00  0.00     0.031 C 
ATOM     56  C   UNL A   1      46.626  30.546  30.836  1.00  0.00     0.029 A 
ATOM     57  C   UNL A   1      45.303  30.281  30.523  1.00  0.00     0.049 A 
ATOM     58  H   UNL A   1      44.427  28.480  29.860  1.00  0.00     0.167 HD
ATOM     59  C   UNL A   1      42.899  30.826  30.269  1.00  0.00     0.074 A 
ATOM     60  C   UNL A   1      41.771  31.733  30.332  1.00  0.00     0.031 C 
ATOM     61  C   UNL A   1      44.173  31.172  30.572  1.00  0.00     0.037 A 
BRANCH  48  62
ATOM     62  C   UNL A   1      48.227  26.547  29.982  1.00  0.00     0.057 A 
ATOM     63  C   UNL A   1      48.659  25.891  31.143  1.00  0.00     0.134 A 
ATOM     64  C   UNL A   1      49.163  26.730  28.956  1.00  0.00     0.134 A 
ATOM     65  F   UNL A   1      47.815  25.698  32.167  1.00  0.00    -0.206 F 
ATOM     66  C   UNL A   1      49.979  25.463  31.292  1.00  0.00     0.040 A 
ATOM     67  C   UNL A   1      50.480  26.284  29.084  1.00  0.00     0.040 A 
ATOM     68  F   UNL A   1      48.814  27.345  27.817  1.00  0.00    -0.206 F 
ATOM     69  C   UNL A   1      50.892  25.656  30.258  1.00  0.00     0.006 A 
ENDBRANCH  48  62
BRANCH  49  70
ATOM     70  C   UNL A   1      38.654  29.174  29.134  1.00  0.00     0.057 A 
ATOM     71  C   UNL A   1      38.130  29.611  27.912  1.00  0.00     0.134 A 
ATOM     72  C   UNL A   1      37.790  29.140  30.234  1.00  0.00     0.134 A 
ATOM     73  F   UNL A   1      38.916  29.680  26.828  1.00  0.00    -0.206 F 
ATOM     74  C   UNL A   1      36.801  30.020  27.791  1.00  0.00     0.040 A 
ATOM     75  C   UNL A   1      36.454  29.527  30.123  1.00  0.00     0.040 A 
ATOM     76  F   UNL A   1      38.231  28.723  31.430  1.00  0.00    -0.206 F 
ATOM     77  C   UNL A   1      35.958  29.975  28.899  1.00  0.00     0.006 A 
ENDBRANCH  49  70
BRANCH  61  78
ATOM     78  C   UNL A   1      44.414  32.597  30.969  1.00  0.00     0.057 A 
ATOM     79  C   UNL A   1      44.699  33.588  30.022  1.00  0.00     0.134 A 
ATOM     80  C   UNL A   1      44.344  32.983  32.314  1.00  0.00     0.134 A 
ATOM     81  F   UNL A   1      44.794  33.277  28.721  1.00  0.00    -0.206 F 
ATOM     82  C   UNL A   1      44.927  34.912  30.401  1.00  0.00     0.040 A 
ATOM     83  C   UNL A   1      44.550  34.307  32.702  1.00  0.00     0.040 A 
ATOM     84  F   UNL A   1      44.071  32.081  33.269  1.00  0.00    -0.206 F 
ATOM     85  C   UNL A   1      44.849  35.275  31.744  1.00  0.00     0.006 A 
ENDBRANCH  61  78
ENDBRANCH  35  36
ENDBRANCH  27  30
ENDBRANCH  25  26
ENDBRANCH   1  25
TORSDOF 12
ENDMDL
MODEL 3
REMARK VINA RESULT:     -11.5      3.252      8.420
REMARK SMILES Cc1sc(NC(=O)c2ccc(Br)nc2)c(C(=O)NCCCNC(=O)c2ccc(-c3c4nc(c(-c5c(F)cccc5F)c5ccc([nH]5)c(-c5c(F)cccc5F)c5nc(c(-c6c(F)cccc6F)c6ccc3[nH]6)C=C5)C=C4)cc2)c1C
REMARK SMILES IDX 20 1 19 2 18 3 16 4 17 5 15 7 1 8 2 9 3 10 79 11 4 12 80 13
REMARK SMILES IDX 5 14 6 15 7 17 8 18 9 19 14 20 10 21 13 22 11 23 12 24 21 25
REMARK SMILES IDX 22 26 23 27 24 29 25 30 26 31 78 32 27 33 77 34 28 35 29 36
REMARK SMILES IDX 30 37 71 38 31 39 76 40 70 41 72 42 32 43 75 44 69 45 68 46
REMARK SMILES IDX 33 48 59 49 42 50 58 51 43 52 46 53 57 54 73 55 44 56 45 57
REMARK SMILES IDX 56 59 74 60 47 61 34 62 35 63 40 64 36 65 37 66 39 67 41 68
REMARK SMILES IDX 38 69 60 70 61 71 66 72 62 73 63 74 65 75 67 76 64 77 48 78
REMARK SMILES IDX 49 79 54 80 50 81 51 82 53 83 55 84 52 85
REMARK H PARENT 18 6 5 16 22 28 72 47 46 58
REMARK Flexibility Score: inf
ROOT
ATOM      1  C   UNL A   1      32.212  30.402  26.936  1.00  0.00     0.042 C 
ENDROOT
BRANCH   1   2
ATOM      2  C   UNL A   1      32.701  28.991  27.221  1.00  0.00     0.118 C 
BRANCH   2   3
ATOM      3  N   UNL A   1      33.480  28.411  26.141  1.00  0.00    -0.352 N 
ATOM      4  C   UNL A   1      33.066  27.599  25.111  1.00  0.00     0.254 C 
ATOM      5  O   UNL A   1      33.932  27.082  24.406  1.00  0.00    -0.269 OA
ATOM      6  H   UNL A   1      34.440  28.630  26.148  1.00  0.00     0.163 HD
BRANCH   4   7
ATOM      7  C   UNL A   1      31.642  27.312  24.927  1.00  0.00     0.077 A 
ATOM      8  C   UNL A   1      28.450  27.924  22.950  1.00  0.00     0.057 C 
ATOM      9  C   UNL A   1      29.562  27.501  23.852  1.00  0.00     0.007 A 
ATOM     10  S   UNL A   1      29.427  26.037  24.720  1.00  0.00    -0.122 S 
ATOM     11  C   UNL A   1      30.750  28.157  24.140  1.00  0.00    -0.022 A 
ATOM     12  C   UNL A   1      30.896  26.317  25.533  1.00  0.00     0.109 A 
ATOM     13  C   UNL A   1      31.107  29.535  23.671  1.00  0.00     0.046 C 
BRANCH  12  14
ATOM     14  N   UNL A   1      31.053  25.465  26.603  1.00  0.00    -0.313 N 
ATOM     15  C   UNL A   1      31.790  24.304  26.682  1.00  0.00     0.257 C 
ATOM     16  H   UNL A   1      30.573  25.721  27.424  1.00  0.00     0.171 HD
ATOM     17  O   UNL A   1      31.526  23.475  27.551  1.00  0.00    -0.269 OA
BRANCH  15  18
ATOM     18  C   UNL A   1      32.905  24.028  25.758  1.00  0.00     0.058 A 
ATOM     19  C   UNL A   1      32.716  23.558  24.459  1.00  0.00     0.018 A 
ATOM     20  C   UNL A   1      34.205  24.233  26.200  1.00  0.00     0.126 A 
ATOM     21  C   UNL A   1      33.830  23.202  23.700  1.00  0.00     0.037 A 
ATOM     22  N   UNL A   1      35.305  23.894  25.485  1.00  0.00    -0.249 NA
ATOM     23  C   UNL A   1      35.092  23.362  24.260  1.00  0.00     0.106 A 
ATOM     24  Br  UNL A   1      36.608  22.796  23.273  1.00  0.00    -0.029 Br
ENDBRANCH  15  18
ENDBRANCH  12  14
ENDBRANCH   4   7
ENDBRANCH   2   3
ENDBRANCH   1   2
BRANCH   1  25
ATOM     25  C   UNL A   1      33.187  31.520  27.289  1.00  0.00     0.118 C 
BRANCH  25  26
ATOM     26  N   UNL A   1      32.594  32.794  27.669  1.00  0.00    -0.352 N 
ATOM     27  C   UNL A   1      33.170  33.852  28.345  1.00  0.00     0.251 C 
ATOM     28  H   UNL A   1      31.652  32.919  27.408  1.00  0.00     0.163 HD
ATOM     29  O   UNL A   1      32.545  34.894  28.516  1.00  0.00    -0.269 OA
BRANCH  27  30
ATOM     30  C   UNL A   1      34.508  33.699  28.965  1.00  0.00     0.039 A 
ATOM     31  C   UNL A   1      34.591  32.998  30.173  1.00  0.00     0.014 A 
ATOM     32  C   UNL A   1      35.672  34.126  28.328  1.00  0.00     0.014 A 
ATOM     33  C   UNL A   1      35.836  32.600  30.658  1.00  0.00     0.010 A 
ATOM     34  C   UNL A   1      36.906  33.639  28.756  1.00  0.00     0.010 A 
ATOM     35  C   UNL A   1      36.998  32.841  29.906  1.00  0.00    -0.014 A 
BRANCH  35  36
ATOM     36  C   UNL A   1      38.289  32.202  30.273  1.00  0.00     0.031 A 
ATOM     37  C   UNL A   1      39.238  32.870  31.227  1.00  0.00     0.074 A 
ATOM     38  C   UNL A   1      38.645  31.046  29.676  1.00  0.00     0.049 A 
ATOM     39  N   UNL A   1      40.423  32.476  31.624  1.00  0.00    -0.248 NA
ATOM     40  C   UNL A   1      38.822  34.168  31.779  1.00  0.00     0.031 C 
ATOM     41  C   UNL A   1      37.862  30.335  28.661  1.00  0.00     0.029 A 
ATOM     42  N   UNL A   1      39.762  30.261  29.836  1.00  0.00    -0.354 N 
ATOM     43  C   UNL A   1      40.901  33.486  32.448  1.00  0.00     0.074 A 
ATOM     44  C   UNL A   1      39.902  34.533  32.454  1.00  0.00     0.031 C 
ATOM     45  C   UNL A   1      38.497  29.200  28.325  1.00  0.00     0.029 A 
ATOM     46  C   UNL A   1      39.744  29.116  29.075  1.00  0.00     0.049 A 
ATOM     47  H   UNL A   1      40.504  30.496  30.437  1.00  0.00     0.167 HD
ATOM     48  C   UNL A   1      42.052  33.527  33.160  1.00  0.00     0.037 A 
ATOM     49  C   UNL A   1      40.627  28.103  29.001  1.00  0.00     0.037 A 
ATOM     50  C   UNL A   1      43.026  32.468  33.193  1.00  0.00     0.049 A 
ATOM     51  C   UNL A   1      41.862  28.138  29.854  1.00  0.00     0.074 A 
ATOM     52  C   UNL A   1      44.192  32.389  33.937  1.00  0.00     0.029 A 
ATOM     53  N   UNL A   1      42.943  31.298  32.455  1.00  0.00    -0.354 N 
ATOM     54  N   UNL A   1      42.263  29.067  30.686  1.00  0.00    -0.248 NA
ATOM     55  C   UNL A   1      42.762  26.979  29.764  1.00  0.00     0.031 C 
ATOM     56  C   UNL A   1      44.823  31.178  33.632  1.00  0.00     0.029 A 
ATOM     57  C   UNL A   1      44.036  30.491  32.723  1.00  0.00     0.049 A 
ATOM     58  H   UNL A   1      42.214  31.074  31.832  1.00  0.00     0.167 HD
ATOM     59  C   UNL A   1      43.446  28.596  31.239  1.00  0.00     0.074 A 
ATOM     60  C   UNL A   1      43.690  27.292  30.658  1.00  0.00     0.031 C 
ATOM     61  C   UNL A   1      44.259  29.192  32.144  1.00  0.00     0.037 A 
BRANCH  48  62
ATOM     62  C   UNL A   1      42.305  34.759  33.977  1.00  0.00     0.057 A 
ATOM     63  C   UNL A   1      41.926  34.838  35.324  1.00  0.00     0.134 A 
ATOM     64  C   UNL A   1      42.944  35.873  33.419  1.00  0.00     0.134 A 
ATOM     65  F   UNL A   1      41.297  33.810  35.914  1.00  0.00    -0.206 F 
ATOM     66  C   UNL A   1      42.142  35.993  36.078  1.00  0.00     0.040 A 
ATOM     67  C   UNL A   1      43.189  37.025  34.170  1.00  0.00     0.040 A 
ATOM     68  F   UNL A   1      43.338  35.861  32.137  1.00  0.00    -0.206 F 
ATOM     69  C   UNL A   1      42.780  37.088  35.501  1.00  0.00     0.006 A 
ENDBRANCH  48  62
BRANCH  49  70
ATOM     70  C   UNL A   1      40.349  26.937  28.126  1.00  0.00     0.057 A 
ATOM     71  C   UNL A   1      40.925  26.845  26.852  1.00  0.00     0.134 A 
ATOM     72  C   UNL A   1      39.502  25.899  28.529  1.00  0.00     0.134 A 
ATOM     73  F   UNL A   1      41.731  27.818  26.405  1.00  0.00    -0.206 F 
ATOM     74  C   UNL A   1      40.651  25.772  26.003  1.00  0.00     0.040 A 
ATOM     75  C   UNL A   1      39.236  24.810  27.697  1.00  0.00     0.040 A 
ATOM     76  F   UNL A   1      38.928  25.926  29.740  1.00  0.00    -0.206 F 
ATOM     77  C   UNL A   1      39.807  24.748  26.427  1.00  0.00     0.006 A 
ENDBRANCH  49  70
BRANCH  61  78
ATOM     78  C   UNL A   1      45.470  28.423  32.580  1.00  0.00     0.057 A 
ATOM     79  C   UNL A   1      46.699  28.548  31.922  1.00  0.00     0.134 A 
ATOM     80  C   UNL A   1      45.406  27.560  33.681  1.00  0.00     0.134 A 
ATOM     81  F   UNL A   1      46.819  29.348  30.852  1.00  0.00    -0.206 F 
ATOM     82  C   UNL A   1      47.820  27.824  32.331  1.00  0.00     0.040 A 
ATOM     83  C   UNL A   1      46.525  26.847  34.111  1.00  0.00     0.040 A 
ATOM     84  F   UNL A   1      44.257  27.399  34.356  1.00  0.00    -0.206 F 
ATOM     85  C   UNL A   1      47.735  26.973  33.432  1.00  0.00     0.006 A 
ENDBRANCH  61  78
ENDBRANCH  35  36
ENDBRANCH  27  30
ENDBRANCH  25  26
ENDBRANCH   1  25
TORSDOF 12
ENDMDL
