MODEL 1
REMARK VINA RESULT:     -13.4      0.000      0.000
REMARK SMILES Cc1ccc(C)c([C@H]2[NH2+][C@@H](C(=O)NCCCNC(=O)c3ccc(-c4c5nc(c(-c6c(F)cccc6F)c6ccc([nH]6)c(-c6c(F)cccc6F)c6nc(c(-c7c(F)cccc7F)c7ccc4[nH]7)C=C6)C=C5)cc3)Cc3c2[nH]c2ccccc32)c1
REMARK SMILES IDX 15 1 14 2 13 3 11 4 12 5 10 7 8 8 9 9 76 10 75 13 77 14
REMARK SMILES IDX 74 15 83 16 78 17 82 19 79 20 81 21 80 22 7 23 1 24 2 25
REMARK SMILES IDX 3 26 84 27 4 28 5 29 6 30 16 31 17 32 18 33 19 35 20 36
REMARK SMILES IDX 21 37 73 38 22 39 72 40 23 41 24 42 25 43 66 44 26 45 71 46
REMARK SMILES IDX 65 47 67 48 27 49 70 50 64 51 63 52 28 54 54 55 37 56 53 57
REMARK SMILES IDX 38 58 41 59 52 60 68 61 39 62 40 63 51 65 69 66 42 67 29 68
REMARK SMILES IDX 30 69 35 70 31 71 32 72 34 73 36 74 33 75 55 76 56 77 61 78
REMARK SMILES IDX 57 79 58 80 60 81 62 82 59 83 43 84 44 85 49 86 45 87 46 88
REMARK SMILES IDX 48 89 50 90 47 91
REMARK H PARENT 13 6 9 11 9 12 77 18 17 34 67 53 41 64
REMARK Flexibility Score: inf
ROOT
ATOM      1  C   UNL A   1      41.158  21.228  26.085  1.00  0.00     0.042 C 
ENDROOT
BRANCH   1   2
ATOM      2  C   UNL A   1      39.619  21.302  26.154  1.00  0.00     0.118 C 
BRANCH   2   3
ATOM      3  N   UNL A   1      39.119  22.622  26.537  1.00  0.00    -0.351 N 
ATOM      4  C   UNL A   1      38.045  23.370  26.174  1.00  0.00     0.278 C 
ATOM      5  O   UNL A   1      37.922  24.449  26.774  1.00  0.00    -0.268 OA
ATOM      6  H   UNL A   1      39.687  23.068  27.208  1.00  0.00     0.163 HD
BRANCH   4   7
ATOM      7  C   UNL A   1      36.933  22.932  25.202  1.00  0.00     0.277 C 
ATOM      8  C   UNL A   1      34.994  23.972  23.986  1.00  0.00     0.262 C 
ATOM      9  N   UNL A   1      36.065  24.108  24.999  1.00  0.00    -0.325 N 
ATOM     10  C   UNL A   1      34.408  22.574  24.054  1.00  0.00     0.083 A 
ATOM     11  H   UNL A   1      35.622  24.323  25.892  1.00  0.00     0.347 HD
ATOM     12  H   UNL A   1      36.681  24.840  24.645  1.00  0.00     0.347 HD
ATOM     13  C   UNL A   1      34.970  21.516  24.741  1.00  0.00    -0.006 A 
ATOM     14  N   UNL A   1      33.319  22.064  23.382  1.00  0.00    -0.353 N 
ATOM     15  C   UNL A   1      36.165  21.675  25.588  1.00  0.00     0.114 C 
ATOM     16  C   UNL A   1      34.190  20.361  24.553  1.00  0.00     0.003 A 
ATOM     17  C   UNL A   1      33.154  20.719  23.694  1.00  0.00     0.046 A 
ATOM     18  H   UNL A   1      32.742  22.577  22.771  1.00  0.00     0.166 HD
ATOM     19  C   UNL A   1      34.280  19.047  25.052  1.00  0.00     0.010 A 
ATOM     20  C   UNL A   1      32.188  19.783  23.300  1.00  0.00     0.026 A 
ATOM     21  C   UNL A   1      33.321  18.111  24.675  1.00  0.00     0.001 A 
ATOM     22  C   UNL A   1      32.292  18.477  23.809  1.00  0.00     0.002 A 
BRANCH   8  23
ATOM     23  C   UNL A   1      34.073  25.175  24.241  1.00  0.00     0.019 A 
ATOM     24  C   UNL A   1      33.688  27.954  26.859  1.00  0.00     0.044 C 
ATOM     25  C   UNL A   1      33.541  27.158  25.595  1.00  0.00    -0.051 A 
ATOM     26  C   UNL A   1      32.835  27.707  24.525  1.00  0.00     0.004 A 
ATOM     27  C   UNL A   1      34.163  25.908  25.444  1.00  0.00     0.014 A 
ATOM     28  C   UNL A   1      32.710  26.998  23.335  1.00  0.00     0.004 A 
ATOM     29  C   UNL A   1      33.296  25.728  23.181  1.00  0.00    -0.042 A 
ATOM     30  C   UNL A   1      33.172  25.101  21.814  1.00  0.00     0.045 C 
ENDBRANCH   8  23
ENDBRANCH   4   7
ENDBRANCH   2   3
ENDBRANCH   1   2
BRANCH   1  31
ATOM     31  C   UNL A   1      41.818  19.843  26.214  1.00  0.00     0.118 C 
BRANCH  31  32
ATOM     32  N   UNL A   1      43.055  19.711  25.439  1.00  0.00    -0.352 N 
ATOM     33  C   UNL A   1      43.937  20.654  24.936  1.00  0.00     0.251 C 
ATOM     34  H   UNL A   1      43.305  18.780  25.239  1.00  0.00     0.163 HD
ATOM     35  O   UNL A   1      44.753  20.328  24.090  1.00  0.00    -0.269 OA
BRANCH  33  36
ATOM     36  C   UNL A   1      43.906  22.051  25.427  1.00  0.00     0.039 A 
ATOM     37  C   UNL A   1      43.384  23.099  24.670  1.00  0.00     0.014 A 
ATOM     38  C   UNL A   1      44.419  22.319  26.683  1.00  0.00     0.014 A 
ATOM     39  C   UNL A   1      43.341  24.378  25.232  1.00  0.00     0.010 A 
ATOM     40  C   UNL A   1      44.230  23.516  27.306  1.00  0.00     0.010 A 
ATOM     41  C   UNL A   1      43.758  24.571  26.560  1.00  0.00    -0.014 A 
BRANCH  41  42
ATOM     42  C   UNL A   1      43.590  25.838  27.250  1.00  0.00     0.031 A 
ATOM     43  C   UNL A   1      44.597  26.856  26.877  1.00  0.00     0.074 A 
ATOM     44  C   UNL A   1      42.491  26.179  27.955  1.00  0.00     0.049 A 
ATOM     45  N   UNL A   1      45.585  27.266  27.595  1.00  0.00    -0.248 NA
ATOM     46  C   UNL A   1      44.609  27.361  25.495  1.00  0.00     0.031 C 
ATOM     47  C   UNL A   1      41.223  25.453  28.098  1.00  0.00     0.029 A 
ATOM     48  N   UNL A   1      42.244  27.340  28.618  1.00  0.00    -0.354 N 
ATOM     49  C   UNL A   1      46.213  28.253  26.846  1.00  0.00     0.074 A 
ATOM     50  C   UNL A   1      45.714  28.110  25.503  1.00  0.00     0.031 C 
ATOM     51  C   UNL A   1      40.284  26.283  28.603  1.00  0.00     0.029 A 
ATOM     52  C   UNL A   1      40.916  27.536  28.972  1.00  0.00     0.049 A 
ATOM     53  H   UNL A   1      42.952  27.991  28.830  1.00  0.00     0.167 HD
ATOM     54  C   UNL A   1      46.881  29.266  27.463  1.00  0.00     0.037 A 
ATOM     55  C   UNL A   1      40.380  28.664  29.500  1.00  0.00     0.037 A 
ATOM     56  C   UNL A   1      47.104  28.960  28.860  1.00  0.00     0.049 A 
ATOM     57  C   UNL A   1      41.501  29.474  30.047  1.00  0.00     0.074 A 
ATOM     58  C   UNL A   1      47.682  27.902  29.539  1.00  0.00     0.029 A 
ATOM     59  N   UNL A   1      46.334  29.615  29.792  1.00  0.00    -0.354 N 
ATOM     60  N   UNL A   1      42.191  29.146  31.103  1.00  0.00    -0.248 NA
ATOM     61  C   UNL A   1      42.152  30.417  29.148  1.00  0.00     0.031 C 
ATOM     62  C   UNL A   1      46.833  27.682  30.665  1.00  0.00     0.029 A 
ATOM     63  C   UNL A   1      45.847  28.668  30.655  1.00  0.00     0.049 A 
ATOM     64  H   UNL A   1      46.165  30.585  29.831  1.00  0.00     0.167 HD
ATOM     65  C   UNL A   1      43.502  29.461  30.777  1.00  0.00     0.074 A 
ATOM     66  C   UNL A   1      43.403  30.336  29.609  1.00  0.00     0.031 C 
ATOM     67  C   UNL A   1      44.551  28.752  31.289  1.00  0.00     0.037 A 
BRANCH  54  68
ATOM     68  C   UNL A   1      46.981  30.677  26.931  1.00  0.00     0.057 A 
ATOM     69  C   UNL A   1      48.228  31.328  26.979  1.00  0.00     0.134 A 
ATOM     70  C   UNL A   1      45.884  31.516  26.652  1.00  0.00     0.134 A 
ATOM     71  F   UNL A   1      49.354  30.644  27.237  1.00  0.00    -0.206 F 
ATOM     72  C   UNL A   1      48.357  32.717  26.861  1.00  0.00     0.040 A 
ATOM     73  C   UNL A   1      46.009  32.897  26.476  1.00  0.00     0.040 A 
ATOM     74  F   UNL A   1      44.621  31.078  26.633  1.00  0.00    -0.206 F 
ATOM     75  C   UNL A   1      47.243  33.508  26.619  1.00  0.00     0.006 A 
ENDBRANCH  54  68
BRANCH  55  76
ATOM     76  C   UNL A   1      39.006  29.201  29.378  1.00  0.00     0.057 A 
ATOM     77  C   UNL A   1      38.467  29.529  28.124  1.00  0.00     0.134 A 
ATOM     78  C   UNL A   1      38.093  29.155  30.445  1.00  0.00     0.134 A 
ATOM     79  F   UNL A   1      39.249  29.565  27.035  1.00  0.00    -0.206 F 
ATOM     80  C   UNL A   1      37.099  29.764  27.938  1.00  0.00     0.040 A 
ATOM     81  C   UNL A   1      36.726  29.399  30.275  1.00  0.00     0.040 A 
ATOM     82  F   UNL A   1      38.479  28.783  31.673  1.00  0.00    -0.206 F 
ATOM     83  C   UNL A   1      36.221  29.688  29.013  1.00  0.00     0.006 A 
ENDBRANCH  55  76
BRANCH  67  84
ATOM     84  C   UNL A   1      44.294  27.812  32.436  1.00  0.00     0.057 A 
ATOM     85  C   UNL A   1      43.983  26.451  32.299  1.00  0.00     0.134 A 
ATOM     86  C   UNL A   1      44.513  28.278  33.739  1.00  0.00     0.134 A 
ATOM     87  F   UNL A   1      43.861  25.879  31.094  1.00  0.00    -0.206 F 
ATOM     88  C   UNL A   1      43.844  25.609  33.408  1.00  0.00     0.040 A 
ATOM     89  C   UNL A   1      44.417  27.439  34.852  1.00  0.00     0.040 A 
ATOM     90  F   UNL A   1      44.869  29.555  33.951  1.00  0.00    -0.206 F 
ATOM     91  C   UNL A   1      44.068  26.102  34.690  1.00  0.00     0.006 A 
ENDBRANCH  67  84
ENDBRANCH  41  42
ENDBRANCH  33  36
ENDBRANCH  31  32
ENDBRANCH   1  31
TORSDOF 11
ENDMDL
MODEL 2
REMARK VINA RESULT:     -13.1      2.650      5.020
REMARK SMILES Cc1ccc(C)c([C@H]2[NH2+][C@@H](C(=O)NCCCNC(=O)c3ccc(-c4c5nc(c(-c6c(F)cccc6F)c6ccc([nH]6)c(-c6c(F)cccc6F)c6nc(c(-c7c(F)cccc7F)c7ccc4[nH]7)C=C6)C=C5)cc3)Cc3c2[nH]c2ccccc32)c1
REMARK SMILES IDX 15 1 14 2 13 3 11 4 12 5 10 7 8 8 9 9 76 10 75 13 77 14
REMARK SMILES IDX 74 15 83 16 78 17 82 19 79 20 81 21 80 22 7 23 1 24 2 25
REMARK SMILES IDX 3 26 84 27 4 28 5 29 6 30 16 31 17 32 18 33 19 35 20 36
REMARK SMILES IDX 21 37 73 38 22 39 72 40 23 41 24 42 25 43 66 44 26 45 71 46
REMARK SMILES IDX 65 47 67 48 27 49 70 50 64 51 63 52 28 54 54 55 37 56 53 57
REMARK SMILES IDX 38 58 41 59 52 60 68 61 39 62 40 63 51 65 69 66 42 67 29 68
REMARK SMILES IDX 30 69 35 70 31 71 32 72 34 73 36 74 33 75 55 76 56 77 61 78
REMARK SMILES IDX 57 79 58 80 60 81 62 82 59 83 43 84 44 85 49 86 45 87 46 88
REMARK SMILES IDX 48 89 50 90 47 91
REMARK H PARENT 13 6 9 11 9 12 77 18 17 34 67 53 41 64
REMARK Flexibility Score: inf
ROOT
ATOM      1  C   UNL A   1      36.327  22.131  25.807  1.00  0.00     0.042 C 
ENDROOT
BRANCH   1   2
ATOM      2  C   UNL A   1      35.263  23.244  25.907  1.00  0.00     0.118 C 
BRANCH   2   3
ATOM      3  N   UNL A   1      34.533  23.461  24.658  1.00  0.00    -0.351 N 
ATOM      4  C   UNL A   1      33.636  24.388  24.235  1.00  0.00     0.278 C 
ATOM      5  O   UNL A   1      33.267  24.272  23.056  1.00  0.00    -0.268 OA
ATOM      6  H   UNL A   1      34.738  22.785  23.972  1.00  0.00     0.163 HD
BRANCH   4   7
ATOM      7  C   UNL A   1      33.160  25.611  25.042  1.00  0.00     0.277 C 
ATOM      8  C   UNL A   1      31.332  27.333  24.927  1.00  0.00     0.262 C 
ATOM      9  N   UNL A   1      32.051  26.214  24.278  1.00  0.00    -0.325 N 
ATOM     10  C   UNL A   1      32.324  28.203  25.676  1.00  0.00     0.083 A 
ATOM     11  H   UNL A   1      32.433  26.559  23.398  1.00  0.00     0.347 HD
ATOM     12  H   UNL A   1      31.359  25.470  24.176  1.00  0.00     0.347 HD
ATOM     13  C   UNL A   1      33.631  27.853  25.950  1.00  0.00    -0.006 A 
ATOM     14  N   UNL A   1      32.105  29.406  26.310  1.00  0.00    -0.353 N 
ATOM     15  C   UNL A   1      34.238  26.614  25.431  1.00  0.00     0.114 C 
ATOM     16  C   UNL A   1      34.248  28.872  26.698  1.00  0.00     0.003 A 
ATOM     17  C   UNL A   1      33.276  29.843  26.920  1.00  0.00     0.046 A 
ATOM     18  H   UNL A   1      31.245  29.886  26.330  1.00  0.00     0.166 HD
ATOM     19  C   UNL A   1      35.555  29.045  27.193  1.00  0.00     0.010 A 
ATOM     20  C   UNL A   1      33.570  31.006  27.645  1.00  0.00     0.026 A 
ATOM     21  C   UNL A   1      35.862  30.199  27.908  1.00  0.00     0.001 A 
ATOM     22  C   UNL A   1      34.881  31.163  28.131  1.00  0.00     0.002 A 
BRANCH   8  23
ATOM     23  C   UNL A   1      30.501  27.960  23.796  1.00  0.00     0.019 A 
ATOM     24  C   UNL A   1      26.814  28.742  23.080  1.00  0.00     0.044 C 
ATOM     25  C   UNL A   1      28.311  28.730  22.984  1.00  0.00    -0.051 A 
ATOM     26  C   UNL A   1      28.941  29.577  22.072  1.00  0.00     0.004 A 
ATOM     27  C   UNL A   1      29.091  27.940  23.844  1.00  0.00     0.014 A 
ATOM     28  C   UNL A   1      30.329  29.602  21.986  1.00  0.00     0.004 A 
ATOM     29  C   UNL A   1      31.122  28.788  22.816  1.00  0.00    -0.042 A 
ATOM     30  C   UNL A   1      32.615  28.974  22.695  1.00  0.00     0.045 C 
ENDBRANCH   8  23
ENDBRANCH   4   7
ENDBRANCH   2   3
ENDBRANCH   1   2
BRANCH   1  31
ATOM     31  C   UNL A   1      37.772  22.545  25.477  1.00  0.00     0.118 C 
BRANCH  31  32
ATOM     32  N   UNL A   1      38.782  21.797  26.232  1.00  0.00    -0.352 N 
ATOM     33  C   UNL A   1      39.902  22.206  26.937  1.00  0.00     0.251 C 
ATOM     34  H   UNL A   1      38.637  20.823  26.237  1.00  0.00     0.163 HD
ATOM     35  O   UNL A   1      40.748  21.387  27.256  1.00  0.00    -0.269 OA
BRANCH  33  36
ATOM     36  C   UNL A   1      40.075  23.627  27.316  1.00  0.00     0.039 A 
ATOM     37  C   UNL A   1      39.065  24.574  27.153  1.00  0.00     0.014 A 
ATOM     38  C   UNL A   1      41.288  24.024  27.849  1.00  0.00     0.014 A 
ATOM     39  C   UNL A   1      39.292  25.881  27.591  1.00  0.00     0.010 A 
ATOM     40  C   UNL A   1      41.464  25.243  28.431  1.00  0.00     0.010 A 
ATOM     41  C   UNL A   1      40.495  26.201  28.241  1.00  0.00    -0.014 A 
BRANCH  41  42
ATOM     42  C   UNL A   1      40.726  27.495  28.857  1.00  0.00     0.031 A 
ATOM     43  C   UNL A   1      41.833  28.259  28.241  1.00  0.00     0.074 A 
ATOM     44  C   UNL A   1      39.872  28.090  29.718  1.00  0.00     0.049 A 
ATOM     45  N   UNL A   1      43.001  28.469  28.742  1.00  0.00    -0.248 NA
ATOM     46  C   UNL A   1      41.689  28.704  26.845  1.00  0.00     0.031 C 
ATOM     47  C   UNL A   1      38.532  27.660  30.134  1.00  0.00     0.029 A 
ATOM     48  N   UNL A   1      39.999  29.297  30.329  1.00  0.00    -0.354 N 
ATOM     49  C   UNL A   1      43.667  29.272  27.826  1.00  0.00     0.074 A 
ATOM     50  C   UNL A   1      42.907  29.196  26.605  1.00  0.00     0.031 C 
ATOM     51  C   UNL A   1      37.896  28.690  30.736  1.00  0.00     0.029 A 
ATOM     52  C   UNL A   1      38.831  29.787  30.897  1.00  0.00     0.049 A 
ATOM     53  H   UNL A   1      40.854  29.786  30.366  1.00  0.00     0.167 HD
ATOM     54  C   UNL A   1      44.635  30.136  28.240  1.00  0.00     0.037 A 
ATOM     55  C   UNL A   1      38.649  31.022  31.429  1.00  0.00     0.037 A 
ATOM     56  C   UNL A   1      45.047  29.834  29.594  1.00  0.00     0.049 A 
ATOM     57  C   UNL A   1      39.995  31.587  31.710  1.00  0.00     0.074 A 
ATOM     58  C   UNL A   1      45.510  28.698  30.235  1.00  0.00     0.029 A 
ATOM     59  N   UNL A   1      44.618  30.671  30.599  1.00  0.00    -0.354 N 
ATOM     60  N   UNL A   1      40.788  31.152  32.649  1.00  0.00    -0.248 NA
ATOM     61  C   UNL A   1      40.647  32.337  30.645  1.00  0.00     0.031 C 
ATOM     62  C   UNL A   1      44.861  28.705  31.506  1.00  0.00     0.029 A 
ATOM     63  C   UNL A   1      44.116  29.880  31.600  1.00  0.00     0.049 A 
ATOM     64  H   UNL A   1      44.663  31.654  30.597  1.00  0.00     0.167 HD
ATOM     65  C   UNL A   1      42.050  31.165  32.075  1.00  0.00     0.074 A 
ATOM     66  C   UNL A   1      41.917  32.002  30.884  1.00  0.00     0.031 C 
ATOM     67  C   UNL A   1      43.008  30.263  32.444  1.00  0.00     0.037 A 
BRANCH  54  68
ATOM     68  C   UNL A   1      44.923  31.473  27.599  1.00  0.00     0.057 A 
ATOM     69  C   UNL A   1      46.150  31.651  26.934  1.00  0.00     0.134 A 
ATOM     70  C   UNL A   1      44.205  32.661  27.847  1.00  0.00     0.134 A 
ATOM     71  F   UNL A   1      46.932  30.601  26.639  1.00  0.00    -0.206 F 
ATOM     72  C   UNL A   1      46.667  32.916  26.632  1.00  0.00     0.040 A 
ATOM     73  C   UNL A   1      44.686  33.926  27.499  1.00  0.00     0.040 A 
ATOM     74  F   UNL A   1      43.053  32.684  28.525  1.00  0.00    -0.206 F 
ATOM     75  C   UNL A   1      45.938  34.060  26.924  1.00  0.00     0.006 A 
ENDBRANCH  54  68
BRANCH  55  76
ATOM     76  C   UNL A   1      37.417  31.838  31.512  1.00  0.00     0.057 A 
ATOM     77  C   UNL A   1      36.720  31.973  32.722  1.00  0.00     0.134 A 
ATOM     78  C   UNL A   1      37.039  32.719  30.484  1.00  0.00     0.134 A 
ATOM     79  F   UNL A   1      37.029  31.204  33.776  1.00  0.00    -0.206 F 
ATOM     80  C   UNL A   1      35.731  32.948  32.910  1.00  0.00     0.040 A 
ATOM     81  C   UNL A   1      36.045  33.689  30.654  1.00  0.00     0.040 A 
ATOM     82  F   UNL A   1      37.683  32.731  29.309  1.00  0.00    -0.206 F 
ATOM     83  C   UNL A   1      35.399  33.818  31.877  1.00  0.00     0.006 A 
ENDBRANCH  55  76
BRANCH  67  84
ATOM     84  C   UNL A   1      42.781  29.438  33.683  1.00  0.00     0.057 A 
ATOM     85  C   UNL A   1      42.034  28.252  33.728  1.00  0.00     0.134 A 
ATOM     86  C   UNL A   1      43.472  29.789  34.850  1.00  0.00     0.134 A 
ATOM     87  F   UNL A   1      41.424  27.768  32.637  1.00  0.00    -0.206 F 
ATOM     88  C   UNL A   1      41.936  27.483  34.893  1.00  0.00     0.040 A 
ATOM     89  C   UNL A   1      43.415  29.010  36.008  1.00  0.00     0.040 A 
ATOM     90  F   UNL A   1      44.253  30.880  34.873  1.00  0.00    -0.206 F 
ATOM     91  C   UNL A   1      42.634  27.858  36.036  1.00  0.00     0.006 A 
ENDBRANCH  67  84
ENDBRANCH  41  42
ENDBRANCH  33  36
ENDBRANCH  31  32
ENDBRANCH   1  31
TORSDOF 11
ENDMDL
MODEL 3
REMARK VINA RESULT:     -13.1      6.619     11.222
REMARK SMILES Cc1ccc(C)c([C@H]2[NH2+][C@@H](C(=O)NCCCNC(=O)c3ccc(-c4c5nc(c(-c6c(F)cccc6F)c6ccc([nH]6)c(-c6c(F)cccc6F)c6nc(c(-c7c(F)cccc7F)c7ccc4[nH]7)C=C6)C=C5)cc3)Cc3c2[nH]c2ccccc32)c1
REMARK SMILES IDX 15 1 14 2 13 3 11 4 12 5 10 7 8 8 9 9 76 10 75 13 77 14
REMARK SMILES IDX 74 15 83 16 78 17 82 19 79 20 81 21 80 22 7 23 1 24 2 25
REMARK SMILES IDX 3 26 84 27 4 28 5 29 6 30 16 31 17 32 18 33 19 35 20 36
REMARK SMILES IDX 21 37 73 38 22 39 72 40 23 41 24 42 25 43 66 44 26 45 71 46
REMARK SMILES IDX 65 47 67 48 27 49 70 50 64 51 63 52 28 54 54 55 37 56 53 57
REMARK SMILES IDX 38 58 41 59 52 60 68 61 39 62 40 63 51 65 69 66 42 67 29 68
REMARK SMILES IDX 30 69 35 70 31 71 32 72 34 73 36 74 33 75 55 76 56 77 61 78
REMARK SMILES IDX 57 79 58 80 60 81 62 82 59 83 43 84 44 85 49 86 45 87 46 88
REMARK SMILES IDX 48 89 50 90 47 91
REMARK H PARENT 13 6 9 11 9 12 77 18 17 34 67 53 41 64
REMARK Flexibility Score: inf
ROOT
ATOM      1  C   UNL A   1      33.944  37.497  32.510  1.00  0.00     0.042 C 
ENDROOT
BRANCH   1   2
ATOM      2  C   UNL A   1      32.904  37.078  31.450  1.00  0.00     0.118 C 
BRANCH   2   3
ATOM      3  N   UNL A   1      33.365  37.275  30.076  1.00  0.00    -0.351 N 
ATOM      4  C   UNL A   1      33.744  36.438  29.076  1.00  0.00     0.278 C 
ATOM      5  O   UNL A   1      34.028  36.989  28.001  1.00  0.00    -0.268 OA
ATOM      6  H   UNL A   1      33.410  38.224  29.819  1.00  0.00     0.163 HD
BRANCH   4   7
ATOM      7  C   UNL A   1      33.721  34.898  29.136  1.00  0.00     0.277 C 
ATOM      8  C   UNL A   1      35.303  33.024  29.687  1.00  0.00     0.262 C 
ATOM      9  N   UNL A   1      35.100  34.469  29.441  1.00  0.00    -0.325 N 
ATOM     10  C   UNL A   1      34.429  32.222  28.741  1.00  0.00     0.083 A 
ATOM     11  H   UNL A   1      35.688  34.735  28.652  1.00  0.00     0.347 HD
ATOM     12  H   UNL A   1      35.338  34.930  30.320  1.00  0.00     0.347 HD
ATOM     13  C   UNL A   1      33.404  32.746  27.979  1.00  0.00    -0.006 A 
ATOM     14  N   UNL A   1      34.398  30.859  28.546  1.00  0.00    -0.353 N 
ATOM     15  C   UNL A   1      33.124  34.192  27.927  1.00  0.00     0.114 C 
ATOM     16  C   UNL A   1      32.777  31.717  27.254  1.00  0.00     0.003 A 
ATOM     17  C   UNL A   1      33.411  30.533  27.622  1.00  0.00     0.046 A 
ATOM     18  H   UNL A   1      34.988  30.211  28.995  1.00  0.00     0.166 HD
ATOM     19  C   UNL A   1      31.730  31.702  26.313  1.00  0.00     0.010 A 
ATOM     20  C   UNL A   1      33.019  29.304  27.073  1.00  0.00     0.026 A 
ATOM     21  C   UNL A   1      31.337  30.489  25.755  1.00  0.00     0.001 A 
ATOM     22  C   UNL A   1      31.972  29.308  26.134  1.00  0.00     0.002 A 
BRANCH   8  23
ATOM     23  C   UNL A   1      36.827  32.837  29.628  1.00  0.00     0.019 A 
ATOM     24  C   UNL A   1      39.943  35.033  29.195  1.00  0.00     0.044 C 
ATOM     25  C   UNL A   1      39.061  33.858  29.498  1.00  0.00    -0.051 A 
ATOM     26  C   UNL A   1      39.623  32.713  30.062  1.00  0.00     0.004 A 
ATOM     27  C   UNL A   1      37.672  33.918  29.297  1.00  0.00     0.014 A 
ATOM     28  C   UNL A   1      38.819  31.623  30.376  1.00  0.00     0.004 A 
ATOM     29  C   UNL A   1      37.431  31.654  30.146  1.00  0.00    -0.042 A 
ATOM     30  C   UNL A   1      36.654  30.449  30.617  1.00  0.00     0.045 C 
ENDBRANCH   8  23
ENDBRANCH   4   7
ENDBRANCH   2   3
ENDBRANCH   1   2
BRANCH   1  31
ATOM     31  C   UNL A   1      34.369  36.449  33.554  1.00  0.00     0.118 C 
BRANCH  31  32
ATOM     32  N   UNL A   1      33.691  35.159  33.397  1.00  0.00    -0.352 N 
ATOM     33  C   UNL A   1      34.168  33.893  33.095  1.00  0.00     0.251 C 
ATOM     34  H   UNL A   1      32.716  35.200  33.529  1.00  0.00     0.163 HD
ATOM     35  O   UNL A   1      33.390  33.021  32.746  1.00  0.00    -0.269 OA
BRANCH  33  36
ATOM     36  C   UNL A   1      35.613  33.589  33.204  1.00  0.00     0.039 A 
ATOM     37  C   UNL A   1      36.601  34.522  32.894  1.00  0.00     0.014 A 
ATOM     38  C   UNL A   1      35.990  32.326  33.627  1.00  0.00     0.014 A 
ATOM     39  C   UNL A   1      37.941  34.170  33.080  1.00  0.00     0.010 A 
ATOM     40  C   UNL A   1      37.273  32.027  33.973  1.00  0.00     0.010 A 
ATOM     41  C   UNL A   1      38.264  32.920  33.633  1.00  0.00    -0.014 A 
BRANCH  41  42
ATOM     42  C   UNL A   1      39.622  32.559  33.996  1.00  0.00     0.031 A 
ATOM     43  C   UNL A   1      40.258  33.506  34.938  1.00  0.00     0.074 A 
ATOM     44  C   UNL A   1      40.184  31.358  33.740  1.00  0.00     0.049 A 
ATOM     45  N   UNL A   1      41.182  34.363  34.669  1.00  0.00    -0.248 NA
ATOM     46  C   UNL A   1      39.696  33.633  36.293  1.00  0.00     0.031 C 
ATOM     47  C   UNL A   1      39.569  30.153  33.171  1.00  0.00     0.029 A 
ATOM     48  N   UNL A   1      41.436  30.932  34.052  1.00  0.00    -0.354 N 
ATOM     49  C   UNL A   1      41.486  34.981  35.874  1.00  0.00     0.074 A 
ATOM     50  C   UNL A   1      40.407  34.658  36.771  1.00  0.00     0.031 C 
ATOM     51  C   UNL A   1      40.374  29.090  33.390  1.00  0.00     0.029 A 
ATOM     52  C   UNL A   1      41.623  29.559  33.960  1.00  0.00     0.049 A 
ATOM     53  H   UNL A   1      42.154  31.548  34.325  1.00  0.00     0.167 HD
ATOM     54  C   UNL A   1      42.734  35.479  36.099  1.00  0.00     0.037 A 
ATOM     55  C   UNL A   1      42.719  28.865  34.356  1.00  0.00     0.037 A 
ATOM     56  C   UNL A   1      43.483  35.564  34.864  1.00  0.00     0.049 A 
ATOM     57  C   UNL A   1      43.837  29.837  34.481  1.00  0.00     0.074 A 
ATOM     58  C   UNL A   1      43.255  36.152  33.631  1.00  0.00     0.029 A 
ATOM     59  N   UNL A   1      44.473  34.634  34.647  1.00  0.00    -0.354 N 
ATOM     60  N   UNL A   1      44.411  30.426  33.469  1.00  0.00    -0.248 NA
ATOM     61  C   UNL A   1      44.013  30.501  35.765  1.00  0.00     0.031 C 
ATOM     62  C   UNL A   1      43.730  35.201  32.679  1.00  0.00     0.029 A 
ATOM     63  C   UNL A   1      44.295  34.137  33.382  1.00  0.00     0.049 A 
ATOM     64  H   UNL A   1      45.179  34.374  35.284  1.00  0.00     0.167 HD
ATOM     65  C   UNL A   1      44.611  31.732  33.890  1.00  0.00     0.074 A 
ATOM     66  C   UNL A   1      44.446  31.691  35.343  1.00  0.00     0.031 C 
ATOM     67  C   UNL A   1      44.594  32.774  33.007  1.00  0.00     0.037 A 
BRANCH  54  68
ATOM     68  C   UNL A   1      43.414  35.513  37.447  1.00  0.00     0.057 A 
ATOM     69  C   UNL A   1      44.062  36.698  37.845  1.00  0.00     0.134 A 
ATOM     70  C   UNL A   1      43.715  34.380  38.230  1.00  0.00     0.134 A 
ATOM     71  F   UNL A   1      43.863  37.848  37.183  1.00  0.00    -0.206 F 
ATOM     72  C   UNL A   1      45.009  36.728  38.875  1.00  0.00     0.040 A 
ATOM     73  C   UNL A   1      44.618  34.412  39.297  1.00  0.00     0.040 A 
ATOM     74  F   UNL A   1      43.241  33.161  37.955  1.00  0.00    -0.206 F 
ATOM     75  C   UNL A   1      45.298  35.579  39.599  1.00  0.00     0.006 A 
ENDBRANCH  54  68
BRANCH  55  76
ATOM     76  C   UNL A   1      42.826  27.472  34.844  1.00  0.00     0.057 A 
ATOM     77  C   UNL A   1      42.022  27.013  35.899  1.00  0.00     0.134 A 
ATOM     78  C   UNL A   1      43.518  26.483  34.123  1.00  0.00     0.134 A 
ATOM     79  F   UNL A   1      41.295  27.873  36.626  1.00  0.00    -0.206 F 
ATOM     80  C   UNL A   1      41.889  25.650  36.197  1.00  0.00     0.040 A 
ATOM     81  C   UNL A   1      43.403  25.120  34.418  1.00  0.00     0.040 A 
ATOM     82  F   UNL A   1      44.257  26.796  33.051  1.00  0.00    -0.206 F 
ATOM     83  C   UNL A   1      42.571  24.698  35.448  1.00  0.00     0.006 A 
ENDBRANCH  55  76
BRANCH  67  84
ATOM     84  C   UNL A   1      44.645  32.470  31.534  1.00  0.00     0.057 A 
ATOM     85  C   UNL A   1      43.526  32.174  30.740  1.00  0.00     0.134 A 
ATOM     86  C   UNL A   1      45.865  32.627  30.865  1.00  0.00     0.134 A 
ATOM     87  F   UNL A   1      42.294  32.112  31.262  1.00  0.00    -0.206 F 
ATOM     88  C   UNL A   1      43.630  31.990  29.356  1.00  0.00     0.040 A 
ATOM     89  C   UNL A   1      45.976  32.485  29.480  1.00  0.00     0.040 A 
ATOM     90  F   UNL A   1      46.972  32.964  31.546  1.00  0.00    -0.206 F 
ATOM     91  C   UNL A   1      44.857  32.152  28.722  1.00  0.00     0.006 A 
ENDBRANCH  67  84
ENDBRANCH  41  42
ENDBRANCH  33  36
ENDBRANCH  31  32
ENDBRANCH   1  31
TORSDOF 11
ENDMDL
