MODEL 1
REMARK VINA RESULT:     -12.2      0.000      0.000
REMARK SMILES CCOc1c(Br)cc(CNc2cccc(C(=O)NCCCNC(=O)c3ccc(-c4c5nc(c(-c6c(F)cccc6F)c6ccc([nH]6)c(-c6c(F)cccc6F)c6nc(c(-c7c(F)cccc7F)c7ccc4[nH]7)C=C6)C=C5)cc3)c2C)cc1OC
REMARK SMILES IDX 16 1 17 2 18 3 15 5 11 6 12 7 79 8 13 9 80 10 14 11 10 12
REMARK SMILES IDX 9 14 8 15 4 16 5 17 82 18 6 19 7 20 81 21 3 22 2 23 1 24
REMARK SMILES IDX 83 25 84 26 19 27 20 28 21 29 22 30 23 31 24 33 25 34 26 35
REMARK SMILES IDX 78 36 27 37 77 38 28 39 29 40 30 41 71 42 31 43 76 44 70 45
REMARK SMILES IDX 72 46 32 47 75 48 69 49 68 50 33 52 59 53 42 54 58 55 43 56
REMARK SMILES IDX 46 57 57 58 73 59 44 60 45 61 56 63 74 64 47 65 34 66 35 67
REMARK SMILES IDX 40 68 36 69 37 70 39 71 41 72 38 73 60 74 61 75 66 76 62 77
REMARK SMILES IDX 63 78 65 79 67 80 64 81 48 82 49 83 54 84 50 85 51 86 53 87
REMARK SMILES IDX 55 88 52 89
REMARK H PARENT 18 4 10 13 22 32 72 51 46 62
REMARK Flexibility Score: inf
ROOT
ATOM      1  C   UNL A   1      35.237  20.441  25.000  1.00  0.00     0.251 C 
ATOM      2  O   UNL A   1      34.955  19.270  24.744  1.00  0.00    -0.269 OA
ATOM      3  N   UNL A   1      36.466  20.850  24.524  1.00  0.00    -0.352 N 
ATOM      4  H   UNL A   1      36.888  20.186  23.932  1.00  0.00     0.163 HD
ENDROOT
BRANCH   1   5
ATOM      5  C   UNL A   1      34.284  21.299  25.800  1.00  0.00     0.044 A 
ATOM      6  C   UNL A   1      32.121  22.458  26.107  1.00  0.00     0.038 A 
ATOM      7  C   UNL A   1      32.496  22.779  27.415  1.00  0.00     0.026 A 
ATOM      8  C   UNL A   1      33.028  21.728  25.277  1.00  0.00    -0.015 A 
ATOM      9  C   UNL A   1      33.714  22.377  27.925  1.00  0.00     0.003 A 
ATOM     10  C   UNL A   1      32.580  21.446  23.857  1.00  0.00     0.047 C 
ATOM     11  C   UNL A   1      34.581  21.639  27.127  1.00  0.00     0.014 A 
BRANCH   6  12
ATOM     12  N   UNL A   1      30.899  22.899  25.616  1.00  0.00    -0.381 N 
ATOM     13  H   UNL A   1      30.506  22.431  24.845  1.00  0.00     0.160 HD
BRANCH  12  14
ATOM     14  C   UNL A   1      30.175  24.017  26.192  1.00  0.00     0.149 C 
BRANCH  14  15
ATOM     15  C   UNL A   1      30.659  25.288  25.538  1.00  0.00    -0.024 A 
ATOM     16  C   UNL A   1      31.670  27.634  24.335  1.00  0.00     0.175 A 
ATOM     17  C   UNL A   1      31.489  27.560  25.727  1.00  0.00     0.064 A 
ATOM     18  C   UNL A   1      31.266  26.553  23.535  1.00  0.00     0.162 A 
ATOM     19  Br  UNL A   1      31.854  29.027  26.880  1.00  0.00    -0.047 Br
ATOM     20  C   UNL A   1      31.009  26.392  26.323  1.00  0.00     0.025 A 
ATOM     21  C   UNL A   1      30.785  25.385  24.148  1.00  0.00     0.056 A 
BRANCH  16  22
ATOM     22  O   UNL A   1      32.188  28.787  23.804  1.00  0.00    -0.489 OA
BRANCH  22  23
ATOM     23  C   UNL A   1      33.625  28.792  23.803  1.00  0.00     0.226 C 
ATOM     24  C   UNL A   1      34.167  28.590  22.400  1.00  0.00     0.049 C 
ENDBRANCH  22  23
ENDBRANCH  16  22
BRANCH  18  25
ATOM     25  O   UNL A   1      31.302  26.445  22.171  1.00  0.00    -0.493 OA
ATOM     26  C   UNL A   1      32.317  25.644  21.586  1.00  0.00     0.278 C 
ENDBRANCH  18  25
ENDBRANCH  14  15
ENDBRANCH  12  14
ENDBRANCH   6  12
ENDBRANCH   1   5
BRANCH   3  27
ATOM     27  C   UNL A   1      37.279  22.045  24.702  1.00  0.00     0.118 C 
BRANCH  27  28
ATOM     28  C   UNL A   1      38.521  21.745  25.551  1.00  0.00     0.042 C 
BRANCH  28  29
ATOM     29  C   UNL A   1      38.927  22.876  26.479  1.00  0.00     0.118 C 
BRANCH  29  30
ATOM     30  N   UNL A   1      40.370  23.064  26.583  1.00  0.00    -0.352 N 
ATOM     31  C   UNL A   1      41.085  24.233  26.811  1.00  0.00     0.251 C 
ATOM     32  H   UNL A   1      40.912  22.249  26.476  1.00  0.00     0.163 HD
ATOM     33  O   UNL A   1      42.291  24.218  26.880  1.00  0.00    -0.269 OA
BRANCH  31  34
ATOM     34  C   UNL A   1      40.323  25.473  27.104  1.00  0.00     0.039 A 
ATOM     35  C   UNL A   1      40.658  26.621  26.380  1.00  0.00     0.014 A 
ATOM     36  C   UNL A   1      39.498  25.552  28.221  1.00  0.00     0.014 A 
ATOM     37  C   UNL A   1      40.388  27.869  26.932  1.00  0.00     0.010 A 
ATOM     38  C   UNL A   1      39.320  26.781  28.820  1.00  0.00     0.010 A 
ATOM     39  C   UNL A   1      39.830  27.931  28.208  1.00  0.00    -0.014 A 
BRANCH  39  40
ATOM     40  C   UNL A   1      39.860  29.138  29.024  1.00  0.00     0.031 A 
ATOM     41  C   UNL A   1      38.796  30.152  28.901  1.00  0.00     0.074 A 
ATOM     42  C   UNL A   1      40.840  29.287  29.945  1.00  0.00     0.049 A 
ATOM     43  N   UNL A   1      38.943  31.398  29.196  1.00  0.00    -0.248 NA
ATOM     44  C   UNL A   1      37.468  29.833  28.390  1.00  0.00     0.031 C 
ATOM     45  C   UNL A   1      40.910  30.282  31.010  1.00  0.00     0.029 A 
ATOM     46  N   UNL A   1      42.098  28.667  29.964  1.00  0.00    -0.354 N 
ATOM     47  C   UNL A   1      37.698  31.984  29.180  1.00  0.00     0.074 A 
ATOM     48  C   UNL A   1      36.822  30.982  28.615  1.00  0.00     0.031 C 
ATOM     49  C   UNL A   1      42.192  30.427  31.380  1.00  0.00     0.029 A 
ATOM     50  C   UNL A   1      42.998  29.629  30.471  1.00  0.00     0.049 A 
ATOM     51  H   UNL A   1      42.310  27.748  29.681  1.00  0.00     0.167 HD
ATOM     52  C   UNL A   1      37.521  33.202  29.770  1.00  0.00     0.037 A 
ATOM     53  C   UNL A   1      44.031  30.104  29.719  1.00  0.00     0.037 A 
ATOM     54  C   UNL A   1      38.782  33.721  30.294  1.00  0.00     0.049 A 
ATOM     55  C   UNL A   1      43.979  31.594  29.478  1.00  0.00     0.074 A 
ATOM     56  C   UNL A   1      39.354  33.680  31.555  1.00  0.00     0.029 A 
ATOM     57  N   UNL A   1      39.791  34.095  29.415  1.00  0.00    -0.354 N 
ATOM     58  N   UNL A   1      42.910  32.319  29.662  1.00  0.00    -0.248 NA
ATOM     59  C   UNL A   1      45.106  32.385  28.987  1.00  0.00     0.031 C 
ATOM     60  C   UNL A   1      40.733  33.969  31.422  1.00  0.00     0.029 A 
ATOM     61  C   UNL A   1      40.993  34.212  30.085  1.00  0.00     0.049 A 
ATOM     62  H   UNL A   1      39.666  34.254  28.451  1.00  0.00     0.167 HD
ATOM     63  C   UNL A   1      43.168  33.618  29.312  1.00  0.00     0.074 A 
ATOM     64  C   UNL A   1      44.562  33.614  28.913  1.00  0.00     0.031 C 
ATOM     65  C   UNL A   1      42.205  34.583  29.373  1.00  0.00     0.037 A 
BRANCH  52  66
ATOM     66  C   UNL A   1      36.166  33.758  30.141  1.00  0.00     0.057 A 
ATOM     67  C   UNL A   1      35.273  34.216  29.150  1.00  0.00     0.134 A 
ATOM     68  C   UNL A   1      35.701  33.923  31.456  1.00  0.00     0.134 A 
ATOM     69  F   UNL A   1      35.506  34.023  27.846  1.00  0.00    -0.206 F 
ATOM     70  C   UNL A   1      34.089  34.902  29.448  1.00  0.00     0.040 A 
ATOM     71  C   UNL A   1      34.547  34.655  31.772  1.00  0.00     0.040 A 
ATOM     72  F   UNL A   1      36.317  33.339  32.492  1.00  0.00    -0.206 F 
ATOM     73  C   UNL A   1      33.743  35.165  30.763  1.00  0.00     0.006 A 
ENDBRANCH  52  66
BRANCH  53  74
ATOM     74  C   UNL A   1      44.582  29.092  28.779  1.00  0.00     0.057 A 
ATOM     75  C   UNL A   1      45.450  28.110  29.290  1.00  0.00     0.134 A 
ATOM     76  C   UNL A   1      43.994  28.837  27.537  1.00  0.00     0.134 A 
ATOM     77  F   UNL A   1      46.048  28.294  30.478  1.00  0.00    -0.206 F 
ATOM     78  C   UNL A   1      45.632  26.879  28.656  1.00  0.00     0.040 A 
ATOM     79  C   UNL A   1      44.178  27.610  26.886  1.00  0.00     0.040 A 
ATOM     80  F   UNL A   1      43.140  29.715  26.993  1.00  0.00    -0.206 F 
ATOM     81  C   UNL A   1      44.965  26.613  27.464  1.00  0.00     0.006 A 
ENDBRANCH  53  74
BRANCH  65  82
ATOM     82  C   UNL A   1      42.317  35.987  28.838  1.00  0.00     0.057 A 
ATOM     83  C   UNL A   1      42.962  37.033  29.511  1.00  0.00     0.134 A 
ATOM     84  C   UNL A   1      41.913  36.276  27.515  1.00  0.00     0.134 A 
ATOM     85  F   UNL A   1      43.473  36.866  30.737  1.00  0.00    -0.206 F 
ATOM     86  C   UNL A   1      43.159  38.290  28.922  1.00  0.00     0.040 A 
ATOM     87  C   UNL A   1      42.150  37.508  26.901  1.00  0.00     0.040 A 
ATOM     88  F   UNL A   1      41.289  35.364  26.754  1.00  0.00    -0.206 F 
ATOM     89  C   UNL A   1      42.769  38.526  27.609  1.00  0.00     0.006 A 
ENDBRANCH  65  82
ENDBRANCH  39  40
ENDBRANCH  31  34
ENDBRANCH  29  30
ENDBRANCH  28  29
ENDBRANCH  27  28
ENDBRANCH   3  27
TORSDOF 16
ENDMDL
MODEL 2
REMARK VINA RESULT:     -12.0      3.826      9.622
REMARK SMILES CCOc1c(Br)cc(CNc2cccc(C(=O)NCCCNC(=O)c3ccc(-c4c5nc(c(-c6c(F)cccc6F)c6ccc([nH]6)c(-c6c(F)cccc6F)c6nc(c(-c7c(F)cccc7F)c7ccc4[nH]7)C=C6)C=C5)cc3)c2C)cc1OC
REMARK SMILES IDX 16 1 17 2 18 3 15 5 11 6 12 7 79 8 13 9 80 10 14 11 10 12
REMARK SMILES IDX 9 14 8 15 4 16 5 17 82 18 6 19 7 20 81 21 3 22 2 23 1 24
REMARK SMILES IDX 83 25 84 26 19 27 20 28 21 29 22 30 23 31 24 33 25 34 26 35
REMARK SMILES IDX 78 36 27 37 77 38 28 39 29 40 30 41 71 42 31 43 76 44 70 45
REMARK SMILES IDX 72 46 32 47 75 48 69 49 68 50 33 52 59 53 42 54 58 55 43 56
REMARK SMILES IDX 46 57 57 58 73 59 44 60 45 61 56 63 74 64 47 65 34 66 35 67
REMARK SMILES IDX 40 68 36 69 37 70 39 71 41 72 38 73 60 74 61 75 66 76 62 77
REMARK SMILES IDX 63 78 65 79 67 80 64 81 48 82 49 83 54 84 50 85 51 86 53 87
REMARK SMILES IDX 55 88 52 89
REMARK H PARENT 18 4 10 13 22 32 72 51 46 62
REMARK Flexibility Score: inf
ROOT
ATOM      1  C   UNL A   1      32.976  28.937  24.111  1.00  0.00     0.251 C 
ATOM      2  O   UNL A   1      33.924  28.975  23.326  1.00  0.00    -0.269 OA
ATOM      3  N   UNL A   1      32.997  29.916  25.082  1.00  0.00    -0.352 N 
ATOM      4  H   UNL A   1      33.699  30.590  24.931  1.00  0.00     0.163 HD
ENDROOT
BRANCH   1   5
ATOM      5  C   UNL A   1      31.924  27.859  23.984  1.00  0.00     0.044 A 
ATOM      6  C   UNL A   1      31.182  25.503  24.116  1.00  0.00     0.038 A 
ATOM      7  C   UNL A   1      29.870  25.919  23.872  1.00  0.00     0.026 A 
ATOM      8  C   UNL A   1      32.230  26.476  24.154  1.00  0.00    -0.015 A 
ATOM      9  C   UNL A   1      29.567  27.254  23.695  1.00  0.00     0.003 A 
ATOM     10  C   UNL A   1      33.635  25.958  24.383  1.00  0.00     0.047 C 
ATOM     11  C   UNL A   1      30.582  28.202  23.764  1.00  0.00     0.014 A 
BRANCH   6  12
ATOM     12  N   UNL A   1      31.457  24.150  24.265  1.00  0.00    -0.381 N 
ATOM     13  H   UNL A   1      31.462  23.769  25.173  1.00  0.00     0.160 HD
BRANCH  12  14
ATOM     14  C   UNL A   1      31.734  23.273  23.143  1.00  0.00     0.149 C 
BRANCH  14  15
ATOM     15  C   UNL A   1      32.207  21.944  23.679  1.00  0.00    -0.024 A 
ATOM     16  C   UNL A   1      33.192  19.476  24.630  1.00  0.00     0.175 A 
ATOM     17  C   UNL A   1      32.621  19.577  23.349  1.00  0.00     0.064 A 
ATOM     18  C   UNL A   1      33.195  20.602  25.468  1.00  0.00     0.162 A 
ATOM     19  Br  UNL A   1      32.424  18.075  22.201  1.00  0.00    -0.047 Br
ATOM     20  C   UNL A   1      32.154  20.803  22.872  1.00  0.00     0.025 A 
ATOM     21  C   UNL A   1      32.722  21.828  24.974  1.00  0.00     0.056 A 
BRANCH  16  22
ATOM     22  O   UNL A   1      33.678  18.258  25.034  1.00  0.00    -0.489 OA
BRANCH  22  23
ATOM     23  C   UNL A   1      32.734  17.530  25.835  1.00  0.00     0.226 C 
ATOM     24  C   UNL A   1      32.605  16.096  25.353  1.00  0.00     0.049 C 
ENDBRANCH  22  23
ENDBRANCH  16  22
BRANCH  18  25
ATOM     25  O   UNL A   1      33.645  20.701  26.757  1.00  0.00    -0.493 OA
ATOM     26  C   UNL A   1      33.971  21.988  27.259  1.00  0.00     0.278 C 
ENDBRANCH  18  25
ENDBRANCH  14  15
ENDBRANCH  12  14
ENDBRANCH   6  12
ENDBRANCH   1   5
BRANCH   3  27
ATOM     27  C   UNL A   1      32.214  30.177  26.281  1.00  0.00     0.118 C 
BRANCH  27  28
ATOM     28  C   UNL A   1      33.018  30.999  27.297  1.00  0.00     0.042 C 
BRANCH  28  29
ATOM     29  C   UNL A   1      34.448  30.525  27.487  1.00  0.00     0.118 C 
BRANCH  29  30
ATOM     30  N   UNL A   1      35.296  31.479  28.192  1.00  0.00    -0.352 N 
ATOM     31  C   UNL A   1      36.555  31.287  28.747  1.00  0.00     0.251 C 
ATOM     32  H   UNL A   1      34.925  32.386  28.287  1.00  0.00     0.163 HD
ATOM     33  O   UNL A   1      37.136  32.194  29.295  1.00  0.00    -0.269 OA
BRANCH  31  34
ATOM     34  C   UNL A   1      37.223  29.978  28.529  1.00  0.00     0.039 A 
ATOM     35  C   UNL A   1      37.382  29.144  29.639  1.00  0.00     0.014 A 
ATOM     36  C   UNL A   1      37.887  29.711  27.336  1.00  0.00     0.014 A 
ATOM     37  C   UNL A   1      38.407  28.204  29.635  1.00  0.00     0.010 A 
ATOM     38  C   UNL A   1      38.968  28.855  27.366  1.00  0.00     0.010 A 
ATOM     39  C   UNL A   1      39.268  28.156  28.539  1.00  0.00    -0.014 A 
BRANCH  39  40
ATOM     40  C   UNL A   1      40.570  27.504  28.589  1.00  0.00     0.031 A 
ATOM     41  C   UNL A   1      40.694  26.060  28.313  1.00  0.00     0.074 A 
ATOM     42  C   UNL A   1      41.673  28.250  28.822  1.00  0.00     0.049 A 
ATOM     43  N   UNL A   1      41.649  25.315  28.758  1.00  0.00    -0.248 NA
ATOM     44  C   UNL A   1      39.710  25.326  27.528  1.00  0.00     0.031 C 
ATOM     45  C   UNL A   1      43.067  27.843  28.671  1.00  0.00     0.029 A 
ATOM     46  N   UNL A   1      41.743  29.500  29.455  1.00  0.00    -0.354 N 
ATOM     47  C   UNL A   1      41.567  24.100  28.118  1.00  0.00     0.074 A 
ATOM     48  C   UNL A   1      40.309  24.137  27.407  1.00  0.00     0.031 C 
ATOM     49  C   UNL A   1      43.833  28.638  29.433  1.00  0.00     0.029 A 
ATOM     50  C   UNL A   1      42.942  29.492  30.200  1.00  0.00     0.049 A 
ATOM     51  H   UNL A   1      41.088  30.233  29.394  1.00  0.00     0.167 HD
ATOM     52  C   UNL A   1      42.635  23.251  28.152  1.00  0.00     0.037 A 
ATOM     53  C   UNL A   1      42.936  29.597  31.560  1.00  0.00     0.037 A 
ATOM     54  C   UNL A   1      43.717  23.799  28.964  1.00  0.00     0.049 A 
ATOM     55  C   UNL A   1      43.543  28.409  32.267  1.00  0.00     0.074 A 
ATOM     56  C   UNL A   1      44.856  24.517  28.636  1.00  0.00     0.029 A 
ATOM     57  N   UNL A   1      43.551  23.928  30.337  1.00  0.00    -0.354 N 
ATOM     58  N   UNL A   1      43.748  27.254  31.696  1.00  0.00    -0.248 NA
ATOM     59  C   UNL A   1      43.943  28.409  33.674  1.00  0.00     0.031 C 
ATOM     60  C   UNL A   1      45.340  25.136  29.813  1.00  0.00     0.029 A 
ATOM     61  C   UNL A   1      44.511  24.773  30.860  1.00  0.00     0.049 A 
ATOM     62  H   UNL A   1      42.849  23.482  30.863  1.00  0.00     0.167 HD
ATOM     63  C   UNL A   1      44.264  26.373  32.609  1.00  0.00     0.074 A 
ATOM     64  C   UNL A   1      44.385  27.147  33.829  1.00  0.00     0.031 C 
ATOM     65  C   UNL A   1      44.537  25.076  32.282  1.00  0.00     0.037 A 
BRANCH  52  66
ATOM     66  C   UNL A   1      42.804  22.088  27.201  1.00  0.00     0.057 A 
ATOM     67  C   UNL A   1      42.041  20.912  27.349  1.00  0.00     0.134 A 
ATOM     68  C   UNL A   1      43.738  22.041  26.154  1.00  0.00     0.134 A 
ATOM     69  F   UNL A   1      41.024  20.833  28.217  1.00  0.00    -0.206 F 
ATOM     70  C   UNL A   1      42.285  19.746  26.613  1.00  0.00     0.040 A 
ATOM     71  C   UNL A   1      44.032  20.866  25.445  1.00  0.00     0.040 A 
ATOM     72  F   UNL A   1      44.374  23.143  25.735  1.00  0.00    -0.206 F 
ATOM     73  C   UNL A   1      43.315  19.704  25.687  1.00  0.00     0.006 A 
ENDBRANCH  52  66
BRANCH  53  74
ATOM     74  C   UNL A   1      41.826  30.439  32.076  1.00  0.00     0.057 A 
ATOM     75  C   UNL A   1      41.893  31.829  31.872  1.00  0.00     0.134 A 
ATOM     76  C   UNL A   1      40.575  29.903  32.392  1.00  0.00     0.134 A 
ATOM     77  F   UNL A   1      43.065  32.408  31.566  1.00  0.00    -0.206 F 
ATOM     78  C   UNL A   1      40.751  32.633  31.864  1.00  0.00     0.040 A 
ATOM     79  C   UNL A   1      39.424  30.701  32.398  1.00  0.00     0.040 A 
ATOM     80  F   UNL A   1      40.425  28.584  32.581  1.00  0.00    -0.206 F 
ATOM     81  C   UNL A   1      39.504  32.061  32.094  1.00  0.00     0.006 A 
ENDBRANCH  53  74
BRANCH  65  82
ATOM     82  C   UNL A   1      44.919  23.978  33.239  1.00  0.00     0.057 A 
ATOM     83  C   UNL A   1      44.081  22.910  33.584  1.00  0.00     0.134 A 
ATOM     84  C   UNL A   1      46.247  23.882  33.714  1.00  0.00     0.134 A 
ATOM     85  F   UNL A   1      42.824  22.832  33.126  1.00  0.00    -0.206 F 
ATOM     86  C   UNL A   1      44.521  21.840  34.374  1.00  0.00     0.040 A 
ATOM     87  C   UNL A   1      46.710  22.795  34.459  1.00  0.00     0.040 A 
ATOM     88  F   UNL A   1      47.158  24.832  33.454  1.00  0.00    -0.206 F 
ATOM     89  C   UNL A   1      45.842  21.771  34.800  1.00  0.00     0.006 A 
ENDBRANCH  65  82
ENDBRANCH  39  40
ENDBRANCH  31  34
ENDBRANCH  29  30
ENDBRANCH  28  29
ENDBRANCH  27  28
ENDBRANCH   3  27
TORSDOF 16
ENDMDL
MODEL 3
REMARK VINA RESULT:     -12.0      1.349      2.123
REMARK SMILES CCOc1c(Br)cc(CNc2cccc(C(=O)NCCCNC(=O)c3ccc(-c4c5nc(c(-c6c(F)cccc6F)c6ccc([nH]6)c(-c6c(F)cccc6F)c6nc(c(-c7c(F)cccc7F)c7ccc4[nH]7)C=C6)C=C5)cc3)c2C)cc1OC
REMARK SMILES IDX 16 1 17 2 18 3 15 5 11 6 12 7 79 8 13 9 80 10 14 11 10 12
REMARK SMILES IDX 9 14 8 15 4 16 5 17 82 18 6 19 7 20 81 21 3 22 2 23 1 24
REMARK SMILES IDX 83 25 84 26 19 27 20 28 21 29 22 30 23 31 24 33 25 34 26 35
REMARK SMILES IDX 78 36 27 37 77 38 28 39 29 40 30 41 71 42 31 43 76 44 70 45
REMARK SMILES IDX 72 46 32 47 75 48 69 49 68 50 33 52 59 53 42 54 58 55 43 56
REMARK SMILES IDX 46 57 57 58 73 59 44 60 45 61 56 63 74 64 47 65 34 66 35 67
REMARK SMILES IDX 40 68 36 69 37 70 39 71 41 72 38 73 60 74 61 75 66 76 62 77
REMARK SMILES IDX 63 78 65 79 67 80 64 81 48 82 49 83 54 84 50 85 51 86 53 87
REMARK SMILES IDX 55 88 52 89
REMARK H PARENT 18 4 10 13 22 32 72 51 46 62
REMARK Flexibility Score: inf
ROOT
ATOM      1  C   UNL A   1      34.857  21.553  25.989  1.00  0.00     0.251 C 
ATOM      2  O   UNL A   1      34.281  21.444  27.072  1.00  0.00    -0.269 OA
ATOM      3  N   UNL A   1      36.201  21.242  26.022  1.00  0.00    -0.352 N 
ATOM      4  H   UNL A   1      36.482  20.849  26.880  1.00  0.00     0.163 HD
ENDROOT
BRANCH   1   5
ATOM      5  C   UNL A   1      34.102  22.024  24.767  1.00  0.00     0.044 A 
ATOM      6  C   UNL A   1      33.647  23.674  22.982  1.00  0.00     0.038 A 
ATOM      7  C   UNL A   1      32.752  22.772  22.398  1.00  0.00     0.026 A 
ATOM      8  C   UNL A   1      34.318  23.312  24.192  1.00  0.00    -0.015 A 
ATOM      9  C   UNL A   1      32.529  21.528  22.955  1.00  0.00     0.003 A 
ATOM     10  C   UNL A   1      35.243  24.347  24.797  1.00  0.00     0.047 C 
ATOM     11  C   UNL A   1      33.207  21.165  24.114  1.00  0.00     0.014 A 
BRANCH   6  12
ATOM     12  N   UNL A   1      33.829  24.926  22.410  1.00  0.00    -0.381 N 
ATOM     13  H   UNL A   1      34.743  25.288  22.354  1.00  0.00     0.160 HD
BRANCH  12  14
ATOM     14  C   UNL A   1      32.734  25.722  21.889  1.00  0.00     0.149 C 
BRANCH  14  15
ATOM     15  C   UNL A   1      32.288  26.683  22.962  1.00  0.00    -0.024 A 
ATOM     16  C   UNL A   1      31.516  28.561  24.924  1.00  0.00     0.175 A 
ATOM     17  C   UNL A   1      32.699  27.816  25.068  1.00  0.00     0.064 A 
ATOM     18  C   UNL A   1      30.675  28.304  23.830  1.00  0.00     0.162 A 
ATOM     19  Br  UNL A   1      33.823  27.974  26.593  1.00  0.00    -0.047 Br
ATOM     20  C   UNL A   1      33.091  26.903  24.086  1.00  0.00     0.025 A 
ATOM     21  C   UNL A   1      31.081  27.383  22.851  1.00  0.00     0.056 A 
BRANCH  16  22
ATOM     22  O   UNL A   1      31.200  29.479  25.893  1.00  0.00    -0.489 OA
BRANCH  22  23
ATOM     23  C   UNL A   1      32.021  30.655  25.822  1.00  0.00     0.226 C 
ATOM     24  C   UNL A   1      31.400  31.799  26.603  1.00  0.00     0.049 C 
ENDBRANCH  22  23
ENDBRANCH  16  22
BRANCH  18  25
ATOM     25  O   UNL A   1      29.464  28.871  23.537  1.00  0.00    -0.493 OA
ATOM     26  C   UNL A   1      29.404  30.280  23.370  1.00  0.00     0.278 C 
ENDBRANCH  18  25
ENDBRANCH  14  15
ENDBRANCH  12  14
ENDBRANCH   6  12
ENDBRANCH   1   5
BRANCH   3  27
ATOM     27  C   UNL A   1      37.297  21.364  25.072  1.00  0.00     0.118 C 
BRANCH  27  28
ATOM     28  C   UNL A   1      38.644  21.477  25.796  1.00  0.00     0.042 C 
BRANCH  28  29
ATOM     29  C   UNL A   1      39.024  22.895  26.185  1.00  0.00     0.118 C 
BRANCH  29  30
ATOM     30  N   UNL A   1      40.430  23.052  26.538  1.00  0.00    -0.352 N 
ATOM     31  C   UNL A   1      41.100  24.188  26.977  1.00  0.00     0.251 C 
ATOM     32  H   UNL A   1      40.981  22.241  26.455  1.00  0.00     0.163 HD
ATOM     33  O   UNL A   1      42.279  24.149  27.241  1.00  0.00    -0.269 OA
BRANCH  31  34
ATOM     34  C   UNL A   1      40.302  25.412  27.243  1.00  0.00     0.039 A 
ATOM     35  C   UNL A   1      40.606  26.553  26.496  1.00  0.00     0.014 A 
ATOM     36  C   UNL A   1      39.473  25.490  28.357  1.00  0.00     0.014 A 
ATOM     37  C   UNL A   1      40.299  27.804  27.021  1.00  0.00     0.010 A 
ATOM     38  C   UNL A   1      39.259  26.726  28.930  1.00  0.00     0.010 A 
ATOM     39  C   UNL A   1      39.736  27.877  28.295  1.00  0.00    -0.014 A 
BRANCH  39  40
ATOM     40  C   UNL A   1      39.731  29.101  29.085  1.00  0.00     0.031 A 
ATOM     41  C   UNL A   1      38.679  30.115  28.885  1.00  0.00     0.074 A 
ATOM     42  C   UNL A   1      40.661  29.266  30.052  1.00  0.00     0.049 A 
ATOM     43  N   UNL A   1      38.817  31.368  29.161  1.00  0.00    -0.248 NA
ATOM     44  C   UNL A   1      37.378  29.792  28.313  1.00  0.00     0.031 C 
ATOM     45  C   UNL A   1      40.682  30.283  31.099  1.00  0.00     0.029 A 
ATOM     46  N   UNL A   1      41.913  28.641  30.150  1.00  0.00    -0.354 N 
ATOM     47  C   UNL A   1      37.577  31.957  29.068  1.00  0.00     0.074 A 
ATOM     48  C   UNL A   1      36.727  30.947  28.479  1.00  0.00     0.031 C 
ATOM     49  C   UNL A   1      41.943  30.431  31.532  1.00  0.00     0.029 A 
ATOM     50  C   UNL A   1      42.791  29.611  30.683  1.00  0.00     0.049 A 
ATOM     51  H   UNL A   1      42.136  27.715  29.898  1.00  0.00     0.167 HD
ATOM     52  C   UNL A   1      37.377  33.189  29.622  1.00  0.00     0.037 A 
ATOM     53  C   UNL A   1      43.864  30.064  29.976  1.00  0.00     0.037 A 
ATOM     54  C   UNL A   1      38.611  33.714  30.199  1.00  0.00     0.049 A 
ATOM     55  C   UNL A   1      43.832  31.549  29.701  1.00  0.00     0.074 A 
ATOM     56  C   UNL A   1      39.117  33.698  31.489  1.00  0.00     0.029 A 
ATOM     57  N   UNL A   1      39.666  34.065  29.366  1.00  0.00    -0.354 N 
ATOM     58  N   UNL A   1      42.759  32.282  29.813  1.00  0.00    -0.248 NA
ATOM     59  C   UNL A   1      44.987  32.325  29.252  1.00  0.00     0.031 C 
ATOM     60  C   UNL A   1      40.502  33.979  31.422  1.00  0.00     0.029 A 
ATOM     61  C   UNL A   1      40.832  34.192  30.096  1.00  0.00     0.049 A 
ATOM     62  H   UNL A   1      39.593  34.204  28.394  1.00  0.00     0.167 HD
ATOM     63  C   UNL A   1      43.042  33.573  29.450  1.00  0.00     0.074 A 
ATOM     64  C   UNL A   1      44.454  33.554  29.124  1.00  0.00     0.031 C 
ATOM     65  C   UNL A   1      42.082  34.543  29.440  1.00  0.00     0.037 A 
BRANCH  52  66
ATOM     66  C   UNL A   1      36.006  33.758  29.910  1.00  0.00     0.057 A 
ATOM     67  C   UNL A   1      35.185  34.234  28.868  1.00  0.00     0.134 A 
ATOM     68  C   UNL A   1      35.460  33.919  31.193  1.00  0.00     0.134 A 
ATOM     69  F   UNL A   1      35.498  34.048  27.579  1.00  0.00    -0.206 F 
ATOM     70  C   UNL A   1      33.991  34.931  29.094  1.00  0.00     0.040 A 
ATOM     71  C   UNL A   1      34.296  34.662  31.441  1.00  0.00     0.040 A 
ATOM     72  F   UNL A   1      36.002  33.320  32.262  1.00  0.00    -0.206 F 
ATOM     73  C   UNL A   1      33.565  35.189  30.387  1.00  0.00     0.006 A 
ENDBRANCH  52  66
BRANCH  53  74
ATOM     74  C   UNL A   1      44.458  29.031  29.088  1.00  0.00     0.057 A 
ATOM     75  C   UNL A   1      44.115  29.048  27.724  1.00  0.00     0.134 A 
ATOM     76  C   UNL A   1      45.602  28.313  29.446  1.00  0.00     0.134 A 
ATOM     77  F   UNL A   1      43.026  29.717  27.312  1.00  0.00    -0.206 F 
ATOM     78  C   UNL A   1      44.936  28.481  26.746  1.00  0.00     0.040 A 
ATOM     79  C   UNL A   1      46.427  27.731  28.476  1.00  0.00     0.040 A 
ATOM     80  F   UNL A   1      46.006  28.267  30.724  1.00  0.00    -0.206 F 
ATOM     81  C   UNL A   1      46.117  27.849  27.120  1.00  0.00     0.006 A 
ENDBRANCH  53  74
BRANCH  65  82
ATOM     82  C   UNL A   1      42.229  35.934  28.882  1.00  0.00     0.057 A 
ATOM     83  C   UNL A   1      42.955  36.957  29.506  1.00  0.00     0.134 A 
ATOM     84  C   UNL A   1      41.767  36.228  27.579  1.00  0.00     0.134 A 
ATOM     85  F   UNL A   1      43.523  36.779  30.706  1.00  0.00    -0.206 F 
ATOM     86  C   UNL A   1      43.177  38.197  28.892  1.00  0.00     0.040 A 
ATOM     87  C   UNL A   1      42.027  37.441  26.937  1.00  0.00     0.040 A 
ATOM     88  F   UNL A   1      41.063  35.338  26.864  1.00  0.00    -0.206 F 
ATOM     89  C   UNL A   1      42.728  38.437  27.598  1.00  0.00     0.006 A 
ENDBRANCH  65  82
ENDBRANCH  39  40
ENDBRANCH  31  34
ENDBRANCH  29  30
ENDBRANCH  28  29
ENDBRANCH  27  28
ENDBRANCH   3  27
TORSDOF 16
ENDMDL
