MODEL 1
REMARK VINA RESULT:     -13.3      0.000      0.000
REMARK SMILES COc1cccc([C@@H]2CC(c3cccc(C)c3)=NN2C(=O)CCC(=O)NCCCNC(=O)c2ccc(-c3c4nc(c(-c5c(F)cccc5F)c5ccc([nH]5)c(-c5c(F)cccc5F)c5nc(c(-c6c(F)cccc6F)c6ccc3[nH]6)C=C5)C=C4)cc2)c1
REMARK SMILES IDX 24 1 25 2 26 3 23 5 22 6 20 7 21 8 19 9 8 10 9 11 10 12
REMARK SMILES IDX 18 13 7 14 3 15 4 16 87 17 5 18 6 19 2 20 1 21 11 22 12 23
REMARK SMILES IDX 17 24 13 25 15 26 14 27 16 28 27 29 28 30 29 31 30 32 31 33
REMARK SMILES IDX 32 35 33 36 34 37 86 38 35 39 85 40 36 41 37 42 38 43 79 44
REMARK SMILES IDX 39 45 84 46 78 47 80 48 40 49 83 50 77 51 76 52 41 54 67 55
REMARK SMILES IDX 50 56 66 57 51 58 54 59 65 60 81 61 52 62 53 63 64 65 82 66
REMARK SMILES IDX 55 67 42 68 43 69 48 70 44 71 45 72 47 73 49 74 46 75 68 76
REMARK SMILES IDX 69 77 74 78 70 79 71 80 73 81 75 82 72 83 56 84 57 85 62 86
REMARK SMILES IDX 58 87 59 88 61 89 63 90 60 91
REMARK H PARENT 26 4 30 34 80 53 54 64
REMARK Flexibility Score: inf
ROOT
ATOM      1  C   UNL A   1      38.347  22.606  26.126  1.00  0.00     0.220 C 
ATOM      2  O   UNL A   1      37.801  23.701  26.291  1.00  0.00    -0.275 OA
ATOM      3  N   UNL A   1      39.566  22.382  26.705  1.00  0.00    -0.356 N 
ATOM      4  H   UNL A   1      40.022  23.196  27.021  1.00  0.00     0.163 HD
ENDROOT
BRANCH   1   5
ATOM      5  C   UNL A   1      37.728  21.590  25.185  1.00  0.00     0.110 C 
BRANCH   5   6
ATOM      6  C   UNL A   1      36.226  21.398  25.406  1.00  0.00     0.112 C 
BRANCH   6   7
ATOM      7  C   UNL A   1      35.395  22.313  24.547  1.00  0.00     0.243 C 
ATOM      8  O   UNL A   1      35.756  22.553  23.391  1.00  0.00    -0.273 OA
BRANCH   7   9
ATOM      9  N   UNL A   1      34.320  22.933  25.161  1.00  0.00    -0.225 N 
ATOM     10  C   UNL A   1      33.199  22.338  25.901  1.00  0.00     0.147 C 
ATOM     11  C   UNL A   1      32.259  23.519  26.198  1.00  0.00     0.091 C 
ATOM     12  C   UNL A   1      33.022  24.588  25.499  1.00  0.00     0.071 C 
ATOM     13  N   UNL A   1      34.108  24.228  24.904  1.00  0.00    -0.174 NA
BRANCH  10  14
ATOM     14  C   UNL A   1      32.650  21.234  25.020  1.00  0.00    -0.019 A 
ATOM     15  C   UNL A   1      32.918  18.890  24.468  1.00  0.00     0.119 A 
ATOM     16  C   UNL A   1      32.534  19.164  23.154  1.00  0.00     0.046 A 
ATOM     17  C   UNL A   1      32.939  19.921  25.402  1.00  0.00     0.052 A 
ATOM     18  C   UNL A   1      32.153  20.454  22.780  1.00  0.00     0.004 A 
ATOM     19  C   UNL A   1      32.198  21.488  23.712  1.00  0.00     0.006 A 
BRANCH  15  20
ATOM     20  O   UNL A   1      33.329  17.610  24.723  1.00  0.00    -0.497 OA
ATOM     21  C   UNL A   1      34.731  17.378  24.617  1.00  0.00     0.278 C 
ENDBRANCH  15  20
ENDBRANCH  10  14
BRANCH  12  22
ATOM     22  C   UNL A   1      32.545  25.925  25.215  1.00  0.00    -0.002 A 
ATOM     23  C   UNL A   1      33.147  26.969  26.485  1.00  0.00     0.010 A 
ATOM     24  C   UNL A   1      31.457  26.455  23.912  1.00  0.00     0.013 A 
ATOM     25  C   UNL A   1      32.634  28.653  26.490  1.00  0.00     0.001 A 
ATOM     26  C   UNL A   1      30.873  28.137  23.779  1.00  0.00    -0.050 A 
ATOM     27  C   UNL A   1      31.438  29.333  25.016  1.00  0.00     0.003 A 
ATOM     28  C   UNL A   1      29.709  28.474  22.896  1.00  0.00     0.044 C 
ENDBRANCH  12  22
ENDBRANCH   7   9
ENDBRANCH   6   7
ENDBRANCH   5   6
ENDBRANCH   1   5
BRANCH   3  29
ATOM     29  C   UNL A   1      40.305  21.152  26.934  1.00  0.00     0.117 C 
BRANCH  29  30
ATOM     30  C   UNL A   1      41.558  20.825  26.103  1.00  0.00     0.042 C 
BRANCH  30  31
ATOM     31  C   UNL A   1      42.937  21.457  26.357  1.00  0.00     0.118 C 
BRANCH  31  32
ATOM     32  N   UNL A   1      43.691  21.867  25.195  1.00  0.00    -0.352 N 
ATOM     33  C   UNL A   1      44.100  23.114  24.770  1.00  0.00     0.251 C 
ATOM     34  H   UNL A   1      43.960  21.127  24.605  1.00  0.00     0.163 HD
ATOM     35  O   UNL A   1      44.529  23.169  23.614  1.00  0.00    -0.269 OA
BRANCH  33  36
ATOM     36  C   UNL A   1      43.885  24.430  25.611  1.00  0.00     0.039 A 
ATOM     37  C   UNL A   1      42.157  24.292  26.124  1.00  0.00     0.014 A 
ATOM     38  C   UNL A   1      44.815  26.187  26.009  1.00  0.00     0.014 A 
ATOM     39  C   UNL A   1      41.406  25.650  26.968  1.00  0.00     0.010 A 
ATOM     40  C   UNL A   1      43.933  27.459  26.916  1.00  0.00     0.010 A 
ATOM     41  C   UNL A   1      42.264  27.148  27.409  1.00  0.00    -0.014 A 
BRANCH  41  42
ATOM     42  C   UNL A   1      41.762  27.961  28.590  1.00  0.00     0.031 A 
ATOM     43  C   UNL A   1      42.387  27.748  29.950  1.00  0.00     0.074 A 
ATOM     44  C   UNL A   1      40.626  28.705  28.511  1.00  0.00     0.049 A 
ATOM     45  N   UNL A   1      41.996  28.184  31.123  1.00  0.00    -0.248 NA
ATOM     46  C   UNL A   1      43.563  26.866  30.014  1.00  0.00     0.031 C 
ATOM     47  C   UNL A   1      39.778  28.901  27.328  1.00  0.00     0.029 A 
ATOM     48  N   UNL A   1      39.949  29.428  29.478  1.00  0.00    -0.354 N 
ATOM     49  C   UNL A   1      42.849  27.594  32.047  1.00  0.00     0.074 A 
ATOM     50  C   UNL A   1      43.690  26.674  31.317  1.00  0.00     0.031 C 
ATOM     51  C   UNL A   1      38.741  29.699  27.621  1.00  0.00     0.029 A 
ATOM     52  C   UNL A   1      38.813  30.071  29.021  1.00  0.00     0.049 A 
ATOM     53  H   UNL A   1      40.251  29.480  30.413  1.00  0.00     0.167 HD
ATOM     54  C   UNL A   1      42.982  27.843  33.371  1.00  0.00     0.037 A 
ATOM     55  C   UNL A   1      37.927  30.880  29.638  1.00  0.00     0.037 A 
ATOM     56  C   UNL A   1      42.214  28.826  34.082  1.00  0.00     0.049 A 
ATOM     57  C   UNL A   1      38.138  31.199  31.094  1.00  0.00     0.074 A 
ATOM     58  C   UNL A   1      42.367  29.258  35.388  1.00  0.00     0.029 A 
ATOM     59  N   UNL A   1      41.152  29.534  33.544  1.00  0.00    -0.354 N 
ATOM     60  N   UNL A   1      39.063  30.756  31.909  1.00  0.00    -0.248 NA
ATOM     61  C   UNL A   1      37.198  32.145  31.714  1.00  0.00     0.031 C 
ATOM     62  C   UNL A   1      41.357  30.185  35.658  1.00  0.00     0.029 A 
ATOM     63  C   UNL A   1      40.624  30.382  34.500  1.00  0.00     0.049 A 
ATOM     64  H   UNL A   1      40.823  29.446  32.620  1.00  0.00     0.167 HD
ATOM     65  C   UNL A   1      38.846  31.405  33.117  1.00  0.00     0.074 A 
ATOM     66  C   UNL A   1      37.714  32.285  32.924  1.00  0.00     0.031 C 
ATOM     67  C   UNL A   1      39.521  31.280  34.283  1.00  0.00     0.037 A 
BRANCH  54  68
ATOM     68  C   UNL A   1      44.045  27.093  34.123  1.00  0.00     0.057 A 
ATOM     69  C   UNL A   1      43.770  25.881  34.775  1.00  0.00     0.134 A 
ATOM     70  C   UNL A   1      45.365  27.557  34.156  1.00  0.00     0.134 A 
ATOM     71  F   UNL A   1      42.525  25.382  34.786  1.00  0.00    -0.206 F 
ATOM     72  C   UNL A   1      44.760  25.181  35.464  1.00  0.00     0.040 A 
ATOM     73  C   UNL A   1      46.372  26.845  34.812  1.00  0.00     0.040 A 
ATOM     74  F   UNL A   1      45.704  28.700  33.543  1.00  0.00    -0.206 F 
ATOM     75  C   UNL A   1      46.068  25.659  35.476  1.00  0.00     0.006 A 
ENDBRANCH  54  68
BRANCH  55  76
ATOM     76  C   UNL A   1      36.781  31.503  28.903  1.00  0.00     0.057 A 
ATOM     77  C   UNL A   1      36.806  32.858  28.537  1.00  0.00     0.134 A 
ATOM     78  C   UNL A   1      35.601  30.799  28.632  1.00  0.00     0.134 A 
ATOM     79  F   UNL A   1      37.898  33.600  28.775  1.00  0.00    -0.206 F 
ATOM     80  C   UNL A   1      35.688  33.501  27.999  1.00  0.00     0.040 A 
ATOM     81  C   UNL A   1      34.487  31.421  28.058  1.00  0.00     0.040 A 
ATOM     82  F   UNL A   1      35.506  29.495  28.933  1.00  0.00    -0.206 F 
ATOM     83  C   UNL A   1      34.521  32.782  27.761  1.00  0.00     0.006 A 
ENDBRANCH  55  76
BRANCH  67  84
ATOM     84  C   UNL A   1      39.109  32.160  35.425  1.00  0.00     0.057 A 
ATOM     85  C   UNL A   1      38.279  31.706  36.456  1.00  0.00     0.134 A 
ATOM     86  C   UNL A   1      39.611  33.465  35.524  1.00  0.00     0.134 A 
ATOM     87  F   UNL A   1      37.756  30.470  36.415  1.00  0.00    -0.206 F 
ATOM     88  C   UNL A   1      37.945  32.525  37.535  1.00  0.00     0.040 A 
ATOM     89  C   UNL A   1      39.316  34.279  36.616  1.00  0.00     0.040 A 
ATOM     90  F   UNL A   1      40.422  33.957  34.575  1.00  0.00    -0.206 F 
ATOM     91  C   UNL A   1      38.475  33.811  37.622  1.00  0.00     0.006 A 
ENDBRANCH  67  84
ENDBRANCH  41  42
ENDBRANCH  33  36
ENDBRANCH  31  32
ENDBRANCH  30  31
ENDBRANCH  29  30
ENDBRANCH   3  29
TORSDOF 16
ENDMDL
MODEL 2
REMARK VINA RESULT:     -13.3      4.132      9.879
REMARK SMILES COc1cccc([C@@H]2CC(c3cccc(C)c3)=NN2C(=O)CCC(=O)NCCCNC(=O)c2ccc(-c3c4nc(c(-c5c(F)cccc5F)c5ccc([nH]5)c(-c5c(F)cccc5F)c5nc(c(-c6c(F)cccc6F)c6ccc3[nH]6)C=C5)C=C4)cc2)c1
REMARK SMILES IDX 24 1 25 2 26 3 23 5 22 6 20 7 21 8 19 9 8 10 9 11 10 12
REMARK SMILES IDX 18 13 7 14 3 15 4 16 87 17 5 18 6 19 2 20 1 21 11 22 12 23
REMARK SMILES IDX 17 24 13 25 15 26 14 27 16 28 27 29 28 30 29 31 30 32 31 33
REMARK SMILES IDX 32 35 33 36 34 37 86 38 35 39 85 40 36 41 37 42 38 43 79 44
REMARK SMILES IDX 39 45 84 46 78 47 80 48 40 49 83 50 77 51 76 52 41 54 67 55
REMARK SMILES IDX 50 56 66 57 51 58 54 59 65 60 81 61 52 62 53 63 64 65 82 66
REMARK SMILES IDX 55 67 42 68 43 69 48 70 44 71 45 72 47 73 49 74 46 75 68 76
REMARK SMILES IDX 69 77 74 78 70 79 71 80 73 81 75 82 72 83 56 84 57 85 62 86
REMARK SMILES IDX 58 87 59 88 61 89 63 90 60 91
REMARK H PARENT 26 4 30 34 80 53 54 64
REMARK Flexibility Score: inf
ROOT
ATOM      1  C   UNL A   1      32.708  29.756  27.148  1.00  0.00     0.220 C 
ATOM      2  O   UNL A   1      31.585  29.252  27.242  1.00  0.00    -0.275 OA
ATOM      3  N   UNL A   1      32.863  31.082  27.441  1.00  0.00    -0.356 N 
ATOM      4  H   UNL A   1      32.021  31.590  27.484  1.00  0.00     0.163 HD
ENDROOT
BRANCH   1   5
ATOM      5  C   UNL A   1      33.855  28.937  26.586  1.00  0.00     0.110 C 
BRANCH   5   6
ATOM      6  C   UNL A   1      33.393  27.688  25.833  1.00  0.00     0.112 C 
BRANCH   6   7
ATOM      7  C   UNL A   1      33.579  27.810  24.344  1.00  0.00     0.243 C 
ATOM      8  O   UNL A   1      33.577  28.929  23.824  1.00  0.00    -0.273 OA
BRANCH   7   9
ATOM      9  N   UNL A   1      33.622  26.628  23.625  1.00  0.00    -0.225 N 
ATOM     10  C   UNL A   1      32.921  26.264  22.387  1.00  0.00     0.147 C 
ATOM     11  C   UNL A   1      33.252  24.777  22.175  1.00  0.00     0.091 C 
ATOM     12  C   UNL A   1      34.061  24.555  23.403  1.00  0.00     0.071 C 
ATOM     13  N   UNL A   1      34.200  25.565  24.193  1.00  0.00    -0.174 NA
BRANCH  10  14
ATOM     14  C   UNL A   1      31.462  26.612  22.610  1.00  0.00    -0.019 A 
ATOM     15  C   UNL A   1      29.903  28.467  22.649  1.00  0.00     0.119 A 
ATOM     16  C   UNL A   1      29.169  27.819  23.644  1.00  0.00     0.046 A 
ATOM     17  C   UNL A   1      31.025  27.843  22.112  1.00  0.00     0.052 A 
ATOM     18  C   UNL A   1      29.541  26.547  24.086  1.00  0.00     0.004 A 
ATOM     19  C   UNL A   1      30.678  25.937  23.563  1.00  0.00     0.006 A 
BRANCH  15  20
ATOM     20  O   UNL A   1      29.496  29.732  22.324  1.00  0.00    -0.497 OA
ATOM     21  C   UNL A   1      28.153  29.848  21.858  1.00  0.00     0.278 C 
ENDBRANCH  15  20
ENDBRANCH  10  14
BRANCH  12  22
ATOM     22  C   UNL A   1      34.494  23.272  23.916  1.00  0.00    -0.002 A 
ATOM     23  C   UNL A   1      36.240  23.229  23.791  1.00  0.00     0.010 A 
ATOM     24  C   UNL A   1      33.494  21.910  24.469  1.00  0.00     0.013 A 
ATOM     25  C   UNL A   1      37.068  21.738  24.227  1.00  0.00     0.001 A 
ATOM     26  C   UNL A   1      34.198  20.345  24.962  1.00  0.00    -0.050 A 
ATOM     27  C   UNL A   1      36.000  20.169  24.907  1.00  0.00     0.003 A 
ATOM     28  C   UNL A   1      33.335  19.127  25.092  1.00  0.00     0.044 C 
ENDBRANCH  12  22
ENDBRANCH   7   9
ENDBRANCH   6   7
ENDBRANCH   5   6
ENDBRANCH   1   5
BRANCH   3  29
ATOM     29  C   UNL A   1      34.056  31.871  27.701  1.00  0.00     0.117 C 
BRANCH  29  30
ATOM     30  C   UNL A   1      33.942  33.348  28.116  1.00  0.00     0.042 C 
BRANCH  30  31
ATOM     31  C   UNL A   1      34.705  33.961  29.303  1.00  0.00     0.118 C 
BRANCH  31  32
ATOM     32  N   UNL A   1      34.189  33.684  30.624  1.00  0.00    -0.352 N 
ATOM     33  C   UNL A   1      34.703  32.938  31.664  1.00  0.00     0.251 C 
ATOM     34  H   UNL A   1      33.318  34.101  30.814  1.00  0.00     0.163 HD
ATOM     35  O   UNL A   1      33.920  32.697  32.585  1.00  0.00    -0.269 OA
BRANCH  33  36
ATOM     36  C   UNL A   1      36.134  32.276  31.630  1.00  0.00     0.039 A 
ATOM     37  C   UNL A   1      36.008  31.138  30.231  1.00  0.00     0.014 A 
ATOM     38  C   UNL A   1      37.811  32.145  32.762  1.00  0.00     0.014 A 
ATOM     39  C   UNL A   1      37.347  30.032  29.906  1.00  0.00     0.010 A 
ATOM     40  C   UNL A   1      39.105  31.000  32.279  1.00  0.00     0.010 A 
ATOM     41  C   UNL A   1      38.863  30.000  30.842  1.00  0.00    -0.014 A 
BRANCH  41  42
ATOM     42  C   UNL A   1      40.126  29.485  30.175  1.00  0.00     0.031 A 
ATOM     43  C   UNL A   1      41.236  30.458  29.849  1.00  0.00     0.074 A 
ATOM     44  C   UNL A   1      40.199  28.228  29.660  1.00  0.00     0.049 A 
ATOM     45  N   UNL A   1      42.311  30.280  29.118  1.00  0.00    -0.248 NA
ATOM     46  C   UNL A   1      41.085  31.835  30.347  1.00  0.00     0.031 C 
ATOM     47  C   UNL A   1      39.163  27.187  29.718  1.00  0.00     0.029 A 
ATOM     48  N   UNL A   1      41.199  27.602  28.937  1.00  0.00    -0.354 N 
ATOM     49  C   UNL A   1      42.922  31.526  29.041  1.00  0.00     0.074 A 
ATOM     50  C   UNL A   1      42.039  32.470  29.684  1.00  0.00     0.031 C 
ATOM     51  C   UNL A   1      39.583  26.072  29.106  1.00  0.00     0.029 A 
ATOM     52  C   UNL A   1      40.916  26.296  28.579  1.00  0.00     0.049 A 
ATOM     53  H   UNL A   1      42.042  28.049  28.697  1.00  0.00     0.167 HD
ATOM     54  C   UNL A   1      44.141  31.852  28.550  1.00  0.00     0.037 A 
ATOM     55  C   UNL A   1      41.637  25.368  27.915  1.00  0.00     0.037 A 
ATOM     56  C   UNL A   1      45.062  30.901  27.996  1.00  0.00     0.049 A 
ATOM     57  C   UNL A   1      43.018  25.735  27.443  1.00  0.00     0.074 A 
ATOM     58  C   UNL A   1      46.374  31.101  27.603  1.00  0.00     0.029 A 
ATOM     59  N   UNL A   1      44.770  29.567  27.762  1.00  0.00    -0.354 N 
ATOM     60  N   UNL A   1      43.644  26.883  27.535  1.00  0.00    -0.248 NA
ATOM     61  C   UNL A   1      43.804  24.676  26.792  1.00  0.00     0.031 C 
ATOM     62  C   UNL A   1      46.856  29.901  27.075  1.00  0.00     0.029 A 
ATOM     63  C   UNL A   1      45.869  28.938  27.207  1.00  0.00     0.049 A 
ATOM     64  H   UNL A   1      43.909  29.133  27.962  1.00  0.00     0.167 HD
ATOM     65  C   UNL A   1      44.908  26.668  27.002  1.00  0.00     0.074 A 
ATOM     66  C   UNL A   1      44.968  25.279  26.606  1.00  0.00     0.031 C 
ATOM     67  C   UNL A   1      45.927  27.546  26.852  1.00  0.00     0.037 A 
BRANCH  54  68
ATOM     68  C   UNL A   1      44.579  33.286  28.655  1.00  0.00     0.057 A 
ATOM     69  C   UNL A   1      45.270  33.765  29.779  1.00  0.00     0.134 A 
ATOM     70  C   UNL A   1      44.354  34.185  27.606  1.00  0.00     0.134 A 
ATOM     71  F   UNL A   1      45.515  32.957  30.821  1.00  0.00    -0.206 F 
ATOM     72  C   UNL A   1      45.685  35.093  29.871  1.00  0.00     0.040 A 
ATOM     73  C   UNL A   1      44.798  35.508  27.672  1.00  0.00     0.040 A 
ATOM     74  F   UNL A   1      43.713  33.794  26.495  1.00  0.00    -0.206 F 
ATOM     75  C   UNL A   1      45.456  35.967  28.811  1.00  0.00     0.006 A 
ENDBRANCH  54  68
BRANCH  55  76
ATOM     76  C   UNL A   1      41.120  23.982  27.688  1.00  0.00     0.057 A 
ATOM     77  C   UNL A   1      41.627  22.892  28.412  1.00  0.00     0.134 A 
ATOM     78  C   UNL A   1      40.186  23.693  26.685  1.00  0.00     0.134 A 
ATOM     79  F   UNL A   1      42.534  23.090  29.381  1.00  0.00    -0.206 F 
ATOM     80  C   UNL A   1      41.282  21.573  28.105  1.00  0.00     0.040 A 
ATOM     81  C   UNL A   1      39.801  22.380  26.393  1.00  0.00     0.040 A 
ATOM     82  F   UNL A   1      39.639  24.682  25.963  1.00  0.00    -0.206 F 
ATOM     83  C   UNL A   1      40.367  21.313  27.089  1.00  0.00     0.006 A 
ENDBRANCH  55  76
BRANCH  67  84
ATOM     84  C   UNL A   1      47.220  27.024  26.299  1.00  0.00     0.057 A 
ATOM     85  C   UNL A   1      47.522  27.073  24.934  1.00  0.00     0.134 A 
ATOM     86  C   UNL A   1      48.205  26.528  27.164  1.00  0.00     0.134 A 
ATOM     87  F   UNL A   1      46.617  27.526  24.052  1.00  0.00    -0.206 F 
ATOM     88  C   UNL A   1      48.750  26.626  24.445  1.00  0.00     0.040 A 
ATOM     89  C   UNL A   1      49.449  26.115  26.693  1.00  0.00     0.040 A 
ATOM     90  F   UNL A   1      47.983  26.466  28.487  1.00  0.00    -0.206 F 
ATOM     91  C   UNL A   1      49.722  26.158  25.327  1.00  0.00     0.006 A 
ENDBRANCH  67  84
ENDBRANCH  41  42
ENDBRANCH  33  36
ENDBRANCH  31  32
ENDBRANCH  30  31
ENDBRANCH  29  30
ENDBRANCH   3  29
TORSDOF 16
ENDMDL
MODEL 3
REMARK VINA RESULT:     -12.4      4.643     10.339
REMARK SMILES COc1cccc([C@@H]2CC(c3cccc(C)c3)=NN2C(=O)CCC(=O)NCCCNC(=O)c2ccc(-c3c4nc(c(-c5c(F)cccc5F)c5ccc([nH]5)c(-c5c(F)cccc5F)c5nc(c(-c6c(F)cccc6F)c6ccc3[nH]6)C=C5)C=C4)cc2)c1
REMARK SMILES IDX 24 1 25 2 26 3 23 5 22 6 20 7 21 8 19 9 8 10 9 11 10 12
REMARK SMILES IDX 18 13 7 14 3 15 4 16 87 17 5 18 6 19 2 20 1 21 11 22 12 23
REMARK SMILES IDX 17 24 13 25 15 26 14 27 16 28 27 29 28 30 29 31 30 32 31 33
REMARK SMILES IDX 32 35 33 36 34 37 86 38 35 39 85 40 36 41 37 42 38 43 79 44
REMARK SMILES IDX 39 45 84 46 78 47 80 48 40 49 83 50 77 51 76 52 41 54 67 55
REMARK SMILES IDX 50 56 66 57 51 58 54 59 65 60 81 61 52 62 53 63 64 65 82 66
REMARK SMILES IDX 55 67 42 68 43 69 48 70 44 71 45 72 47 73 49 74 46 75 68 76
REMARK SMILES IDX 69 77 74 78 70 79 71 80 73 81 75 82 72 83 56 84 57 85 62 86
REMARK SMILES IDX 58 87 59 88 61 89 63 90 60 91
REMARK H PARENT 26 4 30 34 80 53 54 64
REMARK Flexibility Score: inf
ROOT
ATOM      1  C   UNL A   1      33.014  29.649  27.262  1.00  0.00     0.220 C 
ATOM      2  O   UNL A   1      31.803  29.437  27.153  1.00  0.00    -0.275 OA
ATOM      3  N   UNL A   1      33.432  30.868  27.720  1.00  0.00    -0.356 N 
ATOM      4  H   UNL A   1      32.738  31.566  27.710  1.00  0.00     0.163 HD
ENDROOT
BRANCH   1   5
ATOM      5  C   UNL A   1      34.007  28.616  26.764  1.00  0.00     0.110 C 
BRANCH   5   6
ATOM      6  C   UNL A   1      33.357  27.502  25.940  1.00  0.00     0.112 C 
BRANCH   6   7
ATOM      7  C   UNL A   1      33.583  27.670  24.461  1.00  0.00     0.243 C 
ATOM      8  O   UNL A   1      33.567  28.803  23.972  1.00  0.00    -0.273 OA
BRANCH   7   9
ATOM      9  N   UNL A   1      33.680  26.510  23.712  1.00  0.00    -0.225 N 
ATOM     10  C   UNL A   1      33.017  26.158  22.449  1.00  0.00     0.147 C 
ATOM     11  C   UNL A   1      33.401  24.689  22.205  1.00  0.00     0.091 C 
ATOM     12  C   UNL A   1      34.192  24.460  23.444  1.00  0.00     0.071 C 
ATOM     13  N   UNL A   1      34.281  25.451  24.264  1.00  0.00    -0.174 NA
BRANCH  10  14
ATOM     14  C   UNL A   1      31.544  26.453  22.650  1.00  0.00    -0.019 A 
ATOM     15  C   UNL A   1      29.895  28.225  22.531  1.00  0.00     0.119 A 
ATOM     16  C   UNL A   1      29.196  27.634  23.586  1.00  0.00     0.046 A 
ATOM     17  C   UNL A   1      31.045  27.610  22.045  1.00  0.00     0.052 A 
ATOM     18  C   UNL A   1      29.632  26.428  24.139  1.00  0.00     0.004 A 
ATOM     19  C   UNL A   1      30.797  25.830  23.666  1.00  0.00     0.006 A 
BRANCH  15  20
ATOM     20  O   UNL A   1      29.424  29.433  22.095  1.00  0.00    -0.497 OA
ATOM     21  C   UNL A   1      29.310  30.447  23.090  1.00  0.00     0.278 C 
ENDBRANCH  15  20
ENDBRANCH  10  14
BRANCH  12  22
ATOM     22  C   UNL A   1      34.656  23.178  23.932  1.00  0.00    -0.002 A 
ATOM     23  C   UNL A   1      36.406  23.211  23.886  1.00  0.00     0.010 A 
ATOM     24  C   UNL A   1      33.691  21.757  24.391  1.00  0.00     0.013 A 
ATOM     25  C   UNL A   1      37.276  21.741  24.307  1.00  0.00     0.001 A 
ATOM     26  C   UNL A   1      34.439  20.205  24.862  1.00  0.00    -0.050 A 
ATOM     27  C   UNL A   1      36.247  20.105  24.883  1.00  0.00     0.003 A 
ATOM     28  C   UNL A   1      33.623  18.948  24.910  1.00  0.00     0.044 C 
ENDBRANCH  12  22
ENDBRANCH   7   9
ENDBRANCH   6   7
ENDBRANCH   5   6
ENDBRANCH   1   5
BRANCH   3  29
ATOM     29  C   UNL A   1      34.724  31.311  28.217  1.00  0.00     0.117 C 
BRANCH  29  30
ATOM     30  C   UNL A   1      34.825  32.516  29.167  1.00  0.00     0.042 C 
BRANCH  30  31
ATOM     31  C   UNL A   1      35.863  32.626  30.297  1.00  0.00     0.118 C 
BRANCH  31  32
ATOM     32  N   UNL A   1      35.911  31.539  31.247  1.00  0.00    -0.352 N 
ATOM     33  C   UNL A   1      36.691  30.402  31.289  1.00  0.00     0.251 C 
ATOM     34  H   UNL A   1      35.277  31.625  31.995  1.00  0.00     0.163 HD
ATOM     35  O   UNL A   1      36.339  29.544  32.101  1.00  0.00    -0.269 OA
BRANCH  33  36
ATOM     36  C   UNL A   1      37.854  30.111  30.264  1.00  0.00     0.039 A 
ATOM     37  C   UNL A   1      39.326  30.613  31.186  1.00  0.00     0.014 A 
ATOM     38  C   UNL A   1      38.119  29.645  28.309  1.00  0.00     0.014 A 
ATOM     39  C   UNL A   1      40.888  30.623  30.361  1.00  0.00     0.010 A 
ATOM     40  C   UNL A   1      39.777  29.659  27.623  1.00  0.00     0.010 A 
ATOM     41  C   UNL A   1      41.127  30.107  28.672  1.00  0.00    -0.014 A 
BRANCH  41  42
ATOM     42  C   UNL A   1      42.492  29.595  28.246  1.00  0.00     0.031 A 
ATOM     43  C   UNL A   1      42.662  28.125  27.935  1.00  0.00     0.074 A 
ATOM     44  C   UNL A   1      43.608  30.365  28.355  1.00  0.00     0.049 A 
ATOM     45  N   UNL A   1      43.762  27.438  27.741  1.00  0.00    -0.248 NA
ATOM     46  C   UNL A   1      41.443  27.301  27.913  1.00  0.00     0.031 C 
ATOM     47  C   UNL A   1      43.678  31.762  28.803  1.00  0.00     0.029 A 
ATOM     48  N   UNL A   1      44.940  30.066  28.124  1.00  0.00    -0.354 N 
ATOM     49  C   UNL A   1      43.360  26.112  27.621  1.00  0.00     0.074 A 
ATOM     50  C   UNL A   1      41.942  26.075  27.891  1.00  0.00     0.031 C 
ATOM     51  C   UNL A   1      44.945  32.199  28.782  1.00  0.00     0.029 A 
ATOM     52  C   UNL A   1      45.809  31.120  28.340  1.00  0.00     0.049 A 
ATOM     53  H   UNL A   1      45.243  29.178  27.830  1.00  0.00     0.167 HD
ATOM     54  C   UNL A   1      44.082  25.030  27.245  1.00  0.00     0.037 A 
ATOM     55  C   UNL A   1      47.145  31.229  28.194  1.00  0.00     0.037 A 
ATOM     56  C   UNL A   1      45.471  25.079  26.883  1.00  0.00     0.049 A 
ATOM     57  C   UNL A   1      47.915  30.031  27.706  1.00  0.00     0.074 A 
ATOM     58  C   UNL A   1      46.257  24.072  26.352  1.00  0.00     0.029 A 
ATOM     59  N   UNL A   1      46.277  26.198  27.008  1.00  0.00    -0.354 N 
ATOM     60  N   UNL A   1      47.478  28.826  27.433  1.00  0.00    -0.248 NA
ATOM     61  C   UNL A   1      49.358  30.208  27.484  1.00  0.00     0.031 C 
ATOM     62  C   UNL A   1      47.557  24.566  26.213  1.00  0.00     0.029 A 
ATOM     63  C   UNL A   1      47.560  25.899  26.588  1.00  0.00     0.049 A 
ATOM     64  H   UNL A   1      45.980  27.074  27.346  1.00  0.00     0.167 HD
ATOM     65  C   UNL A   1      48.579  28.122  26.963  1.00  0.00     0.074 A 
ATOM     66  C   UNL A   1      49.698  29.038  26.969  1.00  0.00     0.031 C 
ATOM     67  C   UNL A   1      48.655  26.831  26.565  1.00  0.00     0.037 A 
BRANCH  54  68
ATOM     68  C   UNL A   1      43.366  23.713  27.137  1.00  0.00     0.057 A 
ATOM     69  C   UNL A   1      43.150  22.897  28.257  1.00  0.00     0.134 A 
ATOM     70  C   UNL A   1      42.844  23.279  25.913  1.00  0.00     0.134 A 
ATOM     71  F   UNL A   1      43.628  23.252  29.460  1.00  0.00    -0.206 F 
ATOM     72  C   UNL A   1      42.477  21.680  28.157  1.00  0.00     0.040 A 
ATOM     73  C   UNL A   1      42.136  22.079  25.808  1.00  0.00     0.040 A 
ATOM     74  F   UNL A   1      42.999  24.014  24.803  1.00  0.00    -0.206 F 
ATOM     75  C   UNL A   1      41.960  21.272  26.930  1.00  0.00     0.006 A 
ENDBRANCH  54  68
BRANCH  55  76
ATOM     76  C   UNL A   1      47.865  32.516  28.452  1.00  0.00     0.057 A 
ATOM     77  C   UNL A   1      48.055  33.458  27.429  1.00  0.00     0.134 A 
ATOM     78  C   UNL A   1      48.464  32.797  29.686  1.00  0.00     0.134 A 
ATOM     79  F   UNL A   1      47.521  33.251  26.215  1.00  0.00    -0.206 F 
ATOM     80  C   UNL A   1      48.862  34.586  27.600  1.00  0.00     0.040 A 
ATOM     81  C   UNL A   1      49.242  33.943  29.884  1.00  0.00     0.040 A 
ATOM     82  F   UNL A   1      48.312  31.957  30.721  1.00  0.00    -0.206 F 
ATOM     83  C   UNL A   1      49.462  34.830  28.832  1.00  0.00     0.006 A 
ENDBRANCH  55  76
BRANCH  67  84
ATOM     84  C   UNL A   1      49.970  26.341  26.035  1.00  0.00     0.057 A 
ATOM     85  C   UNL A   1      50.413  26.643  24.742  1.00  0.00     0.134 A 
ATOM     86  C   UNL A   1      50.834  25.613  26.864  1.00  0.00     0.134 A 
ATOM     87  F   UNL A   1      49.628  27.328  23.896  1.00  0.00    -0.206 F 
ATOM     88  C   UNL A   1      51.661  26.219  24.284  1.00  0.00     0.040 A 
ATOM     89  C   UNL A   1      52.099  25.217  26.431  1.00  0.00     0.040 A 
ATOM     90  F   UNL A   1      50.475  25.301  28.119  1.00  0.00    -0.206 F 
ATOM     91  C   UNL A   1      52.512  25.515  25.134  1.00  0.00     0.006 A 
ENDBRANCH  67  84
ENDBRANCH  41  42
ENDBRANCH  33  36
ENDBRANCH  31  32
ENDBRANCH  30  31
ENDBRANCH  29  30
ENDBRANCH   3  29
TORSDOF 16
ENDMDL
