MODEL 1
REMARK VINA RESULT:     -12.1      0.000      0.000
REMARK SMILES O=C(NCCCNC(=O)c1cccn1CC(=O)N1CCS(=O)CC1)c1ccc(-c2c3nc(c(-c4c(F)cccc4F)c4ccc([nH]4)c(-c4c(F)cccc4F)c4nc(c(-c5c(F)cccc5F)c5ccc2[nH]5)C=C4)C=C3)cc1
REMARK SMILES IDX 5 1 4 2 3 3 1 4 2 5 25 7 26 8 78 9 27 10 77 11 28 12 29 13
REMARK SMILES IDX 30 14 71 15 31 16 76 17 70 18 72 19 32 20 75 21 69 22 68 23
REMARK SMILES IDX 33 25 59 26 42 27 58 28 43 29 46 30 57 31 73 32 44 33 45 34
REMARK SMILES IDX 56 36 74 37 47 38 34 39 35 40 40 41 36 42 37 43 39 44 41 45
REMARK SMILES IDX 38 46 60 47 61 48 66 49 62 50 63 51 65 52 67 53 64 54 48 55
REMARK SMILES IDX 49 56 54 57 50 58 51 59 53 60 55 61 52 62 6 63 7 64 8 65
REMARK SMILES IDX 9 67 10 68 11 69 14 70 12 71 13 72 15 73 16 74 17 75 18 76
REMARK SMILES IDX 19 77 24 78 20 79 23 80 21 81 22 82
REMARK H PARENT 3 6 72 24 46 35 7 66
REMARK Flexibility Score: inf
ROOT
ATOM      1  C   UNL A   1      33.245  28.713  26.744  1.00  0.00     0.042 C 
ENDROOT
BRANCH   1   2
ATOM      2  C   UNL A   1      34.678  28.808  27.258  1.00  0.00     0.118 C 
BRANCH   2   3
ATOM      3  N   UNL A   1      35.029  30.031  27.946  1.00  0.00    -0.352 N 
ATOM      4  O   UNL A   1      36.264  31.711  28.752  1.00  0.00    -0.269 OA
ATOM      5  C   UNL A   1      36.234  30.553  28.338  1.00  0.00     0.251 C 
ATOM      6  H   UNL A   1      34.255  30.595  28.177  1.00  0.00     0.163 HD
BRANCH   5   7
ATOM      7  C   UNL A   1      37.478  29.747  28.374  1.00  0.00     0.039 A 
ATOM      8  C   UNL A   1      38.456  29.775  27.377  1.00  0.00     0.014 A 
ATOM      9  C   UNL A   1      37.662  28.932  29.503  1.00  0.00     0.014 A 
ATOM     10  C   UNL A   1      39.563  28.934  27.462  1.00  0.00     0.010 A 
ATOM     11  C   UNL A   1      38.785  28.115  29.613  1.00  0.00     0.010 A 
ATOM     12  C   UNL A   1      39.738  28.122  28.590  1.00  0.00    -0.014 A 
BRANCH  12  13
ATOM     13  C   UNL A   1      41.077  27.517  28.790  1.00  0.00     0.031 A 
ATOM     14  C   UNL A   1      41.078  26.028  28.354  1.00  0.00     0.074 A 
ATOM     15  C   UNL A   1      42.046  28.303  29.351  1.00  0.00     0.049 A 
ATOM     16  N   UNL A   1      41.832  25.043  28.735  1.00  0.00    -0.248 NA
ATOM     17  C   UNL A   1      40.041  25.552  27.390  1.00  0.00     0.031 C 
ATOM     18  C   UNL A   1      41.887  29.740  29.665  1.00  0.00     0.029 A 
ATOM     19  N   UNL A   1      43.344  28.079  29.778  1.00  0.00    -0.354 N 
ATOM     20  C   UNL A   1      41.515  23.922  27.931  1.00  0.00     0.074 A 
ATOM     21  C   UNL A   1      40.334  24.263  27.205  1.00  0.00     0.031 C 
ATOM     22  C   UNL A   1      42.981  30.224  30.295  1.00  0.00     0.029 A 
ATOM     23  C   UNL A   1      43.969  29.172  30.445  1.00  0.00     0.049 A 
ATOM     24  H   UNL A   1      43.804  27.222  29.631  1.00  0.00     0.167 HD
ATOM     25  C   UNL A   1      42.328  22.829  27.816  1.00  0.00     0.037 A 
ATOM     26  C   UNL A   1      45.176  29.217  31.102  1.00  0.00     0.037 A 
ATOM     27  C   UNL A   1      43.453  22.976  28.668  1.00  0.00     0.049 A 
ATOM     28  C   UNL A   1      45.814  27.931  30.807  1.00  0.00     0.074 A 
ATOM     29  C   UNL A   1      43.591  22.892  30.027  1.00  0.00     0.029 A 
ATOM     30  N   UNL A   1      44.554  23.594  28.132  1.00  0.00    -0.354 N 
ATOM     31  N   UNL A   1      46.347  27.622  29.663  1.00  0.00    -0.248 NA
ATOM     32  C   UNL A   1      45.811  26.886  31.836  1.00  0.00     0.031 C 
ATOM     33  C   UNL A   1      44.547  23.885  30.313  1.00  0.00     0.029 A 
ATOM     34  C   UNL A   1      45.104  24.365  29.121  1.00  0.00     0.049 A 
ATOM     35  H   UNL A   1      44.886  23.501  27.209  1.00  0.00     0.167 HD
ATOM     36  C   UNL A   1      46.409  26.253  29.741  1.00  0.00     0.074 A 
ATOM     37  C   UNL A   1      46.408  25.917  31.147  1.00  0.00     0.031 C 
ATOM     38  C   UNL A   1      45.889  25.511  28.731  1.00  0.00     0.037 A 
BRANCH  25  39
ATOM     39  C   UNL A   1      42.381  21.691  26.834  1.00  0.00     0.057 A 
ATOM     40  C   UNL A   1      41.772  20.465  27.199  1.00  0.00     0.134 A 
ATOM     41  C   UNL A   1      43.293  21.624  25.778  1.00  0.00     0.134 A 
ATOM     42  F   UNL A   1      40.838  20.418  28.164  1.00  0.00    -0.206 F 
ATOM     43  C   UNL A   1      42.160  19.239  26.657  1.00  0.00     0.040 A 
ATOM     44  C   UNL A   1      43.655  20.402  25.193  1.00  0.00     0.040 A 
ATOM     45  F   UNL A   1      43.935  22.716  25.342  1.00  0.00    -0.206 F 
ATOM     46  C   UNL A   1      43.126  19.202  25.665  1.00  0.00     0.006 A 
ENDBRANCH  25  39
BRANCH  26  47
ATOM     47  C   UNL A   1      45.964  30.130  32.024  1.00  0.00     0.057 A 
ATOM     48  C   UNL A   1      47.176  30.760  31.734  1.00  0.00     0.134 A 
ATOM     49  C   UNL A   1      45.437  30.486  33.304  1.00  0.00     0.134 A 
ATOM     50  F   UNL A   1      47.875  30.453  30.637  1.00  0.00    -0.206 F 
ATOM     51  C   UNL A   1      47.744  31.739  32.581  1.00  0.00     0.040 A 
ATOM     52  C   UNL A   1      45.961  31.489  34.128  1.00  0.00     0.040 A 
ATOM     53  F   UNL A   1      44.369  29.874  33.831  1.00  0.00    -0.206 F 
ATOM     54  C   UNL A   1      47.116  32.139  33.757  1.00  0.00     0.006 A 
ENDBRANCH  26  47
BRANCH  38  55
ATOM     55  C   UNL A   1      45.856  26.222  27.390  1.00  0.00     0.057 A 
ATOM     56  C   UNL A   1      47.054  26.572  26.752  1.00  0.00     0.134 A 
ATOM     57  C   UNL A   1      44.687  26.690  26.768  1.00  0.00     0.134 A 
ATOM     58  F   UNL A   1      48.227  26.163  27.258  1.00  0.00    -0.206 F 
ATOM     59  C   UNL A   1      47.086  27.356  25.590  1.00  0.00     0.040 A 
ATOM     60  C   UNL A   1      44.699  27.467  25.602  1.00  0.00     0.040 A 
ATOM     61  F   UNL A   1      43.489  26.417  27.276  1.00  0.00    -0.206 F 
ATOM     62  C   UNL A   1      45.906  27.811  25.011  1.00  0.00     0.006 A 
ENDBRANCH  38  55
ENDBRANCH  12  13
ENDBRANCH   5   7
ENDBRANCH   2   3
ENDBRANCH   1   2
BRANCH   1  63
ATOM     63  C   UNL A   1      32.769  29.851  25.844  1.00  0.00     0.118 C 
BRANCH  63  64
ATOM     64  N   UNL A   1      33.219  29.696  24.472  1.00  0.00    -0.351 N 
ATOM     65  C   UNL A   1      32.745  28.936  23.435  1.00  0.00     0.267 C 
ATOM     66  H   UNL A   1      34.009  30.237  24.246  1.00  0.00     0.163 HD
ATOM     67  O   UNL A   1      33.446  28.896  22.425  1.00  0.00    -0.268 OA
BRANCH  65  68
ATOM     68  C   UNL A   1      31.496  28.210  23.551  1.00  0.00     0.107 A 
ATOM     69  C   UNL A   1      30.208  28.628  23.238  1.00  0.00     0.033 A 
ATOM     70  N   UNL A   1      31.386  26.868  23.901  1.00  0.00    -0.334 N 
ATOM     71  C   UNL A   1      29.324  27.537  23.395  1.00  0.00     0.020 A 
ATOM     72  C   UNL A   1      30.079  26.456  23.778  1.00  0.00     0.087 A 
BRANCH  70  73
ATOM     73  C   UNL A   1      32.482  25.982  24.269  1.00  0.00     0.222 C 
BRANCH  73  74
ATOM     74  C   UNL A   1      32.845  24.845  23.323  1.00  0.00     0.242 C 
ATOM     75  O   UNL A   1      33.581  25.091  22.360  1.00  0.00    -0.273 OA
ATOM     76  N   UNL A   1      32.588  23.532  23.690  1.00  0.00    -0.339 N 
ATOM     77  C   UNL A   1      33.546  22.484  23.325  1.00  0.00     0.133 C 
ATOM     78  C   UNL A   1      31.364  23.029  24.306  1.00  0.00     0.133 C 
ATOM     79  C   UNL A   1      34.063  21.775  24.575  1.00  0.00     0.126 C 
ATOM     80  C   UNL A   1      31.647  22.378  25.642  1.00  0.00     0.126 C 
ATOM     81  S   UNL A   1      32.731  20.930  25.486  1.00  0.00     0.025 S 
ATOM     82  O   UNL A   1      32.069  19.955  24.559  1.00  0.00    -0.259 OA
ENDBRANCH  73  74
ENDBRANCH  70  73
ENDBRANCH  65  68
ENDBRANCH  63  64
ENDBRANCH   1  63
TORSDOF 12
ENDMDL
MODEL 2
REMARK VINA RESULT:     -12.0      1.780      2.295
REMARK SMILES O=C(NCCCNC(=O)c1cccn1CC(=O)N1CCS(=O)CC1)c1ccc(-c2c3nc(c(-c4c(F)cccc4F)c4ccc([nH]4)c(-c4c(F)cccc4F)c4nc(c(-c5c(F)cccc5F)c5ccc2[nH]5)C=C4)C=C3)cc1
REMARK SMILES IDX 5 1 4 2 3 3 1 4 2 5 25 7 26 8 78 9 27 10 77 11 28 12 29 13
REMARK SMILES IDX 30 14 71 15 31 16 76 17 70 18 72 19 32 20 75 21 69 22 68 23
REMARK SMILES IDX 33 25 59 26 42 27 58 28 43 29 46 30 57 31 73 32 44 33 45 34
REMARK SMILES IDX 56 36 74 37 47 38 34 39 35 40 40 41 36 42 37 43 39 44 41 45
REMARK SMILES IDX 38 46 60 47 61 48 66 49 62 50 63 51 65 52 67 53 64 54 48 55
REMARK SMILES IDX 49 56 54 57 50 58 51 59 53 60 55 61 52 62 6 63 7 64 8 65
REMARK SMILES IDX 9 67 10 68 11 69 14 70 12 71 13 72 15 73 16 74 17 75 18 76
REMARK SMILES IDX 19 77 24 78 20 79 23 80 21 81 22 82
REMARK H PARENT 3 6 72 24 46 35 7 66
REMARK Flexibility Score: inf
ROOT
ATOM      1  C   UNL A   1      33.226  28.562  26.797  1.00  0.00     0.042 C 
ENDROOT
BRANCH   1   2
ATOM      2  C   UNL A   1      34.691  28.980  26.727  1.00  0.00     0.118 C 
BRANCH   2   3
ATOM      3  N   UNL A   1      35.026  30.235  27.365  1.00  0.00    -0.352 N 
ATOM      4  O   UNL A   1      36.251  31.912  28.191  1.00  0.00    -0.269 OA
ATOM      5  C   UNL A   1      36.206  30.729  27.858  1.00  0.00     0.251 C 
ATOM      6  H   UNL A   1      34.263  30.849  27.465  1.00  0.00     0.163 HD
BRANCH   5   7
ATOM      7  C   UNL A   1      37.393  29.873  28.095  1.00  0.00     0.039 A 
ATOM      8  C   UNL A   1      38.519  29.853  27.268  1.00  0.00     0.014 A 
ATOM      9  C   UNL A   1      37.358  29.060  29.240  1.00  0.00     0.014 A 
ATOM     10  C   UNL A   1      39.561  28.967  27.532  1.00  0.00     0.010 A 
ATOM     11  C   UNL A   1      38.413  28.198  29.530  1.00  0.00     0.010 A 
ATOM     12  C   UNL A   1      39.518  28.157  28.674  1.00  0.00    -0.014 A 
BRANCH  12  13
ATOM     13  C   UNL A   1      40.781  27.499  29.087  1.00  0.00     0.031 A 
ATOM     14  C   UNL A   1      41.079  26.269  28.190  1.00  0.00     0.074 A 
ATOM     15  C   UNL A   1      41.432  28.012  30.176  1.00  0.00     0.049 A 
ATOM     16  N   UNL A   1      41.772  25.200  28.435  1.00  0.00    -0.248 NA
ATOM     17  C   UNL A   1      40.459  26.191  26.833  1.00  0.00     0.031 C 
ATOM     18  C   UNL A   1      41.029  29.240  30.895  1.00  0.00     0.029 A 
ATOM     19  N   UNL A   1      42.543  27.627  30.907  1.00  0.00    -0.354 N 
ATOM     20  C   UNL A   1      41.849  24.451  27.236  1.00  0.00     0.074 A 
ATOM     21  C   UNL A   1      40.930  25.052  26.323  1.00  0.00     0.031 C 
ATOM     22  C   UNL A   1      41.808  29.445  31.981  1.00  0.00     0.029 A 
ATOM     23  C   UNL A   1      42.804  28.394  32.079  1.00  0.00     0.049 A 
ATOM     24  H   UNL A   1      43.114  26.873  30.635  1.00  0.00     0.167 HD
ATOM     25  C   UNL A   1      42.768  23.461  27.028  1.00  0.00     0.037 A 
ATOM     26  C   UNL A   1      43.727  28.178  33.074  1.00  0.00     0.037 A 
ATOM     27  C   UNL A   1      43.542  23.271  28.203  1.00  0.00     0.049 A 
ATOM     28  C   UNL A   1      44.559  27.075  32.583  1.00  0.00     0.074 A 
ATOM     29  C   UNL A   1      43.249  22.698  29.410  1.00  0.00     0.029 A 
ATOM     30  N   UNL A   1      44.684  24.022  28.315  1.00  0.00    -0.354 N 
ATOM     31  N   UNL A   1      45.457  27.192  31.652  1.00  0.00    -0.248 NA
ATOM     32  C   UNL A   1      44.340  25.728  33.122  1.00  0.00     0.031 C 
ATOM     33  C   UNL A   1      43.953  23.504  30.325  1.00  0.00     0.029 A 
ATOM     34  C   UNL A   1      44.806  24.374  29.633  1.00  0.00     0.049 A 
ATOM     35  H   UNL A   1      45.299  24.264  27.586  1.00  0.00     0.167 HD
ATOM     36  C   UNL A   1      45.637  25.887  31.267  1.00  0.00     0.074 A 
ATOM     37  C   UNL A   1      45.225  25.064  32.383  1.00  0.00     0.031 C 
ATOM     38  C   UNL A   1      45.547  25.570  29.951  1.00  0.00     0.037 A 
BRANCH  25  39
ATOM     39  C   UNL A   1      43.251  22.755  25.791  1.00  0.00     0.057 A 
ATOM     40  C   UNL A   1      43.392  21.346  25.839  1.00  0.00     0.134 A 
ATOM     41  C   UNL A   1      43.923  23.397  24.748  1.00  0.00     0.134 A 
ATOM     42  F   UNL A   1      42.747  20.618  26.766  1.00  0.00    -0.206 F 
ATOM     43  C   UNL A   1      44.266  20.646  25.004  1.00  0.00     0.040 A 
ATOM     44  C   UNL A   1      44.766  22.696  23.873  1.00  0.00     0.040 A 
ATOM     45  F   UNL A   1      43.867  24.727  24.598  1.00  0.00    -0.206 F 
ATOM     46  C   UNL A   1      44.977  21.328  24.030  1.00  0.00     0.006 A 
ENDBRANCH  25  39
BRANCH  26  47
ATOM     47  C   UNL A   1      44.080  28.681  34.462  1.00  0.00     0.057 A 
ATOM     48  C   UNL A   1      43.533  28.243  35.670  1.00  0.00     0.134 A 
ATOM     49  C   UNL A   1      45.122  29.643  34.634  1.00  0.00     0.134 A 
ATOM     50  F   UNL A   1      42.467  27.436  35.699  1.00  0.00    -0.206 F 
ATOM     51  C   UNL A   1      44.053  28.632  36.926  1.00  0.00     0.040 A 
ATOM     52  C   UNL A   1      45.680  29.999  35.867  1.00  0.00     0.040 A 
ATOM     53  F   UNL A   1      45.666  30.299  33.600  1.00  0.00    -0.206 F 
ATOM     54  C   UNL A   1      45.156  29.475  37.026  1.00  0.00     0.006 A 
ENDBRANCH  26  47
BRANCH  38  55
ATOM     55  C   UNL A   1      45.866  26.719  29.011  1.00  0.00     0.057 A 
ATOM     56  C   UNL A   1      47.161  27.254  28.973  1.00  0.00     0.134 A 
ATOM     57  C   UNL A   1      44.913  27.401  28.238  1.00  0.00     0.134 A 
ATOM     58  F   UNL A   1      48.149  26.670  29.666  1.00  0.00    -0.206 F 
ATOM     59  C   UNL A   1      47.476  28.405  28.237  1.00  0.00     0.040 A 
ATOM     60  C   UNL A   1      45.211  28.547  27.489  1.00  0.00     0.040 A 
ATOM     61  F   UNL A   1      43.650  26.984  28.189  1.00  0.00    -0.206 F 
ATOM     62  C   UNL A   1      46.499  29.060  27.494  1.00  0.00     0.006 A 
ENDBRANCH  38  55
ENDBRANCH  12  13
ENDBRANCH   5   7
ENDBRANCH   2   3
ENDBRANCH   1   2
BRANCH   1  63
ATOM     63  C   UNL A   1      32.220  29.492  26.123  1.00  0.00     0.118 C 
BRANCH  63  64
ATOM     64  N   UNL A   1      32.463  29.632  24.699  1.00  0.00    -0.351 N 
ATOM     65  C   UNL A   1      32.191  28.806  23.640  1.00  0.00     0.267 C 
ATOM     66  H   UNL A   1      32.904  30.475  24.448  1.00  0.00     0.163 HD
ATOM     67  O   UNL A   1      32.669  29.136  22.556  1.00  0.00    -0.268 OA
BRANCH  65  68
ATOM     68  C   UNL A   1      31.400  27.603  23.814  1.00  0.00     0.107 A 
ATOM     69  C   UNL A   1      30.020  27.448  23.760  1.00  0.00     0.033 A 
ATOM     70  N   UNL A   1      31.922  26.321  23.955  1.00  0.00    -0.334 N 
ATOM     71  C   UNL A   1      29.712  26.073  23.864  1.00  0.00     0.020 A 
ATOM     72  C   UNL A   1      30.904  25.397  23.955  1.00  0.00     0.087 A 
BRANCH  70  73
ATOM     73  C   UNL A   1      33.334  25.970  24.014  1.00  0.00     0.222 C 
BRANCH  73  74
ATOM     74  C   UNL A   1      33.817  24.768  23.213  1.00  0.00     0.242 C 
ATOM     75  O   UNL A   1      33.901  24.874  21.983  1.00  0.00    -0.273 OA
ATOM     76  N   UNL A   1      34.406  23.694  23.864  1.00  0.00    -0.339 N 
ATOM     77  C   UNL A   1      35.531  23.000  23.231  1.00  0.00     0.133 C 
ATOM     78  C   UNL A   1      33.936  23.064  25.093  1.00  0.00     0.133 C 
ATOM     79  C   UNL A   1      36.764  23.052  24.132  1.00  0.00     0.126 C 
ATOM     80  C   UNL A   1      34.990  23.114  26.177  1.00  0.00     0.126 C 
ATOM     81  S   UNL A   1      36.492  22.202  25.719  1.00  0.00     0.025 S 
ATOM     82  O   UNL A   1      36.101  20.783  25.435  1.00  0.00    -0.259 OA
ENDBRANCH  73  74
ENDBRANCH  70  73
ENDBRANCH  65  68
ENDBRANCH  63  64
ENDBRANCH   1  63
TORSDOF 12
ENDMDL
MODEL 3
REMARK VINA RESULT:     -11.9      3.948      6.153
REMARK SMILES O=C(NCCCNC(=O)c1cccn1CC(=O)N1CCS(=O)CC1)c1ccc(-c2c3nc(c(-c4c(F)cccc4F)c4ccc([nH]4)c(-c4c(F)cccc4F)c4nc(c(-c5c(F)cccc5F)c5ccc2[nH]5)C=C4)C=C3)cc1
REMARK SMILES IDX 5 1 4 2 3 3 1 4 2 5 25 7 26 8 78 9 27 10 77 11 28 12 29 13
REMARK SMILES IDX 30 14 71 15 31 16 76 17 70 18 72 19 32 20 75 21 69 22 68 23
REMARK SMILES IDX 33 25 59 26 42 27 58 28 43 29 46 30 57 31 73 32 44 33 45 34
REMARK SMILES IDX 56 36 74 37 47 38 34 39 35 40 40 41 36 42 37 43 39 44 41 45
REMARK SMILES IDX 38 46 60 47 61 48 66 49 62 50 63 51 65 52 67 53 64 54 48 55
REMARK SMILES IDX 49 56 54 57 50 58 51 59 53 60 55 61 52 62 6 63 7 64 8 65
REMARK SMILES IDX 9 67 10 68 11 69 14 70 12 71 13 72 15 73 16 74 17 75 18 76
REMARK SMILES IDX 19 77 24 78 20 79 23 80 21 81 22 82
REMARK H PARENT 3 6 72 24 46 35 7 66
REMARK Flexibility Score: inf
ROOT
ATOM      1  C   UNL A   1      31.285  32.207  26.499  1.00  0.00     0.042 C 
ENDROOT
BRANCH   1   2
ATOM      2  C   UNL A   1      32.500  33.002  26.968  1.00  0.00     0.118 C 
BRANCH   2   3
ATOM      3  N   UNL A   1      32.222  34.228  27.683  1.00  0.00    -0.352 N 
ATOM      4  O   UNL A   1      32.547  36.057  28.928  1.00  0.00    -0.269 OA
ATOM      5  C   UNL A   1      32.944  34.937  28.609  1.00  0.00     0.251 C 
ATOM      6  H   UNL A   1      31.350  34.629  27.465  1.00  0.00     0.163 HD
BRANCH   5   7
ATOM      7  C   UNL A   1      34.122  34.369  29.307  1.00  0.00     0.039 A 
ATOM      8  C   UNL A   1      34.054  33.683  30.522  1.00  0.00     0.014 A 
ATOM      9  C   UNL A   1      35.364  34.532  28.671  1.00  0.00     0.014 A 
ATOM     10  C   UNL A   1      35.223  33.241  31.138  1.00  0.00     0.010 A 
ATOM     11  C   UNL A   1      36.533  34.060  29.263  1.00  0.00     0.010 A 
ATOM     12  C   UNL A   1      36.458  33.409  30.498  1.00  0.00    -0.014 A 
BRANCH  12  13
ATOM     13  C   UNL A   1      37.605  32.630  31.022  1.00  0.00     0.031 A 
ATOM     14  C   UNL A   1      37.786  31.313  30.223  1.00  0.00     0.074 A 
ATOM     15  C   UNL A   1      38.264  33.133  32.111  1.00  0.00     0.049 A 
ATOM     16  N   UNL A   1      38.326  30.186  30.574  1.00  0.00    -0.248 NA
ATOM     17  C   UNL A   1      37.226  31.218  28.841  1.00  0.00     0.031 C 
ATOM     18  C   UNL A   1      37.987  34.449  32.727  1.00  0.00     0.029 A 
ATOM     19  N   UNL A   1      39.281  32.666  32.925  1.00  0.00    -0.354 N 
ATOM     20  C   UNL A   1      38.364  29.352  29.430  1.00  0.00     0.074 A 
ATOM     21  C   UNL A   1      37.573  29.996  28.431  1.00  0.00     0.031 C 
ATOM     22  C   UNL A   1      38.733  34.631  33.840  1.00  0.00     0.029 A 
ATOM     23  C   UNL A   1      39.581  33.475  34.060  1.00  0.00     0.049 A 
ATOM     24  H   UNL A   1      39.764  31.830  32.735  1.00  0.00     0.167 HD
ATOM     25  C   UNL A   1      39.158  28.243  29.338  1.00  0.00     0.037 A 
ATOM     26  C   UNL A   1      40.422  33.216  35.116  1.00  0.00     0.037 A 
ATOM     27  C   UNL A   1      39.845  28.041  30.563  1.00  0.00     0.049 A 
ATOM     28  C   UNL A   1      41.129  31.987  34.744  1.00  0.00     0.074 A 
ATOM     29  C   UNL A   1      39.425  27.595  31.786  1.00  0.00     0.029 A 
ATOM     30  N   UNL A   1      41.066  28.652  30.691  1.00  0.00    -0.354 N 
ATOM     31  N   UNL A   1      42.078  31.927  33.859  1.00  0.00    -0.248 NA
ATOM     32  C   UNL A   1      40.715  30.719  35.354  1.00  0.00     0.031 C 
ATOM     33  C   UNL A   1      40.181  28.369  32.686  1.00  0.00     0.029 A 
ATOM     34  C   UNL A   1      41.169  29.077  31.989  1.00  0.00     0.049 A 
ATOM     35  H   UNL A   1      41.741  28.764  29.983  1.00  0.00     0.167 HD
ATOM     36  C   UNL A   1      42.108  30.586  33.568  1.00  0.00     0.074 A 
ATOM     37  C   UNL A   1      41.542  29.901  34.708  1.00  0.00     0.031 C 
ATOM     38  C   UNL A   1      42.041  30.192  32.272  1.00  0.00     0.037 A 
BRANCH  25  39
ATOM     39  C   UNL A   1      39.606  27.398  28.177  1.00  0.00     0.057 A 
ATOM     40  C   UNL A   1      39.616  25.991  28.341  1.00  0.00     0.134 A 
ATOM     41  C   UNL A   1      40.359  27.890  27.109  1.00  0.00     0.134 A 
ATOM     42  F   UNL A   1      38.884  25.401  29.301  1.00  0.00    -0.206 F 
ATOM     43  C   UNL A   1      40.442  25.150  27.593  1.00  0.00     0.040 A 
ATOM     44  C   UNL A   1      41.156  27.048  26.319  1.00  0.00     0.040 A 
ATOM     45  F   UNL A   1      40.429  29.202  26.852  1.00  0.00    -0.206 F 
ATOM     46  C   UNL A   1      41.237  25.683  26.592  1.00  0.00     0.006 A 
ENDBRANCH  25  39
BRANCH  26  47
ATOM     47  C   UNL A   1      40.769  33.768  36.487  1.00  0.00     0.057 A 
ATOM     48  C   UNL A   1      41.993  34.316  36.878  1.00  0.00     0.134 A 
ATOM     49  C   UNL A   1      39.771  33.837  37.507  1.00  0.00     0.134 A 
ATOM     50  F   UNL A   1      43.075  34.229  36.098  1.00  0.00    -0.206 F 
ATOM     51  C   UNL A   1      42.169  34.975  38.116  1.00  0.00     0.040 A 
ATOM     52  C   UNL A   1      39.916  34.529  38.715  1.00  0.00     0.040 A 
ATOM     53  F   UNL A   1      38.583  33.229  37.386  1.00  0.00    -0.206 F 
ATOM     54  C   UNL A   1      41.119  35.123  39.018  1.00  0.00     0.006 A 
ENDBRANCH  26  47
BRANCH  38  55
ATOM     55  C   UNL A   1      42.548  31.223  31.279  1.00  0.00     0.057 A 
ATOM     56  C   UNL A   1      43.906  31.568  31.260  1.00  0.00     0.134 A 
ATOM     57  C   UNL A   1      41.724  31.983  30.433  1.00  0.00     0.134 A 
ATOM     58  F   UNL A   1      44.781  30.894  32.022  1.00  0.00    -0.206 F 
ATOM     59  C   UNL A   1      44.404  32.615  30.471  1.00  0.00     0.040 A 
ATOM     60  C   UNL A   1      42.205  33.027  29.632  1.00  0.00     0.040 A 
ATOM     61  F   UNL A   1      40.417  31.745  30.360  1.00  0.00    -0.206 F 
ATOM     62  C   UNL A   1      43.552  33.353  29.655  1.00  0.00     0.006 A 
ENDBRANCH  38  55
ENDBRANCH  12  13
ENDBRANCH   5   7
ENDBRANCH   2   3
ENDBRANCH   1   2
BRANCH   1  63
ATOM     63  C   UNL A   1      31.428  30.688  26.491  1.00  0.00     0.118 C 
BRANCH  63  64
ATOM     64  N   UNL A   1      32.462  30.233  25.579  1.00  0.00    -0.351 N 
ATOM     65  C   UNL A   1      32.500  29.196  24.684  1.00  0.00     0.267 C 
ATOM     66  H   UNL A   1      33.287  30.769  25.609  1.00  0.00     0.163 HD
ATOM     67  O   UNL A   1      33.590  28.966  24.164  1.00  0.00    -0.268 OA
BRANCH  65  68
ATOM     68  C   UNL A   1      31.314  28.412  24.398  1.00  0.00     0.107 A 
ATOM     69  C   UNL A   1      30.438  28.511  23.324  1.00  0.00     0.033 A 
ATOM     70  N   UNL A   1      30.901  27.300  25.125  1.00  0.00    -0.334 N 
ATOM     71  C   UNL A   1      29.501  27.456  23.402  1.00  0.00     0.020 A 
ATOM     72  C   UNL A   1      29.825  26.707  24.507  1.00  0.00     0.087 A 
BRANCH  70  73
ATOM     73  C   UNL A   1      31.541  26.769  26.321  1.00  0.00     0.222 C 
BRANCH  73  74
ATOM     74  C   UNL A   1      31.959  25.305  26.330  1.00  0.00     0.242 C 
ATOM     75  O   UNL A   1      31.471  24.557  27.185  1.00  0.00    -0.273 OA
ATOM     76  N   UNL A   1      32.644  24.775  25.246  1.00  0.00    -0.339 N 
ATOM     77  C   UNL A   1      32.357  23.403  24.816  1.00  0.00     0.133 C 
ATOM     78  C   UNL A   1      33.755  25.399  24.535  1.00  0.00     0.133 C 
ATOM     79  C   UNL A   1      31.882  23.388  23.364  1.00  0.00     0.126 C 
ATOM     80  C   UNL A   1      33.436  25.587  23.068  1.00  0.00     0.126 C 
ATOM     81  S   UNL A   1      33.155  24.007  22.218  1.00  0.00     0.025 S 
ATOM     82  O   UNL A   1      34.387  23.168  22.382  1.00  0.00    -0.259 OA
ENDBRANCH  73  74
ENDBRANCH  70  73
ENDBRANCH  65  68
ENDBRANCH  63  64
ENDBRANCH   1  63
TORSDOF 12
ENDMDL
