MODEL 1
REMARK VINA RESULT:     -10.7      0.000      0.000
REMARK SMILES COCCCOc1cccc(F)c1C(=O)NCCCNC(=O)c1ccc(-c2c3nc(c(-c4c(F)cccc4F)c4ccc([nH]4)c(-c4c(F)cccc4F)c4nc(c(-c5c(F)cccc5F)c5ccc2[nH]5)C=C4)C=C3)cc1
REMARK SMILES IDX 14 1 15 2 16 3 13 5 7 6 8 7 9 8 11 9 10 10 12 11 6 12 5 13
REMARK SMILES IDX 4 14 3 15 2 16 1 17 17 18 18 19 19 20 20 21 21 22 22 24
REMARK SMILES IDX 23 25 24 26 76 27 25 28 75 29 26 30 27 31 28 32 69 33 29 34
REMARK SMILES IDX 74 35 68 36 70 37 30 38 73 39 67 40 66 41 31 43 57 44 40 45
REMARK SMILES IDX 56 46 41 47 44 48 55 49 71 50 42 51 43 52 54 54 72 55 45 56
REMARK SMILES IDX 32 57 33 58 38 59 34 60 35 61 37 62 39 63 36 64 58 65 59 66
REMARK SMILES IDX 64 67 60 68 61 69 63 70 65 71 62 72 46 73 47 74 52 75 48 76
REMARK SMILES IDX 49 77 51 78 53 79 50 80
REMARK H PARENT 16 4 20 23 70 42 44 53
REMARK Flexibility Score: inf
ROOT
ATOM      1  C   UNL A   1      32.337  29.051  24.789  1.00  0.00     0.258 C 
ATOM      2  O   UNL A   1      33.457  28.663  24.463  1.00  0.00    -0.269 OA
ATOM      3  N   UNL A   1      32.236  30.326  25.315  1.00  0.00    -0.352 N 
ATOM      4  H   UNL A   1      33.103  30.763  25.473  1.00  0.00     0.163 HD
ENDROOT
BRANCH   1   5
ATOM      5  C   UNL A   1      31.165  28.142  24.673  1.00  0.00     0.117 A 
ATOM      6  C   UNL A   1      30.146  28.362  23.734  1.00  0.00     0.135 A 
ATOM      7  C   UNL A   1      29.244  27.340  23.411  1.00  0.00     0.047 A 
ATOM      8  C   UNL A   1      29.230  26.160  24.147  1.00  0.00     0.007 A 
ATOM      9  C   UNL A   1      31.035  27.023  25.494  1.00  0.00     0.139 A 
ATOM     10  C   UNL A   1      30.094  26.027  25.228  1.00  0.00     0.040 A 
ATOM     11  F   UNL A   1      31.787  26.886  26.596  1.00  0.00    -0.206 F 
BRANCH   6  12
ATOM     12  O   UNL A   1      29.927  29.548  23.084  1.00  0.00    -0.493 OA
BRANCH  12  13
ATOM     13  C   UNL A   1      28.524  29.763  22.801  1.00  0.00     0.232 C 
BRANCH  13  14
ATOM     14  C   UNL A   1      27.982  31.131  23.253  1.00  0.00     0.070 C 
BRANCH  14  15
ATOM     15  C   UNL A   1      28.768  32.370  22.808  1.00  0.00     0.163 C 
BRANCH  15  16
ATOM     16  O   UNL A   1      28.029  33.236  21.949  1.00  0.00    -0.385 OA
ATOM     17  C   UNL A   1      27.819  32.732  20.638  1.00  0.00     0.194 C 
ENDBRANCH  15  16
ENDBRANCH  14  15
ENDBRANCH  13  14
ENDBRANCH  12  13
ENDBRANCH   6  12
ENDBRANCH   1   5
BRANCH   3  18
ATOM     18  C   UNL A   1      31.087  31.148  25.683  1.00  0.00     0.118 C 
BRANCH  18  19
ATOM     19  C   UNL A   1      31.277  32.001  26.929  1.00  0.00     0.042 C 
BRANCH  19  20
ATOM     20  C   UNL A   1      32.614  32.716  27.039  1.00  0.00     0.118 C 
BRANCH  20  21
ATOM     21  N   UNL A   1      32.513  34.063  27.588  1.00  0.00    -0.352 N 
ATOM     22  C   UNL A   1      33.194  34.694  28.603  1.00  0.00     0.251 C 
ATOM     23  H   UNL A   1      31.831  34.624  27.153  1.00  0.00     0.163 HD
ATOM     24  O   UNL A   1      32.816  35.801  28.977  1.00  0.00    -0.269 OA
BRANCH  22  25
ATOM     25  C   UNL A   1      34.354  34.060  29.276  1.00  0.00     0.039 A 
ATOM     26  C   UNL A   1      34.117  33.077  30.243  1.00  0.00     0.014 A 
ATOM     27  C   UNL A   1      35.666  34.445  29.000  1.00  0.00     0.014 A 
ATOM     28  C   UNL A   1      35.190  32.426  30.861  1.00  0.00     0.010 A 
ATOM     29  C   UNL A   1      36.733  33.731  29.541  1.00  0.00     0.010 A 
ATOM     30  C   UNL A   1      36.509  32.712  30.478  1.00  0.00    -0.014 A 
BRANCH  30  31
ATOM     31  C   UNL A   1      37.663  31.960  31.039  1.00  0.00     0.031 A 
ATOM     32  C   UNL A   1      38.179  32.276  32.419  1.00  0.00     0.074 A 
ATOM     33  C   UNL A   1      38.289  31.035  30.283  1.00  0.00     0.049 A 
ATOM     34  N   UNL A   1      39.224  31.788  33.041  1.00  0.00    -0.248 NA
ATOM     35  C   UNL A   1      37.442  33.288  33.194  1.00  0.00     0.031 C 
ATOM     36  C   UNL A   1      37.914  30.665  28.916  1.00  0.00     0.029 A 
ATOM     37  N   UNL A   1      39.376  30.239  30.552  1.00  0.00    -0.354 N 
ATOM     38  C   UNL A   1      39.273  32.439  34.268  1.00  0.00     0.074 A 
ATOM     39  C   UNL A   1      38.189  33.397  34.284  1.00  0.00     0.031 C 
ATOM     40  C   UNL A   1      38.733  29.694  28.481  1.00  0.00     0.029 A 
ATOM     41  C   UNL A   1      39.721  29.404  29.516  1.00  0.00     0.049 A 
ATOM     42  H   UNL A   1      39.863  30.264  31.408  1.00  0.00     0.167 HD
ATOM     43  C   UNL A   1      40.125  32.236  35.298  1.00  0.00     0.037 A 
ATOM     44  C   UNL A   1      40.723  28.510  29.405  1.00  0.00     0.037 A 
ATOM     45  C   UNL A   1      41.181  31.258  35.296  1.00  0.00     0.049 A 
ATOM     46  C   UNL A   1      41.667  28.320  30.560  1.00  0.00     0.074 A 
ATOM     47  C   UNL A   1      42.062  30.945  36.316  1.00  0.00     0.029 A 
ATOM     48  N   UNL A   1      41.492  30.431  34.228  1.00  0.00    -0.354 N 
ATOM     49  N   UNL A   1      41.668  28.909  31.732  1.00  0.00    -0.248 NA
ATOM     50  C   UNL A   1      42.751  27.342  30.381  1.00  0.00     0.031 C 
ATOM     51  C   UNL A   1      42.937  29.962  35.850  1.00  0.00     0.029 A 
ATOM     52  C   UNL A   1      42.566  29.623  34.558  1.00  0.00     0.049 A 
ATOM     53  H   UNL A   1      41.020  30.422  33.364  1.00  0.00     0.167 HD
ATOM     54  C   UNL A   1      42.727  28.353  32.438  1.00  0.00     0.074 A 
ATOM     55  C   UNL A   1      43.339  27.371  31.569  1.00  0.00     0.031 C 
ATOM     56  C   UNL A   1      43.155  28.636  33.691  1.00  0.00     0.037 A 
BRANCH  43  57
ATOM     57  C   UNL A   1      39.946  33.063  36.539  1.00  0.00     0.057 A 
ATOM     58  C   UNL A   1      38.998  32.706  37.508  1.00  0.00     0.134 A 
ATOM     59  C   UNL A   1      40.635  34.267  36.721  1.00  0.00     0.134 A 
ATOM     60  F   UNL A   1      38.297  31.568  37.389  1.00  0.00    -0.206 F 
ATOM     61  C   UNL A   1      38.726  33.531  38.600  1.00  0.00     0.040 A 
ATOM     62  C   UNL A   1      40.390  35.088  37.824  1.00  0.00     0.040 A 
ATOM     63  F   UNL A   1      41.562  34.661  35.836  1.00  0.00    -0.206 F 
ATOM     64  C   UNL A   1      39.423  34.726  38.760  1.00  0.00     0.006 A 
ENDBRANCH  43  57
BRANCH  44  65
ATOM     65  C   UNL A   1      40.873  27.707  28.164  1.00  0.00     0.057 A 
ATOM     66  C   UNL A   1      40.300  26.436  28.033  1.00  0.00     0.134 A 
ATOM     67  C   UNL A   1      41.596  28.200  27.070  1.00  0.00     0.134 A 
ATOM     68  F   UNL A   1      39.601  25.902  29.045  1.00  0.00    -0.206 F 
ATOM     69  C   UNL A   1      40.449  25.682  26.869  1.00  0.00     0.040 A 
ATOM     70  C   UNL A   1      41.729  27.469  25.889  1.00  0.00     0.040 A 
ATOM     71  F   UNL A   1      42.153  29.419  27.124  1.00  0.00    -0.206 F 
ATOM     72  C   UNL A   1      41.160  26.202  25.788  1.00  0.00     0.006 A 
ENDBRANCH  44  65
BRANCH  56  73
ATOM     73  C   UNL A   1      44.322  27.858  34.223  1.00  0.00     0.057 A 
ATOM     74  C   UNL A   1      45.631  28.326  34.044  1.00  0.00     0.134 A 
ATOM     75  C   UNL A   1      44.158  26.609  34.834  1.00  0.00     0.134 A 
ATOM     76  F   UNL A   1      45.857  29.509  33.455  1.00  0.00    -0.206 F 
ATOM     77  C   UNL A   1      46.736  27.571  34.438  1.00  0.00     0.040 A 
ATOM     78  C   UNL A   1      45.256  25.857  35.258  1.00  0.00     0.040 A 
ATOM     79  F   UNL A   1      42.931  26.110  35.043  1.00  0.00    -0.206 F 
ATOM     80  C   UNL A   1      46.549  26.332  35.050  1.00  0.00     0.006 A 
ENDBRANCH  56  73
ENDBRANCH  30  31
ENDBRANCH  22  25
ENDBRANCH  20  21
ENDBRANCH  19  20
ENDBRANCH  18  19
ENDBRANCH   3  18
TORSDOF 15
ENDMDL
MODEL 2
REMARK VINA RESULT:     -10.7      1.058      6.512
REMARK SMILES COCCCOc1cccc(F)c1C(=O)NCCCNC(=O)c1ccc(-c2c3nc(c(-c4c(F)cccc4F)c4ccc([nH]4)c(-c4c(F)cccc4F)c4nc(c(-c5c(F)cccc5F)c5ccc2[nH]5)C=C4)C=C3)cc1
REMARK SMILES IDX 14 1 15 2 16 3 13 5 7 6 8 7 9 8 11 9 10 10 12 11 6 12 5 13
REMARK SMILES IDX 4 14 3 15 2 16 1 17 17 18 18 19 19 20 20 21 21 22 22 24
REMARK SMILES IDX 23 25 24 26 76 27 25 28 75 29 26 30 27 31 28 32 69 33 29 34
REMARK SMILES IDX 74 35 68 36 70 37 30 38 73 39 67 40 66 41 31 43 57 44 40 45
REMARK SMILES IDX 56 46 41 47 44 48 55 49 71 50 42 51 43 52 54 54 72 55 45 56
REMARK SMILES IDX 32 57 33 58 38 59 34 60 35 61 37 62 39 63 36 64 58 65 59 66
REMARK SMILES IDX 64 67 60 68 61 69 63 70 65 71 62 72 46 73 47 74 52 75 48 76
REMARK SMILES IDX 49 77 51 78 53 79 50 80
REMARK H PARENT 16 4 20 23 70 42 44 53
REMARK Flexibility Score: inf
ROOT
ATOM      1  C   UNL A   1      32.496  29.108  24.686  1.00  0.00     0.258 C 
ATOM      2  O   UNL A   1      33.481  28.988  23.959  1.00  0.00    -0.269 OA
ATOM      3  N   UNL A   1      32.495  30.160  25.585  1.00  0.00    -0.352 N 
ATOM      4  H   UNL A   1      33.346  30.654  25.621  1.00  0.00     0.163 HD
ENDROOT
BRANCH   1   5
ATOM      5  C   UNL A   1      31.395  28.110  24.628  1.00  0.00     0.117 A 
ATOM      6  C   UNL A   1      30.242  28.323  23.857  1.00  0.00     0.135 A 
ATOM      7  C   UNL A   1      29.387  27.257  23.548  1.00  0.00     0.047 A 
ATOM      8  C   UNL A   1      29.567  26.017  24.151  1.00  0.00     0.007 A 
ATOM      9  C   UNL A   1      31.467  26.912  25.336  1.00  0.00     0.139 A 
ATOM     10  C   UNL A   1      30.580  25.863  25.091  1.00  0.00     0.040 A 
ATOM     11  F   UNL A   1      32.373  26.742  26.312  1.00  0.00    -0.206 F 
BRANCH   6  12
ATOM     12  O   UNL A   1      29.843  29.540  23.370  1.00  0.00    -0.493 OA
BRANCH  12  13
ATOM     13  C   UNL A   1      28.858  29.408  22.318  1.00  0.00     0.232 C 
BRANCH  13  14
ATOM     14  C   UNL A   1      27.585  30.248  22.524  1.00  0.00     0.070 C 
BRANCH  14  15
ATOM     15  C   UNL A   1      27.705  31.478  23.430  1.00  0.00     0.163 C 
BRANCH  15  16
ATOM     16  O   UNL A   1      27.884  32.699  22.715  1.00  0.00    -0.385 OA
ATOM     17  C   UNL A   1      29.021  33.454  23.107  1.00  0.00     0.194 C 
ENDBRANCH  15  16
ENDBRANCH  14  15
ENDBRANCH  13  14
ENDBRANCH  12  13
ENDBRANCH   6  12
ENDBRANCH   1   5
BRANCH   3  18
ATOM     18  C   UNL A   1      31.475  30.677  26.490  1.00  0.00     0.118 C 
BRANCH  18  19
ATOM     19  C   UNL A   1      31.410  32.194  26.591  1.00  0.00     0.042 C 
BRANCH  19  20
ATOM     20  C   UNL A   1      32.654  32.871  27.145  1.00  0.00     0.118 C 
BRANCH  20  21
ATOM     21  N   UNL A   1      32.420  34.234  27.605  1.00  0.00    -0.352 N 
ATOM     22  C   UNL A   1      33.010  34.981  28.599  1.00  0.00     0.251 C 
ATOM     23  H   UNL A   1      31.710  34.708  27.115  1.00  0.00     0.163 HD
ATOM     24  O   UNL A   1      32.528  36.072  28.891  1.00  0.00    -0.269 OA
BRANCH  22  25
ATOM     25  C   UNL A   1      34.194  34.490  29.345  1.00  0.00     0.039 A 
ATOM     26  C   UNL A   1      34.007  33.933  30.615  1.00  0.00     0.014 A 
ATOM     27  C   UNL A   1      35.487  34.605  28.833  1.00  0.00     0.014 A 
ATOM     28  C   UNL A   1      35.097  33.418  31.324  1.00  0.00     0.010 A 
ATOM     29  C   UNL A   1      36.557  34.005  29.493  1.00  0.00     0.010 A 
ATOM     30  C   UNL A   1      36.376  33.403  30.747  1.00  0.00    -0.014 A 
BRANCH  30  31
ATOM     31  C   UNL A   1      37.532  32.764  31.432  1.00  0.00     0.031 A 
ATOM     32  C   UNL A   1      38.206  31.562  30.825  1.00  0.00     0.074 A 
ATOM     33  C   UNL A   1      37.936  33.227  32.632  1.00  0.00     0.049 A 
ATOM     34  N   UNL A   1      39.169  30.820  31.315  1.00  0.00    -0.248 NA
ATOM     35  C   UNL A   1      37.723  31.116  29.508  1.00  0.00     0.031 C 
ATOM     36  C   UNL A   1      37.340  34.359  33.347  1.00  0.00     0.029 A 
ATOM     37  N   UNL A   1      38.940  32.802  33.469  1.00  0.00    -0.354 N 
ATOM     38  C   UNL A   1      39.396  29.823  30.375  1.00  0.00     0.074 A 
ATOM     39  C   UNL A   1      38.435  30.015  29.311  1.00  0.00     0.031 C 
ATOM     40  C   UNL A   1      38.010  34.558  34.494  1.00  0.00     0.029 A 
ATOM     41  C   UNL A   1      39.050  33.542  34.622  1.00  0.00     0.049 A 
ATOM     42  H   UNL A   1      39.525  32.038  33.262  1.00  0.00     0.167 HD
ATOM     43  C   UNL A   1      40.338  28.852  30.384  1.00  0.00     0.037 A 
ATOM     44  C   UNL A   1      39.888  33.416  35.670  1.00  0.00     0.037 A 
ATOM     45  C   UNL A   1      41.317  28.683  31.424  1.00  0.00     0.049 A 
ATOM     46  C   UNL A   1      40.913  32.316  35.660  1.00  0.00     0.074 A 
ATOM     47  C   UNL A   1      42.346  27.759  31.493  1.00  0.00     0.029 A 
ATOM     48  N   UNL A   1      41.396  29.457  32.572  1.00  0.00    -0.354 N 
ATOM     49  N   UNL A   1      41.146  31.411  34.738  1.00  0.00    -0.248 NA
ATOM     50  C   UNL A   1      41.793  32.215  36.833  1.00  0.00     0.031 C 
ATOM     51  C   UNL A   1      43.017  27.943  32.703  1.00  0.00     0.029 A 
ATOM     52  C   UNL A   1      42.442  29.018  33.363  1.00  0.00     0.049 A 
ATOM     53  H   UNL A   1      40.796  30.207  32.790  1.00  0.00     0.167 HD
ATOM     54  C   UNL A   1      42.214  30.657  35.206  1.00  0.00     0.074 A 
ATOM     55  C   UNL A   1      42.594  31.216  36.486  1.00  0.00     0.031 C 
ATOM     56  C   UNL A   1      42.822  29.594  34.627  1.00  0.00     0.037 A 
BRANCH  43  57
ATOM     57  C   UNL A   1      40.389  27.904  29.220  1.00  0.00     0.057 A 
ATOM     58  C   UNL A   1      41.173  28.192  28.094  1.00  0.00     0.134 A 
ATOM     59  C   UNL A   1      39.580  26.763  29.171  1.00  0.00     0.134 A 
ATOM     60  F   UNL A   1      41.965  29.275  28.074  1.00  0.00    -0.206 F 
ATOM     61  C   UNL A   1      41.131  27.390  26.953  1.00  0.00     0.040 A 
ATOM     62  C   UNL A   1      39.549  25.939  28.044  1.00  0.00     0.040 A 
ATOM     63  F   UNL A   1      38.814  26.426  30.219  1.00  0.00    -0.206 F 
ATOM     64  C   UNL A   1      40.316  26.260  26.926  1.00  0.00     0.006 A 
ENDBRANCH  43  57
BRANCH  44  65
ATOM     65  C   UNL A   1      39.812  34.371  36.805  1.00  0.00     0.057 A 
ATOM     66  C   UNL A   1      40.425  35.629  36.753  1.00  0.00     0.134 A 
ATOM     67  C   UNL A   1      39.116  34.045  37.975  1.00  0.00     0.134 A 
ATOM     68  F   UNL A   1      41.114  36.003  35.664  1.00  0.00    -0.206 F 
ATOM     69  C   UNL A   1      40.358  36.521  37.825  1.00  0.00     0.040 A 
ATOM     70  C   UNL A   1      39.017  34.938  39.043  1.00  0.00     0.040 A 
ATOM     71  F   UNL A   1      38.491  32.863  38.081  1.00  0.00    -0.206 F 
ATOM     72  C   UNL A   1      39.645  36.179  38.972  1.00  0.00     0.006 A 
ENDBRANCH  44  65
BRANCH  56  73
ATOM     73  C   UNL A   1      43.983  28.976  35.347  1.00  0.00     0.057 A 
ATOM     74  C   UNL A   1      45.296  29.357  35.040  1.00  0.00     0.134 A 
ATOM     75  C   UNL A   1      43.809  27.945  36.279  1.00  0.00     0.134 A 
ATOM     76  F   UNL A   1      45.532  30.330  34.147  1.00  0.00    -0.206 F 
ATOM     77  C   UNL A   1      46.395  28.724  35.622  1.00  0.00     0.040 A 
ATOM     78  C   UNL A   1      44.901  27.323  36.888  1.00  0.00     0.040 A 
ATOM     79  F   UNL A   1      42.577  27.540  36.622  1.00  0.00    -0.206 F 
ATOM     80  C   UNL A   1      46.197  27.704  36.551  1.00  0.00     0.006 A 
ENDBRANCH  56  73
ENDBRANCH  30  31
ENDBRANCH  22  25
ENDBRANCH  20  21
ENDBRANCH  19  20
ENDBRANCH  18  19
ENDBRANCH   3  18
TORSDOF 15
ENDMDL
MODEL 3
REMARK VINA RESULT:     -10.6      5.910     10.594
REMARK SMILES COCCCOc1cccc(F)c1C(=O)NCCCNC(=O)c1ccc(-c2c3nc(c(-c4c(F)cccc4F)c4ccc([nH]4)c(-c4c(F)cccc4F)c4nc(c(-c5c(F)cccc5F)c5ccc2[nH]5)C=C4)C=C3)cc1
REMARK SMILES IDX 14 1 15 2 16 3 13 5 7 6 8 7 9 8 11 9 10 10 12 11 6 12 5 13
REMARK SMILES IDX 4 14 3 15 2 16 1 17 17 18 18 19 19 20 20 21 21 22 22 24
REMARK SMILES IDX 23 25 24 26 76 27 25 28 75 29 26 30 27 31 28 32 69 33 29 34
REMARK SMILES IDX 74 35 68 36 70 37 30 38 73 39 67 40 66 41 31 43 57 44 40 45
REMARK SMILES IDX 56 46 41 47 44 48 55 49 71 50 42 51 43 52 54 54 72 55 45 56
REMARK SMILES IDX 32 57 33 58 38 59 34 60 35 61 37 62 39 63 36 64 58 65 59 66
REMARK SMILES IDX 64 67 60 68 61 69 63 70 65 71 62 72 46 73 47 74 52 75 48 76
REMARK SMILES IDX 49 77 51 78 53 79 50 80
REMARK H PARENT 16 4 20 23 70 42 44 53
REMARK Flexibility Score: inf
ROOT
ATOM      1  C   UNL A   1      35.107  21.570  25.890  1.00  0.00     0.258 C 
ATOM      2  O   UNL A   1      34.664  21.795  27.015  1.00  0.00    -0.269 OA
ATOM      3  N   UNL A   1      36.481  21.489  25.754  1.00  0.00    -0.352 N 
ATOM      4  H   UNL A   1      36.977  21.726  26.570  1.00  0.00     0.163 HD
ENDROOT
BRANCH   1   5
ATOM      5  C   UNL A   1      34.184  21.460  24.729  1.00  0.00     0.117 A 
ATOM      6  C   UNL A   1      33.439  20.297  24.482  1.00  0.00     0.135 A 
ATOM      7  C   UNL A   1      32.346  20.326  23.605  1.00  0.00     0.047 A 
ATOM      8  C   UNL A   1      32.101  21.454  22.828  1.00  0.00     0.007 A 
ATOM      9  C   UNL A   1      34.016  22.517  23.836  1.00  0.00     0.139 A 
ATOM     10  C   UNL A   1      32.975  22.532  22.907  1.00  0.00     0.040 A 
ATOM     11  F   UNL A   1      34.881  23.544  23.814  1.00  0.00    -0.206 F 
BRANCH   6  12
ATOM     12  O   UNL A   1      33.702  19.070  25.031  1.00  0.00    -0.493 OA
BRANCH  12  13
ATOM     13  C   UNL A   1      34.706  18.344  24.283  1.00  0.00     0.232 C 
BRANCH  13  14
ATOM     14  C   UNL A   1      34.393  16.852  24.074  1.00  0.00     0.070 C 
BRANCH  14  15
ATOM     15  C   UNL A   1      34.099  16.021  25.328  1.00  0.00     0.163 C 
BRANCH  15  16
ATOM     16  O   UNL A   1      33.287  14.876  25.077  1.00  0.00    -0.385 OA
ATOM     17  C   UNL A   1      32.076  14.834  25.817  1.00  0.00     0.194 C 
ENDBRANCH  15  16
ENDBRANCH  14  15
ENDBRANCH  13  14
ENDBRANCH  12  13
ENDBRANCH   6  12
ENDBRANCH   1   5
BRANCH   3  18
ATOM     18  C   UNL A   1      37.337  21.119  24.631  1.00  0.00     0.118 C 
BRANCH  18  19
ATOM     19  C   UNL A   1      38.201  19.888  24.856  1.00  0.00     0.042 C 
BRANCH  19  20
ATOM     20  C   UNL A   1      39.136  19.950  26.054  1.00  0.00     0.118 C 
BRANCH  20  21
ATOM     21  N   UNL A   1      40.354  19.167  25.886  1.00  0.00    -0.352 N 
ATOM     22  C   UNL A   1      41.683  19.498  26.019  1.00  0.00     0.251 C 
ATOM     23  H   UNL A   1      40.197  18.230  25.629  1.00  0.00     0.163 HD
ATOM     24  O   UNL A   1      42.537  18.685  25.675  1.00  0.00    -0.269 OA
BRANCH  22  25
ATOM     25  C   UNL A   1      42.109  20.819  26.540  1.00  0.00     0.039 A 
ATOM     26  C   UNL A   1      42.504  21.806  25.631  1.00  0.00     0.014 A 
ATOM     27  C   UNL A   1      42.165  21.088  27.908  1.00  0.00     0.014 A 
ATOM     28  C   UNL A   1      42.867  23.077  26.087  1.00  0.00     0.010 A 
ATOM     29  C   UNL A   1      42.430  22.380  28.357  1.00  0.00     0.010 A 
ATOM     30  C   UNL A   1      42.784  23.392  27.452  1.00  0.00    -0.014 A 
BRANCH  30  31
ATOM     31  C   UNL A   1      43.058  24.766  27.953  1.00  0.00     0.031 A 
ATOM     32  C   UNL A   1      44.462  25.181  28.307  1.00  0.00     0.074 A 
ATOM     33  C   UNL A   1      42.034  25.621  28.150  1.00  0.00     0.049 A 
ATOM     34  N   UNL A   1      44.883  26.302  28.837  1.00  0.00    -0.248 NA
ATOM     35  C   UNL A   1      45.533  24.202  28.056  1.00  0.00     0.031 C 
ATOM     36  C   UNL A   1      40.623  25.328  27.887  1.00  0.00     0.029 A 
ATOM     37  N   UNL A   1      42.019  26.911  28.624  1.00  0.00    -0.354 N 
ATOM     38  C   UNL A   1      46.256  26.158  28.991  1.00  0.00     0.074 A 
ATOM     39  C   UNL A   1      46.594  24.822  28.553  1.00  0.00     0.031 C 
ATOM     40  C   UNL A   1      39.886  26.415  28.168  1.00  0.00     0.029 A 
ATOM     41  C   UNL A   1      40.762  27.466  28.678  1.00  0.00     0.049 A 
ATOM     42  H   UNL A   1      42.832  27.393  28.899  1.00  0.00     0.167 HD
ATOM     43  C   UNL A   1      47.157  27.066  29.430  1.00  0.00     0.037 A 
ATOM     44  C   UNL A   1      40.355  28.681  29.096  1.00  0.00     0.037 A 
ATOM     45  C   UNL A   1      46.824  28.408  29.833  1.00  0.00     0.049 A 
ATOM     46  C   UNL A   1      41.378  29.663  29.598  1.00  0.00     0.074 A 
ATOM     47  C   UNL A   1      47.678  29.416  30.243  1.00  0.00     0.029 A 
ATOM     48  N   UNL A   1      45.541  28.929  29.868  1.00  0.00    -0.354 N 
ATOM     49  N   UNL A   1      42.679  29.527  29.689  1.00  0.00    -0.248 NA
ATOM     50  C   UNL A   1      40.880  30.968  30.055  1.00  0.00     0.031 C 
ATOM     51  C   UNL A   1      46.908  30.533  30.571  1.00  0.00     0.029 A 
ATOM     52  C   UNL A   1      45.579  30.239  30.313  1.00  0.00     0.049 A 
ATOM     53  H   UNL A   1      44.725  28.440  29.615  1.00  0.00     0.167 HD
ATOM     54  C   UNL A   1      43.155  30.734  30.182  1.00  0.00     0.074 A 
ATOM     55  C   UNL A   1      42.006  31.597  30.359  1.00  0.00     0.031 C 
ATOM     56  C   UNL A   1      44.430  31.093  30.468  1.00  0.00     0.037 A 
BRANCH  43  57
ATOM     57  C   UNL A   1      48.603  26.665  29.476  1.00  0.00     0.057 A 
ATOM     58  C   UNL A   1      49.163  26.134  30.647  1.00  0.00     0.134 A 
ATOM     59  C   UNL A   1      49.463  26.904  28.399  1.00  0.00     0.134 A 
ATOM     60  F   UNL A   1      48.395  25.889  31.719  1.00  0.00    -0.206 F 
ATOM     61  C   UNL A   1      50.531  25.879  30.749  1.00  0.00     0.040 A 
ATOM     62  C   UNL A   1      50.829  26.628  28.480  1.00  0.00     0.040 A 
ATOM     63  F   UNL A   1      48.989  27.401  27.246  1.00  0.00    -0.206 F 
ATOM     64  C   UNL A   1      51.368  26.127  29.663  1.00  0.00     0.006 A 
ENDBRANCH  43  57
BRANCH  44  65
ATOM     65  C   UNL A   1      38.917  29.048  29.037  1.00  0.00     0.057 A 
ATOM     66  C   UNL A   1      38.321  29.509  27.857  1.00  0.00     0.134 A 
ATOM     67  C   UNL A   1      38.099  28.941  30.169  1.00  0.00     0.134 A 
ATOM     68  F   UNL A   1      39.049  29.642  26.738  1.00  0.00    -0.206 F 
ATOM     69  C   UNL A   1      36.971  29.860  27.807  1.00  0.00     0.040 A 
ATOM     70  C   UNL A   1      36.742  29.261  30.126  1.00  0.00     0.040 A 
ATOM     71  F   UNL A   1      38.605  28.487  31.325  1.00  0.00    -0.206 F 
ATOM     72  C   UNL A   1      36.175  29.728  28.943  1.00  0.00     0.006 A 
ENDBRANCH  44  65
BRANCH  56  73
ATOM     73  C   UNL A   1      44.668  32.485  30.971  1.00  0.00     0.057 A 
ATOM     74  C   UNL A   1      44.622  32.764  32.344  1.00  0.00     0.134 A 
ATOM     75  C   UNL A   1      44.856  33.564  30.098  1.00  0.00     0.134 A 
ATOM     76  F   UNL A   1      44.433  31.778  33.234  1.00  0.00    -0.206 F 
ATOM     77  C   UNL A   1      44.738  34.067  32.828  1.00  0.00     0.040 A 
ATOM     78  C   UNL A   1      45.000  34.868  30.573  1.00  0.00     0.040 A 
ATOM     79  F   UNL A   1      44.918  33.362  28.773  1.00  0.00    -0.206 F 
ATOM     80  C   UNL A   1      44.930  35.124  31.940  1.00  0.00     0.006 A 
ENDBRANCH  56  73
ENDBRANCH  30  31
ENDBRANCH  22  25
ENDBRANCH  20  21
ENDBRANCH  19  20
ENDBRANCH  18  19
ENDBRANCH   3  18
TORSDOF 15
ENDMDL
