MODEL 1
REMARK VINA RESULT:     -10.6      0.000      0.000
REMARK SMILES C[C@@H]1CC[N@H+]1[C@H](C(=O)NCCCNC(=O)c1ccc(-c2c3nc(c(-c4c(F)cccc4F)c4ccc([nH]4)c(-c4c(F)cccc4F)c4nc(c(-c5c(F)cccc5F)c5ccc2[nH]5)C=C4)C=C3)cc1)C1CC1
REMARK SMILES IDX 11 1 10 2 9 3 7 4 8 5 6 7 5 8 1 9 2 10 3 11 4 12 70 14 71 15
REMARK SMILES IDX 72 16 12 17 13 18 14 19 15 21 16 22 17 23 69 24 18 25 68 26
REMARK SMILES IDX 19 27 20 28 21 29 62 30 22 31 67 32 61 33 63 34 23 35 66 36
REMARK SMILES IDX 60 37 59 38 24 40 50 41 33 42 49 43 34 44 37 45 48 46 64 47
REMARK SMILES IDX 35 48 36 49 47 51 65 52 38 53 25 54 26 55 31 56 27 57 28 58
REMARK SMILES IDX 30 59 32 60 29 61 51 62 52 63 57 64 53 65 54 66 56 67 58 68
REMARK SMILES IDX 55 69 39 70 40 71 45 72 41 73 42 74 44 75 46 76 43 77
REMARK H PARENT 9 6 5 13 13 20 63 39 37 50
REMARK Flexibility Score: inf
ROOT
ATOM      1  C   UNL A   1      37.755  19.671  25.000  1.00  0.00     0.042 C 
ENDROOT
BRANCH   1   2
ATOM      2  C   UNL A   1      36.669  20.735  24.844  1.00  0.00     0.118 C 
BRANCH   2   3
ATOM      3  N   UNL A   1      35.395  20.309  25.395  1.00  0.00    -0.351 N 
ATOM      4  C   UNL A   1      34.184  20.934  25.492  1.00  0.00     0.278 C 
ATOM      5  O   UNL A   1      33.320  20.322  26.130  1.00  0.00    -0.268 OA
ATOM      6  H   UNL A   1      35.407  19.399  25.771  1.00  0.00     0.163 HD
BRANCH   4   7
ATOM      7  C   UNL A   1      33.934  22.327  24.843  1.00  0.00     0.277 C 
BRANCH   7   8
ATOM      8  N   UNL A   1      32.518  22.352  24.386  1.00  0.00    -0.322 N 
ATOM      9  C   UNL A   1      30.638  22.670  26.021  1.00  0.00     0.075 C 
ATOM     10  C   UNL A   1      31.644  23.324  25.090  1.00  0.00     0.187 C 
ATOM     11  C   UNL A   1      31.061  23.707  23.708  1.00  0.00     0.126 C 
ATOM     12  C   UNL A   1      32.339  23.088  23.121  1.00  0.00     0.269 C 
ATOM     13  H   UNL A   1      32.308  21.357  24.454  1.00  0.00     0.349 HD
ENDBRANCH   7   8
BRANCH   7  14
ATOM     14  C   UNL A   1      34.390  23.506  25.687  1.00  0.00     0.057 C 
ATOM     15  C   UNL A   1      35.822  23.993  25.748  1.00  0.00     0.011 C 
ATOM     16  C   UNL A   1      34.777  24.827  25.066  1.00  0.00     0.011 C 
ENDBRANCH   7  14
ENDBRANCH   4   7
ENDBRANCH   2   3
ENDBRANCH   1   2
BRANCH   1  17
ATOM     17  C   UNL A   1      39.001  20.134  25.748  1.00  0.00     0.118 C 
BRANCH  17  18
ATOM     18  N   UNL A   1      40.035  19.112  25.803  1.00  0.00    -0.352 N 
ATOM     19  C   UNL A   1      41.388  19.244  25.995  1.00  0.00     0.251 C 
ATOM     20  H   UNL A   1      39.717  18.187  25.685  1.00  0.00     0.163 HD
ATOM     21  O   UNL A   1      42.127  18.272  25.824  1.00  0.00    -0.269 OA
BRANCH  19  22
ATOM     22  C   UNL A   1      41.974  20.547  26.380  1.00  0.00     0.039 A 
ATOM     23  C   UNL A   1      42.359  21.440  25.376  1.00  0.00     0.014 A 
ATOM     24  C   UNL A   1      42.168  20.886  27.722  1.00  0.00     0.014 A 
ATOM     25  C   UNL A   1      42.868  22.696  25.715  1.00  0.00     0.010 A 
ATOM     26  C   UNL A   1      42.600  22.167  28.061  1.00  0.00     0.010 A 
ATOM     27  C   UNL A   1      42.958  23.086  27.062  1.00  0.00    -0.014 A 
BRANCH  27  28
ATOM     28  C   UNL A   1      43.430  24.441  27.451  1.00  0.00     0.031 A 
ATOM     29  C   UNL A   1      42.443  25.490  27.884  1.00  0.00     0.074 A 
ATOM     30  C   UNL A   1      44.736  24.755  27.340  1.00  0.00     0.049 A 
ATOM     31  N   UNL A   1      42.643  26.756  28.153  1.00  0.00    -0.248 NA
ATOM     32  C   UNL A   1      41.039  25.066  28.001  1.00  0.00     0.031 C 
ATOM     33  C   UNL A   1      45.793  23.845  26.896  1.00  0.00     0.029 A 
ATOM     34  N   UNL A   1      45.394  25.938  27.575  1.00  0.00    -0.354 N 
ATOM     35  C   UNL A   1      41.391  27.281  28.448  1.00  0.00     0.074 A 
ATOM     36  C   UNL A   1      40.433  26.211  28.276  1.00  0.00     0.031 C 
ATOM     37  C   UNL A   1      46.967  24.496  26.905  1.00  0.00     0.029 A 
ATOM     38  C   UNL A   1      46.742  25.881  27.312  1.00  0.00     0.049 A 
ATOM     39  H   UNL A   1      44.943  26.750  27.901  1.00  0.00     0.167 HD
ATOM     40  C   UNL A   1      41.070  28.537  28.843  1.00  0.00     0.037 A 
ATOM     41  C   UNL A   1      47.687  26.837  27.374  1.00  0.00     0.037 A 
ATOM     42  C   UNL A   1      42.026  29.594  29.040  1.00  0.00     0.049 A 
ATOM     43  C   UNL A   1      47.307  28.226  27.805  1.00  0.00     0.074 A 
ATOM     44  C   UNL A   1      41.807  30.879  29.502  1.00  0.00     0.029 A 
ATOM     45  N   UNL A   1      43.385  29.488  28.783  1.00  0.00    -0.354 N 
ATOM     46  N   UNL A   1      46.129  28.693  28.141  1.00  0.00    -0.248 NA
ATOM     47  C   UNL A   1      48.388  29.221  27.870  1.00  0.00     0.031 C 
ATOM     48  C   UNL A   1      43.025  31.567  29.480  1.00  0.00     0.029 A 
ATOM     49  C   UNL A   1      44.012  30.692  29.053  1.00  0.00     0.049 A 
ATOM     50  H   UNL A   1      43.837  28.676  28.456  1.00  0.00     0.167 HD
ATOM     51  C   UNL A   1      46.331  30.023  28.485  1.00  0.00     0.074 A 
ATOM     52  C   UNL A   1      47.745  30.288  28.325  1.00  0.00     0.031 C 
ATOM     53  C   UNL A   1      45.424  30.941  28.901  1.00  0.00     0.037 A 
BRANCH  40  54
ATOM     54  C   UNL A   1      39.618  28.836  29.084  1.00  0.00     0.057 A 
ATOM     55  C   UNL A   1      39.033  28.698  30.350  1.00  0.00     0.134 A 
ATOM     56  C   UNL A   1      38.800  29.292  28.043  1.00  0.00     0.134 A 
ATOM     57  F   UNL A   1      39.757  28.255  31.389  1.00  0.00    -0.206 F 
ATOM     58  C   UNL A   1      37.680  28.971  30.564  1.00  0.00     0.040 A 
ATOM     59  C   UNL A   1      37.454  29.597  28.251  1.00  0.00     0.040 A 
ATOM     60  F   UNL A   1      39.296  29.456  26.807  1.00  0.00    -0.206 F 
ATOM     61  C   UNL A   1      36.888  29.429  29.513  1.00  0.00     0.006 A 
ENDBRANCH  40  54
BRANCH  41  62
ATOM     62  C   UNL A   1      49.094  26.508  27.032  1.00  0.00     0.057 A 
ATOM     63  C   UNL A   1      49.557  26.601  25.714  1.00  0.00     0.134 A 
ATOM     64  C   UNL A   1      50.010  26.099  28.009  1.00  0.00     0.134 A 
ATOM     65  F   UNL A   1      48.723  26.969  24.731  1.00  0.00    -0.206 F 
ATOM     66  C   UNL A   1      50.874  26.287  25.377  1.00  0.00     0.040 A 
ATOM     67  C   UNL A   1      51.337  25.804  27.690  1.00  0.00     0.040 A 
ATOM     68  F   UNL A   1      49.631  25.996  29.292  1.00  0.00    -0.206 F 
ATOM     69  C   UNL A   1      51.771  25.893  26.369  1.00  0.00     0.006 A 
ENDBRANCH  41  62
BRANCH  53  70
ATOM     70  C   UNL A   1      45.932  32.308  29.253  1.00  0.00     0.057 A 
ATOM     71  C   UNL A   1      45.965  33.350  28.318  1.00  0.00     0.134 A 
ATOM     72  C   UNL A   1      46.338  32.599  30.562  1.00  0.00     0.134 A 
ATOM     73  F   UNL A   1      45.603  33.135  27.045  1.00  0.00    -0.206 F 
ATOM     74  C   UNL A   1      46.398  34.630  28.670  1.00  0.00     0.040 A 
ATOM     75  C   UNL A   1      46.747  33.881  30.932  1.00  0.00     0.040 A 
ATOM     76  F   UNL A   1      46.322  31.648  31.507  1.00  0.00    -0.206 F 
ATOM     77  C   UNL A   1      46.782  34.900  29.983  1.00  0.00     0.006 A 
ENDBRANCH  53  70
ENDBRANCH  27  28
ENDBRANCH  19  22
ENDBRANCH  17  18
ENDBRANCH   1  17
TORSDOF 12
ENDMDL
MODEL 2
REMARK VINA RESULT:     -10.5      0.442      1.449
REMARK SMILES C[C@@H]1CC[N@H+]1[C@H](C(=O)NCCCNC(=O)c1ccc(-c2c3nc(c(-c4c(F)cccc4F)c4ccc([nH]4)c(-c4c(F)cccc4F)c4nc(c(-c5c(F)cccc5F)c5ccc2[nH]5)C=C4)C=C3)cc1)C1CC1
REMARK SMILES IDX 11 1 10 2 9 3 7 4 8 5 6 7 5 8 1 9 2 10 3 11 4 12 70 14 71 15
REMARK SMILES IDX 72 16 12 17 13 18 14 19 15 21 16 22 17 23 69 24 18 25 68 26
REMARK SMILES IDX 19 27 20 28 21 29 62 30 22 31 67 32 61 33 63 34 23 35 66 36
REMARK SMILES IDX 60 37 59 38 24 40 50 41 33 42 49 43 34 44 37 45 48 46 64 47
REMARK SMILES IDX 35 48 36 49 47 51 65 52 38 53 25 54 26 55 31 56 27 57 28 58
REMARK SMILES IDX 30 59 32 60 29 61 51 62 52 63 57 64 53 65 54 66 56 67 58 68
REMARK SMILES IDX 55 69 39 70 40 71 45 72 41 73 42 74 44 75 46 76 43 77
REMARK H PARENT 9 6 5 13 13 20 63 39 37 50
REMARK Flexibility Score: inf
ROOT
ATOM      1  C   UNL A   1      37.778  19.672  25.003  1.00  0.00     0.042 C 
ENDROOT
BRANCH   1   2
ATOM      2  C   UNL A   1      36.677  20.719  24.837  1.00  0.00     0.118 C 
BRANCH   2   3
ATOM      3  N   UNL A   1      35.417  20.294  25.421  1.00  0.00    -0.351 N 
ATOM      4  C   UNL A   1      34.202  20.908  25.522  1.00  0.00     0.278 C 
ATOM      5  O   UNL A   1      33.354  20.305  26.190  1.00  0.00    -0.268 OA
ATOM      6  H   UNL A   1      35.446  19.394  25.820  1.00  0.00     0.163 HD
BRANCH   4   7
ATOM      7  C   UNL A   1      33.925  22.281  24.842  1.00  0.00     0.277 C 
BRANCH   7   8
ATOM      8  N   UNL A   1      32.506  22.274  24.395  1.00  0.00    -0.322 N 
ATOM      9  C   UNL A   1      30.634  22.625  26.032  1.00  0.00     0.075 C 
ATOM     10  C   UNL A   1      31.624  23.258  25.071  1.00  0.00     0.187 C 
ATOM     11  C   UNL A   1      31.027  23.586  23.681  1.00  0.00     0.126 C 
ATOM     12  C   UNL A   1      32.308  22.963  23.106  1.00  0.00     0.269 C 
ATOM     13  H   UNL A   1      32.308  21.279  24.498  1.00  0.00     0.349 HD
ENDBRANCH   7   8
BRANCH   7  14
ATOM     14  C   UNL A   1      34.369  23.488  25.653  1.00  0.00     0.057 C 
ATOM     15  C   UNL A   1      35.794  23.992  25.699  1.00  0.00     0.011 C 
ATOM     16  C   UNL A   1      34.739  24.796  24.997  1.00  0.00     0.011 C 
ENDBRANCH   7  14
ENDBRANCH   4   7
ENDBRANCH   2   3
ENDBRANCH   1   2
BRANCH   1  17
ATOM     17  C   UNL A   1      39.015  20.157  25.751  1.00  0.00     0.118 C 
BRANCH  17  18
ATOM     18  N   UNL A   1      40.057  19.144  25.829  1.00  0.00    -0.352 N 
ATOM     19  C   UNL A   1      41.399  19.286  26.083  1.00  0.00     0.251 C 
ATOM     20  H   UNL A   1      39.754  18.220  25.678  1.00  0.00     0.163 HD
ATOM     21  O   UNL A   1      42.155  18.326  25.923  1.00  0.00    -0.269 OA
BRANCH  19  22
ATOM     22  C   UNL A   1      41.954  20.586  26.520  1.00  0.00     0.039 A 
ATOM     23  C   UNL A   1      42.412  21.487  25.554  1.00  0.00     0.014 A 
ATOM     24  C   UNL A   1      42.046  20.916  27.875  1.00  0.00     0.014 A 
ATOM     25  C   UNL A   1      42.893  22.741  25.940  1.00  0.00     0.010 A 
ATOM     26  C   UNL A   1      42.450  22.195  28.254  1.00  0.00     0.010 A 
ATOM     27  C   UNL A   1      42.881  23.121  27.292  1.00  0.00    -0.014 A 
BRANCH  27  28
ATOM     28  C   UNL A   1      43.322  24.472  27.725  1.00  0.00     0.031 A 
ATOM     29  C   UNL A   1      42.304  25.525  28.071  1.00  0.00     0.074 A 
ATOM     30  C   UNL A   1      44.634  24.782  27.731  1.00  0.00     0.049 A 
ATOM     31  N   UNL A   1      42.484  26.789  28.361  1.00  0.00    -0.248 NA
ATOM     32  C   UNL A   1      40.894  25.106  28.061  1.00  0.00     0.031 C 
ATOM     33  C   UNL A   1      45.722  23.869  27.381  1.00  0.00     0.029 A 
ATOM     34  N   UNL A   1      45.273  25.962  28.027  1.00  0.00    -0.354 N 
ATOM     35  C   UNL A   1      41.212  27.319  28.544  1.00  0.00     0.074 A 
ATOM     36  C   UNL A   1      40.269  26.252  28.284  1.00  0.00     0.031 C 
ATOM     37  C   UNL A   1      46.893  24.516  27.496  1.00  0.00     0.029 A 
ATOM     38  C   UNL A   1      46.638  25.900  27.885  1.00  0.00     0.049 A 
ATOM     39  H   UNL A   1      44.797  26.775  28.314  1.00  0.00     0.167 HD
ATOM     40  C   UNL A   1      40.862  28.575  28.912  1.00  0.00     0.037 A 
ATOM     41  C   UNL A   1      47.578  26.852  28.033  1.00  0.00     0.037 A 
ATOM     42  C   UNL A   1      41.801  29.627  29.197  1.00  0.00     0.049 A 
ATOM     43  C   UNL A   1      47.166  28.242  28.433  1.00  0.00     0.074 A 
ATOM     44  C   UNL A   1      41.546  30.913  29.641  1.00  0.00     0.029 A 
ATOM     45  N   UNL A   1      43.177  29.517  29.061  1.00  0.00    -0.354 N 
ATOM     46  N   UNL A   1      45.964  28.713  28.664  1.00  0.00    -0.248 NA
ATOM     47  C   UNL A   1      48.240  29.232  28.596  1.00  0.00     0.031 C 
ATOM     48  C   UNL A   1      42.764  31.596  29.729  1.00  0.00     0.029 A 
ATOM     49  C   UNL A   1      43.782  30.718  29.390  1.00  0.00     0.049 A 
ATOM     50  H   UNL A   1      43.653  28.704  28.774  1.00  0.00     0.167 HD
ATOM     51  C   UNL A   1      46.140  30.041  29.029  1.00  0.00     0.074 A 
ATOM     52  C   UNL A   1      47.564  30.301  28.995  1.00  0.00     0.031 C 
ATOM     53  C   UNL A   1      45.202  30.962  29.364  1.00  0.00     0.037 A 
BRANCH  40  54
ATOM     54  C   UNL A   1      39.395  28.879  29.024  1.00  0.00     0.057 A 
ATOM     55  C   UNL A   1      38.698  28.736  30.231  1.00  0.00     0.134 A 
ATOM     56  C   UNL A   1      38.677  29.345  27.916  1.00  0.00     0.134 A 
ATOM     57  F   UNL A   1      39.325  28.282  31.328  1.00  0.00    -0.206 F 
ATOM     58  C   UNL A   1      37.334  29.013  30.325  1.00  0.00     0.040 A 
ATOM     59  C   UNL A   1      37.318  29.655  28.005  1.00  0.00     0.040 A 
ATOM     60  F   UNL A   1      39.283  29.515  26.732  1.00  0.00    -0.206 F 
ATOM     61  C   UNL A   1      36.641  29.481  29.210  1.00  0.00     0.006 A 
ENDBRANCH  40  54
BRANCH  41  62
ATOM     62  C   UNL A   1      49.009  26.518  27.817  1.00  0.00     0.057 A 
ATOM     63  C   UNL A   1      49.816  26.086  28.875  1.00  0.00     0.134 A 
ATOM     64  C   UNL A   1      49.601  26.618  26.553  1.00  0.00     0.134 A 
ATOM     65  F   UNL A   1      49.310  25.989  30.114  1.00  0.00    -0.206 F 
ATOM     66  C   UNL A   1      51.164  25.776  28.689  1.00  0.00     0.040 A 
ATOM     67  C   UNL A   1      50.943  26.288  26.347  1.00  0.00     0.040 A 
ATOM     68  F   UNL A   1      48.880  27.019  25.496  1.00  0.00    -0.206 F 
ATOM     69  C   UNL A   1      51.729  25.871  27.418  1.00  0.00     0.006 A 
ENDBRANCH  41  62
BRANCH  53  70
ATOM     70  C   UNL A   1      45.682  32.326  29.764  1.00  0.00     0.057 A 
ATOM     71  C   UNL A   1      46.041  32.627  31.083  1.00  0.00     0.134 A 
ATOM     72  C   UNL A   1      45.842  33.333  28.803  1.00  0.00     0.134 A 
ATOM     73  F   UNL A   1      45.899  31.712  32.054  1.00  0.00    -0.206 F 
ATOM     74  C   UNL A   1      46.530  33.887  31.435  1.00  0.00     0.040 A 
ATOM     75  C   UNL A   1      46.354  34.587  29.138  1.00  0.00     0.040 A 
ATOM     76  F   UNL A   1      45.525  33.106  27.520  1.00  0.00    -0.206 F 
ATOM     77  C   UNL A   1      46.696  34.868  30.459  1.00  0.00     0.006 A 
ENDBRANCH  53  70
ENDBRANCH  27  28
ENDBRANCH  19  22
ENDBRANCH  17  18
ENDBRANCH   1  17
TORSDOF 12
ENDMDL
MODEL 3
REMARK VINA RESULT:     -10.5      5.750     10.480
REMARK SMILES C[C@@H]1CC[N@H+]1[C@H](C(=O)NCCCNC(=O)c1ccc(-c2c3nc(c(-c4c(F)cccc4F)c4ccc([nH]4)c(-c4c(F)cccc4F)c4nc(c(-c5c(F)cccc5F)c5ccc2[nH]5)C=C4)C=C3)cc1)C1CC1
REMARK SMILES IDX 11 1 10 2 9 3 7 4 8 5 6 7 5 8 1 9 2 10 3 11 4 12 70 14 71 15
REMARK SMILES IDX 72 16 12 17 13 18 14 19 15 21 16 22 17 23 69 24 18 25 68 26
REMARK SMILES IDX 19 27 20 28 21 29 62 30 22 31 67 32 61 33 63 34 23 35 66 36
REMARK SMILES IDX 60 37 59 38 24 40 50 41 33 42 49 43 34 44 37 45 48 46 64 47
REMARK SMILES IDX 35 48 36 49 47 51 65 52 38 53 25 54 26 55 31 56 27 57 28 58
REMARK SMILES IDX 30 59 32 60 29 61 51 62 52 63 57 64 53 65 54 66 56 67 58 68
REMARK SMILES IDX 55 69 39 70 40 71 45 72 41 73 42 74 44 75 46 76 43 77
REMARK H PARENT 9 6 5 13 13 20 63 39 37 50
REMARK Flexibility Score: inf
ROOT
ATOM      1  C   UNL A   1      31.397  31.795  26.509  1.00  0.00     0.042 C 
ENDROOT
BRANCH   1   2
ATOM      2  C   UNL A   1      31.541  30.329  26.105  1.00  0.00     0.118 C 
BRANCH   2   3
ATOM      3  N   UNL A   1      31.279  30.116  24.693  1.00  0.00    -0.351 N 
ATOM      4  C   UNL A   1      31.349  29.002  23.906  1.00  0.00     0.278 C 
ATOM      5  O   UNL A   1      31.167  29.191  22.698  1.00  0.00    -0.268 OA
ATOM      6  H   UNL A   1      31.001  30.929  24.212  1.00  0.00     0.163 HD
BRANCH   4   7
ATOM      7  C   UNL A   1      31.649  27.598  24.509  1.00  0.00     0.277 C 
BRANCH   7   8
ATOM      8  N   UNL A   1      30.933  26.597  23.672  1.00  0.00    -0.322 N 
ATOM      9  C   UNL A   1      31.842  25.893  21.439  1.00  0.00     0.075 C 
ATOM     10  C   UNL A   1      31.806  25.648  22.937  1.00  0.00     0.187 C 
ATOM     11  C   UNL A   1      30.835  24.521  23.364  1.00  0.00     0.126 C 
ATOM     12  C   UNL A   1      30.371  25.487  24.464  1.00  0.00     0.269 C 
ATOM     13  H   UNL A   1      30.331  27.228  23.144  1.00  0.00     0.349 HD
ENDBRANCH   7   8
BRANCH   7  14
ATOM     14  C   UNL A   1      33.122  27.326  24.772  1.00  0.00     0.057 C 
ATOM     15  C   UNL A   1      33.839  27.736  26.039  1.00  0.00     0.011 C 
ATOM     16  C   UNL A   1      33.573  26.283  25.766  1.00  0.00     0.011 C 
ENDBRANCH   7  14
ENDBRANCH   4   7
ENDBRANCH   2   3
ENDBRANCH   1   2
BRANCH   1  17
ATOM     17  C   UNL A   1      32.660  32.426  27.089  1.00  0.00     0.118 C 
BRANCH  17  18
ATOM     18  N   UNL A   1      32.463  33.811  27.486  1.00  0.00    -0.352 N 
ATOM     19  C   UNL A   1      33.094  34.540  28.465  1.00  0.00     0.251 C 
ATOM     20  H   UNL A   1      31.776  34.300  26.978  1.00  0.00     0.163 HD
ATOM     21  O   UNL A   1      32.658  35.650  28.776  1.00  0.00    -0.269 OA
BRANCH  19  22
ATOM     22  C   UNL A   1      34.276  33.997  29.170  1.00  0.00     0.039 A 
ATOM     23  C   UNL A   1      34.086  33.055  30.185  1.00  0.00     0.014 A 
ATOM     24  C   UNL A   1      35.568  34.424  28.852  1.00  0.00     0.014 A 
ATOM     25  C   UNL A   1      35.190  32.491  30.831  1.00  0.00     0.010 A 
ATOM     26  C   UNL A   1      36.670  33.804  29.438  1.00  0.00     0.010 A 
ATOM     27  C   UNL A   1      36.494  32.833  30.437  1.00  0.00    -0.014 A 
BRANCH  27  28
ATOM     28  C   UNL A   1      37.687  32.198  31.057  1.00  0.00     0.031 A 
ATOM     29  C   UNL A   1      38.425  31.106  30.331  1.00  0.00     0.074 A 
ATOM     30  C   UNL A   1      38.060  32.544  32.304  1.00  0.00     0.049 A 
ATOM     31  N   UNL A   1      39.414  30.356  30.747  1.00  0.00    -0.248 NA
ATOM     32  C   UNL A   1      37.972  30.799  28.966  1.00  0.00     0.031 C 
ATOM     33  C   UNL A   1      37.409  33.559  33.134  1.00  0.00     0.029 A 
ATOM     34  N   UNL A   1      39.072  32.064  33.101  1.00  0.00    -0.354 N 
ATOM     35  C   UNL A   1      39.683  29.475  29.707  1.00  0.00     0.074 A 
ATOM     36  C   UNL A   1      38.723  29.751  28.661  1.00  0.00     0.031 C 
ATOM     37  C   UNL A   1      38.044  33.636  34.314  1.00  0.00     0.029 A 
ATOM     38  C   UNL A   1      39.119  32.648  34.344  1.00  0.00     0.049 A 
ATOM     39  H   UNL A   1      39.703  31.367  32.809  1.00  0.00     0.167 HD
ATOM     40  C   UNL A   1      40.654  28.533  29.623  1.00  0.00     0.037 A 
ATOM     41  C   UNL A   1      39.924  32.406  35.395  1.00  0.00     0.037 A 
ATOM     42  C   UNL A   1      41.627  28.278  30.652  1.00  0.00     0.049 A 
ATOM     43  C   UNL A   1      40.988  31.349  35.283  1.00  0.00     0.074 A 
ATOM     44  C   UNL A   1      42.689  27.392  30.633  1.00  0.00     0.029 A 
ATOM     45  N   UNL A   1      41.653  28.907  31.888  1.00  0.00    -0.354 N 
ATOM     46  N   UNL A   1      41.272  30.567  34.270  1.00  0.00    -0.248 NA
ATOM     47  C   UNL A   1      41.847  31.144  36.459  1.00  0.00     0.031 C 
ATOM     48  C   UNL A   1      43.330  27.450  31.875  1.00  0.00     0.029 A 
ATOM     49  C   UNL A   1      42.698  28.411  32.648  1.00  0.00     0.049 A 
ATOM     50  H   UNL A   1      41.021  29.604  32.181  1.00  0.00     0.167 HD
ATOM     51  C   UNL A   1      42.358  29.801  34.673  1.00  0.00     0.074 A 
ATOM     52  C   UNL A   1      42.687  30.216  36.021  1.00  0.00     0.031 C 
ATOM     53  C   UNL A   1      43.023  28.840  33.985  1.00  0.00     0.037 A 
BRANCH  40  54
ATOM     54  C   UNL A   1      40.708  27.705  28.371  1.00  0.00     0.057 A 
ATOM     55  C   UNL A   1      40.023  26.487  28.258  1.00  0.00     0.134 A 
ATOM     56  C   UNL A   1      41.432  28.143  27.256  1.00  0.00     0.134 A 
ATOM     57  F   UNL A   1      39.319  26.005  29.294  1.00  0.00    -0.206 F 
ATOM     58  C   UNL A   1      40.084  25.720  27.094  1.00  0.00     0.040 A 
ATOM     59  C   UNL A   1      41.477  27.398  26.075  1.00  0.00     0.040 A 
ATOM     60  F   UNL A   1      42.104  29.303  27.291  1.00  0.00    -0.206 F 
ATOM     61  C   UNL A   1      40.808  26.179  25.995  1.00  0.00     0.006 A 
ENDBRANCH  40  54
BRANCH  41  62
ATOM     62  C   UNL A   1      39.765  33.191  36.644  1.00  0.00     0.057 A 
ATOM     63  C   UNL A   1      40.506  34.359  36.862  1.00  0.00     0.134 A 
ATOM     64  C   UNL A   1      38.868  32.801  37.646  1.00  0.00     0.134 A 
ATOM     65  F   UNL A   1      41.395  34.774  35.947  1.00  0.00    -0.206 F 
ATOM     66  C   UNL A   1      40.372  35.103  38.035  1.00  0.00     0.040 A 
ATOM     67  C   UNL A   1      38.706  33.549  38.814  1.00  0.00     0.040 A 
ATOM     68  F   UNL A   1      38.123  31.696  37.496  1.00  0.00    -0.206 F 
ATOM     69  C   UNL A   1      39.464  34.701  39.013  1.00  0.00     0.006 A 
ENDBRANCH  41  62
BRANCH  53  70
ATOM     70  C   UNL A   1      44.202  28.198  34.656  1.00  0.00     0.057 A 
ATOM     71  C   UNL A   1      44.083  27.006  35.381  1.00  0.00     0.134 A 
ATOM     72  C   UNL A   1      45.482  28.751  34.523  1.00  0.00     0.134 A 
ATOM     73  F   UNL A   1      42.884  26.433  35.557  1.00  0.00    -0.206 F 
ATOM     74  C   UNL A   1      45.195  26.394  35.962  1.00  0.00     0.040 A 
ATOM     75  C   UNL A   1      46.605  28.134  35.077  1.00  0.00     0.040 A 
ATOM     76  F   UNL A   1      45.666  29.887  33.835  1.00  0.00    -0.206 F 
ATOM     77  C   UNL A   1      46.462  26.954  35.802  1.00  0.00     0.006 A 
ENDBRANCH  53  70
ENDBRANCH  27  28
ENDBRANCH  19  22
ENDBRANCH  17  18
ENDBRANCH   1  17
TORSDOF 12
ENDMDL
