MODEL 1
REMARK VINA RESULT:     -12.6      0.000      0.000
REMARK SMILES NS(=O)(=O)c1ccc(-n2nc(C(=O)NCCCC(=O)NCCCNC(=O)c3ccc(-c4c5nc(c(-c6c(F)cccc6F)c6ccc([nH]6)c(-c6c(F)cccc6F)c6nc(c(-c7c(F)cccc7F)c7ccc4[nH]7)C=C6)C=C5)cc3)cc2-c2ccccc2)cc1
REMARK SMILES IDX 18 1 19 2 20 3 17 5 16 6 15 7 14 8 12 9 13 10 11 12 9 13
REMARK SMILES IDX 10 14 82 15 81 16 8 17 5 18 6 19 90 20 7 21 89 22 2 23 3 24
REMARK SMILES IDX 4 25 1 26 83 29 84 30 88 31 85 32 87 33 86 34 21 35 22 36
REMARK SMILES IDX 23 37 24 38 25 39 26 41 27 42 28 43 80 44 29 45 79 46 30 47
REMARK SMILES IDX 31 48 32 49 73 50 33 51 78 52 72 53 74 54 34 55 77 56 71 57
REMARK SMILES IDX 70 58 35 60 61 61 44 62 60 63 45 64 48 65 59 66 75 67 46 68
REMARK SMILES IDX 47 69 58 71 76 72 49 73 36 74 37 75 42 76 38 77 39 78 41 79
REMARK SMILES IDX 43 80 40 81 62 82 63 83 68 84 64 85 65 86 67 87 69 88 66 89
REMARK SMILES IDX 50 90 51 91 56 92 52 93 53 94 55 95 57 96 54 97
REMARK H PARENT 20 4 14 11 1 27 1 28 24 40 74 59 48 70
REMARK Flexibility Score: inf
ROOT
ATOM      1  C   UNL A   1      31.852  28.450  27.220  1.00  0.00     0.220 C 
ATOM      2  O   UNL A   1      31.032  27.840  27.908  1.00  0.00    -0.275 OA
ATOM      3  N   UNL A   1      33.037  28.797  27.792  1.00  0.00    -0.356 N 
ATOM      4  H   UNL A   1      33.156  28.478  28.716  1.00  0.00     0.163 HD
ENDROOT
BRANCH   1   5
ATOM      5  C   UNL A   1      31.553  28.790  25.777  1.00  0.00     0.102 C 
BRANCH   5   6
ATOM      6  C   UNL A   1      32.021  27.738  24.769  1.00  0.00     0.031 C 
BRANCH   6   7
ATOM      7  C   UNL A   1      30.950  26.795  24.232  1.00  0.00     0.116 C 
BRANCH   7   8
ATOM      8  N   UNL A   1      30.062  26.264  25.249  1.00  0.00    -0.351 N 
ATOM      9  C   UNL A   1      30.174  25.130  26.023  1.00  0.00     0.271 C 
ATOM     10  O   UNL A   1      29.278  24.922  26.843  1.00  0.00    -0.267 OA
ATOM     11  H   UNL A   1      29.251  26.799  25.411  1.00  0.00     0.163 HD
BRANCH   9  12
ATOM     12  C   UNL A   1      31.320  24.227  25.845  1.00  0.00     0.151 A 
ATOM     13  N   UNL A   1      32.377  22.420  25.372  1.00  0.00    -0.232 N 
ATOM     14  N   UNL A   1      31.142  22.972  25.393  1.00  0.00    -0.162 NA
ATOM     15  C   UNL A   1      33.367  23.369  25.591  1.00  0.00     0.075 A 
ATOM     16  C   UNL A   1      32.697  24.484  26.050  1.00  0.00     0.065 A 
BRANCH  13  17
ATOM     17  C   UNL A   1      32.549  21.039  25.097  1.00  0.00     0.065 A 
ATOM     18  C   UNL A   1      33.103  18.380  24.508  1.00  0.00     0.082 A 
ATOM     19  C   UNL A   1      33.253  18.839  25.818  1.00  0.00     0.024 A 
ATOM     20  C   UNL A   1      32.646  19.231  23.495  1.00  0.00     0.024 A 
ATOM     21  C   UNL A   1      32.979  20.172  26.113  1.00  0.00     0.030 A 
ATOM     22  C   UNL A   1      32.335  20.559  23.798  1.00  0.00     0.030 A 
BRANCH  18  23
ATOM     23  S   UNL A   1      33.566  16.717  24.128  1.00  0.00     0.238 S 
ATOM     24  O   UNL A   1      33.884  16.616  22.728  1.00  0.00    -0.207 OA
ATOM     25  O   UNL A   1      32.640  15.812  24.780  1.00  0.00    -0.207 OA
BRANCH  23  26
ATOM     26  N   UNL A   1      35.021  16.570  24.945  1.00  0.00    -0.225 NA
ATOM     27  H   UNL A   1      35.147  15.604  25.246  1.00  0.00     0.137 HD
ATOM     28  H   UNL A   1      35.017  17.183  25.760  1.00  0.00     0.137 HD
ENDBRANCH  23  26
ENDBRANCH  18  23
ENDBRANCH  13  17
BRANCH  15  29
ATOM     29  C   UNL A   1      34.777  23.257  25.219  1.00  0.00     0.000 A 
ATOM     30  C   UNL A   1      35.135  22.983  23.889  1.00  0.00     0.010 A 
ATOM     31  C   UNL A   1      35.787  23.511  26.152  1.00  0.00     0.010 A 
ATOM     32  C   UNL A   1      36.475  22.940  23.506  1.00  0.00     0.001 A 
ATOM     33  C   UNL A   1      37.128  23.475  25.766  1.00  0.00     0.001 A 
ATOM     34  C   UNL A   1      37.472  23.190  24.445  1.00  0.00     0.000 A 
ENDBRANCH  15  29
ENDBRANCH   9  12
ENDBRANCH   7   8
ENDBRANCH   6   7
ENDBRANCH   5   6
ENDBRANCH   1   5
BRANCH   3  35
ATOM     35  C   UNL A   1      34.161  29.564  27.267  1.00  0.00     0.117 C 
BRANCH  35  36
ATOM     36  C   UNL A   1      33.910  31.073  27.348  1.00  0.00     0.042 C 
BRANCH  36  37
ATOM     37  C   UNL A   1      35.087  31.828  27.919  1.00  0.00     0.118 C 
BRANCH  37  38
ATOM     38  N   UNL A   1      34.795  32.505  29.180  1.00  0.00    -0.352 N 
ATOM     39  C   UNL A   1      35.252  32.156  30.440  1.00  0.00     0.251 C 
ATOM     40  H   UNL A   1      34.211  33.295  29.128  1.00  0.00     0.163 HD
ATOM     41  O   UNL A   1      34.700  32.566  31.453  1.00  0.00    -0.269 OA
BRANCH  39  42
ATOM     42  C   UNL A   1      36.426  31.268  30.534  1.00  0.00     0.039 A 
ATOM     43  C   UNL A   1      36.316  29.877  30.545  1.00  0.00     0.014 A 
ATOM     44  C   UNL A   1      37.676  31.877  30.558  1.00  0.00     0.014 A 
ATOM     45  C   UNL A   1      37.487  29.121  30.528  1.00  0.00     0.010 A 
ATOM     46  C   UNL A   1      38.790  31.151  30.267  1.00  0.00     0.010 A 
ATOM     47  C   UNL A   1      38.720  29.775  30.377  1.00  0.00    -0.014 A 
BRANCH  47  48
ATOM     48  C   UNL A   1      39.973  29.052  30.246  1.00  0.00     0.031 A 
ATOM     49  C   UNL A   1      40.673  28.842  31.535  1.00  0.00     0.074 A 
ATOM     50  C   UNL A   1      40.338  28.435  29.099  1.00  0.00     0.049 A 
ATOM     51  N   UNL A   1      41.772  29.394  31.921  1.00  0.00    -0.248 NA
ATOM     52  C   UNL A   1      39.987  28.076  32.590  1.00  0.00     0.031 C 
ATOM     53  C   UNL A   1      39.588  28.291  27.844  1.00  0.00     0.029 A 
ATOM     54  N   UNL A   1      41.456  27.699  28.854  1.00  0.00    -0.354 N 
ATOM     55  C   UNL A   1      42.043  28.859  33.174  1.00  0.00     0.074 A 
ATOM     56  C   UNL A   1      40.826  28.232  33.617  1.00  0.00     0.031 C 
ATOM     57  C   UNL A   1      40.152  27.330  27.078  1.00  0.00     0.029 A 
ATOM     58  C   UNL A   1      41.395  26.918  27.700  1.00  0.00     0.049 A 
ATOM     59  H   UNL A   1      42.244  27.718  29.443  1.00  0.00     0.167 HD
ATOM     60  C   UNL A   1      43.325  28.748  33.617  1.00  0.00     0.037 A 
ATOM     61  C   UNL A   1      42.299  25.975  27.330  1.00  0.00     0.037 A 
ATOM     62  C   UNL A   1      44.216  29.572  32.836  1.00  0.00     0.049 A 
ATOM     63  C   UNL A   1      43.556  26.269  28.072  1.00  0.00     0.074 A 
ATOM     64  C   UNL A   1      44.269  30.924  32.545  1.00  0.00     0.029 A 
ATOM     65  N   UNL A   1      44.976  28.958  31.869  1.00  0.00    -0.354 N 
ATOM     66  N   UNL A   1      44.277  27.337  27.863  1.00  0.00    -0.248 NA
ATOM     67  C   UNL A   1      43.708  25.655  29.384  1.00  0.00     0.031 C 
ATOM     68  C   UNL A   1      44.597  30.985  31.159  1.00  0.00     0.029 A 
ATOM     69  C   UNL A   1      44.829  29.683  30.713  1.00  0.00     0.049 A 
ATOM     70  H   UNL A   1      45.525  28.148  31.984  1.00  0.00     0.167 HD
ATOM     71  C   UNL A   1      44.627  27.778  29.132  1.00  0.00     0.074 A 
ATOM     72  C   UNL A   1      44.288  26.672  30.028  1.00  0.00     0.031 C 
ATOM     73  C   UNL A   1      44.865  29.099  29.391  1.00  0.00     0.037 A 
BRANCH  60  74
ATOM     74  C   UNL A   1      43.821  27.618  34.480  1.00  0.00     0.057 A 
ATOM     75  C   UNL A   1      44.461  27.915  35.695  1.00  0.00     0.134 A 
ATOM     76  C   UNL A   1      43.957  26.284  34.042  1.00  0.00     0.134 A 
ATOM     77  F   UNL A   1      44.424  29.154  36.207  1.00  0.00    -0.206 F 
ATOM     78  C   UNL A   1      45.234  26.973  36.386  1.00  0.00     0.040 A 
ATOM     79  C   UNL A   1      44.681  25.322  34.750  1.00  0.00     0.040 A 
ATOM     80  F   UNL A   1      43.488  25.862  32.861  1.00  0.00    -0.206 F 
ATOM     81  C   UNL A   1      45.350  25.673  35.910  1.00  0.00     0.006 A 
ENDBRANCH  60  74
BRANCH  61  82
ATOM     82  C   UNL A   1      42.042  24.665  26.681  1.00  0.00     0.057 A 
ATOM     83  C   UNL A   1      42.883  24.171  25.673  1.00  0.00     0.134 A 
ATOM     84  C   UNL A   1      41.130  23.741  27.224  1.00  0.00     0.134 A 
ATOM     85  F   UNL A   1      43.818  24.959  25.122  1.00  0.00    -0.206 F 
ATOM     86  C   UNL A   1      42.836  22.835  25.246  1.00  0.00     0.040 A 
ATOM     87  C   UNL A   1      41.070  22.407  26.805  1.00  0.00     0.040 A 
ATOM     88  F   UNL A   1      40.329  24.077  28.245  1.00  0.00    -0.206 F 
ATOM     89  C   UNL A   1      41.934  21.945  25.822  1.00  0.00     0.006 A 
ENDBRANCH  61  82
BRANCH  73  90
ATOM     90  C   UNL A   1      44.947  30.059  28.231  1.00  0.00     0.057 A 
ATOM     91  C   UNL A   1      43.854  30.769  27.708  1.00  0.00     0.134 A 
ATOM     92  C   UNL A   1      46.211  30.409  27.744  1.00  0.00     0.134 A 
ATOM     93  F   UNL A   1      42.615  30.583  28.176  1.00  0.00    -0.206 F 
ATOM     94  C   UNL A   1      44.011  31.752  26.723  1.00  0.00     0.040 A 
ATOM     95  C   UNL A   1      46.385  31.410  26.786  1.00  0.00     0.040 A 
ATOM     96  F   UNL A   1      47.310  29.815  28.235  1.00  0.00    -0.206 F 
ATOM     97  C   UNL A   1      45.283  32.081  26.264  1.00  0.00     0.006 A 
ENDBRANCH  73  90
ENDBRANCH  47  48
ENDBRANCH  39  42
ENDBRANCH  37  38
ENDBRANCH  36  37
ENDBRANCH  35  36
ENDBRANCH   3  35
TORSDOF 18
ENDMDL
MODEL 2
REMARK VINA RESULT:     -12.5      3.183      8.322
REMARK SMILES NS(=O)(=O)c1ccc(-n2nc(C(=O)NCCCC(=O)NCCCNC(=O)c3ccc(-c4c5nc(c(-c6c(F)cccc6F)c6ccc([nH]6)c(-c6c(F)cccc6F)c6nc(c(-c7c(F)cccc7F)c7ccc4[nH]7)C=C6)C=C5)cc3)cc2-c2ccccc2)cc1
REMARK SMILES IDX 18 1 19 2 20 3 17 5 16 6 15 7 14 8 12 9 13 10 11 12 9 13
REMARK SMILES IDX 10 14 82 15 81 16 8 17 5 18 6 19 90 20 7 21 89 22 2 23 3 24
REMARK SMILES IDX 4 25 1 26 83 29 84 30 88 31 85 32 87 33 86 34 21 35 22 36
REMARK SMILES IDX 23 37 24 38 25 39 26 41 27 42 28 43 80 44 29 45 79 46 30 47
REMARK SMILES IDX 31 48 32 49 73 50 33 51 78 52 72 53 74 54 34 55 77 56 71 57
REMARK SMILES IDX 70 58 35 60 61 61 44 62 60 63 45 64 48 65 59 66 75 67 46 68
REMARK SMILES IDX 47 69 58 71 76 72 49 73 36 74 37 75 42 76 38 77 39 78 41 79
REMARK SMILES IDX 43 80 40 81 62 82 63 83 68 84 64 85 65 86 67 87 69 88 66 89
REMARK SMILES IDX 50 90 51 91 56 92 52 93 53 94 55 95 57 96 54 97
REMARK H PARENT 20 4 14 11 1 27 1 28 24 40 74 59 48 70
REMARK Flexibility Score: inf
ROOT
ATOM      1  C   UNL A   1      36.572  22.317  23.971  1.00  0.00     0.220 C 
ATOM      2  O   UNL A   1      36.340  23.048  23.006  1.00  0.00    -0.275 OA
ATOM      3  N   UNL A   1      37.765  22.457  24.611  1.00  0.00    -0.356 N 
ATOM      4  H   UNL A   1      38.332  23.184  24.266  1.00  0.00     0.163 HD
ENDROOT
BRANCH   1   5
ATOM      5  C   UNL A   1      35.551  21.301  24.436  1.00  0.00     0.102 C 
BRANCH   5   6
ATOM      6  C   UNL A   1      34.308  21.909  25.089  1.00  0.00     0.031 C 
BRANCH   6   7
ATOM      7  C   UNL A   1      33.006  21.788  24.304  1.00  0.00     0.116 C 
BRANCH   7   8
ATOM      8  N   UNL A   1      31.832  21.578  25.131  1.00  0.00    -0.351 N 
ATOM      9  C   UNL A   1      30.959  22.490  25.684  1.00  0.00     0.271 C 
ATOM     10  O   UNL A   1      30.014  22.038  26.332  1.00  0.00    -0.267 OA
ATOM     11  H   UNL A   1      31.627  20.636  25.328  1.00  0.00     0.163 HD
BRANCH   9  12
ATOM     12  C   UNL A   1      31.183  23.931  25.496  1.00  0.00     0.151 A 
ATOM     13  N   UNL A   1      30.810  25.934  24.820  1.00  0.00    -0.232 N 
ATOM     14  N   UNL A   1      30.291  24.685  24.828  1.00  0.00    -0.162 NA
ATOM     15  C   UNL A   1      31.911  26.037  25.661  1.00  0.00     0.075 A 
ATOM     16  C   UNL A   1      32.249  24.735  25.968  1.00  0.00     0.065 A 
BRANCH  13  17
ATOM     17  C   UNL A   1      30.205  26.965  24.056  1.00  0.00     0.065 A 
ATOM     18  C   UNL A   1      28.995  29.101  22.755  1.00  0.00     0.082 A 
ATOM     19  C   UNL A   1      30.385  29.076  22.887  1.00  0.00     0.024 A 
ATOM     20  C   UNL A   1      28.206  28.051  23.238  1.00  0.00     0.024 A 
ATOM     21  C   UNL A   1      30.991  28.007  23.543  1.00  0.00     0.030 A 
ATOM     22  C   UNL A   1      28.817  26.961  23.863  1.00  0.00     0.030 A 
BRANCH  18  23
ATOM     23  S   UNL A   1      28.234  30.519  22.025  1.00  0.00     0.238 S 
ATOM     24  O   UNL A   1      27.265  31.067  22.937  1.00  0.00    -0.207 OA
ATOM     25  O   UNL A   1      27.914  30.221  20.642  1.00  0.00    -0.207 OA
BRANCH  23  26
ATOM     26  N   UNL A   1      29.504  31.612  21.988  1.00  0.00    -0.225 NA
ATOM     27  H   UNL A   1      29.886  31.722  22.928  1.00  0.00     0.137 HD
ATOM     28  H   UNL A   1      29.168  32.513  21.649  1.00  0.00     0.137 HD
ENDBRANCH  23  26
ENDBRANCH  18  23
ENDBRANCH  13  17
BRANCH  15  29
ATOM     29  C   UNL A   1      32.448  27.267  26.242  1.00  0.00     0.000 A 
ATOM     30  C   UNL A   1      33.785  27.631  26.010  1.00  0.00     0.010 A 
ATOM     31  C   UNL A   1      31.622  28.143  26.954  1.00  0.00     0.010 A 
ATOM     32  C   UNL A   1      34.291  28.835  26.500  1.00  0.00     0.001 A 
ATOM     33  C   UNL A   1      32.128  29.351  27.438  1.00  0.00     0.001 A 
ATOM     34  C   UNL A   1      33.460  29.696  27.212  1.00  0.00     0.000 A 
ENDBRANCH  15  29
ENDBRANCH   9  12
ENDBRANCH   7   8
ENDBRANCH   6   7
ENDBRANCH   5   6
ENDBRANCH   1   5
BRANCH   3  35
ATOM     35  C   UNL A   1      38.344  21.710  25.721  1.00  0.00     0.117 C 
BRANCH  35  36
ATOM     36  C   UNL A   1      38.983  20.398  25.255  1.00  0.00     0.042 C 
BRANCH  36  37
ATOM     37  C   UNL A   1      39.781  19.721  26.344  1.00  0.00     0.118 C 
BRANCH  37  38
ATOM     38  N   UNL A   1      41.010  19.092  25.866  1.00  0.00    -0.352 N 
ATOM     39  C   UNL A   1      42.239  19.701  25.673  1.00  0.00     0.251 C 
ATOM     40  H   UNL A   1      40.960  18.131  25.661  1.00  0.00     0.163 HD
ATOM     41  O   UNL A   1      43.099  19.188  24.969  1.00  0.00    -0.269 OA
BRANCH  39  42
ATOM     42  C   UNL A   1      42.487  20.994  26.337  1.00  0.00     0.039 A 
ATOM     43  C   UNL A   1      42.848  22.144  25.632  1.00  0.00     0.014 A 
ATOM     44  C   UNL A   1      42.293  21.044  27.713  1.00  0.00     0.014 A 
ATOM     45  C   UNL A   1      42.956  23.343  26.332  1.00  0.00     0.010 A 
ATOM     46  C   UNL A   1      42.132  22.245  28.333  1.00  0.00     0.010 A 
ATOM     47  C   UNL A   1      42.582  23.379  27.686  1.00  0.00    -0.014 A 
BRANCH  47  48
ATOM     48  C   UNL A   1      42.568  24.612  28.455  1.00  0.00     0.031 A 
ATOM     49  C   UNL A   1      41.314  25.387  28.308  1.00  0.00     0.074 A 
ATOM     50  C   UNL A   1      43.507  24.898  29.385  1.00  0.00     0.049 A 
ATOM     51  N   UNL A   1      41.164  26.516  27.702  1.00  0.00    -0.248 NA
ATOM     52  C   UNL A   1      40.047  24.757  28.718  1.00  0.00     0.031 C 
ATOM     53  C   UNL A   1      44.624  24.069  29.860  1.00  0.00     0.029 A 
ATOM     54  N   UNL A   1      43.591  25.988  30.195  1.00  0.00    -0.354 N 
ATOM     55  C   UNL A   1      39.827  26.855  27.863  1.00  0.00     0.074 A 
ATOM     56  C   UNL A   1      39.156  25.660  28.300  1.00  0.00     0.031 C 
ATOM     57  C   UNL A   1      45.110  24.573  31.017  1.00  0.00     0.029 A 
ATOM     58  C   UNL A   1      44.466  25.845  31.271  1.00  0.00     0.049 A 
ATOM     59  H   UNL A   1      43.077  26.811  30.032  1.00  0.00     0.167 HD
ATOM     60  C   UNL A   1      39.442  28.161  27.882  1.00  0.00     0.037 A 
ATOM     61  C   UNL A   1      44.598  26.712  32.308  1.00  0.00     0.037 A 
ATOM     62  C   UNL A   1      40.475  29.013  27.344  1.00  0.00     0.049 A 
ATOM     63  C   UNL A   1      44.042  28.016  31.853  1.00  0.00     0.074 A 
ATOM     64  C   UNL A   1      41.145  29.066  26.135  1.00  0.00     0.029 A 
ATOM     65  N   UNL A   1      41.265  29.704  28.233  1.00  0.00    -0.354 N 
ATOM     66  N   UNL A   1      44.589  28.737  30.911  1.00  0.00    -0.248 NA
ATOM     67  C   UNL A   1      42.620  28.241  32.069  1.00  0.00     0.031 C 
ATOM     68  C   UNL A   1      42.506  29.309  26.484  1.00  0.00     0.029 A 
ATOM     69  C   UNL A   1      42.570  29.496  27.865  1.00  0.00     0.049 A 
ATOM     70  H   UNL A   1      40.951  30.247  28.993  1.00  0.00     0.167 HD
ATOM     71  C   UNL A   1      43.523  29.171  30.136  1.00  0.00     0.074 A 
ATOM     72  C   UNL A   1      42.329  28.873  30.928  1.00  0.00     0.031 C 
ATOM     73  C   UNL A   1      43.668  29.442  28.804  1.00  0.00     0.037 A 
BRANCH  60  74
ATOM     74  C   UNL A   1      38.319  28.694  28.732  1.00  0.00     0.057 A 
ATOM     75  C   UNL A   1      37.442  29.647  28.188  1.00  0.00     0.134 A 
ATOM     76  C   UNL A   1      38.236  28.534  30.131  1.00  0.00     0.134 A 
ATOM     77  F   UNL A   1      37.438  29.906  26.872  1.00  0.00    -0.206 F 
ATOM     78  C   UNL A   1      36.596  30.429  28.984  1.00  0.00     0.040 A 
ATOM     79  C   UNL A   1      37.359  29.271  30.929  1.00  0.00     0.040 A 
ATOM     80  F   UNL A   1      39.065  27.736  30.816  1.00  0.00    -0.206 F 
ATOM     81  C   UNL A   1      36.557  30.245  30.361  1.00  0.00     0.006 A 
ENDBRANCH  60  74
BRANCH  61  82
ATOM     82  C   UNL A   1      44.827  26.398  33.740  1.00  0.00     0.057 A 
ATOM     83  C   UNL A   1      43.871  25.707  34.499  1.00  0.00     0.134 A 
ATOM     84  C   UNL A   1      46.101  26.521  34.326  1.00  0.00     0.134 A 
ATOM     85  F   UNL A   1      42.640  25.496  34.011  1.00  0.00    -0.206 F 
ATOM     86  C   UNL A   1      44.169  25.153  35.754  1.00  0.00     0.040 A 
ATOM     87  C   UNL A   1      46.410  25.977  35.577  1.00  0.00     0.040 A 
ATOM     88  F   UNL A   1      47.115  27.094  33.663  1.00  0.00    -0.206 F 
ATOM     89  C   UNL A   1      45.446  25.277  36.292  1.00  0.00     0.006 A 
ENDBRANCH  61  82
BRANCH  73  90
ATOM     90  C   UNL A   1      45.058  29.466  28.220  1.00  0.00     0.057 A 
ATOM     91  C   UNL A   1      45.703  28.353  27.658  1.00  0.00     0.134 A 
ATOM     92  C   UNL A   1      45.694  30.702  28.063  1.00  0.00     0.134 A 
ATOM     93  F   UNL A   1      45.134  27.141  27.665  1.00  0.00    -0.206 F 
ATOM     94  C   UNL A   1      46.937  28.461  27.003  1.00  0.00     0.040 A 
ATOM     95  C   UNL A   1      46.908  30.830  27.383  1.00  0.00     0.040 A 
ATOM     96  F   UNL A   1      45.114  31.822  28.523  1.00  0.00    -0.206 F 
ATOM     97  C   UNL A   1      47.539  29.707  26.858  1.00  0.00     0.006 A 
ENDBRANCH  73  90
ENDBRANCH  47  48
ENDBRANCH  39  42
ENDBRANCH  37  38
ENDBRANCH  36  37
ENDBRANCH  35  36
ENDBRANCH   3  35
TORSDOF 18
ENDMDL
MODEL 3
REMARK VINA RESULT:     -12.3      2.523      6.170
REMARK SMILES NS(=O)(=O)c1ccc(-n2nc(C(=O)NCCCC(=O)NCCCNC(=O)c3ccc(-c4c5nc(c(-c6c(F)cccc6F)c6ccc([nH]6)c(-c6c(F)cccc6F)c6nc(c(-c7c(F)cccc7F)c7ccc4[nH]7)C=C6)C=C5)cc3)cc2-c2ccccc2)cc1
REMARK SMILES IDX 18 1 19 2 20 3 17 5 16 6 15 7 14 8 12 9 13 10 11 12 9 13
REMARK SMILES IDX 10 14 82 15 81 16 8 17 5 18 6 19 90 20 7 21 89 22 2 23 3 24
REMARK SMILES IDX 4 25 1 26 83 29 84 30 88 31 85 32 87 33 86 34 21 35 22 36
REMARK SMILES IDX 23 37 24 38 25 39 26 41 27 42 28 43 80 44 29 45 79 46 30 47
REMARK SMILES IDX 31 48 32 49 73 50 33 51 78 52 72 53 74 54 34 55 77 56 71 57
REMARK SMILES IDX 70 58 35 60 61 61 44 62 60 63 45 64 48 65 59 66 75 67 46 68
REMARK SMILES IDX 47 69 58 71 76 72 49 73 36 74 37 75 42 76 38 77 39 78 41 79
REMARK SMILES IDX 43 80 40 81 62 82 63 83 68 84 64 85 65 86 67 87 69 88 66 89
REMARK SMILES IDX 50 90 51 91 56 92 52 93 53 94 55 95 57 96 54 97
REMARK H PARENT 20 4 14 11 1 27 1 28 24 40 74 59 48 70
REMARK Flexibility Score: inf
ROOT
ATOM      1  C   UNL A   1      32.128  29.323  24.213  1.00  0.00     0.220 C 
ATOM      2  O   UNL A   1      33.056  29.024  23.459  1.00  0.00    -0.275 OA
ATOM      3  N   UNL A   1      32.427  29.969  25.373  1.00  0.00    -0.356 N 
ATOM      4  H   UNL A   1      33.380  30.189  25.486  1.00  0.00     0.163 HD
ENDROOT
BRANCH   1   5
ATOM      5  C   UNL A   1      30.697  28.993  23.850  1.00  0.00     0.102 C 
BRANCH   5   6
ATOM      6  C   UNL A   1      30.551  27.930  22.759  1.00  0.00     0.031 C 
BRANCH   6   7
ATOM      7  C   UNL A   1      30.505  26.481  23.230  1.00  0.00     0.116 C 
BRANCH   7   8
ATOM      8  N   UNL A   1      29.823  26.290  24.497  1.00  0.00    -0.351 N 
ATOM      9  C   UNL A   1      30.119  25.450  25.548  1.00  0.00     0.271 C 
ATOM     10  O   UNL A   1      29.381  25.505  26.533  1.00  0.00    -0.267 OA
ATOM     11  H   UNL A   1      29.023  26.849  24.624  1.00  0.00     0.163 HD
BRANCH   9  12
ATOM     12  C   UNL A   1      31.267  24.535  25.459  1.00  0.00     0.151 A 
ATOM     13  N   UNL A   1      32.335  22.707  25.108  1.00  0.00    -0.232 N 
ATOM     14  N   UNL A   1      31.104  23.265  25.049  1.00  0.00    -0.162 NA
ATOM     15  C   UNL A   1      33.319  23.661  25.336  1.00  0.00     0.075 A 
ATOM     16  C   UNL A   1      32.634  24.795  25.719  1.00  0.00     0.065 A 
BRANCH  13  17
ATOM     17  C   UNL A   1      32.511  21.315  24.896  1.00  0.00     0.065 A 
ATOM     18  C   UNL A   1      33.074  18.635  24.427  1.00  0.00     0.082 A 
ATOM     19  C   UNL A   1      33.223  19.153  25.716  1.00  0.00     0.024 A 
ATOM     20  C   UNL A   1      32.613  19.437  23.377  1.00  0.00     0.024 A 
ATOM     21  C   UNL A   1      32.945  20.498  25.950  1.00  0.00     0.030 A 
ATOM     22  C   UNL A   1      32.298  20.777  23.620  1.00  0.00     0.030 A 
BRANCH  18  23
ATOM     23  S   UNL A   1      33.542  16.958  24.123  1.00  0.00     0.238 S 
ATOM     24  O   UNL A   1      34.716  16.641  24.893  1.00  0.00    -0.207 OA
ATOM     25  O   UNL A   1      33.455  16.697  22.699  1.00  0.00    -0.207 OA
BRANCH  23  26
ATOM     26  N   UNL A   1      32.281  16.113  24.834  1.00  0.00    -0.225 NA
ATOM     27  H   UNL A   1      32.516  15.900  25.803  1.00  0.00     0.137 HD
ATOM     28  H   UNL A   1      32.123  15.245  24.323  1.00  0.00     0.137 HD
ENDBRANCH  23  26
ENDBRANCH  18  23
ENDBRANCH  13  17
BRANCH  15  29
ATOM     29  C   UNL A   1      34.744  23.528  25.035  1.00  0.00     0.000 A 
ATOM     30  C   UNL A   1      35.688  23.529  26.075  1.00  0.00     0.010 A 
ATOM     31  C   UNL A   1      35.181  23.305  23.725  1.00  0.00     0.010 A 
ATOM     32  C   UNL A   1      37.043  23.334  25.808  1.00  0.00     0.001 A 
ATOM     33  C   UNL A   1      36.537  23.103  23.460  1.00  0.00     0.001 A 
ATOM     34  C   UNL A   1      37.466  23.118  24.499  1.00  0.00     0.000 A 
ENDBRANCH  15  29
ENDBRANCH   9  12
ENDBRANCH   7   8
ENDBRANCH   6   7
ENDBRANCH   5   6
ENDBRANCH   1   5
BRANCH   3  35
ATOM     35  C   UNL A   1      31.572  30.389  26.477  1.00  0.00     0.117 C 
BRANCH  35  36
ATOM     36  C   UNL A   1      31.453  31.914  26.557  1.00  0.00     0.042 C 
BRANCH  36  37
ATOM     37  C   UNL A   1      32.649  32.558  27.217  1.00  0.00     0.118 C 
BRANCH  37  38
ATOM     38  N   UNL A   1      32.395  33.912  27.703  1.00  0.00    -0.352 N 
ATOM     39  C   UNL A   1      33.058  34.571  28.724  1.00  0.00     0.251 C 
ATOM     40  H   UNL A   1      31.675  34.410  27.255  1.00  0.00     0.163 HD
ATOM     41  O   UNL A   1      32.569  35.549  29.274  1.00  0.00    -0.269 OA
BRANCH  39  42
ATOM     42  C   UNL A   1      34.378  34.059  29.141  1.00  0.00     0.039 A 
ATOM     43  C   UNL A   1      34.544  33.224  30.247  1.00  0.00     0.014 A 
ATOM     44  C   UNL A   1      35.466  34.403  28.347  1.00  0.00     0.014 A 
ATOM     45  C   UNL A   1      35.812  32.705  30.500  1.00  0.00     0.010 A 
ATOM     46  C   UNL A   1      36.621  33.687  28.433  1.00  0.00     0.010 A 
ATOM     47  C   UNL A   1      36.841  32.938  29.573  1.00  0.00    -0.014 A 
BRANCH  47  48
ATOM     48  C   UNL A   1      38.161  32.346  29.713  1.00  0.00     0.031 A 
ATOM     49  C   UNL A   1      38.237  30.948  29.225  1.00  0.00     0.074 A 
ATOM     50  C   UNL A   1      39.253  33.074  30.039  1.00  0.00     0.049 A 
ATOM     51  N   UNL A   1      38.386  29.883  29.936  1.00  0.00    -0.248 NA
ATOM     52  C   UNL A   1      37.932  30.683  27.808  1.00  0.00     0.031 C 
ATOM     53  C   UNL A   1      39.375  34.525  30.233  1.00  0.00     0.029 A 
ATOM     54  N   UNL A   1      40.541  32.656  30.165  1.00  0.00    -0.354 N 
ATOM     55  C   UNL A   1      38.434  28.830  29.031  1.00  0.00     0.074 A 
ATOM     56  C   UNL A   1      37.944  29.347  27.782  1.00  0.00     0.031 C 
ATOM     57  C   UNL A   1      40.678  34.884  30.209  1.00  0.00     0.029 A 
ATOM     58  C   UNL A   1      41.485  33.681  30.177  1.00  0.00     0.049 A 
ATOM     59  H   UNL A   1      40.786  31.706  30.244  1.00  0.00     0.167 HD
ATOM     60  C   UNL A   1      39.129  27.697  29.326  1.00  0.00     0.037 A 
ATOM     61  C   UNL A   1      42.833  33.522  30.120  1.00  0.00     0.037 A 
ATOM     62  C   UNL A   1      39.415  27.617  30.738  1.00  0.00     0.049 A 
ATOM     63  C   UNL A   1      43.118  32.121  30.536  1.00  0.00     0.074 A 
ATOM     64  C   UNL A   1      38.633  27.619  31.879  1.00  0.00     0.029 A 
ATOM     65  N   UNL A   1      40.679  27.958  31.157  1.00  0.00    -0.354 N 
ATOM     66  N   UNL A   1      42.910  31.678  31.747  1.00  0.00    -0.248 NA
ATOM     67  C   UNL A   1      43.126  31.109  29.490  1.00  0.00     0.031 C 
ATOM     68  C   UNL A   1      39.329  28.461  32.796  1.00  0.00     0.029 A 
ATOM     69  C   UNL A   1      40.538  28.833  32.206  1.00  0.00     0.049 A 
ATOM     70  H   UNL A   1      41.528  27.635  30.777  1.00  0.00     0.167 HD
ATOM     71  C   UNL A   1      42.332  30.428  31.569  1.00  0.00     0.074 A 
ATOM     72  C   UNL A   1      42.536  30.111  30.155  1.00  0.00     0.031 C 
ATOM     73  C   UNL A   1      41.473  29.899  32.491  1.00  0.00     0.037 A 
BRANCH  60  74
ATOM     74  C   UNL A   1      39.876  26.880  28.305  1.00  0.00     0.057 A 
ATOM     75  C   UNL A   1      40.778  27.524  27.440  1.00  0.00     0.134 A 
ATOM     76  C   UNL A   1      39.541  25.558  27.944  1.00  0.00     0.134 A 
ATOM     77  F   UNL A   1      41.159  28.790  27.663  1.00  0.00    -0.206 F 
ATOM     78  C   UNL A   1      41.255  26.921  26.270  1.00  0.00     0.040 A 
ATOM     79  C   UNL A   1      40.052  24.928  26.807  1.00  0.00     0.040 A 
ATOM     80  F   UNL A   1      38.626  24.840  28.607  1.00  0.00    -0.206 F 
ATOM     81  C   UNL A   1      40.887  25.621  25.948  1.00  0.00     0.006 A 
ENDBRANCH  60  74
BRANCH  61  82
ATOM     82  C   UNL A   1      43.824  34.359  29.399  1.00  0.00     0.057 A 
ATOM     83  C   UNL A   1      45.118  34.556  29.903  1.00  0.00     0.134 A 
ATOM     84  C   UNL A   1      43.620  34.757  28.066  1.00  0.00     0.134 A 
ATOM     85  F   UNL A   1      45.428  34.168  31.149  1.00  0.00    -0.206 F 
ATOM     86  C   UNL A   1      46.152  35.095  29.122  1.00  0.00     0.040 A 
ATOM     87  C   UNL A   1      44.641  35.300  27.277  1.00  0.00     0.040 A 
ATOM     88  F   UNL A   1      42.447  34.548  27.452  1.00  0.00    -0.206 F 
ATOM     89  C   UNL A   1      45.917  35.459  27.800  1.00  0.00     0.006 A 
ENDBRANCH  61  82
BRANCH  73  90
ATOM     90  C   UNL A   1      41.313  30.600  33.816  1.00  0.00     0.057 A 
ATOM     91  C   UNL A   1      40.354  31.590  34.081  1.00  0.00     0.134 A 
ATOM     92  C   UNL A   1      42.043  30.127  34.912  1.00  0.00     0.134 A 
ATOM     93  F   UNL A   1      39.534  32.040  33.124  1.00  0.00    -0.206 F 
ATOM     94  C   UNL A   1      40.157  32.108  35.368  1.00  0.00     0.040 A 
ATOM     95  C   UNL A   1      41.834  30.610  36.206  1.00  0.00     0.040 A 
ATOM     96  F   UNL A   1      42.940  29.141  34.749  1.00  0.00    -0.206 F 
ATOM     97  C   UNL A   1      40.895  31.610  36.437  1.00  0.00     0.006 A 
ENDBRANCH  73  90
ENDBRANCH  47  48
ENDBRANCH  39  42
ENDBRANCH  37  38
ENDBRANCH  36  37
ENDBRANCH  35  36
ENDBRANCH   3  35
TORSDOF 18
ENDMDL
