MODEL 1
REMARK VINA RESULT:     -14.2      0.000      0.000
REMARK SMILES Cc1coc2cc3c(cc12)[C@@H](C)[C@H](CCC(=O)N[C@@H](Cc1c[nH]c2ccccc12)C(=O)NCCCNC(=O)c1ccc(-c2c4nc(c(-c5c(F)cccc5F)c5ccc([nH]5)c(-c5c(F)cccc5F)c5nc(c(-c6c(F)cccc6F)c6ccc2[nH]6)C=C5)C=C4)cc1)C(=O)O3
REMARK SMILES IDX 33 1 32 2 30 3 31 4 19 6 18 7 16 8 17 9 15 11 14 12 13 13
REMARK SMILES IDX 1 14 2 15 3 16 10 17 4 18 5 19 9 20 6 21 8 22 7 23 11 24
REMARK SMILES IDX 95 25 12 26 93 27 94 28 20 29 21 30 22 31 29 32 23 33 24 34
REMARK SMILES IDX 28 35 25 37 27 38 26 39 34 40 35 41 36 42 37 43 38 45 39 46
REMARK SMILES IDX 40 47 92 48 41 49 91 50 42 51 43 52 44 53 85 54 45 55 90 56
REMARK SMILES IDX 84 57 86 58 46 59 89 60 83 61 82 62 47 64 73 65 56 66 72 67
REMARK SMILES IDX 57 68 60 69 71 70 87 71 58 72 59 73 70 75 88 76 61 77 48 78
REMARK SMILES IDX 49 79 54 80 50 81 51 82 53 83 55 84 52 85 74 86 75 87 80 88
REMARK SMILES IDX 76 89 77 90 79 91 81 92 78 93 62 94 63 95 68 96 64 97 65 98
REMARK SMILES IDX 67 99 69 100 66 101
REMARK H PARENT 32 5 18 10 23 36 36 44 86 63 60 74
REMARK Flexibility Score: inf
ROOT
ATOM      1  C   UNL A   1      34.228  29.136  27.081  1.00  0.00     0.117 C 
ENDROOT
BRANCH   1   2
ATOM      2  N   UNL A   1      32.963  29.177  27.755  1.00  0.00    -0.354 N 
ATOM      3  C   UNL A   1      31.952  28.269  27.571  1.00  0.00     0.242 C 
ATOM      4  O   UNL A   1      31.048  28.226  28.409  1.00  0.00    -0.273 OA
ATOM      5  H   UNL A   1      32.809  29.909  28.396  1.00  0.00     0.163 HD
BRANCH   3   6
ATOM      6  C   UNL A   1      31.940  27.328  26.338  1.00  0.00     0.175 C 
BRANCH   6   7
ATOM      7  N   UNL A   1      31.095  26.146  26.616  1.00  0.00    -0.344 N 
ATOM      8  C   UNL A   1      30.375  25.283  25.842  1.00  0.00     0.220 C 
ATOM      9  O   UNL A   1      29.815  24.344  26.417  1.00  0.00    -0.275 OA
ATOM     10  H   UNL A   1      31.041  25.934  27.576  1.00  0.00     0.164 HD
BRANCH   8  11
ATOM     11  C   UNL A   1      30.172  25.470  24.335  1.00  0.00     0.101 C 
BRANCH  11  12
ATOM     12  C   UNL A   1      30.486  24.262  23.396  1.00  0.00     0.026 C 
BRANCH  12  13
ATOM     13  C   UNL A   1      31.950  24.228  22.962  1.00  0.00     0.107 C 
ATOM     14  C   UNL A   1      38.422  24.045  26.152  1.00  0.00     0.048 C 
ATOM     15  C   UNL A   1      37.574  22.965  25.610  1.00  0.00    -0.005 A 
ATOM     16  C   UNL A   1      37.870  21.616  25.581  1.00  0.00     0.199 A 
ATOM     17  C   UNL A   1      36.246  23.090  25.101  1.00  0.00     0.024 A 
ATOM     18  O   UNL A   1      36.795  20.894  25.185  1.00  0.00    -0.464 OA
ATOM     19  C   UNL A   1      35.795  21.784  24.953  1.00  0.00     0.137 A 
ATOM     20  C   UNL A   1      35.374  24.165  24.791  1.00  0.00     0.020 A 
ATOM     21  C   UNL A   1      34.494  21.443  24.652  1.00  0.00     0.095 A 
ATOM     22  C   UNL A   1      34.057  23.881  24.402  1.00  0.00    -0.001 A 
ATOM     23  C   UNL A   1      33.645  22.528  24.435  1.00  0.00     0.138 A 
ATOM     24  C   UNL A   1      33.085  24.920  23.788  1.00  0.00     0.034 C 
ATOM     25  O   UNL A   1      32.345  22.212  24.115  1.00  0.00    -0.426 OA
ATOM     26  C   UNL A   1      33.849  25.845  22.805  1.00  0.00     0.014 C 
ATOM     27  C   UNL A   1      32.364  22.798  22.902  1.00  0.00     0.314 C 
ATOM     28  O   UNL A   1      32.848  22.280  21.913  1.00  0.00    -0.251 OA
ENDBRANCH  12  13
ENDBRANCH  11  12
ENDBRANCH   8  11
ENDBRANCH   6   7
BRANCH   6  29
ATOM     29  C   UNL A   1      31.829  28.099  24.974  1.00  0.00     0.072 C 
BRANCH  29  30
ATOM     30  C   UNL A   1      30.964  29.326  24.641  1.00  0.00    -0.020 A 
ATOM     31  C   UNL A   1      31.252  30.557  25.220  1.00  0.00     0.087 A 
ATOM     32  C   UNL A   1      29.838  29.594  23.734  1.00  0.00     0.003 A 
ATOM     33  N   UNL A   1      30.345  31.487  24.805  1.00  0.00    -0.361 N 
ATOM     34  C   UNL A   1      29.469  30.935  23.908  1.00  0.00     0.046 A 
ATOM     35  C   UNL A   1      29.027  28.857  22.828  1.00  0.00     0.010 A 
ATOM     36  H   UNL A   1      30.322  32.423  25.109  1.00  0.00     0.166 HD
ATOM     37  C   UNL A   1      28.380  31.536  23.255  1.00  0.00     0.026 A 
ATOM     38  C   UNL A   1      27.970  29.452  22.124  1.00  0.00     0.001 A 
ATOM     39  C   UNL A   1      27.642  30.777  22.348  1.00  0.00     0.002 A 
ENDBRANCH  29  30
ENDBRANCH   6  29
ENDBRANCH   3   6
ENDBRANCH   1   2
BRANCH   1  40
ATOM     40  C   UNL A   1      35.303  30.095  27.525  1.00  0.00     0.042 C 
BRANCH  40  41
ATOM     41  C   UNL A   1      34.820  31.523  27.729  1.00  0.00     0.118 C 
BRANCH  41  42
ATOM     42  N   UNL A   1      34.538  31.866  29.113  1.00  0.00    -0.352 N 
ATOM     43  C   UNL A   1      35.244  31.825  30.280  1.00  0.00     0.251 C 
ATOM     44  H   UNL A   1      33.623  32.208  29.238  1.00  0.00     0.163 HD
ATOM     45  O   UNL A   1      34.725  32.368  31.257  1.00  0.00    -0.269 OA
BRANCH  43  46
ATOM     46  C   UNL A   1      36.542  31.131  30.475  1.00  0.00     0.039 A 
ATOM     47  C   UNL A   1      37.786  31.704  30.232  1.00  0.00     0.014 A 
ATOM     48  C   UNL A   1      36.476  29.755  30.763  1.00  0.00     0.014 A 
ATOM     49  C   UNL A   1      38.917  30.904  30.140  1.00  0.00     0.010 A 
ATOM     50  C   UNL A   1      37.610  28.952  30.702  1.00  0.00     0.010 A 
ATOM     51  C   UNL A   1      38.819  29.521  30.324  1.00  0.00    -0.014 A 
BRANCH  51  52
ATOM     52  C   UNL A   1      40.048  28.741  30.199  1.00  0.00     0.031 A 
ATOM     53  C   UNL A   1      40.810  28.607  31.473  1.00  0.00     0.074 A 
ATOM     54  C   UNL A   1      40.455  28.135  29.066  1.00  0.00     0.049 A 
ATOM     55  N   UNL A   1      41.987  29.064  31.751  1.00  0.00    -0.248 NA
ATOM     56  C   UNL A   1      40.111  28.007  32.621  1.00  0.00     0.031 C 
ATOM     57  C   UNL A   1      39.722  27.948  27.812  1.00  0.00     0.029 A 
ATOM     58  N   UNL A   1      41.629  27.483  28.828  1.00  0.00    -0.354 N 
ATOM     59  C   UNL A   1      42.256  28.662  33.058  1.00  0.00     0.074 A 
ATOM     60  C   UNL A   1      41.022  28.139  33.587  1.00  0.00     0.031 C 
ATOM     61  C   UNL A   1      40.376  27.051  27.038  1.00  0.00     0.029 A 
ATOM     62  C   UNL A   1      41.641  26.716  27.670  1.00  0.00     0.049 A 
ATOM     63  H   UNL A   1      42.407  27.551  29.429  1.00  0.00     0.167 HD
ATOM     64  C   UNL A   1      43.527  28.601  33.539  1.00  0.00     0.037 A 
ATOM     65  C   UNL A   1      42.605  25.840  27.291  1.00  0.00     0.037 A 
ATOM     66  C   UNL A   1      44.422  29.422  32.768  1.00  0.00     0.049 A 
ATOM     67  C   UNL A   1      43.841  26.192  28.028  1.00  0.00     0.074 A 
ATOM     68  C   UNL A   1      44.521  30.773  32.502  1.00  0.00     0.029 A 
ATOM     69  N   UNL A   1      45.223  28.802  31.842  1.00  0.00    -0.354 N 
ATOM     70  N   UNL A   1      44.528  27.279  27.821  1.00  0.00    -0.248 NA
ATOM     71  C   UNL A   1      44.078  25.532  29.302  1.00  0.00     0.031 C 
ATOM     72  C   UNL A   1      44.974  30.852  31.152  1.00  0.00     0.029 A 
ATOM     73  C   UNL A   1      45.168  29.547  30.696  1.00  0.00     0.049 A 
ATOM     74  H   UNL A   1      45.742  27.976  31.978  1.00  0.00     0.167 HD
ATOM     75  C   UNL A   1      44.953  27.671  29.081  1.00  0.00     0.074 A 
ATOM     76  C   UNL A   1      44.721  26.513  29.940  1.00  0.00     0.031 C 
ATOM     77  C   UNL A   1      45.192  28.983  29.367  1.00  0.00     0.037 A 
BRANCH  64  78
ATOM     78  C   UNL A   1      44.021  27.518  34.467  1.00  0.00     0.057 A 
ATOM     79  C   UNL A   1      44.022  26.180  34.030  1.00  0.00     0.134 A 
ATOM     80  C   UNL A   1      44.203  27.692  35.855  1.00  0.00     0.134 A 
ATOM     81  F   UNL A   1      43.844  25.878  32.734  1.00  0.00    -0.206 F 
ATOM     82  C   UNL A   1      44.116  25.100  34.916  1.00  0.00     0.040 A 
ATOM     83  C   UNL A   1      44.348  26.621  36.741  1.00  0.00     0.040 A 
ATOM     84  F   UNL A   1      44.149  28.892  36.442  1.00  0.00    -0.206 F 
ATOM     85  C   UNL A   1      44.271  25.319  36.279  1.00  0.00     0.006 A 
ENDBRANCH  64  78
BRANCH  65  86
ATOM     86  C   UNL A   1      42.460  24.531  26.607  1.00  0.00     0.057 A 
ATOM     87  C   UNL A   1      43.167  24.247  25.428  1.00  0.00     0.134 A 
ATOM     88  C   UNL A   1      41.873  23.428  27.252  1.00  0.00     0.134 A 
ATOM     89  F   UNL A   1      43.798  25.224  24.760  1.00  0.00    -0.206 F 
ATOM     90  C   UNL A   1      43.316  22.940  24.942  1.00  0.00     0.040 A 
ATOM     91  C   UNL A   1      42.009  22.120  26.774  1.00  0.00     0.040 A 
ATOM     92  F   UNL A   1      41.230  23.572  28.419  1.00  0.00    -0.206 F 
ATOM     93  C   UNL A   1      42.747  21.870  25.624  1.00  0.00     0.006 A 
ENDBRANCH  65  86
BRANCH  77  94
ATOM     94  C   UNL A   1      45.225  29.962  28.226  1.00  0.00     0.057 A 
ATOM     95  C   UNL A   1      44.093  30.630  27.736  1.00  0.00     0.134 A 
ATOM     96  C   UNL A   1      46.469  30.379  27.738  1.00  0.00     0.134 A 
ATOM     97  F   UNL A   1      42.869  30.359  28.208  1.00  0.00    -0.206 F 
ATOM     98  C   UNL A   1      44.195  31.655  26.789  1.00  0.00     0.040 A 
ATOM     99  C   UNL A   1      46.587  31.421  26.816  1.00  0.00     0.040 A 
ATOM    100  F   UNL A   1      47.597  29.818  28.201  1.00  0.00    -0.206 F 
ATOM    101  C   UNL A   1      45.447  32.061  26.336  1.00  0.00     0.006 A 
ENDBRANCH  77  94
ENDBRANCH  51  52
ENDBRANCH  43  46
ENDBRANCH  41  42
ENDBRANCH  40  41
ENDBRANCH   1  40
TORSDOF 16
ENDMDL
MODEL 2
REMARK VINA RESULT:     -13.8      1.869      3.044
REMARK SMILES Cc1coc2cc3c(cc12)[C@@H](C)[C@H](CCC(=O)N[C@@H](Cc1c[nH]c2ccccc12)C(=O)NCCCNC(=O)c1ccc(-c2c4nc(c(-c5c(F)cccc5F)c5ccc([nH]5)c(-c5c(F)cccc5F)c5nc(c(-c6c(F)cccc6F)c6ccc2[nH]6)C=C5)C=C4)cc1)C(=O)O3
REMARK SMILES IDX 33 1 32 2 30 3 31 4 19 6 18 7 16 8 17 9 15 11 14 12 13 13
REMARK SMILES IDX 1 14 2 15 3 16 10 17 4 18 5 19 9 20 6 21 8 22 7 23 11 24
REMARK SMILES IDX 95 25 12 26 93 27 94 28 20 29 21 30 22 31 29 32 23 33 24 34
REMARK SMILES IDX 28 35 25 37 27 38 26 39 34 40 35 41 36 42 37 43 38 45 39 46
REMARK SMILES IDX 40 47 92 48 41 49 91 50 42 51 43 52 44 53 85 54 45 55 90 56
REMARK SMILES IDX 84 57 86 58 46 59 89 60 83 61 82 62 47 64 73 65 56 66 72 67
REMARK SMILES IDX 57 68 60 69 71 70 87 71 58 72 59 73 70 75 88 76 61 77 48 78
REMARK SMILES IDX 49 79 54 80 50 81 51 82 53 83 55 84 52 85 74 86 75 87 80 88
REMARK SMILES IDX 76 89 77 90 79 91 81 92 78 93 62 94 63 95 68 96 64 97 65 98
REMARK SMILES IDX 67 99 69 100 66 101
REMARK H PARENT 32 5 18 10 23 36 36 44 86 63 60 74
REMARK Flexibility Score: inf
ROOT
ATOM      1  C   UNL A   1      32.322  27.340  26.170  1.00  0.00     0.117 C 
ENDROOT
BRANCH   1   2
ATOM      2  N   UNL A   1      31.038  26.841  26.568  1.00  0.00    -0.354 N 
ATOM      3  C   UNL A   1      30.470  25.686  26.093  1.00  0.00     0.242 C 
ATOM      4  O   UNL A   1      29.521  25.204  26.717  1.00  0.00    -0.273 OA
ATOM      5  H   UNL A   1      30.528  27.363  27.230  1.00  0.00     0.163 HD
BRANCH   3   6
ATOM      6  C   UNL A   1      30.999  25.010  24.801  1.00  0.00     0.175 C 
BRANCH   6   7
ATOM      7  N   UNL A   1      31.097  23.548  25.004  1.00  0.00    -0.344 N 
ATOM      8  C   UNL A   1      31.829  22.551  24.426  1.00  0.00     0.220 C 
ATOM      9  O   UNL A   1      31.699  21.415  24.893  1.00  0.00    -0.275 OA
ATOM     10  H   UNL A   1      30.501  23.220  25.715  1.00  0.00     0.164 HD
BRANCH   8  11
ATOM     11  C   UNL A   1      32.725  22.763  23.201  1.00  0.00     0.101 C 
BRANCH  11  12
ATOM     12  C   UNL A   1      34.203  23.204  23.441  1.00  0.00     0.026 C 
BRANCH  12  13
ATOM     13  C   UNL A   1      34.859  22.438  24.589  1.00  0.00     0.107 C 
ATOM     14  C   UNL A   1      41.514  20.351  26.446  1.00  0.00     0.048 C 
ATOM     15  C   UNL A   1      40.719  21.529  26.842  1.00  0.00    -0.005 A 
ATOM     16  C   UNL A   1      41.098  22.527  27.719  1.00  0.00     0.199 A 
ATOM     17  C   UNL A   1      39.447  21.919  26.325  1.00  0.00     0.024 A 
ATOM     18  O   UNL A   1      40.205  23.544  27.709  1.00  0.00    -0.464 OA
ATOM     19  C   UNL A   1      39.238  23.201  26.819  1.00  0.00     0.137 A 
ATOM     20  C   UNL A   1      38.478  21.340  25.465  1.00  0.00     0.020 A 
ATOM     21  C   UNL A   1      38.207  24.025  26.423  1.00  0.00     0.095 A 
ATOM     22  C   UNL A   1      37.364  22.102  25.086  1.00  0.00    -0.001 A 
ATOM     23  C   UNL A   1      37.321  23.451  25.512  1.00  0.00     0.138 A 
ATOM     24  C   UNL A   1      36.112  21.525  24.378  1.00  0.00     0.034 C 
ATOM     25  O   UNL A   1      36.273  24.249  25.116  1.00  0.00    -0.426 OA
ATOM     26  C   UNL A   1      35.757  20.138  24.976  1.00  0.00     0.014 C 
ATOM     27  C   UNL A   1      35.306  23.442  25.596  1.00  0.00     0.314 C 
ATOM     28  O   UNL A   1      34.980  23.408  26.768  1.00  0.00    -0.251 OA
ENDBRANCH  12  13
ENDBRANCH  11  12
ENDBRANCH   8  11
ENDBRANCH   6   7
BRANCH   6  29
ATOM     29  C   UNL A   1      30.369  25.604  23.491  1.00  0.00     0.072 C 
BRANCH  29  30
ATOM     30  C   UNL A   1      30.367  27.065  23.014  1.00  0.00    -0.020 A 
ATOM     31  C   UNL A   1      31.526  27.628  22.490  1.00  0.00     0.087 A 
ATOM     32  C   UNL A   1      29.351  28.121  22.886  1.00  0.00     0.003 A 
ATOM     33  N   UNL A   1      31.300  28.932  22.161  1.00  0.00    -0.361 N 
ATOM     34  C   UNL A   1      29.992  29.265  22.393  1.00  0.00     0.046 A 
ATOM     35  C   UNL A   1      27.970  28.285  23.189  1.00  0.00     0.010 A 
ATOM     36  H   UNL A   1      31.982  29.548  21.806  1.00  0.00     0.166 HD
ATOM     37  C   UNL A   1      29.350  30.501  22.206  1.00  0.00     0.026 A 
ATOM     38  C   UNL A   1      27.298  29.494  22.958  1.00  0.00     0.001 A 
ATOM     39  C   UNL A   1      27.987  30.595  22.483  1.00  0.00     0.002 A 
ENDBRANCH  29  30
ENDBRANCH   6  29
ENDBRANCH   3   6
ENDBRANCH   1   2
BRANCH   1  40
ATOM     40  C   UNL A   1      33.033  28.295  27.095  1.00  0.00     0.042 C 
BRANCH  40  41
ATOM     41  C   UNL A   1      33.979  29.257  26.391  1.00  0.00     0.118 C 
BRANCH  41  42
ATOM     42  N   UNL A   1      33.990  30.599  26.947  1.00  0.00    -0.352 N 
ATOM     43  C   UNL A   1      34.898  31.348  27.640  1.00  0.00     0.251 C 
ATOM     44  H   UNL A   1      33.147  31.080  26.789  1.00  0.00     0.163 HD
ATOM     45  O   UNL A   1      34.617  32.537  27.805  1.00  0.00    -0.269 OA
BRANCH  43  46
ATOM     46  C   UNL A   1      36.147  30.833  28.253  1.00  0.00     0.039 A 
ATOM     47  C   UNL A   1      37.114  31.630  28.858  1.00  0.00     0.014 A 
ATOM     48  C   UNL A   1      36.427  29.469  28.048  1.00  0.00     0.014 A 
ATOM     49  C   UNL A   1      38.376  31.115  29.123  1.00  0.00     0.010 A 
ATOM     50  C   UNL A   1      37.679  28.939  28.338  1.00  0.00     0.010 A 
ATOM     51  C   UNL A   1      38.674  29.784  28.815  1.00  0.00    -0.014 A 
BRANCH  51  52
ATOM     52  C   UNL A   1      40.026  29.316  29.109  1.00  0.00     0.031 A 
ATOM     53  C   UNL A   1      40.287  29.096  30.560  1.00  0.00     0.074 A 
ATOM     54  C   UNL A   1      40.959  29.042  28.175  1.00  0.00     0.049 A 
ATOM     55  N   UNL A   1      41.118  29.723  31.326  1.00  0.00    -0.248 NA
ATOM     56  C   UNL A   1      39.409  28.151  31.271  1.00  0.00     0.031 C 
ATOM     57  C   UNL A   1      40.803  28.957  26.722  1.00  0.00     0.029 A 
ATOM     58  N   UNL A   1      42.268  28.707  28.358  1.00  0.00    -0.354 N 
ATOM     59  C   UNL A   1      40.996  29.137  32.585  1.00  0.00     0.074 A 
ATOM     60  C   UNL A   1      39.842  28.277  32.526  1.00  0.00     0.031 C 
ATOM     61  C   UNL A   1      41.906  28.385  26.184  1.00  0.00     0.029 A 
ATOM     62  C   UNL A   1      42.899  28.202  27.228  1.00  0.00     0.049 A 
ATOM     63  H   UNL A   1      42.730  28.816  29.221  1.00  0.00     0.167 HD
ATOM     64  C   UNL A   1      41.977  29.248  33.522  1.00  0.00     0.037 A 
ATOM     65  C   UNL A   1      44.131  27.636  27.176  1.00  0.00     0.037 A 
ATOM     66  C   UNL A   1      42.834  30.371  33.256  1.00  0.00     0.049 A 
ATOM     67  C   UNL A   1      44.878  28.086  28.374  1.00  0.00     0.074 A 
ATOM     68  C   UNL A   1      42.658  31.739  33.189  1.00  0.00     0.029 A 
ATOM     69  N   UNL A   1      44.049  30.125  32.666  1.00  0.00    -0.354 N 
ATOM     70  N   UNL A   1      45.277  29.311  28.568  1.00  0.00    -0.248 NA
ATOM     71  C   UNL A   1      44.809  27.252  29.564  1.00  0.00     0.031 C 
ATOM     72  C   UNL A   1      43.526  32.174  32.145  1.00  0.00     0.029 A 
ATOM     73  C   UNL A   1      44.212  31.053  31.674  1.00  0.00     0.049 A 
ATOM     74  H   UNL A   1      44.684  29.415  32.912  1.00  0.00     0.167 HD
ATOM     75  C   UNL A   1      45.100  29.527  29.926  1.00  0.00     0.074 A 
ATOM     76  C   UNL A   1      44.894  28.200  30.500  1.00  0.00     0.031 C 
ATOM     77  C   UNL A   1      44.861  30.778  30.414  1.00  0.00     0.037 A 
BRANCH  64  78
ATOM     78  C   UNL A   1      42.374  28.131  34.455  1.00  0.00     0.057 A 
ATOM     79  C   UNL A   1      42.893  26.936  33.922  1.00  0.00     0.134 A 
ATOM     80  C   UNL A   1      41.989  28.060  35.810  1.00  0.00     0.134 A 
ATOM     81  F   UNL A   1      43.283  26.866  32.639  1.00  0.00    -0.206 F 
ATOM     82  C   UNL A   1      42.948  25.746  34.657  1.00  0.00     0.040 A 
ATOM     83  C   UNL A   1      42.086  26.890  36.567  1.00  0.00     0.040 A 
ATOM     84  F   UNL A   1      41.405  29.083  36.445  1.00  0.00    -0.206 F 
ATOM     85  C   UNL A   1      42.535  25.718  35.983  1.00  0.00     0.006 A 
ENDBRANCH  64  78
BRANCH  65  86
ATOM     86  C   UNL A   1      44.597  26.486  26.363  1.00  0.00     0.057 A 
ATOM     87  C   UNL A   1      45.698  26.606  25.500  1.00  0.00     0.134 A 
ATOM     88  C   UNL A   1      44.174  25.174  26.639  1.00  0.00     0.134 A 
ATOM     89  F   UNL A   1      46.203  27.813  25.205  1.00  0.00    -0.206 F 
ATOM     90  C   UNL A   1      46.363  25.489  24.976  1.00  0.00     0.040 A 
ATOM     91  C   UNL A   1      44.826  24.051  26.118  1.00  0.00     0.040 A 
ATOM     92  F   UNL A   1      43.176  24.937  27.501  1.00  0.00    -0.206 F 
ATOM     93  C   UNL A   1      45.936  24.205  25.297  1.00  0.00     0.006 A 
ENDBRANCH  65  86
BRANCH  77  94
ATOM     94  C   UNL A   1      45.039  31.947  29.484  1.00  0.00     0.057 A 
ATOM     95  C   UNL A   1      46.272  32.571  29.241  1.00  0.00     0.134 A 
ATOM     96  C   UNL A   1      43.964  32.326  28.673  1.00  0.00     0.134 A 
ATOM     97  F   UNL A   1      47.376  32.212  29.908  1.00  0.00    -0.206 F 
ATOM     98  C   UNL A   1      46.421  33.542  28.245  1.00  0.00     0.040 A 
ATOM     99  C   UNL A   1      44.107  33.272  27.655  1.00  0.00     0.040 A 
ATOM    100  F   UNL A   1      42.768  31.734  28.817  1.00  0.00    -0.206 F 
ATOM    101  C   UNL A   1      45.338  33.885  27.440  1.00  0.00     0.006 A 
ENDBRANCH  77  94
ENDBRANCH  51  52
ENDBRANCH  43  46
ENDBRANCH  41  42
ENDBRANCH  40  41
ENDBRANCH   1  40
TORSDOF 16
ENDMDL
MODEL 3
REMARK VINA RESULT:     -13.2      1.406      2.369
REMARK SMILES Cc1coc2cc3c(cc12)[C@@H](C)[C@H](CCC(=O)N[C@@H](Cc1c[nH]c2ccccc12)C(=O)NCCCNC(=O)c1ccc(-c2c4nc(c(-c5c(F)cccc5F)c5ccc([nH]5)c(-c5c(F)cccc5F)c5nc(c(-c6c(F)cccc6F)c6ccc2[nH]6)C=C5)C=C4)cc1)C(=O)O3
REMARK SMILES IDX 33 1 32 2 30 3 31 4 19 6 18 7 16 8 17 9 15 11 14 12 13 13
REMARK SMILES IDX 1 14 2 15 3 16 10 17 4 18 5 19 9 20 6 21 8 22 7 23 11 24
REMARK SMILES IDX 95 25 12 26 93 27 94 28 20 29 21 30 22 31 29 32 23 33 24 34
REMARK SMILES IDX 28 35 25 37 27 38 26 39 34 40 35 41 36 42 37 43 38 45 39 46
REMARK SMILES IDX 40 47 92 48 41 49 91 50 42 51 43 52 44 53 85 54 45 55 90 56
REMARK SMILES IDX 84 57 86 58 46 59 89 60 83 61 82 62 47 64 73 65 56 66 72 67
REMARK SMILES IDX 57 68 60 69 71 70 87 71 58 72 59 73 70 75 88 76 61 77 48 78
REMARK SMILES IDX 49 79 54 80 50 81 51 82 53 83 55 84 52 85 74 86 75 87 80 88
REMARK SMILES IDX 76 89 77 90 79 91 81 92 78 93 62 94 63 95 68 96 64 97 65 98
REMARK SMILES IDX 67 99 69 100 66 101
REMARK H PARENT 32 5 18 10 23 36 36 44 86 63 60 74
REMARK Flexibility Score: inf
ROOT
ATOM      1  C   UNL A   1      33.602  29.765  27.111  1.00  0.00     0.117 C 
ENDROOT
BRANCH   1   2
ATOM      2  N   UNL A   1      32.291  29.404  27.565  1.00  0.00    -0.354 N 
ATOM      3  C   UNL A   1      31.671  28.213  27.288  1.00  0.00     0.242 C 
ATOM      4  O   UNL A   1      30.694  27.892  27.969  1.00  0.00    -0.273 OA
ATOM      5  H   UNL A   1      31.802  30.057  28.117  1.00  0.00     0.163 HD
BRANCH   3   6
ATOM      6  C   UNL A   1      32.177  27.298  26.143  1.00  0.00     0.175 C 
BRANCH   6   7
ATOM      7  N   UNL A   1      31.846  25.887  26.442  1.00  0.00    -0.344 N 
ATOM      8  C   UNL A   1      32.568  24.732  26.522  1.00  0.00     0.220 C 
ATOM      9  O   UNL A   1      31.961  23.711  26.860  1.00  0.00    -0.275 OA
ATOM     10  H   UNL A   1      30.888  25.752  26.626  1.00  0.00     0.164 HD
BRANCH   8  11
ATOM     11  C   UNL A   1      34.049  24.636  26.142  1.00  0.00     0.101 C 
BRANCH  11  12
ATOM     12  C   UNL A   1      34.447  24.924  24.659  1.00  0.00     0.026 C 
BRANCH  12  13
ATOM     13  C   UNL A   1      34.934  23.670  23.934  1.00  0.00     0.107 C 
ATOM     14  C   UNL A   1      34.935  16.546  25.087  1.00  0.00     0.048 C 
ATOM     15  C   UNL A   1      34.014  17.406  24.318  1.00  0.00    -0.005 A 
ATOM     16  C   UNL A   1      32.907  16.999  23.600  1.00  0.00     0.199 A 
ATOM     17  C   UNL A   1      34.031  18.831  24.246  1.00  0.00     0.024 A 
ATOM     18  O   UNL A   1      32.189  18.065  23.174  1.00  0.00    -0.464 OA
ATOM     19  C   UNL A   1      32.839  19.172  23.619  1.00  0.00     0.137 A 
ATOM     20  C   UNL A   1      34.906  19.861  24.680  1.00  0.00     0.020 A 
ATOM     21  C   UNL A   1      32.365  20.461  23.502  1.00  0.00     0.095 A 
ATOM     22  C   UNL A   1      34.514  21.198  24.520  1.00  0.00    -0.001 A 
ATOM     23  C   UNL A   1      33.214  21.441  24.016  1.00  0.00     0.138 A 
ATOM     24  C   UNL A   1      35.461  22.411  24.700  1.00  0.00     0.034 C 
ATOM     25  O   UNL A   1      32.771  22.737  23.895  1.00  0.00    -0.426 OA
ATOM     26  C   UNL A   1      36.858  22.087  24.112  1.00  0.00     0.014 C 
ATOM     27  C   UNL A   1      33.795  23.153  23.124  1.00  0.00     0.314 C 
ATOM     28  O   UNL A   1      33.860  22.949  21.927  1.00  0.00    -0.251 OA
ENDBRANCH  12  13
ENDBRANCH  11  12
ENDBRANCH   8  11
ENDBRANCH   6   7
BRANCH   6  29
ATOM     29  C   UNL A   1      31.929  27.901  24.714  1.00  0.00     0.072 C 
BRANCH  29  30
ATOM     30  C   UNL A   1      30.589  28.269  24.056  1.00  0.00    -0.020 A 
ATOM     31  C   UNL A   1      29.793  27.276  23.495  1.00  0.00     0.087 A 
ATOM     32  C   UNL A   1      29.808  29.505  23.899  1.00  0.00     0.003 A 
ATOM     33  N   UNL A   1      28.675  27.832  22.949  1.00  0.00    -0.361 N 
ATOM     34  C   UNL A   1      28.655  29.184  23.171  1.00  0.00     0.046 A 
ATOM     35  C   UNL A   1      29.956  30.883  24.219  1.00  0.00     0.010 A 
ATOM     36  H   UNL A   1      27.979  27.333  22.463  1.00  0.00     0.166 HD
ATOM     37  C   UNL A   1      27.698  30.130  22.766  1.00  0.00     0.026 A 
ATOM     38  C   UNL A   1      28.986  31.834  23.873  1.00  0.00     0.001 A 
ATOM     39  C   UNL A   1      27.874  31.461  23.141  1.00  0.00     0.002 A 
ENDBRANCH  29  30
ENDBRANCH   6  29
ENDBRANCH   3   6
ENDBRANCH   1   2
BRANCH   1  40
ATOM     40  C   UNL A   1      34.044  31.197  27.274  1.00  0.00     0.042 C 
BRANCH  40  41
ATOM     41  C   UNL A   1      35.276  31.374  28.149  1.00  0.00     0.118 C 
BRANCH  41  42
ATOM     42  N   UNL A   1      34.985  31.736  29.526  1.00  0.00    -0.352 N 
ATOM     43  C   UNL A   1      35.666  31.665  30.706  1.00  0.00     0.251 C 
ATOM     44  H   UNL A   1      34.085  32.121  29.632  1.00  0.00     0.163 HD
ATOM     45  O   UNL A   1      35.155  32.237  31.672  1.00  0.00    -0.269 OA
BRANCH  43  46
ATOM     46  C   UNL A   1      36.925  30.910  30.928  1.00  0.00     0.039 A 
ATOM     47  C   UNL A   1      38.196  31.475  30.907  1.00  0.00     0.014 A 
ATOM     48  C   UNL A   1      36.809  29.509  30.994  1.00  0.00     0.014 A 
ATOM     49  C   UNL A   1      39.319  30.663  30.813  1.00  0.00     0.010 A 
ATOM     50  C   UNL A   1      37.931  28.690  30.930  1.00  0.00     0.010 A 
ATOM     51  C   UNL A   1      39.182  29.272  30.773  1.00  0.00    -0.014 A 
BRANCH  51  52
ATOM     52  C   UNL A   1      40.406  28.483  30.660  1.00  0.00     0.031 A 
ATOM     53  C   UNL A   1      41.198  28.412  31.920  1.00  0.00     0.074 A 
ATOM     54  C   UNL A   1      40.785  27.817  29.550  1.00  0.00     0.049 A 
ATOM     55  N   UNL A   1      42.382  28.879  32.147  1.00  0.00    -0.248 NA
ATOM     56  C   UNL A   1      40.524  27.876  33.115  1.00  0.00     0.031 C 
ATOM     57  C   UNL A   1      40.022  27.568  28.325  1.00  0.00     0.029 A 
ATOM     58  N   UNL A   1      41.952  27.150  29.320  1.00  0.00    -0.354 N 
ATOM     59  C   UNL A   1      42.680  28.545  33.466  1.00  0.00     0.074 A 
ATOM     60  C   UNL A   1      41.458  28.054  34.050  1.00  0.00     0.031 C 
ATOM     61  C   UNL A   1      40.657  26.630  27.584  1.00  0.00     0.029 A 
ATOM     62  C   UNL A   1      41.935  26.324  28.203  1.00  0.00     0.049 A 
ATOM     63  H   UNL A   1      42.743  27.246  29.897  1.00  0.00     0.167 HD
ATOM     64  C   UNL A   1      43.963  28.504  33.920  1.00  0.00     0.037 A 
ATOM     65  C   UNL A   1      42.888  25.426  27.847  1.00  0.00     0.037 A 
ATOM     66  C   UNL A   1      44.840  29.281  33.087  1.00  0.00     0.049 A 
ATOM     67  C   UNL A   1      44.141  25.812  28.536  1.00  0.00     0.074 A 
ATOM     68  C   UNL A   1      44.936  30.616  32.749  1.00  0.00     0.029 A 
ATOM     69  N   UNL A   1      45.619  28.612  32.176  1.00  0.00    -0.354 N 
ATOM     70  N   UNL A   1      44.826  26.885  28.257  1.00  0.00    -0.248 NA
ATOM     71  C   UNL A   1      44.407  25.218  29.837  1.00  0.00     0.031 C 
ATOM     72  C   UNL A   1      45.358  30.624  31.387  1.00  0.00     0.029 A 
ATOM     73  C   UNL A   1      45.538  29.297  30.994  1.00  0.00     0.049 A 
ATOM     74  H   UNL A   1      46.138  27.792  32.343  1.00  0.00     0.167 HD
ATOM     75  C   UNL A   1      45.281  27.340  29.485  1.00  0.00     0.074 A 
ATOM     76  C   UNL A   1      45.067  26.228  30.407  1.00  0.00     0.031 C 
ATOM     77  C   UNL A   1      45.530  28.664  29.696  1.00  0.00     0.037 A 
BRANCH  64  78
ATOM     78  C   UNL A   1      44.475  27.470  34.891  1.00  0.00     0.057 A 
ATOM     79  C   UNL A   1      44.337  26.103  34.583  1.00  0.00     0.134 A 
ATOM     80  C   UNL A   1      44.816  27.747  36.232  1.00  0.00     0.134 A 
ATOM     81  F   UNL A   1      44.001  25.706  33.346  1.00  0.00    -0.206 F 
ATOM     82  C   UNL A   1      44.449  25.099  35.553  1.00  0.00     0.040 A 
ATOM     83  C   UNL A   1      44.979  26.748  37.195  1.00  0.00     0.040 A 
ATOM     84  F   UNL A   1      44.908  28.994  36.707  1.00  0.00    -0.206 F 
ATOM     85  C   UNL A   1      44.762  25.421  36.867  1.00  0.00     0.006 A 
ENDBRANCH  64  78
BRANCH  65  86
ATOM     86  C   UNL A   1      42.724  24.084  27.236  1.00  0.00     0.057 A 
ATOM     87  C   UNL A   1      41.798  23.162  27.748  1.00  0.00     0.134 A 
ATOM     88  C   UNL A   1      43.243  23.790  25.963  1.00  0.00     0.134 A 
ATOM     89  F   UNL A   1      41.215  23.371  28.938  1.00  0.00    -0.206 F 
ATOM     90  C   UNL A   1      41.381  22.038  27.022  1.00  0.00     0.040 A 
ATOM     91  C   UNL A   1      42.840  22.669  25.230  1.00  0.00     0.040 A 
ATOM     92  F   UNL A   1      44.084  24.633  25.348  1.00  0.00    -0.206 F 
ATOM     93  C   UNL A   1      41.893  21.796  25.751  1.00  0.00     0.006 A 
ENDBRANCH  65  86
BRANCH  77  94
ATOM     94  C   UNL A   1      45.538  29.583  28.505  1.00  0.00     0.057 A 
ATOM     95  C   UNL A   1      44.396  30.227  28.008  1.00  0.00     0.134 A 
ATOM     96  C   UNL A   1      46.771  29.971  27.969  1.00  0.00     0.134 A 
ATOM     97  F   UNL A   1      43.182  29.984  28.520  1.00  0.00    -0.206 F 
ATOM     98  C   UNL A   1      44.478  31.201  27.007  1.00  0.00     0.040 A 
ATOM     99  C   UNL A   1      46.869  30.963  26.992  1.00  0.00     0.040 A 
ATOM    100  F   UNL A   1      47.909  29.432  28.435  1.00  0.00    -0.206 F 
ATOM    101  C   UNL A   1      45.720  31.580  26.505  1.00  0.00     0.006 A 
ENDBRANCH  77  94
ENDBRANCH  51  52
ENDBRANCH  43  46
ENDBRANCH  41  42
ENDBRANCH  40  41
ENDBRANCH   1  40
TORSDOF 16
ENDMDL
