MODEL 1
REMARK VINA RESULT:     -12.2      0.000      0.000
REMARK SMILES CC1(C)CSC[C@H](Nc2cc(C(=O)NCCCNC(=O)c3ccc(-c4c5nc(c(-c6c(F)cccc6F)c6ccc([nH]6)c(-c6c(F)cccc6F)c6nc(c(-c7c(F)cccc7F)c7ccc4[nH]7)C=C6)C=C5)cc3)ccc2F)C1
REMARK SMILES IDX 16 1 15 2 14 3 12 4 13 5 11 7 9 8 10 9 77 10 76 11 78 12
REMARK SMILES IDX 75 13 8 14 7 16 1 17 2 18 3 19 4 20 79 21 5 22 6 23 17 24
REMARK SMILES IDX 18 25 19 26 20 28 21 29 22 30 74 31 23 32 73 33 24 34 25 35
REMARK SMILES IDX 26 36 67 37 27 38 72 39 66 40 68 41 28 42 71 43 65 44 64 45
REMARK SMILES IDX 29 47 55 48 38 49 54 50 39 51 42 52 53 53 69 54 40 55 41 56
REMARK SMILES IDX 52 58 70 59 43 60 30 61 31 62 36 63 32 64 33 65 35 66 37 67
REMARK SMILES IDX 34 68 56 69 57 70 62 71 58 72 59 73 61 74 63 75 60 76 44 77
REMARK SMILES IDX 45 78 50 79 46 80 47 81 49 82 51 83 48 84
REMARK H PARENT 14 6 8 15 18 27 68 46 42 57
REMARK Flexibility Score: inf
ROOT
ATOM      1  C   UNL A   1      37.432  19.381  24.949  1.00  0.00     0.042 C 
ENDROOT
BRANCH   1   2
ATOM      2  C   UNL A   1      36.152  20.214  24.959  1.00  0.00     0.118 C 
BRANCH   2   3
ATOM      3  N   UNL A   1      34.977  19.372  24.838  1.00  0.00    -0.352 N 
ATOM      4  C   UNL A   1      33.660  19.570  25.157  1.00  0.00     0.251 C 
ATOM      5  O   UNL A   1      32.867  18.672  24.874  1.00  0.00    -0.269 OA
ATOM      6  H   UNL A   1      35.163  18.486  24.450  1.00  0.00     0.163 HD
BRANCH   4   7
ATOM      7  C   UNL A   1      33.139  20.822  25.773  1.00  0.00     0.042 A 
ATOM      8  C   UNL A   1      31.614  22.725  25.499  1.00  0.00     0.071 A 
ATOM      9  C   UNL A   1      32.155  21.514  25.044  1.00  0.00     0.042 A 
ATOM     10  C   UNL A   1      32.067  23.216  26.732  1.00  0.00     0.146 A 
ATOM     11  C   UNL A   1      33.009  22.529  27.488  1.00  0.00     0.042 A 
ATOM     12  F   UNL A   1      31.585  24.364  27.231  1.00  0.00    -0.205 F 
ATOM     13  C   UNL A   1      33.538  21.329  27.012  1.00  0.00     0.017 A 
BRANCH   8  14
ATOM     14  N   UNL A   1      30.767  23.437  24.647  1.00  0.00    -0.379 N 
ATOM     15  H   UNL A   1      29.891  23.074  24.383  1.00  0.00     0.160 HD
BRANCH  14  16
ATOM     16  C   UNL A   1      31.221  24.744  24.157  1.00  0.00     0.089 C 
ATOM     17  C   UNL A   1      31.106  27.822  24.665  1.00  0.00     0.012 C 
ATOM     18  C   UNL A   1      30.350  27.097  23.530  1.00  0.00    -0.024 C 
ATOM     19  C   UNL A   1      29.035  27.865  23.286  1.00  0.00     0.012 C 
ATOM     20  C   UNL A   1      31.161  27.119  22.216  1.00  0.00     0.076 C 
ATOM     21  C   UNL A   1      29.996  25.649  23.951  1.00  0.00     0.033 C 
ATOM     22  S   UNL A   1      32.691  26.138  22.235  1.00  0.00    -0.159 SA
ATOM     23  C   UNL A   1      32.008  24.571  22.848  1.00  0.00     0.094 C 
ENDBRANCH  14  16
ENDBRANCH   8  14
ENDBRANCH   4   7
ENDBRANCH   2   3
ENDBRANCH   1   2
BRANCH   1  24
ATOM     24  C   UNL A   1      38.662  20.145  25.428  1.00  0.00     0.118 C 
BRANCH  24  25
ATOM     25  N   UNL A   1      39.798  19.265  25.651  1.00  0.00    -0.352 N 
ATOM     26  C   UNL A   1      41.076  19.557  26.058  1.00  0.00     0.251 C 
ATOM     27  H   UNL A   1      39.624  18.311  25.482  1.00  0.00     0.163 HD
ATOM     28  O   UNL A   1      41.948  18.700  25.965  1.00  0.00    -0.269 OA
BRANCH  26  29
ATOM     29  C   UNL A   1      41.416  20.894  26.599  1.00  0.00     0.039 A 
ATOM     30  C   UNL A   1      41.908  21.865  25.722  1.00  0.00     0.014 A 
ATOM     31  C   UNL A   1      41.316  21.177  27.965  1.00  0.00     0.014 A 
ATOM     32  C   UNL A   1      42.258  23.128  26.204  1.00  0.00     0.010 A 
ATOM     33  C   UNL A   1      41.599  22.458  28.434  1.00  0.00     0.010 A 
ATOM     34  C   UNL A   1      42.083  23.442  27.561  1.00  0.00    -0.014 A 
BRANCH  34  35
ATOM     35  C   UNL A   1      42.419  24.789  28.086  1.00  0.00     0.031 A 
ATOM     36  C   UNL A   1      43.837  25.127  28.453  1.00  0.00     0.074 A 
ATOM     37  C   UNL A   1      41.441  25.695  28.274  1.00  0.00     0.049 A 
ATOM     38  N   UNL A   1      44.315  26.224  28.983  1.00  0.00    -0.248 NA
ATOM     39  C   UNL A   1      44.849  24.086  28.211  1.00  0.00     0.031 C 
ATOM     40  C   UNL A   1      40.023  25.478  27.981  1.00  0.00     0.029 A 
ATOM     41  N   UNL A   1      41.490  26.978  28.756  1.00  0.00    -0.354 N 
ATOM     42  C   UNL A   1      45.676  26.002  29.149  1.00  0.00     0.074 A 
ATOM     43  C   UNL A   1      45.941  24.648  28.711  1.00  0.00     0.031 C 
ATOM     44  C   UNL A   1      39.343  26.602  28.255  1.00  0.00     0.029 A 
ATOM     45  C   UNL A   1      40.268  27.603  28.780  1.00  0.00     0.049 A 
ATOM     46  H   UNL A   1      42.322  27.410  29.055  1.00  0.00     0.167 HD
ATOM     47  C   UNL A   1      46.624  26.856  29.601  1.00  0.00     0.037 A 
ATOM     48  C   UNL A   1      39.928  28.843  29.179  1.00  0.00     0.037 A 
ATOM     49  C   UNL A   1      46.363  28.210  30.015  1.00  0.00     0.049 A 
ATOM     50  C   UNL A   1      40.993  29.769  29.695  1.00  0.00     0.074 A 
ATOM     51  C   UNL A   1      47.262  29.165  30.456  1.00  0.00     0.029 A 
ATOM     52  N   UNL A   1      45.109  28.801  30.034  1.00  0.00    -0.354 N 
ATOM     53  N   UNL A   1      42.280  29.555  29.821  1.00  0.00    -0.248 NA
ATOM     54  C   UNL A   1      40.560  31.106  30.123  1.00  0.00     0.031 C 
ATOM     55  C   UNL A   1      46.548  30.323  30.776  1.00  0.00     0.029 A 
ATOM     56  C   UNL A   1      45.208  30.104  30.493  1.00  0.00     0.049 A 
ATOM     57  H   UNL A   1      44.272  28.360  29.763  1.00  0.00     0.167 HD
ATOM     58  C   UNL A   1      42.815  30.734  30.323  1.00  0.00     0.074 A 
ATOM     59  C   UNL A   1      41.713  31.663  30.470  1.00  0.00     0.031 C 
ATOM     60  C   UNL A   1      44.103  31.018  30.632  1.00  0.00     0.037 A 
BRANCH  47  61
ATOM     61  C   UNL A   1      48.037  26.353  29.662  1.00  0.00     0.057 A 
ATOM     62  C   UNL A   1      48.886  26.454  28.553  1.00  0.00     0.134 A 
ATOM     63  C   UNL A   1      48.546  25.732  30.811  1.00  0.00     0.134 A 
ATOM     64  F   UNL A   1      48.461  27.031  27.419  1.00  0.00    -0.206 F 
ATOM     65  C   UNL A   1      50.190  25.956  28.585  1.00  0.00     0.040 A 
ATOM     66  C   UNL A   1      49.856  25.254  30.863  1.00  0.00     0.040 A 
ATOM     67  F   UNL A   1      47.788  25.613  31.912  1.00  0.00    -0.206 F 
ATOM     68  C   UNL A   1      50.681  25.359  29.745  1.00  0.00     0.006 A 
ENDBRANCH  47  61
BRANCH  48  69
ATOM     69  C   UNL A   1      38.520  29.289  29.054  1.00  0.00     0.057 A 
ATOM     70  C   UNL A   1      37.637  29.249  30.140  1.00  0.00     0.134 A 
ATOM     71  C   UNL A   1      38.014  29.724  27.825  1.00  0.00     0.134 A 
ATOM     72  F   UNL A   1      38.060  28.834  31.342  1.00  0.00    -0.206 F 
ATOM     73  C   UNL A   1      36.294  29.605  30.001  1.00  0.00     0.040 A 
ATOM     74  C   UNL A   1      36.679  30.102  27.676  1.00  0.00     0.040 A 
ATOM     75  F   UNL A   1      38.818  29.798  26.753  1.00  0.00    -0.206 F 
ATOM     76  C   UNL A   1      35.813  30.034  28.766  1.00  0.00     0.006 A 
ENDBRANCH  48  69
BRANCH  60  77
ATOM     77  C   UNL A   1      44.404  32.395  31.142  1.00  0.00     0.057 A 
ATOM     78  C   UNL A   1      44.737  33.427  30.256  1.00  0.00     0.134 A 
ATOM     79  C   UNL A   1      44.438  32.680  32.513  1.00  0.00     0.134 A 
ATOM     80  F   UNL A   1      44.733  33.215  28.931  1.00  0.00    -0.206 F 
ATOM     81  C   UNL A   1      45.106  34.692  30.715  1.00  0.00     0.040 A 
ATOM     82  C   UNL A   1      44.784  33.948  32.983  1.00  0.00     0.040 A 
ATOM     83  F   UNL A   1      44.119  31.737  33.412  1.00  0.00    -0.206 F 
ATOM     84  C   UNL A   1      45.128  34.955  32.083  1.00  0.00     0.006 A 
ENDBRANCH  60  77
ENDBRANCH  34  35
ENDBRANCH  26  29
ENDBRANCH  24  25
ENDBRANCH   1  24
TORSDOF 12
ENDMDL
MODEL 2
REMARK VINA RESULT:     -12.2      1.207      6.566
REMARK SMILES CC1(C)CSC[C@H](Nc2cc(C(=O)NCCCNC(=O)c3ccc(-c4c5nc(c(-c6c(F)cccc6F)c6ccc([nH]6)c(-c6c(F)cccc6F)c6nc(c(-c7c(F)cccc7F)c7ccc4[nH]7)C=C6)C=C5)cc3)ccc2F)C1
REMARK SMILES IDX 16 1 15 2 14 3 12 4 13 5 11 7 9 8 10 9 77 10 76 11 78 12
REMARK SMILES IDX 75 13 8 14 7 16 1 17 2 18 3 19 4 20 79 21 5 22 6 23 17 24
REMARK SMILES IDX 18 25 19 26 20 28 21 29 22 30 74 31 23 32 73 33 24 34 25 35
REMARK SMILES IDX 26 36 67 37 27 38 72 39 66 40 68 41 28 42 71 43 65 44 64 45
REMARK SMILES IDX 29 47 55 48 38 49 54 50 39 51 42 52 53 53 69 54 40 55 41 56
REMARK SMILES IDX 52 58 70 59 43 60 30 61 31 62 36 63 32 64 33 65 35 66 37 67
REMARK SMILES IDX 34 68 56 69 57 70 62 71 58 72 59 73 61 74 63 75 60 76 44 77
REMARK SMILES IDX 45 78 50 79 46 80 47 81 49 82 51 83 48 84
REMARK H PARENT 14 6 8 15 18 27 68 46 42 57
REMARK Flexibility Score: inf
ROOT
ATOM      1  C   UNL A   1      37.501  19.564  24.999  1.00  0.00     0.042 C 
ENDROOT
BRANCH   1   2
ATOM      2  C   UNL A   1      36.278  20.479  25.024  1.00  0.00     0.118 C 
BRANCH   2   3
ATOM      3  N   UNL A   1      36.664  21.867  25.193  1.00  0.00    -0.352 N 
ATOM      4  C   UNL A   1      36.001  22.957  25.690  1.00  0.00     0.251 C 
ATOM      5  O   UNL A   1      36.627  24.015  25.764  1.00  0.00    -0.269 OA
ATOM      6  H   UNL A   1      37.581  22.062  24.891  1.00  0.00     0.163 HD
BRANCH   4   7
ATOM      7  C   UNL A   1      34.599  22.915  26.189  1.00  0.00     0.042 A 
ATOM      8  C   UNL A   1      32.290  23.641  25.787  1.00  0.00     0.071 A 
ATOM      9  C   UNL A   1      33.637  23.576  25.404  1.00  0.00     0.042 A 
ATOM     10  C   UNL A   1      31.920  22.994  26.975  1.00  0.00     0.146 A 
ATOM     11  C   UNL A   1      32.846  22.302  27.745  1.00  0.00     0.042 A 
ATOM     12  F   UNL A   1      30.646  23.008  27.396  1.00  0.00    -0.205 F 
ATOM     13  C   UNL A   1      34.183  22.255  27.348  1.00  0.00     0.017 A 
BRANCH   8  14
ATOM     14  N   UNL A   1      31.426  24.452  25.048  1.00  0.00    -0.379 N 
ATOM     15  H   UNL A   1      30.583  24.095  24.685  1.00  0.00     0.160 HD
BRANCH  14  16
ATOM     16  C   UNL A   1      31.811  25.850  24.827  1.00  0.00     0.089 C 
ATOM     17  C   UNL A   1      33.630  28.171  25.851  1.00  0.00     0.012 C 
ATOM     18  C   UNL A   1      32.102  28.101  26.067  1.00  0.00    -0.024 C 
ATOM     19  C   UNL A   1      31.793  28.775  27.419  1.00  0.00     0.012 C 
ATOM     20  C   UNL A   1      31.347  28.880  24.967  1.00  0.00     0.076 C 
ATOM     21  C   UNL A   1      31.630  26.627  26.140  1.00  0.00     0.033 C 
ATOM     22  S   UNL A   1      31.451  28.161  23.301  1.00  0.00    -0.159 SA
ATOM     23  C   UNL A   1      30.959  26.460  23.701  1.00  0.00     0.094 C 
ENDBRANCH  14  16
ENDBRANCH   8  14
ENDBRANCH   4   7
ENDBRANCH   2   3
ENDBRANCH   1   2
BRANCH   1  24
ATOM     24  C   UNL A   1      38.807  20.280  25.329  1.00  0.00     0.118 C 
BRANCH  24  25
ATOM     25  N   UNL A   1      39.879  19.346  25.633  1.00  0.00    -0.352 N 
ATOM     26  C   UNL A   1      41.151  19.580  26.093  1.00  0.00     0.251 C 
ATOM     27  H   UNL A   1      39.659  18.398  25.484  1.00  0.00     0.163 HD
ATOM     28  O   UNL A   1      41.976  18.674  26.069  1.00  0.00    -0.269 OA
BRANCH  26  29
ATOM     29  C   UNL A   1      41.539  20.913  26.611  1.00  0.00     0.039 A 
ATOM     30  C   UNL A   1      41.405  21.162  27.981  1.00  0.00     0.014 A 
ATOM     31  C   UNL A   1      41.970  21.932  25.758  1.00  0.00     0.014 A 
ATOM     32  C   UNL A   1      41.743  22.414  28.499  1.00  0.00     0.010 A 
ATOM     33  C   UNL A   1      42.373  23.159  26.284  1.00  0.00     0.010 A 
ATOM     34  C   UNL A   1      42.252  23.416  27.656  1.00  0.00    -0.014 A 
BRANCH  34  35
ATOM     35  C   UNL A   1      42.647  24.742  28.194  1.00  0.00     0.031 A 
ATOM     36  C   UNL A   1      41.614  25.818  28.387  1.00  0.00     0.074 A 
ATOM     37  C   UNL A   1      43.941  24.993  28.466  1.00  0.00     0.049 A 
ATOM     38  N   UNL A   1      41.775  27.055  28.784  1.00  0.00    -0.248 NA
ATOM     39  C   UNL A   1      40.221  25.462  28.073  1.00  0.00     0.031 C 
ATOM     40  C   UNL A   1      45.039  24.041  28.296  1.00  0.00     0.029 A 
ATOM     41  N   UNL A   1      44.551  26.125  28.943  1.00  0.00    -0.354 N 
ATOM     42  C   UNL A   1      40.509  27.627  28.756  1.00  0.00     0.074 A 
ATOM     43  C   UNL A   1      39.599  26.619  28.254  1.00  0.00     0.031 C 
ATOM     44  C   UNL A   1      46.184  24.615  28.697  1.00  0.00     0.029 A 
ATOM     45  C   UNL A   1      45.907  25.988  29.114  1.00  0.00     0.049 A 
ATOM     46  H   UNL A   1      44.064  26.956  29.145  1.00  0.00     0.167 HD
ATOM     47  C   UNL A   1      40.134  28.871  29.137  1.00  0.00     0.037 A 
ATOM     48  C   UNL A   1      46.825  26.866  29.557  1.00  0.00     0.037 A 
ATOM     49  C   UNL A   1      41.037  29.865  29.655  1.00  0.00     0.049 A 
ATOM     50  C   UNL A   1      46.391  28.248  29.957  1.00  0.00     0.074 A 
ATOM     51  C   UNL A   1      40.747  31.143  30.101  1.00  0.00     0.029 A 
ATOM     52  N   UNL A   1      42.404  29.689  29.802  1.00  0.00    -0.354 N 
ATOM     53  N   UNL A   1      45.187  28.767  29.951  1.00  0.00    -0.248 NA
ATOM     54  C   UNL A   1      47.439  29.165  30.425  1.00  0.00     0.031 C 
ATOM     55  C   UNL A   1      41.945  31.754  30.484  1.00  0.00     0.029 A 
ATOM     56  C   UNL A   1      42.975  30.841  30.319  1.00  0.00     0.049 A 
ATOM     57  H   UNL A   1      42.896  28.868  29.573  1.00  0.00     0.167 HD
ATOM     58  C   UNL A   1      45.328  30.062  30.432  1.00  0.00     0.074 A 
ATOM     59  C   UNL A   1      46.734  30.247  30.728  1.00  0.00     0.031 C 
ATOM     60  C   UNL A   1      44.376  31.010  30.611  1.00  0.00     0.037 A 
BRANCH  47  61
ATOM     61  C   UNL A   1      38.680  29.223  29.014  1.00  0.00     0.057 A 
ATOM     62  C   UNL A   1      37.822  29.136  30.117  1.00  0.00     0.134 A 
ATOM     63  C   UNL A   1      38.120  29.616  27.791  1.00  0.00     0.134 A 
ATOM     64  F   UNL A   1      38.291  28.760  31.317  1.00  0.00    -0.206 F 
ATOM     65  C   UNL A   1      36.461  29.425  30.008  1.00  0.00     0.040 A 
ATOM     66  C   UNL A   1      36.766  29.932  27.675  1.00  0.00     0.040 A 
ATOM     67  F   UNL A   1      38.890  29.731  26.697  1.00  0.00    -0.206 F 
ATOM     68  C   UNL A   1      35.930  29.830  28.785  1.00  0.00     0.006 A 
ENDBRANCH  47  61
BRANCH  48  69
ATOM     69  C   UNL A   1      48.238  26.440  29.691  1.00  0.00     0.057 A 
ATOM     70  C   UNL A   1      49.159  26.606  28.649  1.00  0.00     0.134 A 
ATOM     71  C   UNL A   1      48.687  25.808  30.856  1.00  0.00     0.134 A 
ATOM     72  F   UNL A   1      48.786  27.198  27.505  1.00  0.00    -0.206 F 
ATOM     73  C   UNL A   1      50.471  26.141  28.754  1.00  0.00     0.040 A 
ATOM     74  C   UNL A   1      50.001  25.355  30.982  1.00  0.00     0.040 A 
ATOM     75  F   UNL A   1      47.853  25.634  31.892  1.00  0.00    -0.206 F 
ATOM     76  C   UNL A   1      50.895  25.514  29.924  1.00  0.00     0.006 A 
ENDBRANCH  48  69
BRANCH  60  77
ATOM     77  C   UNL A   1      44.812  32.329  31.172  1.00  0.00     0.057 A 
ATOM     78  C   UNL A   1      44.795  32.558  32.554  1.00  0.00     0.134 A 
ATOM     79  C   UNL A   1      45.175  33.397  30.342  1.00  0.00     0.134 A 
ATOM     80  F   UNL A   1      44.447  31.578  33.402  1.00  0.00    -0.206 F 
ATOM     81  C   UNL A   1      45.112  33.805  33.090  1.00  0.00     0.040 A 
ATOM     82  C   UNL A   1      45.516  34.644  30.869  1.00  0.00     0.040 A 
ATOM     83  F   UNL A   1      45.221  33.239  29.011  1.00  0.00    -0.206 F 
ATOM     84  C   UNL A   1      45.476  34.853  32.246  1.00  0.00     0.006 A 
ENDBRANCH  60  77
ENDBRANCH  34  35
ENDBRANCH  26  29
ENDBRANCH  24  25
ENDBRANCH   1  24
TORSDOF 12
ENDMDL
MODEL 3
REMARK VINA RESULT:     -12.1      5.090     10.380
REMARK SMILES CC1(C)CSC[C@H](Nc2cc(C(=O)NCCCNC(=O)c3ccc(-c4c5nc(c(-c6c(F)cccc6F)c6ccc([nH]6)c(-c6c(F)cccc6F)c6nc(c(-c7c(F)cccc7F)c7ccc4[nH]7)C=C6)C=C5)cc3)ccc2F)C1
REMARK SMILES IDX 16 1 15 2 14 3 12 4 13 5 11 7 9 8 10 9 77 10 76 11 78 12
REMARK SMILES IDX 75 13 8 14 7 16 1 17 2 18 3 19 4 20 79 21 5 22 6 23 17 24
REMARK SMILES IDX 18 25 19 26 20 28 21 29 22 30 74 31 23 32 73 33 24 34 25 35
REMARK SMILES IDX 26 36 67 37 27 38 72 39 66 40 68 41 28 42 71 43 65 44 64 45
REMARK SMILES IDX 29 47 55 48 38 49 54 50 39 51 42 52 53 53 69 54 40 55 41 56
REMARK SMILES IDX 52 58 70 59 43 60 30 61 31 62 36 63 32 64 33 65 35 66 37 67
REMARK SMILES IDX 34 68 56 69 57 70 62 71 58 72 59 73 61 74 63 75 60 76 44 77
REMARK SMILES IDX 45 78 50 79 46 80 47 81 49 82 51 83 48 84
REMARK H PARENT 14 6 8 15 18 27 68 46 42 57
REMARK Flexibility Score: inf
ROOT
ATOM      1  C   UNL A   1      35.309  33.418  27.969  1.00  0.00     0.042 C 
ENDROOT
BRANCH   1   2
ATOM      2  C   UNL A   1      35.222  34.897  28.341  1.00  0.00     0.118 C 
BRANCH   2   3
ATOM      3  N   UNL A   1      33.867  35.395  28.196  1.00  0.00    -0.352 N 
ATOM      4  C   UNL A   1      33.002  35.992  29.075  1.00  0.00     0.251 C 
ATOM      5  O   UNL A   1      31.917  36.370  28.633  1.00  0.00    -0.269 OA
ATOM      6  H   UNL A   1      33.498  35.283  27.289  1.00  0.00     0.163 HD
BRANCH   4   7
ATOM      7  C   UNL A   1      33.326  36.250  30.505  1.00  0.00     0.042 A 
ATOM      8  C   UNL A   1      34.012  35.243  32.635  1.00  0.00     0.071 A 
ATOM      9  C   UNL A   1      33.719  35.136  31.268  1.00  0.00     0.042 A 
ATOM     10  C   UNL A   1      33.929  36.515  33.219  1.00  0.00     0.146 A 
ATOM     11  C   UNL A   1      33.581  37.636  32.476  1.00  0.00     0.042 A 
ATOM     12  F   UNL A   1      34.205  36.691  34.521  1.00  0.00    -0.205 F 
ATOM     13  C   UNL A   1      33.288  37.505  31.119  1.00  0.00     0.017 A 
BRANCH   8  14
ATOM     14  N   UNL A   1      34.233  34.071  33.362  1.00  0.00    -0.379 N 
ATOM     15  H   UNL A   1      33.481  33.510  33.660  1.00  0.00     0.160 HD
BRANCH  14  16
ATOM     16  C   UNL A   1      35.619  33.702  33.672  1.00  0.00     0.089 C 
ATOM     17  C   UNL A   1      38.272  32.579  32.470  1.00  0.00     0.012 C 
ATOM     18  C   UNL A   1      37.324  31.779  33.390  1.00  0.00    -0.024 C 
ATOM     19  C   UNL A   1      37.405  30.298  32.963  1.00  0.00     0.012 C 
ATOM     20  C   UNL A   1      37.770  31.869  34.866  1.00  0.00     0.076 C 
ATOM     21  C   UNL A   1      35.861  32.256  33.211  1.00  0.00     0.033 C 
ATOM     22  S   UNL A   1      37.608  33.514  35.623  1.00  0.00    -0.159 SA
ATOM     23  C   UNL A   1      35.881  33.855  35.179  1.00  0.00     0.094 C 
ENDBRANCH  14  16
ENDBRANCH   8  14
ENDBRANCH   4   7
ENDBRANCH   2   3
ENDBRANCH   1   2
BRANCH   1  24
ATOM     24  C   UNL A   1      34.839  32.480  29.076  1.00  0.00     0.118 C 
BRANCH  24  25
ATOM     25  N   UNL A   1      34.149  31.314  28.548  1.00  0.00    -0.352 N 
ATOM     26  C   UNL A   1      34.653  30.132  28.067  1.00  0.00     0.251 C 
ATOM     27  H   UNL A   1      33.167  31.384  28.532  1.00  0.00     0.163 HD
ATOM     28  O   UNL A   1      33.915  29.367  27.457  1.00  0.00    -0.269 OA
BRANCH  26  29
ATOM     29  C   UNL A   1      36.076  29.773  28.268  1.00  0.00     0.039 A 
ATOM     30  C   UNL A   1      36.460  29.229  29.499  1.00  0.00     0.014 A 
ATOM     31  C   UNL A   1      37.041  30.025  27.288  1.00  0.00     0.014 A 
ATOM     32  C   UNL A   1      37.797  28.899  29.729  1.00  0.00     0.010 A 
ATOM     33  C   UNL A   1      38.362  29.632  27.493  1.00  0.00     0.010 A 
ATOM     34  C   UNL A   1      38.756  29.076  28.718  1.00  0.00    -0.014 A 
BRANCH  34  35
ATOM     35  C   UNL A   1      40.176  28.701  28.933  1.00  0.00     0.031 A 
ATOM     36  C   UNL A   1      41.120  29.663  29.599  1.00  0.00     0.074 A 
ATOM     37  C   UNL A   1      40.626  27.513  28.490  1.00  0.00     0.049 A 
ATOM     38  N   UNL A   1      42.405  29.542  29.818  1.00  0.00    -0.248 NA
ATOM     39  C   UNL A   1      40.549  30.939  30.060  1.00  0.00     0.031 C 
ATOM     40  C   UNL A   1      39.815  26.504  27.807  1.00  0.00     0.029 A 
ATOM     41  N   UNL A   1      41.876  26.952  28.548  1.00  0.00    -0.354 N 
ATOM     42  C   UNL A   1      42.797  30.726  30.430  1.00  0.00     0.074 A 
ATOM     43  C   UNL A   1      41.626  31.574  30.501  1.00  0.00     0.031 C 
ATOM     44  C   UNL A   1      40.579  25.434  27.541  1.00  0.00     0.029 A 
ATOM     45  C   UNL A   1      41.941  25.695  27.998  1.00  0.00     0.049 A 
ATOM     46  H   UNL A   1      42.653  27.406  28.947  1.00  0.00     0.167 HD
ATOM     47  C   UNL A   1      44.015  31.066  30.911  1.00  0.00     0.037 A 
ATOM     48  C   UNL A   1      42.979  24.847  27.877  1.00  0.00     0.037 A 
ATOM     49  C   UNL A   1      45.174  30.213  30.858  1.00  0.00     0.049 A 
ATOM     50  C   UNL A   1      44.327  25.252  28.401  1.00  0.00     0.074 A 
ATOM     51  C   UNL A   1      46.445  30.455  31.350  1.00  0.00     0.029 A 
ATOM     52  N   UNL A   1      45.199  28.952  30.283  1.00  0.00    -0.354 N 
ATOM     53  N   UNL A   1      44.678  26.364  29.001  1.00  0.00    -0.248 NA
ATOM     54  C   UNL A   1      45.423  24.288  28.231  1.00  0.00     0.031 C 
ATOM     55  C   UNL A   1      47.249  29.354  31.040  1.00  0.00     0.029 A 
ATOM     56  C   UNL A   1      46.468  28.408  30.395  1.00  0.00     0.049 A 
ATOM     57  H   UNL A   1      44.430  28.509  29.858  1.00  0.00     0.167 HD
ATOM     58  C   UNL A   1      46.027  26.226  29.300  1.00  0.00     0.074 A 
ATOM     59  C   UNL A   1      46.430  24.919  28.821  1.00  0.00     0.031 C 
ATOM     60  C   UNL A   1      46.854  27.105  29.916  1.00  0.00     0.037 A 
BRANCH  47  61
ATOM     61  C   UNL A   1      44.155  32.419  31.547  1.00  0.00     0.057 A 
ATOM     62  C   UNL A   1      44.519  33.537  30.787  1.00  0.00     0.134 A 
ATOM     63  C   UNL A   1      43.964  32.608  32.922  1.00  0.00     0.134 A 
ATOM     64  F   UNL A   1      44.723  33.427  29.466  1.00  0.00    -0.206 F 
ATOM     65  C   UNL A   1      44.688  34.793  31.372  1.00  0.00     0.040 A 
ATOM     66  C   UNL A   1      44.105  33.864  33.514  1.00  0.00     0.040 A 
ATOM     67  F   UNL A   1      43.603  31.579  33.705  1.00  0.00    -0.206 F 
ATOM     68  C   UNL A   1      44.475  34.960  32.739  1.00  0.00     0.006 A 
ENDBRANCH  47  61
BRANCH  48  69
ATOM     69  C   UNL A   1      42.762  23.510  27.274  1.00  0.00     0.057 A 
ATOM     70  C   UNL A   1      42.376  22.409  28.047  1.00  0.00     0.134 A 
ATOM     71  C   UNL A   1      42.985  23.296  25.910  1.00  0.00     0.134 A 
ATOM     72  F   UNL A   1      42.155  22.548  29.362  1.00  0.00    -0.206 F 
ATOM     73  C   UNL A   1      42.239  21.137  27.488  1.00  0.00     0.040 A 
ATOM     74  C   UNL A   1      42.834  22.035  25.333  1.00  0.00     0.040 A 
ATOM     75  F   UNL A   1      43.343  24.318  25.117  1.00  0.00    -0.206 F 
ATOM     76  C   UNL A   1      42.468  20.948  26.126  1.00  0.00     0.006 A 
ENDBRANCH  48  69
BRANCH  60  77
ATOM     77  C   UNL A   1      48.276  26.682  30.130  1.00  0.00     0.057 A 
ATOM     78  C   UNL A   1      48.642  25.966  31.277  1.00  0.00     0.134 A 
ATOM     79  C   UNL A   1      49.294  27.049  29.241  1.00  0.00     0.134 A 
ATOM     80  F   UNL A   1      47.715  25.593  32.172  1.00  0.00    -0.206 F 
ATOM     81  C   UNL A   1      49.972  25.639  31.539  1.00  0.00     0.040 A 
ATOM     82  C   UNL A   1      50.626  26.708  29.482  1.00  0.00     0.040 A 
ATOM     83  F   UNL A   1      49.007  27.726  28.120  1.00  0.00    -0.206 F 
ATOM     84  C   UNL A   1      50.969  26.010  30.638  1.00  0.00     0.006 A 
ENDBRANCH  60  77
ENDBRANCH  34  35
ENDBRANCH  26  29
ENDBRANCH  24  25
ENDBRANCH   1  24
TORSDOF 12
ENDMDL
