MODEL 1
REMARK VINA RESULT:     -11.6      0.000      0.000
REMARK SMILES O=C(NCCCNC(=O)[C@H](Cc1ccccn1)[C@H]1CCS(=O)(=O)C1)c1ccc(-c2c3nc(c(-c4c(F)cccc4F)c4ccc([nH]4)c(-c4c(F)cccc4F)c4nc(c(-c5c(F)cccc5F)c5ccc2[nH]5)C=C4)C=C3)cc1
REMARK SMILES IDX 5 1 4 2 3 3 1 4 2 5 25 7 26 8 78 9 27 10 77 11 28 12 29 13
REMARK SMILES IDX 30 14 71 15 31 16 76 17 70 18 72 19 32 20 75 21 69 22 68 23
REMARK SMILES IDX 33 25 59 26 42 27 58 28 43 29 46 30 57 31 73 32 44 33 45 34
REMARK SMILES IDX 56 36 74 37 47 38 34 39 35 40 40 41 36 42 37 43 39 44 41 45
REMARK SMILES IDX 38 46 60 47 61 48 66 49 62 50 63 51 65 52 67 53 64 54 48 55
REMARK SMILES IDX 49 56 54 57 50 58 51 59 53 60 55 61 52 62 6 63 7 64 8 65
REMARK SMILES IDX 9 67 10 68 11 69 12 70 13 71 17 72 14 73 16 74 15 75 18 76
REMARK SMILES IDX 19 77 24 78 20 79 21 80 22 81 23 82
REMARK H PARENT 3 6 72 24 46 35 7 66
REMARK Flexibility Score: inf
ROOT
ATOM      1  C   UNL A   1      37.333  19.567  24.938  1.00  0.00     0.042 C 
ENDROOT
BRANCH   1   2
ATOM      2  C   UNL A   1      38.604  20.271  25.378  1.00  0.00     0.118 C 
BRANCH   2   3
ATOM      3  N   UNL A   1      39.678  19.330  25.637  1.00  0.00    -0.352 N 
ATOM      4  O   UNL A   1      41.803  18.671  25.955  1.00  0.00    -0.269 OA
ATOM      5  C   UNL A   1      40.967  19.564  26.056  1.00  0.00     0.251 C 
ATOM      6  H   UNL A   1      39.450  18.384  25.490  1.00  0.00     0.163 HD
BRANCH   5   7
ATOM      7  C   UNL A   1      41.362  20.887  26.598  1.00  0.00     0.039 A 
ATOM      8  C   UNL A   1      41.684  21.947  25.752  1.00  0.00     0.014 A 
ATOM      9  C   UNL A   1      41.361  21.090  27.982  1.00  0.00     0.014 A 
ATOM     10  C   UNL A   1      42.178  23.135  26.277  1.00  0.00     0.010 A 
ATOM     11  C   UNL A   1      41.727  22.335  28.509  1.00  0.00     0.010 A 
ATOM     12  C   UNL A   1      42.169  23.363  27.661  1.00  0.00    -0.014 A 
BRANCH  12  13
ATOM     13  C   UNL A   1      42.548  24.709  28.174  1.00  0.00     0.031 A 
ATOM     14  C   UNL A   1      43.984  25.080  28.425  1.00  0.00     0.074 A 
ATOM     15  C   UNL A   1      41.574  25.618  28.383  1.00  0.00     0.049 A 
ATOM     16  N   UNL A   1      44.479  26.219  28.842  1.00  0.00    -0.248 NA
ATOM     17  C   UNL A   1      44.996  24.039  28.192  1.00  0.00     0.031 C 
ATOM     18  C   UNL A   1      40.140  25.377  28.193  1.00  0.00     0.029 A 
ATOM     19  N   UNL A   1      41.636  26.932  28.772  1.00  0.00    -0.354 N 
ATOM     20  C   UNL A   1      45.851  26.026  28.948  1.00  0.00     0.074 A 
ATOM     21  C   UNL A   1      46.108  24.650  28.577  1.00  0.00     0.031 C 
ATOM     22  C   UNL A   1      39.469  26.519  28.395  1.00  0.00     0.029 A 
ATOM     23  C   UNL A   1      40.409  27.551  28.809  1.00  0.00     0.049 A 
ATOM     24  H   UNL A   1      42.477  27.387  29.004  1.00  0.00     0.167 HD
ATOM     25  C   UNL A   1      46.806  26.915  29.316  1.00  0.00     0.037 A 
ATOM     26  C   UNL A   1      40.070  28.806  29.154  1.00  0.00     0.037 A 
ATOM     27  C   UNL A   1      46.546  28.289  29.667  1.00  0.00     0.049 A 
ATOM     28  C   UNL A   1      41.146  29.759  29.582  1.00  0.00     0.074 A 
ATOM     29  C   UNL A   1      47.453  29.279  30.006  1.00  0.00     0.029 A 
ATOM     30  N   UNL A   1      45.286  28.866  29.731  1.00  0.00    -0.354 N 
ATOM     31  N   UNL A   1      42.443  29.572  29.637  1.00  0.00    -0.248 NA
ATOM     32  C   UNL A   1      40.712  31.098  30.002  1.00  0.00     0.031 C 
ATOM     33  C   UNL A   1      46.739  30.436  30.333  1.00  0.00     0.029 A 
ATOM     34  C   UNL A   1      45.390  30.189  30.135  1.00  0.00     0.049 A 
ATOM     35  H   UNL A   1      44.442  28.405  29.521  1.00  0.00     0.167 HD
ATOM     36  C   UNL A   1      42.982  30.775  30.069  1.00  0.00     0.074 A 
ATOM     37  C   UNL A   1      41.872  31.690  30.244  1.00  0.00     0.031 C 
ATOM     38  C   UNL A   1      44.279  31.093  30.301  1.00  0.00     0.037 A 
BRANCH  25  39
ATOM     39  C   UNL A   1      48.226  26.422  29.388  1.00  0.00     0.057 A 
ATOM     40  C   UNL A   1      48.755  25.831  30.543  1.00  0.00     0.134 A 
ATOM     41  C   UNL A   1      49.065  26.509  28.269  1.00  0.00     0.134 A 
ATOM     42  F   UNL A   1      48.011  25.722  31.654  1.00  0.00    -0.206 F 
ATOM     43  C   UNL A   1      50.074  25.371  30.591  1.00  0.00     0.040 A 
ATOM     44  C   UNL A   1      50.375  26.027  28.294  1.00  0.00     0.040 A 
ATOM     45  F   UNL A   1      48.622  27.054  27.126  1.00  0.00    -0.206 F 
ATOM     46  C   UNL A   1      50.886  25.463  29.462  1.00  0.00     0.006 A 
ENDBRANCH  25  39
BRANCH  26  47
ATOM     47  C   UNL A   1      38.648  29.232  29.109  1.00  0.00     0.057 A 
ATOM     48  C   UNL A   1      37.841  29.178  30.251  1.00  0.00     0.134 A 
ATOM     49  C   UNL A   1      38.062  29.703  27.927  1.00  0.00     0.134 A 
ATOM     50  F   UNL A   1      38.339  28.721  31.409  1.00  0.00    -0.206 F 
ATOM     51  C   UNL A   1      36.498  29.557  30.215  1.00  0.00     0.040 A 
ATOM     52  C   UNL A   1      36.730  30.116  27.885  1.00  0.00     0.040 A 
ATOM     53  F   UNL A   1      38.783  29.790  26.800  1.00  0.00    -0.206 F 
ATOM     54  C   UNL A   1      35.941  30.034  29.030  1.00  0.00     0.006 A 
ENDBRANCH  26  47
BRANCH  38  55
ATOM     55  C   UNL A   1      44.569  32.504  30.721  1.00  0.00     0.057 A 
ATOM     56  C   UNL A   1      44.791  33.529  29.792  1.00  0.00     0.134 A 
ATOM     57  C   UNL A   1      44.617  32.844  32.079  1.00  0.00     0.134 A 
ATOM     58  F   UNL A   1      44.775  33.269  28.476  1.00  0.00    -0.206 F 
ATOM     59  C   UNL A   1      45.083  34.832  30.198  1.00  0.00     0.040 A 
ATOM     60  C   UNL A   1      44.876  34.150  32.497  1.00  0.00     0.040 A 
ATOM     61  F   UNL A   1      44.407  31.914  33.023  1.00  0.00    -0.206 F 
ATOM     62  C   UNL A   1      45.120  35.146  31.555  1.00  0.00     0.006 A 
ENDBRANCH  38  55
ENDBRANCH  12  13
ENDBRANCH   5   7
ENDBRANCH   2   3
ENDBRANCH   1   2
BRANCH   1  63
ATOM     63  C   UNL A   1      36.044  20.342  25.206  1.00  0.00     0.117 C 
BRANCH  63  64
ATOM     64  N   UNL A   1      35.765  21.418  24.260  1.00  0.00    -0.356 N 
ATOM     65  C   UNL A   1      34.634  22.084  23.904  1.00  0.00     0.223 C 
ATOM     66  H   UNL A   1      36.566  21.727  23.777  1.00  0.00     0.163 HD
ATOM     67  O   UNL A   1      34.759  22.980  23.065  1.00  0.00    -0.275 OA
BRANCH  65  68
ATOM     68  C   UNL A   1      33.251  21.723  24.445  1.00  0.00     0.088 C 
BRANCH  68  69
ATOM     69  C   UNL A   1      32.666  20.570  23.585  1.00  0.00     0.070 C 
BRANCH  69  70
ATOM     70  C   UNL A   1      32.852  19.166  24.082  1.00  0.00     0.041 A 
ATOM     71  C   UNL A   1      33.304  18.168  23.217  1.00  0.00     0.024 A 
ATOM     72  N   UNL A   1      32.507  18.918  25.364  1.00  0.00    -0.261 NA
ATOM     73  C   UNL A   1      33.301  16.850  23.655  1.00  0.00     0.003 A 
ATOM     74  C   UNL A   1      32.582  17.636  25.784  1.00  0.00     0.111 A 
ATOM     75  C   UNL A   1      32.937  16.575  24.967  1.00  0.00     0.020 A 
ENDBRANCH  69  70
ENDBRANCH  68  69
BRANCH  68  76
ATOM     76  C   UNL A   1      32.450  22.983  24.939  1.00  0.00     0.018 C 
ATOM     77  C   UNL A   1      31.169  23.321  24.152  1.00  0.00     0.021 C 
ATOM     78  C   UNL A   1      32.014  23.018  26.400  1.00  0.00     0.141 C 
ATOM     79  C   UNL A   1      30.447  24.477  24.831  1.00  0.00     0.137 C 
ATOM     80  S   UNL A   1      30.805  24.317  26.564  1.00  0.00     0.150 S 
ATOM     81  O   UNL A   1      31.465  25.525  27.015  1.00  0.00    -0.229 OA
ATOM     82  O   UNL A   1      29.647  23.766  27.236  1.00  0.00    -0.229 OA
ENDBRANCH  68  76
ENDBRANCH  65  68
ENDBRANCH  63  64
ENDBRANCH   1  63
TORSDOF 13
ENDMDL
MODEL 2
REMARK VINA RESULT:     -11.5      5.037      9.608
REMARK SMILES O=C(NCCCNC(=O)[C@H](Cc1ccccn1)[C@H]1CCS(=O)(=O)C1)c1ccc(-c2c3nc(c(-c4c(F)cccc4F)c4ccc([nH]4)c(-c4c(F)cccc4F)c4nc(c(-c5c(F)cccc5F)c5ccc2[nH]5)C=C4)C=C3)cc1
REMARK SMILES IDX 5 1 4 2 3 3 1 4 2 5 25 7 26 8 78 9 27 10 77 11 28 12 29 13
REMARK SMILES IDX 30 14 71 15 31 16 76 17 70 18 72 19 32 20 75 21 69 22 68 23
REMARK SMILES IDX 33 25 59 26 42 27 58 28 43 29 46 30 57 31 73 32 44 33 45 34
REMARK SMILES IDX 56 36 74 37 47 38 34 39 35 40 40 41 36 42 37 43 39 44 41 45
REMARK SMILES IDX 38 46 60 47 61 48 66 49 62 50 63 51 65 52 67 53 64 54 48 55
REMARK SMILES IDX 49 56 54 57 50 58 51 59 53 60 55 61 52 62 6 63 7 64 8 65
REMARK SMILES IDX 9 67 10 68 11 69 12 70 13 71 17 72 14 73 16 74 15 75 18 76
REMARK SMILES IDX 19 77 24 78 20 79 21 80 22 81 23 82
REMARK H PARENT 3 6 72 24 46 35 7 66
REMARK Flexibility Score: inf
ROOT
ATOM      1  C   UNL A   1      31.501  31.584  26.939  1.00  0.00     0.042 C 
ENDROOT
BRANCH   1   2
ATOM      2  C   UNL A   1      32.656  32.524  26.644  1.00  0.00     0.118 C 
BRANCH   2   3
ATOM      3  N   UNL A   1      32.464  33.822  27.263  1.00  0.00    -0.352 N 
ATOM      4  O   UNL A   1      32.573  35.354  28.905  1.00  0.00    -0.269 OA
ATOM      5  C   UNL A   1      33.062  34.357  28.381  1.00  0.00     0.251 C 
ATOM      6  H   UNL A   1      31.810  34.406  26.817  1.00  0.00     0.163 HD
BRANCH   5   7
ATOM      7  C   UNL A   1      34.266  33.728  28.974  1.00  0.00     0.039 A 
ATOM      8  C   UNL A   1      34.170  32.575  29.753  1.00  0.00     0.014 A 
ATOM      9  C   UNL A   1      35.528  34.268  28.705  1.00  0.00     0.014 A 
ATOM     10  C   UNL A   1      35.290  32.078  30.407  1.00  0.00     0.010 A 
ATOM     11  C   UNL A   1      36.675  33.682  29.254  1.00  0.00     0.010 A 
ATOM     12  C   UNL A   1      36.565  32.597  30.137  1.00  0.00    -0.014 A 
BRANCH  12  13
ATOM     13  C   UNL A   1      37.757  31.929  30.728  1.00  0.00     0.031 A 
ATOM     14  C   UNL A   1      38.221  32.239  32.126  1.00  0.00     0.074 A 
ATOM     15  C   UNL A   1      38.408  31.002  29.995  1.00  0.00     0.049 A 
ATOM     16  N   UNL A   1      39.222  31.721  32.794  1.00  0.00    -0.248 NA
ATOM     17  C   UNL A   1      37.478  33.269  32.866  1.00  0.00     0.031 C 
ATOM     18  C   UNL A   1      38.067  30.622  28.621  1.00  0.00     0.029 A 
ATOM     19  N   UNL A   1      39.470  30.191  30.305  1.00  0.00    -0.354 N 
ATOM     20  C   UNL A   1      39.247  32.379  34.018  1.00  0.00     0.074 A 
ATOM     21  C   UNL A   1      38.177  33.353  33.990  1.00  0.00     0.031 C 
ATOM     22  C   UNL A   1      38.853  29.608  28.234  1.00  0.00     0.029 A 
ATOM     23  C   UNL A   1      39.807  29.320  29.297  1.00  0.00     0.049 A 
ATOM     24  H   UNL A   1      39.945  30.229  31.166  1.00  0.00     0.167 HD
ATOM     25  C   UNL A   1      40.083  32.184  35.068  1.00  0.00     0.037 A 
ATOM     26  C   UNL A   1      40.785  28.400  29.222  1.00  0.00     0.037 A 
ATOM     27  C   UNL A   1      41.135  31.199  35.097  1.00  0.00     0.049 A 
ATOM     28  C   UNL A   1      41.710  28.226  30.390  1.00  0.00     0.074 A 
ATOM     29  C   UNL A   1      42.002  30.894  36.133  1.00  0.00     0.029 A 
ATOM     30  N   UNL A   1      41.470  30.365  34.040  1.00  0.00    -0.354 N 
ATOM     31  N   UNL A   1      41.694  28.827  31.555  1.00  0.00    -0.248 NA
ATOM     32  C   UNL A   1      42.794  27.248  30.232  1.00  0.00     0.031 C 
ATOM     33  C   UNL A   1      42.898  29.919  35.684  1.00  0.00     0.029 A 
ATOM     34  C   UNL A   1      42.550  29.568  34.389  1.00  0.00     0.049 A 
ATOM     35  H   UNL A   1      41.009  30.342  33.171  1.00  0.00     0.167 HD
ATOM     36  C   UNL A   1      42.745  28.282  32.279  1.00  0.00     0.074 A 
ATOM     37  C   UNL A   1      43.365  27.288  31.426  1.00  0.00     0.031 C 
ATOM     38  C   UNL A   1      43.158  28.578  33.535  1.00  0.00     0.037 A 
BRANCH  25  39
ATOM     39  C   UNL A   1      39.913  33.076  36.268  1.00  0.00     0.057 A 
ATOM     40  C   UNL A   1      40.636  34.265  36.425  1.00  0.00     0.134 A 
ATOM     41  C   UNL A   1      38.982  32.754  37.265  1.00  0.00     0.134 A 
ATOM     42  F   UNL A   1      41.550  34.631  35.513  1.00  0.00    -0.206 F 
ATOM     43  C   UNL A   1      40.461  35.086  37.542  1.00  0.00     0.040 A 
ATOM     44  C   UNL A   1      38.777  33.580  38.371  1.00  0.00     0.040 A 
ATOM     45  F   UNL A   1      38.247  31.636  37.176  1.00  0.00    -0.206 F 
ATOM     46  C   UNL A   1      39.525  34.747  38.516  1.00  0.00     0.006 A 
ENDBRANCH  25  39
BRANCH  26  47
ATOM     47  C   UNL A   1      40.939  27.574  27.998  1.00  0.00     0.057 A 
ATOM     48  C   UNL A   1      40.308  26.331  27.881  1.00  0.00     0.134 A 
ATOM     49  C   UNL A   1      41.718  28.005  26.917  1.00  0.00     0.134 A 
ATOM     50  F   UNL A   1      39.561  25.854  28.888  1.00  0.00    -0.206 F 
ATOM     51  C   UNL A   1      40.461  25.537  26.743  1.00  0.00     0.040 A 
ATOM     52  C   UNL A   1      41.854  27.237  25.760  1.00  0.00     0.040 A 
ATOM     53  F   UNL A   1      42.341  29.192  26.961  1.00  0.00    -0.206 F 
ATOM     54  C   UNL A   1      41.232  25.994  25.675  1.00  0.00     0.006 A 
ENDBRANCH  26  47
BRANCH  38  55
ATOM     55  C   UNL A   1      44.307  27.780  34.079  1.00  0.00     0.057 A 
ATOM     56  C   UNL A   1      45.633  28.224  33.989  1.00  0.00     0.134 A 
ATOM     57  C   UNL A   1      44.081  26.551  34.712  1.00  0.00     0.134 A 
ATOM     58  F   UNL A   1      45.921  29.385  33.381  1.00  0.00    -0.206 F 
ATOM     59  C   UNL A   1      46.693  27.460  34.478  1.00  0.00     0.040 A 
ATOM     60  C   UNL A   1      45.130  25.793  35.234  1.00  0.00     0.040 A 
ATOM     61  F   UNL A   1      42.835  26.069  34.839  1.00  0.00    -0.206 F 
ATOM     62  C   UNL A   1      46.442  26.243  35.108  1.00  0.00     0.006 A 
ENDBRANCH  38  55
ENDBRANCH  12  13
ENDBRANCH   5   7
ENDBRANCH   2   3
ENDBRANCH   1   2
BRANCH   1  63
ATOM     63  C   UNL A   1      31.777  30.112  26.637  1.00  0.00     0.117 C 
BRANCH  63  64
ATOM     64  N   UNL A   1      32.620  29.871  25.469  1.00  0.00    -0.356 N 
ATOM     65  C   UNL A   1      32.389  29.334  24.241  1.00  0.00     0.223 C 
ATOM     66  H   UNL A   1      33.553  30.157  25.599  1.00  0.00     0.163 HD
ATOM     67  O   UNL A   1      33.345  29.300  23.462  1.00  0.00    -0.275 OA
BRANCH  65  68
ATOM     68  C   UNL A   1      31.043  28.734  23.836  1.00  0.00     0.088 C 
BRANCH  68  69
ATOM     69  C   UNL A   1      31.269  27.262  23.395  1.00  0.00     0.070 C 
BRANCH  69  70
ATOM     70  C   UNL A   1      31.303  26.211  24.465  1.00  0.00     0.041 A 
ATOM     71  C   UNL A   1      30.126  25.823  25.106  1.00  0.00     0.024 A 
ATOM     72  N   UNL A   1      32.514  25.722  24.807  1.00  0.00    -0.261 NA
ATOM     73  C   UNL A   1      30.209  24.980  26.208  1.00  0.00     0.003 A 
ATOM     74  C   UNL A   1      32.556  24.848  25.837  1.00  0.00     0.111 A 
ATOM     75  C   UNL A   1      31.448  24.477  26.581  1.00  0.00     0.020 A 
ENDBRANCH  69  70
ENDBRANCH  68  69
BRANCH  68  76
ATOM     76  C   UNL A   1      30.119  29.771  23.099  1.00  0.00     0.018 C 
ATOM     77  C   UNL A   1      28.939  29.179  22.303  1.00  0.00     0.021 C 
ATOM     78  C   UNL A   1      29.489  30.880  23.935  1.00  0.00     0.141 C 
ATOM     79  C   UNL A   1      28.073  30.310  21.764  1.00  0.00     0.137 C 
ATOM     80  S   UNL A   1      28.204  31.624  22.952  1.00  0.00     0.150 S 
ATOM     81  O   UNL A   1      28.734  32.798  22.288  1.00  0.00    -0.229 OA
ATOM     82  O   UNL A   1      26.997  31.661  23.749  1.00  0.00    -0.229 OA
ENDBRANCH  68  76
ENDBRANCH  65  68
ENDBRANCH  63  64
ENDBRANCH   1  63
TORSDOF 13
ENDMDL
MODEL 3
REMARK VINA RESULT:     -11.5      3.686      8.534
REMARK SMILES O=C(NCCCNC(=O)[C@H](Cc1ccccn1)[C@H]1CCS(=O)(=O)C1)c1ccc(-c2c3nc(c(-c4c(F)cccc4F)c4ccc([nH]4)c(-c4c(F)cccc4F)c4nc(c(-c5c(F)cccc5F)c5ccc2[nH]5)C=C4)C=C3)cc1
REMARK SMILES IDX 5 1 4 2 3 3 1 4 2 5 25 7 26 8 78 9 27 10 77 11 28 12 29 13
REMARK SMILES IDX 30 14 71 15 31 16 76 17 70 18 72 19 32 20 75 21 69 22 68 23
REMARK SMILES IDX 33 25 59 26 42 27 58 28 43 29 46 30 57 31 73 32 44 33 45 34
REMARK SMILES IDX 56 36 74 37 47 38 34 39 35 40 40 41 36 42 37 43 39 44 41 45
REMARK SMILES IDX 38 46 60 47 61 48 66 49 62 50 63 51 65 52 67 53 64 54 48 55
REMARK SMILES IDX 49 56 54 57 50 58 51 59 53 60 55 61 52 62 6 63 7 64 8 65
REMARK SMILES IDX 9 67 10 68 11 69 12 70 13 71 17 72 14 73 16 74 15 75 18 76
REMARK SMILES IDX 19 77 24 78 20 79 21 80 22 81 23 82
REMARK H PARENT 3 6 72 24 46 35 7 66
REMARK Flexibility Score: inf
ROOT
ATOM      1  C   UNL A   1      33.288  27.896  26.713  1.00  0.00     0.042 C 
ENDROOT
BRANCH   1   2
ATOM      2  C   UNL A   1      34.147  28.951  26.038  1.00  0.00     0.118 C 
BRANCH   2   3
ATOM      3  N   UNL A   1      33.922  30.269  26.602  1.00  0.00    -0.352 N 
ATOM      4  O   UNL A   1      34.051  31.892  28.152  1.00  0.00    -0.269 OA
ATOM      5  C   UNL A   1      34.561  30.896  27.646  1.00  0.00     0.251 C 
ATOM      6  H   UNL A   1      33.206  30.790  26.174  1.00  0.00     0.163 HD
BRANCH   5   7
ATOM      7  C   UNL A   1      35.837  30.366  28.186  1.00  0.00     0.039 A 
ATOM      8  C   UNL A   1      37.060  30.694  27.601  1.00  0.00     0.014 A 
ATOM      9  C   UNL A   1      35.819  29.565  29.332  1.00  0.00     0.014 A 
ATOM     10  C   UNL A   1      38.229  30.084  28.038  1.00  0.00     0.010 A 
ATOM     11  C   UNL A   1      37.016  29.062  29.856  1.00  0.00     0.010 A 
ATOM     12  C   UNL A   1      38.233  29.291  29.195  1.00  0.00    -0.014 A 
BRANCH  12  13
ATOM     13  C   UNL A   1      39.532  28.794  29.726  1.00  0.00     0.031 A 
ATOM     14  C   UNL A   1      40.148  29.376  30.969  1.00  0.00     0.074 A 
ATOM     15  C   UNL A   1      40.144  27.777  29.086  1.00  0.00     0.049 A 
ATOM     16  N   UNL A   1      41.259  29.032  31.574  1.00  0.00    -0.248 NA
ATOM     17  C   UNL A   1      39.439  30.492  31.610  1.00  0.00     0.031 C 
ATOM     18  C   UNL A   1      39.658  27.136  27.860  1.00  0.00     0.029 A 
ATOM     19  N   UNL A   1      41.289  27.082  29.386  1.00  0.00    -0.354 N 
ATOM     20  C   UNL A   1      41.395  29.905  32.647  1.00  0.00     0.074 A 
ATOM     21  C   UNL A   1      40.268  30.811  32.595  1.00  0.00     0.031 C 
ATOM     22  C   UNL A   1      40.454  26.102  27.555  1.00  0.00     0.029 A 
ATOM     23  C   UNL A   1      41.552  26.056  28.510  1.00  0.00     0.049 A 
ATOM     24  H   UNL A   1      41.866  27.298  30.153  1.00  0.00     0.167 HD
ATOM     25  C   UNL A   1      42.369  29.943  33.591  1.00  0.00     0.037 A 
ATOM     26  C   UNL A   1      42.572  25.180  28.466  1.00  0.00     0.037 A 
ATOM     27  C   UNL A   1      43.480  29.025  33.649  1.00  0.00     0.049 A 
ATOM     28  C   UNL A   1      43.648  25.263  29.508  1.00  0.00     0.074 A 
ATOM     29  C   UNL A   1      44.490  28.953  34.593  1.00  0.00     0.029 A 
ATOM     30  N   UNL A   1      43.732  28.025  32.720  1.00  0.00    -0.354 N 
ATOM     31  N   UNL A   1      43.740  26.068  30.539  1.00  0.00    -0.248 NA
ATOM     32  C   UNL A   1      44.765  24.320  29.378  1.00  0.00     0.031 C 
ATOM     33  C   UNL A   1      45.384  27.951  34.205  1.00  0.00     0.029 A 
ATOM     34  C   UNL A   1      44.899  27.353  33.053  1.00  0.00     0.049 A 
ATOM     35  H   UNL A   1      43.167  27.823  31.941  1.00  0.00     0.167 HD
ATOM     36  C   UNL A   1      44.908  25.710  31.196  1.00  0.00     0.074 A 
ATOM     37  C   UNL A   1      45.480  24.604  30.456  1.00  0.00     0.031 C 
ATOM     38  C   UNL A   1      45.457  26.249  32.312  1.00  0.00     0.037 A 
BRANCH  25  39
ATOM     39  C   UNL A   1      42.294  31.031  34.626  1.00  0.00     0.057 A 
ATOM     40  C   UNL A   1      42.912  32.276  34.449  1.00  0.00     0.134 A 
ATOM     41  C   UNL A   1      41.560  30.841  35.804  1.00  0.00     0.134 A 
ATOM     42  F   UNL A   1      43.638  32.525  33.348  1.00  0.00    -0.206 F 
ATOM     43  C   UNL A   1      42.827  33.280  35.417  1.00  0.00     0.040 A 
ATOM     44  C   UNL A   1      41.443  31.846  36.766  1.00  0.00     0.040 A 
ATOM     45  F   UNL A   1      40.934  29.679  36.037  1.00  0.00    -0.206 F 
ATOM     46  C   UNL A   1      42.086  33.068  36.577  1.00  0.00     0.006 A 
ENDBRANCH  25  39
BRANCH  26  47
ATOM     47  C   UNL A   1      42.624  24.150  27.397  1.00  0.00     0.057 A 
ATOM     48  C   UNL A   1      42.083  22.875  27.596  1.00  0.00     0.134 A 
ATOM     49  C   UNL A   1      43.212  24.414  26.154  1.00  0.00     0.134 A 
ATOM     50  F   UNL A   1      41.520  22.555  28.771  1.00  0.00    -0.206 F 
ATOM     51  C   UNL A   1      42.143  21.893  26.606  1.00  0.00     0.040 A 
ATOM     52  C   UNL A   1      43.251  23.452  25.144  1.00  0.00     0.040 A 
ATOM     53  F   UNL A   1      43.739  25.619  25.896  1.00  0.00    -0.206 F 
ATOM     54  C   UNL A   1      42.723  22.184  25.372  1.00  0.00     0.006 A 
ENDBRANCH  26  47
BRANCH  38  55
ATOM     55  C   UNL A   1      46.717  25.615  32.825  1.00  0.00     0.057 A 
ATOM     56  C   UNL A   1      46.705  24.625  33.816  1.00  0.00     0.134 A 
ATOM     57  C   UNL A   1      47.964  25.996  32.310  1.00  0.00     0.134 A 
ATOM     58  F   UNL A   1      45.547  24.225  34.363  1.00  0.00    -0.206 F 
ATOM     59  C   UNL A   1      47.887  24.061  34.299  1.00  0.00     0.040 A 
ATOM     60  C   UNL A   1      49.149  25.417  32.762  1.00  0.00     0.040 A 
ATOM     61  F   UNL A   1      48.049  26.934  31.354  1.00  0.00    -0.206 F 
ATOM     62  C   UNL A   1      49.114  24.454  33.768  1.00  0.00     0.006 A 
ENDBRANCH  38  55
ENDBRANCH  12  13
ENDBRANCH   5   7
ENDBRANCH   2   3
ENDBRANCH   1   2
BRANCH   1  63
ATOM     63  C   UNL A   1      31.790  28.193  26.716  1.00  0.00     0.117 C 
BRANCH  63  64
ATOM     64  N   UNL A   1      30.931  27.023  26.879  1.00  0.00    -0.356 N 
ATOM     65  C   UNL A   1      30.447  26.089  26.017  1.00  0.00     0.223 C 
ATOM     66  H   UNL A   1      30.641  26.881  27.809  1.00  0.00     0.163 HD
ATOM     67  O   UNL A   1      29.748  25.195  26.503  1.00  0.00    -0.275 OA
BRANCH  65  68
ATOM     68  C   UNL A   1      30.682  26.148  24.508  1.00  0.00     0.088 C 
BRANCH  68  69
ATOM     69  C   UNL A   1      29.338  26.492  23.810  1.00  0.00     0.070 C 
BRANCH  69  70
ATOM     70  C   UNL A   1      29.235  27.818  23.114  1.00  0.00     0.041 A 
ATOM     71  C   UNL A   1      30.367  28.403  22.545  1.00  0.00     0.024 A 
ATOM     72  N   UNL A   1      28.029  28.425  23.125  1.00  0.00    -0.261 NA
ATOM     73  C   UNL A   1      30.280  29.703  22.063  1.00  0.00     0.003 A 
ATOM     74  C   UNL A   1      27.958  29.661  22.584  1.00  0.00     0.111 A 
ATOM     75  C   UNL A   1      29.050  30.347  22.077  1.00  0.00     0.020 A 
ENDBRANCH  69  70
ENDBRANCH  68  69
BRANCH  68  76
ATOM     76  C   UNL A   1      31.709  25.063  24.016  1.00  0.00     0.018 C 
ATOM     77  C   UNL A   1      31.104  23.729  23.534  1.00  0.00     0.021 C 
ATOM     78  C   UNL A   1      32.680  25.457  22.908  1.00  0.00     0.141 C 
ATOM     79  C   UNL A   1      32.210  22.845  22.972  1.00  0.00     0.137 C 
ATOM     80  S   UNL A   1      33.412  23.957  22.283  1.00  0.00     0.150 S 
ATOM     81  O   UNL A   1      34.682  23.737  22.945  1.00  0.00    -0.229 OA
ATOM     82  O   UNL A   1      33.277  23.963  20.842  1.00  0.00    -0.229 OA
ENDBRANCH  68  76
ENDBRANCH  65  68
ENDBRANCH  63  64
ENDBRANCH   1  63
TORSDOF 13
ENDMDL
