MODEL 1
REMARK VINA RESULT:     -11.2      0.000      0.000
REMARK SMILES C[C@H]1C[C@@H]1C(=O)NC[C@@H]1CC[C@H](C(=O)NCCCNC(=O)c2ccc(-c3c4nc(c(-c5c(F)cccc5F)c5ccc([nH]5)c(-c5c(F)cccc5F)c5nc(c(-c6c(F)cccc6F)c6ccc3[nH]6)C=C5)C=C4)cc2)O1
REMARK SMILES IDX 16 1 15 2 13 3 14 4 12 6 9 7 10 8 76 9 11 10 8 11 7 12 5 13
REMARK SMILES IDX 6 14 4 16 1 17 2 18 3 19 17 20 18 21 19 22 20 23 21 25 22 26
REMARK SMILES IDX 23 27 75 28 24 29 74 30 25 31 26 32 27 33 68 34 28 35 73 36
REMARK SMILES IDX 67 37 69 38 29 39 72 40 66 41 65 42 30 44 56 45 39 46 55 47
REMARK SMILES IDX 40 48 43 49 54 50 70 51 41 52 42 53 53 55 71 56 44 57 31 58
REMARK SMILES IDX 32 59 37 60 33 61 34 62 36 63 38 64 35 65 57 66 58 67 63 68
REMARK SMILES IDX 59 69 60 70 62 71 64 72 61 73 45 74 46 75 51 76 47 77 48 78
REMARK SMILES IDX 50 79 52 80 49 81
REMARK H PARENT 15 5 7 15 19 24 69 43 43 54
REMARK Flexibility Score: inf
ROOT
ATOM      1  C   UNL A   1      37.307  20.881  24.502  1.00  0.00     0.117 C 
ENDROOT
BRANCH   1   2
ATOM      2  N   UNL A   1      37.922  22.083  25.005  1.00  0.00    -0.354 N 
ATOM      3  C   UNL A   1      37.336  23.092  25.714  1.00  0.00     0.249 C 
ATOM      4  O   UNL A   1      38.068  23.961  26.194  1.00  0.00    -0.272 OA
ATOM      5  H   UNL A   1      38.883  22.189  24.815  1.00  0.00     0.163 HD
BRANCH   3   6
ATOM      6  C   UNL A   1      35.800  23.181  25.846  1.00  0.00     0.207 C 
ATOM      7  C   UNL A   1      33.914  21.831  25.659  1.00  0.00     0.138 C 
ATOM      8  C   UNL A   1      34.131  22.424  24.277  1.00  0.00     0.037 C 
ATOM      9  O   UNL A   1      35.156  22.009  26.361  1.00  0.00    -0.363 OA
ATOM     10  C   UNL A   1      35.122  23.541  24.526  1.00  0.00     0.045 C 
BRANCH   7  11
ATOM     11  C   UNL A   1      33.444  20.360  25.729  1.00  0.00     0.147 C 
BRANCH  11  12
ATOM     12  N   UNL A   1      33.056  19.751  24.463  1.00  0.00    -0.353 N 
ATOM     13  C   UNL A   1      32.915  18.437  24.112  1.00  0.00     0.223 C 
ATOM     14  O   UNL A   1      32.437  18.173  23.010  1.00  0.00    -0.275 OA
ATOM     15  H   UNL A   1      32.862  20.391  23.741  1.00  0.00     0.163 HD
BRANCH  13  16
ATOM     16  C   UNL A   1      33.376  17.355  25.028  1.00  0.00     0.081 C 
ATOM     17  C   UNL A   1      35.521  15.869  25.373  1.00  0.00     0.008 C 
ATOM     18  C   UNL A   1      34.397  16.341  24.512  1.00  0.00    -0.001 C 
ATOM     19  C   UNL A   1      32.981  15.919  24.790  1.00  0.00     0.018 C 
ENDBRANCH  13  16
ENDBRANCH  11  12
ENDBRANCH   7  11
ENDBRANCH   3   6
ENDBRANCH   1   2
BRANCH   1  20
ATOM     20  C   UNL A   1      38.027  19.606  24.899  1.00  0.00     0.042 C 
BRANCH  20  21
ATOM     21  C   UNL A   1      39.066  19.848  25.979  1.00  0.00     0.118 C 
BRANCH  21  22
ATOM     22  N   UNL A   1      40.251  19.008  25.826  1.00  0.00    -0.352 N 
ATOM     23  C   UNL A   1      41.581  19.311  25.974  1.00  0.00     0.251 C 
ATOM     24  H   UNL A   1      40.066  18.074  25.577  1.00  0.00     0.163 HD
ATOM     25  O   UNL A   1      42.449  18.475  25.748  1.00  0.00    -0.269 OA
BRANCH  23  26
ATOM     26  C   UNL A   1      41.965  20.661  26.410  1.00  0.00     0.039 A 
ATOM     27  C   UNL A   1      42.204  20.897  27.765  1.00  0.00     0.014 A 
ATOM     28  C   UNL A   1      42.105  21.680  25.468  1.00  0.00     0.014 A 
ATOM     29  C   UNL A   1      42.643  22.155  28.169  1.00  0.00     0.010 A 
ATOM     30  C   UNL A   1      42.644  22.893  25.856  1.00  0.00     0.010 A 
ATOM     31  C   UNL A   1      42.900  23.147  27.210  1.00  0.00    -0.014 A 
BRANCH  31  32
ATOM     32  C   UNL A   1      43.411  24.483  27.584  1.00  0.00     0.031 A 
ATOM     33  C   UNL A   1      42.440  25.541  28.025  1.00  0.00     0.074 A 
ATOM     34  C   UNL A   1      44.716  24.765  27.417  1.00  0.00     0.049 A 
ATOM     35  N   UNL A   1      42.645  26.813  28.243  1.00  0.00    -0.248 NA
ATOM     36  C   UNL A   1      41.038  25.119  28.196  1.00  0.00     0.031 C 
ATOM     37  C   UNL A   1      45.733  23.825  26.941  1.00  0.00     0.029 A 
ATOM     38  N   UNL A   1      45.406  25.934  27.607  1.00  0.00    -0.354 N 
ATOM     39  C   UNL A   1      41.397  27.346  28.543  1.00  0.00     0.074 A 
ATOM     40  C   UNL A   1      40.434  26.275  28.422  1.00  0.00     0.031 C 
ATOM     41  C   UNL A   1      46.920  24.451  26.892  1.00  0.00     0.029 A 
ATOM     42  C   UNL A   1      46.737  25.843  27.287  1.00  0.00     0.049 A 
ATOM     43  H   UNL A   1      44.985  26.760  27.940  1.00  0.00     0.167 HD
ATOM     44  C   UNL A   1      41.091  28.611  28.911  1.00  0.00     0.037 A 
ATOM     45  C   UNL A   1      47.698  26.785  27.299  1.00  0.00     0.037 A 
ATOM     46  C   UNL A   1      42.069  29.654  29.063  1.00  0.00     0.049 A 
ATOM     47  C   UNL A   1      47.336  28.180  27.728  1.00  0.00     0.074 A 
ATOM     48  C   UNL A   1      41.887  30.950  29.507  1.00  0.00     0.029 A 
ATOM     49  N   UNL A   1      43.420  29.513  28.775  1.00  0.00    -0.354 N 
ATOM     50  N   UNL A   1      46.166  28.658  28.080  1.00  0.00    -0.248 NA
ATOM     51  C   UNL A   1      48.426  29.163  27.768  1.00  0.00     0.031 C 
ATOM     52  C   UNL A   1      43.118  31.609  29.441  1.00  0.00     0.029 A 
ATOM     53  C   UNL A   1      44.079  30.708  29.007  1.00  0.00     0.049 A 
ATOM     54  H   UNL A   1      43.845  28.686  28.453  1.00  0.00     0.167 HD
ATOM     55  C   UNL A   1      46.382  29.990  28.408  1.00  0.00     0.074 A 
ATOM     56  C   UNL A   1      47.798  30.237  28.226  1.00  0.00     0.031 C 
ATOM     57  C   UNL A   1      45.491  30.924  28.822  1.00  0.00     0.037 A 
BRANCH  44  58
ATOM     58  C   UNL A   1      39.646  28.928  29.169  1.00  0.00     0.057 A 
ATOM     59  C   UNL A   1      39.079  28.826  30.447  1.00  0.00     0.134 A 
ATOM     60  C   UNL A   1      38.811  29.354  28.129  1.00  0.00     0.134 A 
ATOM     61  F   UNL A   1      39.817  28.409  31.488  1.00  0.00    -0.206 F 
ATOM     62  C   UNL A   1      37.730  29.104  30.675  1.00  0.00     0.040 A 
ATOM     63  C   UNL A   1      37.469  29.666  28.349  1.00  0.00     0.040 A 
ATOM     64  F   UNL A   1      39.287  29.478  26.880  1.00  0.00    -0.206 F 
ATOM     65  C   UNL A   1      36.922  29.534  29.624  1.00  0.00     0.006 A 
ENDBRANCH  44  58
BRANCH  45  66
ATOM     66  C   UNL A   1      49.087  26.433  26.914  1.00  0.00     0.057 A 
ATOM     67  C   UNL A   1      49.526  26.569  25.593  1.00  0.00     0.134 A 
ATOM     68  C   UNL A   1      50.014  25.969  27.856  1.00  0.00     0.134 A 
ATOM     69  F   UNL A   1      48.681  26.996  24.642  1.00  0.00    -0.206 F 
ATOM     70  C   UNL A   1      50.828  26.238  25.215  1.00  0.00     0.040 A 
ATOM     71  C   UNL A   1      51.328  25.660  27.498  1.00  0.00     0.040 A 
ATOM     72  F   UNL A   1      49.662  25.829  29.143  1.00  0.00    -0.206 F 
ATOM     73  C   UNL A   1      51.736  25.788  26.172  1.00  0.00     0.006 A 
ENDBRANCH  45  66
BRANCH  57  74
ATOM     74  C   UNL A   1      46.030  32.289  29.135  1.00  0.00     0.057 A 
ATOM     75  C   UNL A   1      46.528  32.613  30.403  1.00  0.00     0.134 A 
ATOM     76  C   UNL A   1      46.094  33.273  28.141  1.00  0.00     0.134 A 
ATOM     77  F   UNL A   1      46.484  31.718  31.401  1.00  0.00    -0.206 F 
ATOM     78  C   UNL A   1      47.053  33.877  30.676  1.00  0.00     0.040 A 
ATOM     79  C   UNL A   1      46.642  34.529  28.394  1.00  0.00     0.040 A 
ATOM     80  F   UNL A   1      45.642  33.021  26.902  1.00  0.00    -0.206 F 
ATOM     81  C   UNL A   1      47.118  34.836  29.668  1.00  0.00     0.006 A 
ENDBRANCH  57  74
ENDBRANCH  31  32
ENDBRANCH  23  26
ENDBRANCH  21  22
ENDBRANCH  20  21
ENDBRANCH   1  20
TORSDOF 13
ENDMDL
MODEL 2
REMARK VINA RESULT:     -11.2      6.596     11.337
REMARK SMILES C[C@H]1C[C@@H]1C(=O)NC[C@@H]1CC[C@H](C(=O)NCCCNC(=O)c2ccc(-c3c4nc(c(-c5c(F)cccc5F)c5ccc([nH]5)c(-c5c(F)cccc5F)c5nc(c(-c6c(F)cccc6F)c6ccc3[nH]6)C=C5)C=C4)cc2)O1
REMARK SMILES IDX 16 1 15 2 13 3 14 4 12 6 9 7 10 8 76 9 11 10 8 11 7 12 5 13
REMARK SMILES IDX 6 14 4 16 1 17 2 18 3 19 17 20 18 21 19 22 20 23 21 25 22 26
REMARK SMILES IDX 23 27 75 28 24 29 74 30 25 31 26 32 27 33 68 34 28 35 73 36
REMARK SMILES IDX 67 37 69 38 29 39 72 40 66 41 65 42 30 44 56 45 39 46 55 47
REMARK SMILES IDX 40 48 43 49 54 50 70 51 41 52 42 53 53 55 71 56 44 57 31 58
REMARK SMILES IDX 32 59 37 60 33 61 34 62 36 63 38 64 35 65 57 66 58 67 63 68
REMARK SMILES IDX 59 69 60 70 62 71 64 72 61 73 45 74 46 75 51 76 47 77 48 78
REMARK SMILES IDX 50 79 52 80 49 81
REMARK H PARENT 15 5 7 15 19 24 69 43 43 54
REMARK Flexibility Score: inf
ROOT
ATOM      1  C   UNL A   1      31.868  30.430  26.826  1.00  0.00     0.117 C 
ENDROOT
BRANCH   1   2
ATOM      2  N   UNL A   1      33.095  30.082  27.498  1.00  0.00    -0.354 N 
ATOM      3  C   UNL A   1      34.052  29.199  27.090  1.00  0.00     0.249 C 
ATOM      4  O   UNL A   1      35.108  29.158  27.728  1.00  0.00    -0.272 OA
ATOM      5  H   UNL A   1      33.261  30.536  28.356  1.00  0.00     0.163 HD
BRANCH   3   6
ATOM      6  C   UNL A   1      33.794  28.232  25.914  1.00  0.00     0.207 C 
ATOM      7  C   UNL A   1      32.368  27.985  24.092  1.00  0.00     0.138 C 
ATOM      8  C   UNL A   1      31.697  27.249  25.239  1.00  0.00     0.037 C 
ATOM      9  O   UNL A   1      33.347  28.846  24.698  1.00  0.00    -0.363 OA
ATOM     10  C   UNL A   1      32.796  27.134  26.273  1.00  0.00     0.045 C 
BRANCH   7  11
ATOM     11  C   UNL A   1      31.453  28.778  23.132  1.00  0.00     0.147 C 
BRANCH  11  12
ATOM     12  N   UNL A   1      30.024  28.517  23.246  1.00  0.00    -0.353 N 
ATOM     13  C   UNL A   1      28.949  29.214  22.770  1.00  0.00     0.223 C 
ATOM     14  O   UNL A   1      27.831  28.713  22.878  1.00  0.00    -0.275 OA
ATOM     15  H   UNL A   1      29.794  27.703  23.751  1.00  0.00     0.163 HD
BRANCH  13  16
ATOM     16  C   UNL A   1      29.128  30.569  22.175  1.00  0.00     0.081 C 
ATOM     17  C   UNL A   1      28.863  33.080  22.919  1.00  0.00     0.008 C 
ATOM     18  C   UNL A   1      28.278  31.723  22.706  1.00  0.00    -0.001 C 
ATOM     19  C   UNL A   1      28.051  31.188  21.320  1.00  0.00     0.018 C 
ENDBRANCH  13  16
ENDBRANCH  11  12
ENDBRANCH   7  11
ENDBRANCH   3   6
ENDBRANCH   1   2
BRANCH   1  20
ATOM     20  C   UNL A   1      31.585  31.921  26.792  1.00  0.00     0.042 C 
BRANCH  20  21
ATOM     21  C   UNL A   1      32.788  32.742  27.220  1.00  0.00     0.118 C 
BRANCH  21  22
ATOM     22  N   UNL A   1      32.433  34.097  27.634  1.00  0.00    -0.352 N 
ATOM     23  C   UNL A   1      32.995  34.912  28.584  1.00  0.00     0.251 C 
ATOM     24  H   UNL A   1      31.668  34.489  27.155  1.00  0.00     0.163 HD
ATOM     25  O   UNL A   1      32.519  36.015  28.832  1.00  0.00    -0.269 OA
BRANCH  23  26
ATOM     26  C   UNL A   1      34.185  34.452  29.312  1.00  0.00     0.039 A 
ATOM     27  C   UNL A   1      34.025  33.814  30.545  1.00  0.00     0.014 A 
ATOM     28  C   UNL A   1      35.451  34.637  28.759  1.00  0.00     0.014 A 
ATOM     29  C   UNL A   1      35.146  33.308  31.198  1.00  0.00     0.010 A 
ATOM     30  C   UNL A   1      36.547  34.039  29.355  1.00  0.00     0.010 A 
ATOM     31  C   UNL A   1      36.407  33.387  30.587  1.00  0.00    -0.014 A 
BRANCH  31  32
ATOM     32  C   UNL A   1      37.619  32.823  31.219  1.00  0.00     0.031 A 
ATOM     33  C   UNL A   1      38.282  31.628  30.593  1.00  0.00     0.074 A 
ATOM     34  C   UNL A   1      38.042  33.313  32.398  1.00  0.00     0.049 A 
ATOM     35  N   UNL A   1      39.248  30.881  31.057  1.00  0.00    -0.248 NA
ATOM     36  C   UNL A   1      37.751  31.187  29.291  1.00  0.00     0.031 C 
ATOM     37  C   UNL A   1      37.435  34.434  33.118  1.00  0.00     0.029 A 
ATOM     38  N   UNL A   1      39.070  32.913  33.211  1.00  0.00    -0.354 N 
ATOM     39  C   UNL A   1      39.416  29.867  30.122  1.00  0.00     0.074 A 
ATOM     40  C   UNL A   1      38.416  30.059  29.097  1.00  0.00     0.031 C 
ATOM     41  C   UNL A   1      38.113  34.642  34.258  1.00  0.00     0.029 A 
ATOM     42  C   UNL A   1      39.168  33.642  34.370  1.00  0.00     0.049 A 
ATOM     43  H   UNL A   1      39.679  32.172  32.985  1.00  0.00     0.167 HD
ATOM     44  C   UNL A   1      40.341  28.879  30.112  1.00  0.00     0.037 A 
ATOM     45  C   UNL A   1      40.010  33.505  35.411  1.00  0.00     0.037 A 
ATOM     46  C   UNL A   1      41.353  28.727  31.122  1.00  0.00     0.049 A 
ATOM     47  C   UNL A   1      41.040  32.411  35.368  1.00  0.00     0.074 A 
ATOM     48  C   UNL A   1      42.389  27.814  31.175  1.00  0.00     0.029 A 
ATOM     49  N   UNL A   1      41.451  29.515  32.261  1.00  0.00    -0.354 N 
ATOM     50  N   UNL A   1      41.240  31.500  34.445  1.00  0.00    -0.248 NA
ATOM     51  C   UNL A   1      41.965  32.329  36.506  1.00  0.00     0.031 C 
ATOM     52  C   UNL A   1      43.087  28.018  32.369  1.00  0.00     0.029 A 
ATOM     53  C   UNL A   1      42.518  29.092  33.036  1.00  0.00     0.049 A 
ATOM     54  H   UNL A   1      40.852  30.263  32.484  1.00  0.00     0.167 HD
ATOM     55  C   UNL A   1      42.326  30.752  34.876  1.00  0.00     0.074 A 
ATOM     56  C   UNL A   1      42.752  31.328  36.136  1.00  0.00     0.031 C 
ATOM     57  C   UNL A   1      42.921  29.687  34.285  1.00  0.00     0.037 A 
BRANCH  44  58
ATOM     58  C   UNL A   1      40.293  27.896  28.977  1.00  0.00     0.057 A 
ATOM     59  C   UNL A   1      39.529  26.723  29.042  1.00  0.00     0.134 A 
ATOM     60  C   UNL A   1      41.010  28.133  27.798  1.00  0.00     0.134 A 
ATOM     61  F   UNL A   1      38.829  26.426  30.148  1.00  0.00    -0.206 F 
ATOM     62  C   UNL A   1      39.506  25.805  27.990  1.00  0.00     0.040 A 
ATOM     63  C   UNL A   1      40.970  27.239  26.727  1.00  0.00     0.040 A 
ATOM     64  F   UNL A   1      41.760  29.238  27.665  1.00  0.00    -0.206 F 
ATOM     65  C   UNL A   1      40.223  26.067  26.824  1.00  0.00     0.006 A 
ENDBRANCH  44  58
BRANCH  45  66
ATOM     66  C   UNL A   1      39.925  34.439  36.561  1.00  0.00     0.057 A 
ATOM     67  C   UNL A   1      39.154  34.128  37.686  1.00  0.00     0.134 A 
ATOM     68  C   UNL A   1      40.621  35.655  36.573  1.00  0.00     0.134 A 
ATOM     69  F   UNL A   1      38.453  32.984  37.728  1.00  0.00    -0.206 F 
ATOM     70  C   UNL A   1      39.061  34.997  38.774  1.00  0.00     0.040 A 
ATOM     71  C   UNL A   1      40.559  36.522  37.666  1.00  0.00     0.040 A 
ATOM     72  F   UNL A   1      41.389  36.006  35.532  1.00  0.00    -0.206 F 
ATOM     73  C   UNL A   1      39.771  36.196  38.768  1.00  0.00     0.006 A 
ENDBRANCH  45  66
BRANCH  57  74
ATOM     74  C   UNL A   1      44.112  29.097  34.980  1.00  0.00     0.057 A 
ATOM     75  C   UNL A   1      45.414  29.541  34.721  1.00  0.00     0.134 A 
ATOM     76  C   UNL A   1      43.946  28.106  35.956  1.00  0.00     0.134 A 
ATOM     77  F   UNL A   1      45.640  30.479  33.788  1.00  0.00    -0.206 F 
ATOM     78  C   UNL A   1      46.512  29.005  35.394  1.00  0.00     0.040 A 
ATOM     79  C   UNL A   1      45.032  27.583  36.655  1.00  0.00     0.040 A 
ATOM     80  F   UNL A   1      42.722  27.645  36.258  1.00  0.00    -0.206 F 
ATOM     81  C   UNL A   1      46.322  28.029  36.370  1.00  0.00     0.006 A 
ENDBRANCH  57  74
ENDBRANCH  31  32
ENDBRANCH  23  26
ENDBRANCH  21  22
ENDBRANCH  20  21
ENDBRANCH   1  20
TORSDOF 13
ENDMDL
MODEL 3
REMARK VINA RESULT:     -11.1      1.870      3.722
REMARK SMILES C[C@H]1C[C@@H]1C(=O)NC[C@@H]1CC[C@H](C(=O)NCCCNC(=O)c2ccc(-c3c4nc(c(-c5c(F)cccc5F)c5ccc([nH]5)c(-c5c(F)cccc5F)c5nc(c(-c6c(F)cccc6F)c6ccc3[nH]6)C=C5)C=C4)cc2)O1
REMARK SMILES IDX 16 1 15 2 13 3 14 4 12 6 9 7 10 8 76 9 11 10 8 11 7 12 5 13
REMARK SMILES IDX 6 14 4 16 1 17 2 18 3 19 17 20 18 21 19 22 20 23 21 25 22 26
REMARK SMILES IDX 23 27 75 28 24 29 74 30 25 31 26 32 27 33 68 34 28 35 73 36
REMARK SMILES IDX 67 37 69 38 29 39 72 40 66 41 65 42 30 44 56 45 39 46 55 47
REMARK SMILES IDX 40 48 43 49 54 50 70 51 41 52 42 53 53 55 71 56 44 57 31 58
REMARK SMILES IDX 32 59 37 60 33 61 34 62 36 63 38 64 35 65 57 66 58 67 63 68
REMARK SMILES IDX 59 69 60 70 62 71 64 72 61 73 45 74 46 75 51 76 47 77 48 78
REMARK SMILES IDX 50 79 52 80 49 81
REMARK H PARENT 15 5 7 15 19 24 69 43 43 54
REMARK Flexibility Score: inf
ROOT
ATOM      1  C   UNL A   1      36.601  21.011  25.117  1.00  0.00     0.117 C 
ENDROOT
BRANCH   1   2
ATOM      2  N   UNL A   1      35.336  20.483  25.560  1.00  0.00    -0.354 N 
ATOM      3  C   UNL A   1      34.106  20.670  24.997  1.00  0.00     0.249 C 
ATOM      4  O   UNL A   1      33.165  20.001  25.434  1.00  0.00    -0.272 OA
ATOM      5  H   UNL A   1      35.362  19.919  26.367  1.00  0.00     0.163 HD
BRANCH   3   6
ATOM      6  C   UNL A   1      33.887  21.736  23.902  1.00  0.00     0.207 C 
ATOM      7  C   UNL A   1      33.040  23.890  23.658  1.00  0.00     0.138 C 
ATOM      8  C   UNL A   1      31.866  22.957  23.408  1.00  0.00     0.037 C 
ATOM      9  O   UNL A   1      34.034  23.096  24.329  1.00  0.00    -0.363 OA
ATOM     10  C   UNL A   1      32.523  21.605  23.228  1.00  0.00     0.045 C 
BRANCH   7  11
ATOM     11  C   UNL A   1      32.752  25.192  24.437  1.00  0.00     0.147 C 
BRANCH  11  12
ATOM     12  N   UNL A   1      31.603  25.162  25.334  1.00  0.00    -0.353 N 
ATOM     13  C   UNL A   1      31.004  26.160  26.051  1.00  0.00     0.223 C 
ATOM     14  O   UNL A   1      29.951  25.911  26.635  1.00  0.00    -0.275 OA
ATOM     15  H   UNL A   1      31.189  24.275  25.442  1.00  0.00     0.163 HD
BRANCH  13  16
ATOM     16  C   UNL A   1      31.642  27.503  26.156  1.00  0.00     0.081 C 
ATOM     17  C   UNL A   1      34.041  28.500  26.574  1.00  0.00     0.008 C 
ATOM     18  C   UNL A   1      32.893  27.658  27.020  1.00  0.00    -0.001 C 
ATOM     19  C   UNL A   1      31.595  28.284  27.445  1.00  0.00     0.018 C 
ENDBRANCH  13  16
ENDBRANCH  11  12
ENDBRANCH   7  11
ENDBRANCH   3   6
ENDBRANCH   1   2
BRANCH   1  20
ATOM     20  C   UNL A   1      37.697  19.967  24.992  1.00  0.00     0.042 C 
BRANCH  20  21
ATOM     21  C   UNL A   1      38.952  20.362  25.750  1.00  0.00     0.118 C 
BRANCH  21  22
ATOM     22  N   UNL A   1      39.950  19.297  25.790  1.00  0.00    -0.352 N 
ATOM     23  C   UNL A   1      41.292  19.346  26.070  1.00  0.00     0.251 C 
ATOM     24  H   UNL A   1      39.604  18.398  25.583  1.00  0.00     0.163 HD
ATOM     25  O   UNL A   1      41.990  18.340  26.002  1.00  0.00    -0.269 OA
BRANCH  23  26
ATOM     26  C   UNL A   1      41.897  20.627  26.458  1.00  0.00     0.039 A 
ATOM     27  C   UNL A   1      42.264  21.536  25.463  1.00  0.00     0.014 A 
ATOM     28  C   UNL A   1      42.080  20.928  27.807  1.00  0.00     0.014 A 
ATOM     29  C   UNL A   1      42.766  22.782  25.832  1.00  0.00     0.010 A 
ATOM     30  C   UNL A   1      42.474  22.202  28.172  1.00  0.00     0.010 A 
ATOM     31  C   UNL A   1      42.838  23.133  27.189  1.00  0.00    -0.014 A 
BRANCH  31  32
ATOM     32  C   UNL A   1      43.319  24.460  27.630  1.00  0.00     0.031 A 
ATOM     33  C   UNL A   1      42.317  25.502  28.039  1.00  0.00     0.074 A 
ATOM     34  C   UNL A   1      44.629  24.751  27.549  1.00  0.00     0.049 A 
ATOM     35  N   UNL A   1      42.501  26.768  28.304  1.00  0.00    -0.248 NA
ATOM     36  C   UNL A   1      40.910  25.070  28.114  1.00  0.00     0.031 C 
ATOM     37  C   UNL A   1      45.678  23.829  27.110  1.00  0.00     0.029 A 
ATOM     38  N   UNL A   1      45.300  25.917  27.812  1.00  0.00    -0.354 N 
ATOM     39  C   UNL A   1      41.235  27.287  28.542  1.00  0.00     0.074 A 
ATOM     40  C   UNL A   1      40.286  26.217  28.334  1.00  0.00     0.031 C 
ATOM     41  C   UNL A   1      46.863  24.460  27.150  1.00  0.00     0.029 A 
ATOM     42  C   UNL A   1      46.649  25.840  27.571  1.00  0.00     0.049 A 
ATOM     43  H   UNL A   1      44.856  26.732  28.142  1.00  0.00     0.167 HD
ATOM     44  C   UNL A   1      40.900  28.541  28.925  1.00  0.00     0.037 A 
ATOM     45  C   UNL A   1      47.602  26.786  27.667  1.00  0.00     0.037 A 
ATOM     46  C   UNL A   1      41.861  29.582  29.166  1.00  0.00     0.049 A 
ATOM     47  C   UNL A   1      47.207  28.166  28.112  1.00  0.00     0.074 A 
ATOM     48  C   UNL A   1      41.645  30.866  29.633  1.00  0.00     0.029 A 
ATOM     49  N   UNL A   1      43.228  29.455  28.956  1.00  0.00    -0.354 N 
ATOM     50  N   UNL A   1      46.016  28.630  28.405  1.00  0.00    -0.248 NA
ATOM     51  C   UNL A   1      48.287  29.152  28.244  1.00  0.00     0.031 C 
ATOM     52  C   UNL A   1      42.875  31.531  29.660  1.00  0.00     0.029 A 
ATOM     53  C   UNL A   1      43.865  30.645  29.260  1.00  0.00     0.049 A 
ATOM     54  H   UNL A   1      43.676  28.639  28.637  1.00  0.00     0.167 HD
ATOM     55  C   UNL A   1      46.204  29.953  28.781  1.00  0.00     0.074 A 
ATOM     56  C   UNL A   1      47.627  30.211  28.693  1.00  0.00     0.031 C 
ATOM     57  C   UNL A   1      45.285  30.872  29.166  1.00  0.00     0.037 A 
BRANCH  44  58
ATOM     58  C   UNL A   1      39.440  28.845  29.104  1.00  0.00     0.057 A 
ATOM     59  C   UNL A   1      38.793  28.682  30.337  1.00  0.00     0.134 A 
ATOM     60  C   UNL A   1      38.673  29.321  28.034  1.00  0.00     0.134 A 
ATOM     61  F   UNL A   1      39.463  28.215  31.402  1.00  0.00    -0.206 F 
ATOM     62  C   UNL A   1      37.430  28.949  30.490  1.00  0.00     0.040 A 
ATOM     63  C   UNL A   1      37.319  29.622  28.181  1.00  0.00     0.040 A 
ATOM     64  F   UNL A   1      39.229  29.504  26.826  1.00  0.00    -0.206 F 
ATOM     65  C   UNL A   1      36.691  29.428  29.410  1.00  0.00     0.006 A 
ENDBRANCH  44  58
BRANCH  45  66
ATOM     66  C   UNL A   1      49.014  26.449  27.358  1.00  0.00     0.057 A 
ATOM     67  C   UNL A   1      49.856  25.908  28.335  1.00  0.00     0.134 A 
ATOM     68  C   UNL A   1      49.552  26.642  26.079  1.00  0.00     0.134 A 
ATOM     69  F   UNL A   1      49.403  25.712  29.582  1.00  0.00    -0.206 F 
ATOM     70  C   UNL A   1      51.187  25.589  28.060  1.00  0.00     0.040 A 
ATOM     71  C   UNL A   1      50.873  26.303  25.783  1.00  0.00     0.040 A 
ATOM     72  F   UNL A   1      48.793  27.144  25.093  1.00  0.00    -0.206 F 
ATOM     73  C   UNL A   1      51.697  25.781  26.778  1.00  0.00     0.006 A 
ENDBRANCH  45  66
BRANCH  57  74
ATOM     74  C   UNL A   1      45.796  32.230  29.549  1.00  0.00     0.057 A 
ATOM     75  C   UNL A   1      45.865  33.280  28.625  1.00  0.00     0.134 A 
ATOM     76  C   UNL A   1      46.176  32.499  30.869  1.00  0.00     0.134 A 
ATOM     77  F   UNL A   1      45.526  33.082  27.342  1.00  0.00    -0.206 F 
ATOM     78  C   UNL A   1      46.315  34.547  28.999  1.00  0.00     0.040 A 
ATOM     79  C   UNL A   1      46.600  33.769  31.260  1.00  0.00     0.040 A 
ATOM     80  F   UNL A   1      46.123  31.538  31.804  1.00  0.00    -0.206 F 
ATOM     81  C   UNL A   1      46.676  34.796  30.321  1.00  0.00     0.006 A 
ENDBRANCH  57  74
ENDBRANCH  31  32
ENDBRANCH  23  26
ENDBRANCH  21  22
ENDBRANCH  20  21
ENDBRANCH   1  20
TORSDOF 13
ENDMDL
