MODEL 1
REMARK VINA RESULT:     -11.7      0.000      0.000
REMARK SMILES CCOc1ccc(-c2nc(C(=O)NCCCNC(=O)c3ccc(-c4c5nc(c(-c6c(F)cccc6F)c6ccc([nH]6)c(-c6c(F)cccc6F)c6nc(c(-c7c(F)cccc7F)c7ccc4[nH]7)C=C6)C=C5)cc3)cc(=O)[nH]2)cc1
REMARK SMILES IDX 14 1 13 2 11 3 12 4 10 6 8 7 9 8 77 9 75 10 74 12 76 13 7 14
REMARK SMILES IDX 4 15 5 16 79 17 6 18 78 19 3 20 2 21 1 22 15 23 16 24 17 25
REMARK SMILES IDX 18 26 19 28 20 29 21 30 73 31 22 32 72 33 23 34 24 35 25 36
REMARK SMILES IDX 66 37 26 38 71 39 65 40 67 41 27 42 70 43 64 44 63 45 28 47
REMARK SMILES IDX 54 48 37 49 53 50 38 51 41 52 52 53 68 54 39 55 40 56 51 58
REMARK SMILES IDX 69 59 42 60 29 61 30 62 35 63 31 64 32 65 34 66 36 67 33 68
REMARK SMILES IDX 55 69 56 70 61 71 57 72 58 73 60 74 62 75 59 76 43 77 44 78
REMARK SMILES IDX 49 79 45 80 46 81 48 82 50 83 47 84
REMARK H PARENT 13 5 77 11 17 27 67 46 41 57
REMARK Flexibility Score: inf
ROOT
ATOM      1  C   UNL A   1      32.722  28.709  24.762  1.00  0.00     0.118 C 
ENDROOT
BRANCH   1   2
ATOM      2  N   UNL A   1      31.498  27.947  24.899  1.00  0.00    -0.351 N 
ATOM      3  C   UNL A   1      30.981  26.830  24.324  1.00  0.00     0.270 C 
ATOM      4  O   UNL A   1      29.846  26.530  24.714  1.00  0.00    -0.268 OA
ATOM      5  H   UNL A   1      30.892  28.333  25.573  1.00  0.00     0.163 HD
BRANCH   3   6
ATOM      6  C   UNL A   1      31.690  25.942  23.313  1.00  0.00     0.136 A 
ATOM      7  C   UNL A   1      32.615  23.854  23.011  1.00  0.00     0.141 A 
ATOM      8  N   UNL A   1      31.997  24.678  23.787  1.00  0.00    -0.225 NA
ATOM      9  N   UNL A   1      32.992  24.173  21.737  1.00  0.00    -0.306 N 
ATOM     10  C   UNL A   1      32.693  25.377  21.187  1.00  0.00     0.251 A 
ATOM     11  H   UNL A   1      33.491  23.511  21.204  1.00  0.00     0.171 HD
ATOM     12  C   UNL A   1      31.949  26.306  22.051  1.00  0.00     0.105 A 
ATOM     13  O   UNL A   1      33.010  25.687  20.049  1.00  0.00    -0.269 OA
BRANCH   7  14
ATOM     14  C   UNL A   1      32.914  22.479  23.451  1.00  0.00     0.018 A 
ATOM     15  C   UNL A   1      33.496  19.919  24.363  1.00  0.00     0.119 A 
ATOM     16  C   UNL A   1      32.456  20.108  23.453  1.00  0.00     0.047 A 
ATOM     17  C   UNL A   1      34.279  20.995  24.779  1.00  0.00     0.047 A 
ATOM     18  C   UNL A   1      32.154  21.394  23.000  1.00  0.00     0.016 A 
ATOM     19  C   UNL A   1      33.984  22.280  24.329  1.00  0.00     0.016 A 
BRANCH  15  20
ATOM     20  O   UNL A   1      33.810  18.641  24.734  1.00  0.00    -0.494 OA
BRANCH  20  21
ATOM     21  C   UNL A   1      33.038  17.652  24.041  1.00  0.00     0.226 C 
ATOM     22  C   UNL A   1      33.915  16.537  23.493  1.00  0.00     0.049 C 
ENDBRANCH  20  21
ENDBRANCH  15  20
ENDBRANCH   7  14
ENDBRANCH   3   6
ENDBRANCH   1   2
BRANCH   1  23
ATOM     23  C   UNL A   1      33.831  28.114  25.627  1.00  0.00     0.042 C 
BRANCH  23  24
ATOM     24  C   UNL A   1      33.615  28.375  27.119  1.00  0.00     0.118 C 
BRANCH  24  25
ATOM     25  N   UNL A   1      33.586  29.804  27.419  1.00  0.00    -0.352 N 
ATOM     26  C   UNL A   1      34.480  30.592  28.099  1.00  0.00     0.251 C 
ATOM     27  H   UNL A   1      32.795  30.281  27.078  1.00  0.00     0.163 HD
ATOM     28  O   UNL A   1      34.130  31.697  28.501  1.00  0.00    -0.269 OA
BRANCH  26  29
ATOM     29  C   UNL A   1      35.859  30.124  28.340  1.00  0.00     0.039 A 
ATOM     30  C   UNL A   1      36.789  30.178  27.298  1.00  0.00     0.014 A 
ATOM     31  C   UNL A   1      36.221  29.582  29.576  1.00  0.00     0.014 A 
ATOM     32  C   UNL A   1      38.097  29.743  27.517  1.00  0.00     0.010 A 
ATOM     33  C   UNL A   1      37.545  29.236  29.819  1.00  0.00     0.010 A 
ATOM     34  C   UNL A   1      38.494  29.301  28.790  1.00  0.00    -0.014 A 
BRANCH  34  35
ATOM     35  C   UNL A   1      39.895  28.895  29.064  1.00  0.00     0.031 A 
ATOM     36  C   UNL A   1      40.838  29.850  29.742  1.00  0.00     0.074 A 
ATOM     37  C   UNL A   1      40.329  27.690  28.646  1.00  0.00     0.049 A 
ATOM     38  N   UNL A   1      42.115  29.712  29.996  1.00  0.00    -0.248 NA
ATOM     39  C   UNL A   1      40.281  31.145  30.166  1.00  0.00     0.031 C 
ATOM     40  C   UNL A   1      39.520  26.697  27.936  1.00  0.00     0.029 A 
ATOM     41  N   UNL A   1      41.564  27.101  28.746  1.00  0.00    -0.354 N 
ATOM     42  C   UNL A   1      42.510  30.899  30.598  1.00  0.00     0.074 A 
ATOM     43  C   UNL A   1      41.358  31.773  30.610  1.00  0.00     0.031 C 
ATOM     44  C   UNL A   1      40.271  25.612  27.691  1.00  0.00     0.029 A 
ATOM     45  C   UNL A   1      41.624  25.850  28.182  1.00  0.00     0.049 A 
ATOM     46  H   UNL A   1      42.334  27.534  29.181  1.00  0.00     0.167 HD
ATOM     47  C   UNL A   1      43.716  31.220  31.125  1.00  0.00     0.037 A 
ATOM     48  C   UNL A   1      42.658  24.996  28.066  1.00  0.00     0.037 A 
ATOM     49  C   UNL A   1      44.856  30.342  31.121  1.00  0.00     0.049 A 
ATOM     50  C   UNL A   1      43.996  25.392  28.629  1.00  0.00     0.074 A 
ATOM     51  C   UNL A   1      46.113  30.557  31.657  1.00  0.00     0.029 A 
ATOM     52  N   UNL A   1      44.874  29.078  30.549  1.00  0.00    -0.354 N 
ATOM     53  N   UNL A   1      44.340  26.493  29.251  1.00  0.00    -0.248 NA
ATOM     54  C   UNL A   1      45.089  24.422  28.477  1.00  0.00     0.031 C 
ATOM     55  C   UNL A   1      46.907  29.441  31.368  1.00  0.00     0.029 A 
ATOM     56  C   UNL A   1      46.128  28.508  30.704  1.00  0.00     0.049 A 
ATOM     57  H   UNL A   1      44.110  28.649  30.101  1.00  0.00     0.167 HD
ATOM     58  C   UNL A   1      45.676  26.335  29.597  1.00  0.00     0.074 A 
ATOM     59  C   UNL A   1      46.074  25.023  29.129  1.00  0.00     0.031 C 
ATOM     60  C   UNL A   1      46.500  27.195  30.243  1.00  0.00     0.037 A 
BRANCH  47  61
ATOM     61  C   UNL A   1      43.857  32.576  31.756  1.00  0.00     0.057 A 
ATOM     62  C   UNL A   1      43.592  32.786  33.117  1.00  0.00     0.134 A 
ATOM     63  C   UNL A   1      44.292  33.677  31.009  1.00  0.00     0.134 A 
ATOM     64  F   UNL A   1      43.160  31.778  33.890  1.00  0.00    -0.206 F 
ATOM     65  C   UNL A   1      43.728  34.046  33.703  1.00  0.00     0.040 A 
ATOM     66  C   UNL A   1      44.461  34.936  31.591  1.00  0.00     0.040 A 
ATOM     67  F   UNL A   1      44.571  33.548  29.702  1.00  0.00    -0.206 F 
ATOM     68  C   UNL A   1      44.171  35.124  32.941  1.00  0.00     0.006 A 
ENDBRANCH  47  61
BRANCH  48  69
ATOM     69  C   UNL A   1      42.474  23.679  27.403  1.00  0.00     0.057 A 
ATOM     70  C   UNL A   1      42.153  22.536  28.147  1.00  0.00     0.134 A 
ATOM     71  C   UNL A   1      42.642  23.521  26.023  1.00  0.00     0.134 A 
ATOM     72  F   UNL A   1      41.995  22.617  29.476  1.00  0.00    -0.206 F 
ATOM     73  C   UNL A   1      42.038  21.280  27.546  1.00  0.00     0.040 A 
ATOM     74  C   UNL A   1      42.499  22.278  25.404  1.00  0.00     0.040 A 
ATOM     75  F   UNL A   1      42.938  24.578  25.251  1.00  0.00    -0.206 F 
ATOM     76  C   UNL A   1      42.208  21.150  26.170  1.00  0.00     0.006 A 
ENDBRANCH  48  69
BRANCH  60  77
ATOM     77  C   UNL A   1      47.899  26.726  30.524  1.00  0.00     0.057 A 
ATOM     78  C   UNL A   1      48.952  26.950  29.629  1.00  0.00     0.134 A 
ATOM     79  C   UNL A   1      48.199  26.069  31.724  1.00  0.00     0.134 A 
ATOM     80  F   UNL A   1      48.729  27.561  28.455  1.00  0.00    -0.206 F 
ATOM     81  C   UNL A   1      50.249  26.514  29.905  1.00  0.00     0.040 A 
ATOM     82  C   UNL A   1      49.497  25.657  32.026  1.00  0.00     0.040 A 
ATOM     83  F   UNL A   1      47.239  25.831  32.630  1.00  0.00    -0.206 F 
ATOM     84  C   UNL A   1      50.525  25.871  31.111  1.00  0.00     0.006 A 
ENDBRANCH  60  77
ENDBRANCH  34  35
ENDBRANCH  26  29
ENDBRANCH  24  25
ENDBRANCH  23  24
ENDBRANCH   1  23
TORSDOF 13
ENDMDL
MODEL 2
REMARK VINA RESULT:     -11.6      3.105      8.227
REMARK SMILES CCOc1ccc(-c2nc(C(=O)NCCCNC(=O)c3ccc(-c4c5nc(c(-c6c(F)cccc6F)c6ccc([nH]6)c(-c6c(F)cccc6F)c6nc(c(-c7c(F)cccc7F)c7ccc4[nH]7)C=C6)C=C5)cc3)cc(=O)[nH]2)cc1
REMARK SMILES IDX 14 1 13 2 11 3 12 4 10 6 8 7 9 8 77 9 75 10 74 12 76 13 7 14
REMARK SMILES IDX 4 15 5 16 79 17 6 18 78 19 3 20 2 21 1 22 15 23 16 24 17 25
REMARK SMILES IDX 18 26 19 28 20 29 21 30 73 31 22 32 72 33 23 34 24 35 25 36
REMARK SMILES IDX 66 37 26 38 71 39 65 40 67 41 27 42 70 43 64 44 63 45 28 47
REMARK SMILES IDX 54 48 37 49 53 50 38 51 41 52 52 53 68 54 39 55 40 56 51 58
REMARK SMILES IDX 69 59 42 60 29 61 30 62 35 63 31 64 32 65 34 66 36 67 33 68
REMARK SMILES IDX 55 69 56 70 61 71 57 72 58 73 60 74 62 75 59 76 43 77 44 78
REMARK SMILES IDX 49 79 45 80 46 81 48 82 50 83 47 84
REMARK H PARENT 13 5 77 11 17 27 67 46 41 57
REMARK Flexibility Score: inf
ROOT
ATOM      1  C   UNL A   1      35.038  23.708  23.929  1.00  0.00     0.118 C 
ENDROOT
BRANCH   1   2
ATOM      2  N   UNL A   1      34.240  22.546  23.595  1.00  0.00    -0.351 N 
ATOM      3  C   UNL A   1      32.981  22.121  23.873  1.00  0.00     0.270 C 
ATOM      4  O   UNL A   1      32.699  21.010  23.407  1.00  0.00    -0.268 OA
ATOM      5  H   UNL A   1      34.732  21.908  23.028  1.00  0.00     0.163 HD
BRANCH   3   6
ATOM      6  C   UNL A   1      31.930  22.903  24.645  1.00  0.00     0.136 A 
ATOM      7  C   UNL A   1      30.644  24.814  24.607  1.00  0.00     0.141 A 
ATOM      8  N   UNL A   1      31.521  24.070  24.023  1.00  0.00    -0.225 NA
ATOM      9  N   UNL A   1      30.100  24.508  25.823  1.00  0.00    -0.306 N 
ATOM     10  C   UNL A   1      30.420  23.363  26.477  1.00  0.00     0.251 A 
ATOM     11  H   UNL A   1      29.459  25.133  26.233  1.00  0.00     0.171 HD
ATOM     12  C   UNL A   1      31.386  22.488  25.796  1.00  0.00     0.105 A 
ATOM     13  O   UNL A   1      29.945  23.060  27.561  1.00  0.00    -0.269 OA
BRANCH   7  14
ATOM     14  C   UNL A   1      30.137  26.037  23.958  1.00  0.00     0.018 A 
ATOM     15  C   UNL A   1      29.237  28.328  22.667  1.00  0.00     0.119 A 
ATOM     16  C   UNL A   1      28.337  27.541  23.386  1.00  0.00     0.047 A 
ATOM     17  C   UNL A   1      30.592  28.004  22.634  1.00  0.00     0.047 A 
ATOM     18  C   UNL A   1      28.783  26.384  24.028  1.00  0.00     0.016 A 
ATOM     19  C   UNL A   1      31.044  26.852  23.274  1.00  0.00     0.016 A 
BRANCH  15  20
ATOM     20  O   UNL A   1      28.782  29.489  22.108  1.00  0.00    -0.494 OA
BRANCH  20  21
ATOM     21  C   UNL A   1      27.665  30.049  22.811  1.00  0.00     0.226 C 
ATOM     22  C   UNL A   1      28.003  31.404  23.414  1.00  0.00     0.049 C 
ENDBRANCH  20  21
ENDBRANCH  15  20
ENDBRANCH   7  14
ENDBRANCH   3   6
ENDBRANCH   1   2
BRANCH   1  23
ATOM     23  C   UNL A   1      36.475  23.304  24.252  1.00  0.00     0.042 C 
BRANCH  23  24
ATOM     24  C   UNL A   1      36.744  23.243  25.757  1.00  0.00     0.118 C 
BRANCH  24  25
ATOM     25  N   UNL A   1      37.858  22.354  26.072  1.00  0.00    -0.352 N 
ATOM     26  C   UNL A   1      39.159  22.635  26.404  1.00  0.00     0.251 C 
ATOM     27  H   UNL A   1      37.640  21.394  26.042  1.00  0.00     0.163 HD
ATOM     28  O   UNL A   1      40.007  21.751  26.335  1.00  0.00    -0.269 OA
BRANCH  26  29
ATOM     29  C   UNL A   1      39.542  23.989  26.851  1.00  0.00     0.039 A 
ATOM     30  C   UNL A   1      39.366  24.338  28.193  1.00  0.00     0.014 A 
ATOM     31  C   UNL A   1      40.024  24.930  25.938  1.00  0.00     0.014 A 
ATOM     32  C   UNL A   1      39.730  25.614  28.627  1.00  0.00     0.010 A 
ATOM     33  C   UNL A   1      40.471  26.167  26.390  1.00  0.00     0.010 A 
ATOM     34  C   UNL A   1      40.318  26.526  27.735  1.00  0.00    -0.014 A 
BRANCH  34  35
ATOM     35  C   UNL A   1      40.773  27.864  28.187  1.00  0.00     0.031 A 
ATOM     36  C   UNL A   1      42.240  28.192  28.217  1.00  0.00     0.074 A 
ATOM     37  C   UNL A   1      39.867  28.758  28.629  1.00  0.00     0.049 A 
ATOM     38  N   UNL A   1      42.839  29.272  28.652  1.00  0.00    -0.248 NA
ATOM     39  C   UNL A   1      43.162  27.158  27.717  1.00  0.00     0.031 C 
ATOM     40  C   UNL A   1      38.420  28.537  28.692  1.00  0.00     0.029 A 
ATOM     41  N   UNL A   1      40.029  30.028  29.120  1.00  0.00    -0.354 N 
ATOM     42  C   UNL A   1      44.198  29.043  28.486  1.00  0.00     0.074 A 
ATOM     43  C   UNL A   1      44.343  27.698  27.976  1.00  0.00     0.031 C 
ATOM     44  C   UNL A   1      37.827  29.645  29.166  1.00  0.00     0.029 A 
ATOM     45  C   UNL A   1      38.851  30.633  29.484  1.00  0.00     0.049 A 
ATOM     46  H   UNL A   1      40.908  30.465  29.204  1.00  0.00     0.167 HD
ATOM     47  C   UNL A   1      45.232  29.889  28.708  1.00  0.00     0.037 A 
ATOM     48  C   UNL A   1      38.625  31.845  30.023  1.00  0.00     0.037 A 
ATOM     49  C   UNL A   1      45.082  31.232  29.204  1.00  0.00     0.049 A 
ATOM     50  C   UNL A   1      39.794  32.753  30.291  1.00  0.00     0.074 A 
ATOM     51  C   UNL A   1      46.060  32.182  29.431  1.00  0.00     0.029 A 
ATOM     52  N   UNL A   1      43.870  31.811  29.551  1.00  0.00    -0.354 N 
ATOM     53  N   UNL A   1      41.070  32.546  30.071  1.00  0.00    -0.248 NA
ATOM     54  C   UNL A   1      39.491  34.066  30.878  1.00  0.00     0.031 C 
ATOM     55  C   UNL A   1      45.446  33.323  29.961  1.00  0.00     0.029 A 
ATOM     56  C   UNL A   1      44.079  33.103  30.009  1.00  0.00     0.049 A 
ATOM     57  H   UNL A   1      42.992  31.372  29.482  1.00  0.00     0.167 HD
ATOM     58  C   UNL A   1      41.717  33.714  30.458  1.00  0.00     0.074 A 
ATOM     59  C   UNL A   1      40.689  34.629  30.910  1.00  0.00     0.031 C 
ATOM     60  C   UNL A   1      43.041  34.004  30.441  1.00  0.00     0.037 A 
BRANCH  47  61
ATOM     61  C   UNL A   1      46.615  29.388  28.404  1.00  0.00     0.057 A 
ATOM     62  C   UNL A   1      47.198  29.552  27.139  1.00  0.00     0.134 A 
ATOM     63  C   UNL A   1      47.388  28.762  29.390  1.00  0.00     0.134 A 
ATOM     64  F   UNL A   1      46.509  30.132  26.143  1.00  0.00    -0.206 F 
ATOM     65  C   UNL A   1      48.485  29.089  26.859  1.00  0.00     0.040 A 
ATOM     66  C   UNL A   1      48.688  28.322  29.131  1.00  0.00     0.040 A 
ATOM     67  F   UNL A   1      46.897  28.577  30.626  1.00  0.00    -0.206 F 
ATOM     68  C   UNL A   1      49.237  28.478  27.860  1.00  0.00     0.006 A 
ENDBRANCH  47  61
BRANCH  48  69
ATOM     69  C   UNL A   1      37.239  32.282  30.335  1.00  0.00     0.057 A 
ATOM     70  C   UNL A   1      36.638  31.959  31.558  1.00  0.00     0.134 A 
ATOM     71  C   UNL A   1      36.472  33.003  29.412  1.00  0.00     0.134 A 
ATOM     72  F   UNL A   1      37.314  31.256  32.478  1.00  0.00    -0.206 F 
ATOM     73  C   UNL A   1      35.315  32.309  31.839  1.00  0.00     0.040 A 
ATOM     74  C   UNL A   1      35.159  33.387  29.692  1.00  0.00     0.040 A 
ATOM     75  F   UNL A   1      36.991  33.355  28.226  1.00  0.00    -0.206 F 
ATOM     76  C   UNL A   1      34.574  33.028  30.905  1.00  0.00     0.006 A 
ENDBRANCH  48  69
BRANCH  60  77
ATOM     77  C   UNL A   1      43.448  35.381  30.879  1.00  0.00     0.057 A 
ATOM     78  C   UNL A   1      43.579  36.441  29.973  1.00  0.00     0.134 A 
ATOM     79  C   UNL A   1      43.679  35.656  32.233  1.00  0.00     0.134 A 
ATOM     80  F   UNL A   1      43.385  36.241  28.660  1.00  0.00    -0.206 F 
ATOM     81  C   UNL A   1      43.952  37.718  30.393  1.00  0.00     0.040 A 
ATOM     82  C   UNL A   1      44.021  36.936  32.670  1.00  0.00     0.040 A 
ATOM     83  F   UNL A   1      43.560  34.689  33.155  1.00  0.00    -0.206 F 
ATOM     84  C   UNL A   1      44.167  37.969  31.748  1.00  0.00     0.006 A 
ENDBRANCH  60  77
ENDBRANCH  34  35
ENDBRANCH  26  29
ENDBRANCH  24  25
ENDBRANCH  23  24
ENDBRANCH   1  23
TORSDOF 13
ENDMDL
MODEL 3
REMARK VINA RESULT:     -11.6      4.438      7.681
REMARK SMILES CCOc1ccc(-c2nc(C(=O)NCCCNC(=O)c3ccc(-c4c5nc(c(-c6c(F)cccc6F)c6ccc([nH]6)c(-c6c(F)cccc6F)c6nc(c(-c7c(F)cccc7F)c7ccc4[nH]7)C=C6)C=C5)cc3)cc(=O)[nH]2)cc1
REMARK SMILES IDX 14 1 13 2 11 3 12 4 10 6 8 7 9 8 77 9 75 10 74 12 76 13 7 14
REMARK SMILES IDX 4 15 5 16 79 17 6 18 78 19 3 20 2 21 1 22 15 23 16 24 17 25
REMARK SMILES IDX 18 26 19 28 20 29 21 30 73 31 22 32 72 33 23 34 24 35 25 36
REMARK SMILES IDX 66 37 26 38 71 39 65 40 67 41 27 42 70 43 64 44 63 45 28 47
REMARK SMILES IDX 54 48 37 49 53 50 38 51 41 52 52 53 68 54 39 55 40 56 51 58
REMARK SMILES IDX 69 59 42 60 29 61 30 62 35 63 31 64 32 65 34 66 36 67 33 68
REMARK SMILES IDX 55 69 56 70 61 71 57 72 58 73 60 74 62 75 59 76 43 77 44 78
REMARK SMILES IDX 49 79 45 80 46 81 48 82 50 83 47 84
REMARK H PARENT 13 5 77 11 17 27 67 46 41 57
REMARK Flexibility Score: inf
ROOT
ATOM      1  C   UNL A   1      33.831  34.276  27.867  1.00  0.00     0.118 C 
ENDROOT
BRANCH   1   2
ATOM      2  N   UNL A   1      33.755  35.701  28.121  1.00  0.00    -0.351 N 
ATOM      3  C   UNL A   1      33.422  36.480  29.181  1.00  0.00     0.270 C 
ATOM      4  O   UNL A   1      33.451  37.696  28.954  1.00  0.00    -0.268 OA
ATOM      5  H   UNL A   1      34.006  36.233  27.331  1.00  0.00     0.163 HD
BRANCH   3   6
ATOM      6  C   UNL A   1      33.073  35.983  30.575  1.00  0.00     0.136 A 
ATOM      7  C   UNL A   1      33.861  34.746  32.352  1.00  0.00     0.141 A 
ATOM      8  N   UNL A   1      34.068  35.230  31.173  1.00  0.00    -0.225 NA
ATOM      9  N   UNL A   1      32.696  34.936  33.040  1.00  0.00    -0.306 N 
ATOM     10  C   UNL A   1      31.689  35.694  32.537  1.00  0.00     0.251 A 
ATOM     11  H   UNL A   1      32.586  34.513  33.923  1.00  0.00     0.171 HD
ATOM     12  C   UNL A   1      31.935  36.286  31.214  1.00  0.00     0.105 A 
ATOM     13  O   UNL A   1      30.640  35.888  33.133  1.00  0.00    -0.269 OA
BRANCH   7  14
ATOM     14  C   UNL A   1      34.912  33.985  33.052  1.00  0.00     0.018 A 
ATOM     15  C   UNL A   1      36.923  32.521  34.293  1.00  0.00     0.119 A 
ATOM     16  C   UNL A   1      36.552  33.762  34.810  1.00  0.00     0.047 A 
ATOM     17  C   UNL A   1      36.259  31.986  33.190  1.00  0.00     0.047 A 
ATOM     18  C   UNL A   1      35.549  34.505  34.184  1.00  0.00     0.016 A 
ATOM     19  C   UNL A   1      35.256  32.721  32.562  1.00  0.00     0.016 A 
BRANCH  15  20
ATOM     20  O   UNL A   1      37.859  31.789  34.968  1.00  0.00    -0.494 OA
BRANCH  20  21
ATOM     21  C   UNL A   1      39.160  32.393  34.949  1.00  0.00     0.226 C 
ATOM     22  C   UNL A   1      39.946  31.995  33.709  1.00  0.00     0.049 C 
ENDBRANCH  20  21
ENDBRANCH  15  20
ENDBRANCH   7  14
ENDBRANCH   3   6
ENDBRANCH   1   2
BRANCH   1  23
ATOM     23  C   UNL A   1      35.215  33.736  28.224  1.00  0.00     0.042 C 
BRANCH  23  24
ATOM     24  C   UNL A   1      35.155  32.596  29.243  1.00  0.00     0.118 C 
BRANCH  24  25
ATOM     25  N   UNL A   1      34.405  31.453  28.732  1.00  0.00    -0.352 N 
ATOM     26  C   UNL A   1      34.840  30.268  28.194  1.00  0.00     0.251 C 
ATOM     27  H   UNL A   1      33.426  31.547  28.782  1.00  0.00     0.163 HD
ATOM     28  O   UNL A   1      34.060  29.573  27.551  1.00  0.00    -0.269 OA
BRANCH  26  29
ATOM     29  C   UNL A   1      36.233  29.823  28.389  1.00  0.00     0.039 A 
ATOM     30  C   UNL A   1      37.141  29.943  27.334  1.00  0.00     0.014 A 
ATOM     31  C   UNL A   1      36.632  29.238  29.594  1.00  0.00     0.014 A 
ATOM     32  C   UNL A   1      38.463  29.529  27.510  1.00  0.00     0.010 A 
ATOM     33  C   UNL A   1      37.967  28.913  29.798  1.00  0.00     0.010 A 
ATOM     34  C   UNL A   1      38.894  29.044  28.755  1.00  0.00    -0.014 A 
BRANCH  34  35
ATOM     35  C   UNL A   1      40.309  28.659  28.986  1.00  0.00     0.031 A 
ATOM     36  C   UNL A   1      41.260  29.632  29.626  1.00  0.00     0.074 A 
ATOM     37  C   UNL A   1      40.747  27.458  28.562  1.00  0.00     0.049 A 
ATOM     38  N   UNL A   1      42.546  29.514  29.838  1.00  0.00    -0.248 NA
ATOM     39  C   UNL A   1      40.699  30.923  30.058  1.00  0.00     0.031 C 
ATOM     40  C   UNL A   1      39.928  26.448  27.887  1.00  0.00     0.029 A 
ATOM     41  N   UNL A   1      41.992  26.886  28.626  1.00  0.00    -0.354 N 
ATOM     42  C   UNL A   1      42.945  30.710  30.419  1.00  0.00     0.074 A 
ATOM     43  C   UNL A   1      41.782  31.569  30.462  1.00  0.00     0.031 C 
ATOM     44  C   UNL A   1      40.687  25.371  27.625  1.00  0.00     0.029 A 
ATOM     45  C   UNL A   1      42.051  25.632  28.069  1.00  0.00     0.049 A 
ATOM     46  H   UNL A   1      42.770  27.333  29.032  1.00  0.00     0.167 HD
ATOM     47  C   UNL A   1      44.163  31.053  30.903  1.00  0.00     0.037 A 
ATOM     48  C   UNL A   1      43.093  24.792  27.925  1.00  0.00     0.037 A 
ATOM     49  C   UNL A   1      45.314  30.190  30.868  1.00  0.00     0.049 A 
ATOM     50  C   UNL A   1      44.443  25.210  28.441  1.00  0.00     0.074 A 
ATOM     51  C   UNL A   1      46.585  30.427  31.361  1.00  0.00     0.029 A 
ATOM     52  N   UNL A   1      45.331  28.923  30.305  1.00  0.00    -0.354 N 
ATOM     53  N   UNL A   1      44.791  26.321  29.044  1.00  0.00    -0.248 NA
ATOM     54  C   UNL A   1      45.544  24.254  28.260  1.00  0.00     0.031 C 
ATOM     55  C   UNL A   1      47.384  29.320  31.054  1.00  0.00     0.029 A 
ATOM     56  C   UNL A   1      46.597  28.371  30.422  1.00  0.00     0.049 A 
ATOM     57  H   UNL A   1      44.559  28.479  29.886  1.00  0.00     0.167 HD
ATOM     58  C   UNL A   1      46.140  26.183  29.346  1.00  0.00     0.074 A 
ATOM     59  C   UNL A   1      46.541  24.874  28.875  1.00  0.00     0.031 C 
ATOM     60  C   UNL A   1      46.973  27.060  29.959  1.00  0.00     0.037 A 
BRANCH  47  61
ATOM     61  C   UNL A   1      44.305  32.415  31.520  1.00  0.00     0.057 A 
ATOM     62  C   UNL A   1      44.696  33.530  30.764  1.00  0.00     0.134 A 
ATOM     63  C   UNL A   1      44.021  32.625  32.875  1.00  0.00     0.134 A 
ATOM     64  F   UNL A   1      44.996  33.398  29.463  1.00  0.00    -0.206 F 
ATOM     65  C   UNL A   1      44.824  34.796  31.339  1.00  0.00     0.040 A 
ATOM     66  C   UNL A   1      44.116  33.893  33.454  1.00  0.00     0.040 A 
ATOM     67  F   UNL A   1      43.635  31.606  33.658  1.00  0.00    -0.206 F 
ATOM     68  C   UNL A   1      44.526  34.981  32.686  1.00  0.00     0.006 A 
ENDBRANCH  47  61
BRANCH  48  69
ATOM     69  C   UNL A   1      42.905  23.467  27.279  1.00  0.00     0.057 A 
ATOM     70  C   UNL A   1      42.466  22.360  28.016  1.00  0.00     0.134 A 
ATOM     71  C   UNL A   1      43.187  23.265  25.923  1.00  0.00     0.134 A 
ATOM     72  F   UNL A   1      42.195  22.484  29.323  1.00  0.00    -0.206 F 
ATOM     73  C   UNL A   1      42.345  21.095  27.436  1.00  0.00     0.040 A 
ATOM     74  C   UNL A   1      43.041  22.013  25.322  1.00  0.00     0.040 A 
ATOM     75  F   UNL A   1      43.601  24.286  25.157  1.00  0.00    -0.206 F 
ATOM     76  C   UNL A   1      42.630  20.921  26.084  1.00  0.00     0.006 A 
ENDBRANCH  48  69
BRANCH  60  77
ATOM     77  C   UNL A   1      48.386  26.612  30.197  1.00  0.00     0.057 A 
ATOM     78  C   UNL A   1      48.751  25.875  31.330  1.00  0.00     0.134 A 
ATOM     79  C   UNL A   1      49.388  26.895  29.260  1.00  0.00     0.134 A 
ATOM     80  F   UNL A   1      47.843  25.582  32.274  1.00  0.00    -0.206 F 
ATOM     81  C   UNL A   1      50.068  25.460  31.537  1.00  0.00     0.040 A 
ATOM     82  C   UNL A   1      50.700  26.458  29.439  1.00  0.00     0.040 A 
ATOM     83  F   UNL A   1      49.104  27.588  28.146  1.00  0.00    -0.206 F 
ATOM     84  C   UNL A   1      51.045  25.746  30.585  1.00  0.00     0.006 A 
ENDBRANCH  60  77
ENDBRANCH  34  35
ENDBRANCH  26  29
ENDBRANCH  24  25
ENDBRANCH  23  24
ENDBRANCH   1  23
TORSDOF 13
ENDMDL
