MODEL 1
REMARK VINA RESULT:     -12.9      0.000      0.000
REMARK SMILES O=C(NCCCNC(=O)[C@H]1Cc2[nH]cnc2CN1C(=O)C[C@]12C[C@H]3C[C@H](C[C@H](C3)C1)C2)c1ccc(-c2c3nc(c(-c4c(F)cccc4F)c4ccc([nH]4)c(-c4c(F)cccc4F)c4nc(c(-c5c(F)cccc5F)c5ccc2[nH]5)C=C4)C=C3)cc1
REMARK SMILES IDX 5 1 4 2 3 3 1 4 2 5 32 7 33 8 85 9 34 10 84 11 35 12 36 13
REMARK SMILES IDX 37 14 78 15 38 16 83 17 77 18 79 19 39 20 82 21 76 22 75 23
REMARK SMILES IDX 40 25 66 26 49 27 65 28 50 29 53 30 64 31 80 32 51 33 52 34
REMARK SMILES IDX 63 36 81 37 54 38 41 39 42 40 47 41 43 42 44 43 46 44 48 45
REMARK SMILES IDX 45 46 67 47 68 48 73 49 69 50 70 51 72 52 74 53 71 54 55 55
REMARK SMILES IDX 56 56 61 57 57 58 58 59 60 60 62 61 59 62 6 63 7 64 8 65
REMARK SMILES IDX 9 67 10 68 11 69 18 70 12 71 17 72 13 73 16 74 14 75 15 77
REMARK SMILES IDX 19 78 20 79 21 80 22 81 23 82 30 83 31 84 24 85 28 86 26 87
REMARK SMILES IDX 25 88 29 89 27 90
REMARK H PARENT 3 6 79 24 53 35 7 66 13 76
REMARK Flexibility Score: inf
ROOT
ATOM      1  C   UNL A   1      34.843  30.572  27.250  1.00  0.00     0.042 C 
ENDROOT
BRANCH   1   2
ATOM      2  C   UNL A   1      34.252  31.772  28.002  1.00  0.00     0.118 C 
BRANCH   2   3
ATOM      3  N   UNL A   1      34.492  31.970  29.422  1.00  0.00    -0.352 N 
ATOM      4  O   UNL A   1      35.343  32.491  31.380  1.00  0.00    -0.269 OA
ATOM      5  C   UNL A   1      35.525  31.882  30.327  1.00  0.00     0.251 C 
ATOM      6  H   UNL A   1      33.664  32.252  29.874  1.00  0.00     0.163 HD
BRANCH   5   7
ATOM      7  C   UNL A   1      36.774  31.076  30.209  1.00  0.00     0.039 A 
ATOM      8  C   UNL A   1      38.057  31.579  30.038  1.00  0.00     0.014 A 
ATOM      9  C   UNL A   1      36.614  29.668  30.279  1.00  0.00     0.014 A 
ATOM     10  C   UNL A   1      39.141  30.694  29.911  1.00  0.00     0.010 A 
ATOM     11  C   UNL A   1      37.693  28.786  30.164  1.00  0.00     0.010 A 
ATOM     12  C   UNL A   1      38.967  29.295  29.966  1.00  0.00    -0.014 A 
BRANCH  12  13
ATOM     13  C   UNL A   1      40.165  28.439  30.035  1.00  0.00     0.031 A 
ATOM     14  C   UNL A   1      40.772  28.372  31.402  1.00  0.00     0.074 A 
ATOM     15  C   UNL A   1      40.661  27.631  29.069  1.00  0.00     0.049 A 
ATOM     16  N   UNL A   1      41.918  28.830  31.789  1.00  0.00    -0.248 NA
ATOM     17  C   UNL A   1      39.946  27.833  32.494  1.00  0.00     0.031 C 
ATOM     18  C   UNL A   1      40.069  27.262  27.781  1.00  0.00     0.029 A 
ATOM     19  N   UNL A   1      41.823  26.904  29.083  1.00  0.00    -0.354 N 
ATOM     20  C   UNL A   1      42.033  28.504  33.141  1.00  0.00     0.074 A 
ATOM     21  C   UNL A   1      40.745  28.008  33.549  1.00  0.00     0.031 C 
ATOM     22  C   UNL A   1      40.773  26.240  27.236  1.00  0.00     0.029 A 
ATOM     23  C   UNL A   1      41.945  25.974  28.056  1.00  0.00     0.049 A 
ATOM     24  H   UNL A   1      42.517  27.030  29.769  1.00  0.00     0.167 HD
ATOM     25  C   UNL A   1      43.236  28.507  33.783  1.00  0.00     0.037 A 
ATOM     26  C   UNL A   1      42.919  25.036  27.909  1.00  0.00     0.037 A 
ATOM     27  C   UNL A   1      44.226  29.236  33.037  1.00  0.00     0.049 A 
ATOM     28  C   UNL A   1      44.080  25.457  28.731  1.00  0.00     0.074 A 
ATOM     29  C   UNL A   1      44.368  30.545  32.620  1.00  0.00     0.029 A 
ATOM     30  N   UNL A   1      45.137  28.514  32.308  1.00  0.00    -0.354 N 
ATOM     31  N   UNL A   1      44.829  26.488  28.467  1.00  0.00    -0.248 NA
ATOM     32  C   UNL A   1      44.150  24.963  30.096  1.00  0.00     0.031 C 
ATOM     33  C   UNL A   1      44.972  30.452  31.331  1.00  0.00     0.029 A 
ATOM     34  C   UNL A   1      45.210  29.102  31.074  1.00  0.00     0.049 A 
ATOM     35  H   UNL A   1      45.640  27.725  32.613  1.00  0.00     0.167 HD
ATOM     36  C   UNL A   1      45.122  27.035  29.706  1.00  0.00     0.074 A 
ATOM     37  C   UNL A   1      44.747  26.007  30.674  1.00  0.00     0.031 C 
ATOM     38  C   UNL A   1      45.380  28.366  29.845  1.00  0.00     0.037 A 
BRANCH  25  39
ATOM     39  C   UNL A   1      43.625  27.575  34.906  1.00  0.00     0.057 A 
ATOM     40  C   UNL A   1      43.575  26.183  34.695  1.00  0.00     0.134 A 
ATOM     41  C   UNL A   1      43.738  27.969  36.253  1.00  0.00     0.134 A 
ATOM     42  F   UNL A   1      43.467  25.676  33.456  1.00  0.00    -0.206 F 
ATOM     43  C   UNL A   1      43.540  25.261  35.748  1.00  0.00     0.040 A 
ATOM     44  C   UNL A   1      43.754  27.055  37.311  1.00  0.00     0.040 A 
ATOM     45  F   UNL A   1      43.736  29.254  36.626  1.00  0.00    -0.206 F 
ATOM     46  C   UNL A   1      43.617  25.698  37.063  1.00  0.00     0.006 A 
ENDBRANCH  25  39
BRANCH  26  47
ATOM     47  C   UNL A   1      42.833  23.660  27.359  1.00  0.00     0.057 A 
ATOM     48  C   UNL A   1      42.227  22.614  28.076  1.00  0.00     0.134 A 
ATOM     49  C   UNL A   1      43.065  23.413  25.996  1.00  0.00     0.134 A 
ATOM     50  F   UNL A   1      41.920  22.765  29.373  1.00  0.00    -0.206 F 
ATOM     51  C   UNL A   1      41.855  21.405  27.468  1.00  0.00     0.040 A 
ATOM     52  C   UNL A   1      42.700  22.210  25.377  1.00  0.00     0.040 A 
ATOM     53  F   UNL A   1      43.565  24.368  25.200  1.00  0.00    -0.206 F 
ATOM     54  C   UNL A   1      42.080  21.206  26.110  1.00  0.00     0.006 A 
ENDBRANCH  26  47
BRANCH  38  55
ATOM     55  C   UNL A   1      45.601  29.183  28.605  1.00  0.00     0.057 A 
ATOM     56  C   UNL A   1      44.578  29.838  27.904  1.00  0.00     0.134 A 
ATOM     57  C   UNL A   1      46.917  29.464  28.221  1.00  0.00     0.134 A 
ATOM     58  F   UNL A   1      43.294  29.703  28.259  1.00  0.00    -0.206 F 
ATOM     59  C   UNL A   1      44.856  30.715  26.851  1.00  0.00     0.040 A 
ATOM     60  C   UNL A   1      47.208  30.363  27.193  1.00  0.00     0.040 A 
ATOM     61  F   UNL A   1      47.946  28.911  28.883  1.00  0.00    -0.206 F 
ATOM     62  C   UNL A   1      46.176  30.989  26.501  1.00  0.00     0.006 A 
ENDBRANCH  38  55
ENDBRANCH  12  13
ENDBRANCH   5   7
ENDBRANCH   2   3
ENDBRANCH   1   2
BRANCH   1  63
ATOM     63  C   UNL A   1      34.119  29.236  26.962  1.00  0.00     0.117 C 
BRANCH  63  64
ATOM     64  N   UNL A   1      32.884  28.824  27.625  1.00  0.00    -0.354 N 
ATOM     65  C   UNL A   1      31.857  27.975  27.230  1.00  0.00     0.243 C 
ATOM     66  H   UNL A   1      32.755  29.223  28.516  1.00  0.00     0.163 HD
ATOM     67  O   UNL A   1      30.950  27.828  28.061  1.00  0.00    -0.273 OA
BRANCH  65  68
ATOM     68  C   UNL A   1      31.737  27.241  25.816  1.00  0.00     0.180 C 
ATOM     69  C   UNL A   1      32.853  27.625  24.795  1.00  0.00     0.091 C 
ATOM     70  N   UNL A   1      31.218  25.784  25.616  1.00  0.00    -0.324 N 
ATOM     71  C   UNL A   1      32.748  26.869  23.538  1.00  0.00     0.042 A 
ATOM     72  C   UNL A   1      30.767  25.473  24.222  1.00  0.00     0.178 C 
ATOM     73  N   UNL A   1      33.605  26.900  22.477  1.00  0.00    -0.348 N 
ATOM     74  C   UNL A   1      31.840  25.880  23.270  1.00  0.00     0.081 A 
ATOM     75  C   UNL A   1      33.188  25.926  21.612  1.00  0.00     0.197 A 
ATOM     76  H   UNL A   1      34.374  27.504  22.359  1.00  0.00     0.167 HD
ATOM     77  N   UNL A   1      32.110  25.309  22.053  1.00  0.00    -0.240 NA
BRANCH  70  78
ATOM     78  C   UNL A   1      31.263  24.659  26.442  1.00  0.00     0.224 C 
ATOM     79  O   UNL A   1      30.238  24.033  26.742  1.00  0.00    -0.275 OA
BRANCH  78  80
ATOM     80  C   UNL A   1      32.550  24.157  27.061  1.00  0.00     0.107 C 
BRANCH  80  81
ATOM     81  C   UNL A   1      33.526  23.428  26.114  1.00  0.00    -0.020 C 
ATOM     82  C   UNL A   1      34.296  22.385  26.964  1.00  0.00     0.011 C 
ATOM     83  C   UNL A   1      34.498  24.419  25.460  1.00  0.00     0.011 C 
ATOM     84  C   UNL A   1      32.853  22.655  24.948  1.00  0.00     0.011 C 
ATOM     85  C   UNL A   1      35.367  21.685  26.124  1.00  0.00    -0.010 C 
ATOM     86  C   UNL A   1      35.577  23.727  24.646  1.00  0.00    -0.010 C 
ATOM     87  C   UNL A   1      33.928  21.936  24.083  1.00  0.00    -0.010 C 
ATOM     88  C   UNL A   1      34.713  20.942  24.959  1.00  0.00     0.007 C 
ATOM     89  C   UNL A   1      36.310  22.743  25.552  1.00  0.00     0.007 C 
ATOM     90  C   UNL A   1      34.915  22.967  23.504  1.00  0.00     0.007 C 
ENDBRANCH  80  81
ENDBRANCH  78  80
ENDBRANCH  70  78
ENDBRANCH  65  68
ENDBRANCH  63  64
ENDBRANCH   1  63
TORSDOF 13
ENDMDL
MODEL 2
REMARK VINA RESULT:     -12.9      1.499      2.241
REMARK SMILES O=C(NCCCNC(=O)[C@H]1Cc2[nH]cnc2CN1C(=O)C[C@]12C[C@H]3C[C@H](C[C@H](C3)C1)C2)c1ccc(-c2c3nc(c(-c4c(F)cccc4F)c4ccc([nH]4)c(-c4c(F)cccc4F)c4nc(c(-c5c(F)cccc5F)c5ccc2[nH]5)C=C4)C=C3)cc1
REMARK SMILES IDX 5 1 4 2 3 3 1 4 2 5 32 7 33 8 85 9 34 10 84 11 35 12 36 13
REMARK SMILES IDX 37 14 78 15 38 16 83 17 77 18 79 19 39 20 82 21 76 22 75 23
REMARK SMILES IDX 40 25 66 26 49 27 65 28 50 29 53 30 64 31 80 32 51 33 52 34
REMARK SMILES IDX 63 36 81 37 54 38 41 39 42 40 47 41 43 42 44 43 46 44 48 45
REMARK SMILES IDX 45 46 67 47 68 48 73 49 69 50 70 51 72 52 74 53 71 54 55 55
REMARK SMILES IDX 56 56 61 57 57 58 58 59 60 60 62 61 59 62 6 63 7 64 8 65
REMARK SMILES IDX 9 67 10 68 11 69 18 70 12 71 17 72 13 73 16 74 14 75 15 77
REMARK SMILES IDX 19 78 20 79 21 80 22 81 23 82 30 83 31 84 24 85 28 86 26 87
REMARK SMILES IDX 25 88 29 89 27 90
REMARK H PARENT 3 6 79 24 53 35 7 66 13 76
REMARK Flexibility Score: inf
ROOT
ATOM      1  C   UNL A   1      34.624  31.443  27.726  1.00  0.00     0.042 C 
ENDROOT
BRANCH   1   2
ATOM      2  C   UNL A   1      34.090  32.507  28.696  1.00  0.00     0.118 C 
BRANCH   2   3
ATOM      3  N   UNL A   1      34.348  32.427  30.124  1.00  0.00    -0.352 N 
ATOM      4  O   UNL A   1      35.221  32.567  32.136  1.00  0.00    -0.269 OA
ATOM      5  C   UNL A   1      35.394  32.176  30.982  1.00  0.00     0.251 C 
ATOM      6  H   UNL A   1      33.524  32.609  30.632  1.00  0.00     0.163 HD
BRANCH   5   7
ATOM      7  C   UNL A   1      36.646  31.420  30.696  1.00  0.00     0.039 A 
ATOM      8  C   UNL A   1      37.913  31.967  30.544  1.00  0.00     0.014 A 
ATOM      9  C   UNL A   1      36.508  30.013  30.570  1.00  0.00     0.014 A 
ATOM     10  C   UNL A   1      39.002  31.132  30.244  1.00  0.00     0.010 A 
ATOM     11  C   UNL A   1      37.593  29.178  30.282  1.00  0.00     0.010 A 
ATOM     12  C   UNL A   1      38.850  29.736  30.105  1.00  0.00    -0.014 A 
BRANCH  12  13
ATOM     13  C   UNL A   1      40.061  28.902  29.998  1.00  0.00     0.031 A 
ATOM     14  C   UNL A   1      40.764  28.703  31.305  1.00  0.00     0.074 A 
ATOM     15  C   UNL A   1      40.498  28.213  28.919  1.00  0.00     0.049 A 
ATOM     16  N   UNL A   1      41.929  29.141  31.659  1.00  0.00    -0.248 NA
ATOM     17  C   UNL A   1      40.025  28.033  32.386  1.00  0.00     0.031 C 
ATOM     18  C   UNL A   1      39.821  27.971  27.642  1.00  0.00     0.029 A 
ATOM     19  N   UNL A   1      41.667  27.513  28.774  1.00  0.00    -0.354 N 
ATOM     20  C   UNL A   1      42.144  28.674  32.957  1.00  0.00     0.074 A 
ATOM     21  C   UNL A   1      40.895  28.111  33.396  1.00  0.00     0.031 C 
ATOM     22  C   UNL A   1      40.498  27.027  26.943  1.00  0.00     0.029 A 
ATOM     23  C   UNL A   1      41.729  26.700  27.646  1.00  0.00     0.049 A 
ATOM     24  H   UNL A   1      42.407  27.579  29.419  1.00  0.00     0.167 HD
ATOM     25  C   UNL A   1      43.389  28.635  33.510  1.00  0.00     0.037 A 
ATOM     26  C   UNL A   1      42.703  25.804  27.332  1.00  0.00     0.037 A 
ATOM     27  C   UNL A   1      44.314  29.459  32.781  1.00  0.00     0.049 A 
ATOM     28  C   UNL A   1      43.913  26.159  28.112  1.00  0.00     0.074 A 
ATOM     29  C   UNL A   1      44.408  30.808  32.498  1.00  0.00     0.029 A 
ATOM     30  N   UNL A   1      45.180  28.838  31.917  1.00  0.00    -0.354 N 
ATOM     31  N   UNL A   1      44.628  27.228  27.910  1.00  0.00    -0.248 NA
ATOM     32  C   UNL A   1      44.086  25.524  29.408  1.00  0.00     0.031 C 
ATOM     33  C   UNL A   1      44.920  30.866  31.169  1.00  0.00     0.029 A 
ATOM     34  C   UNL A   1      45.157  29.556  30.751  1.00  0.00     0.049 A 
ATOM     35  H   UNL A   1      45.714  28.033  32.099  1.00  0.00     0.167 HD
ATOM     36  C   UNL A   1      45.000  27.645  29.177  1.00  0.00     0.074 A 
ATOM     37  C   UNL A   1      44.709  26.512  30.052  1.00  0.00     0.031 C 
ATOM     38  C   UNL A   1      45.249  28.959  29.441  1.00  0.00     0.037 A 
BRANCH  25  39
ATOM     39  C   UNL A   1      43.870  27.596  34.497  1.00  0.00     0.057 A 
ATOM     40  C   UNL A   1      44.419  28.015  35.725  1.00  0.00     0.134 A 
ATOM     41  C   UNL A   1      44.104  26.248  34.169  1.00  0.00     0.134 A 
ATOM     42  F   UNL A   1      44.268  29.278  36.154  1.00  0.00    -0.206 F 
ATOM     43  C   UNL A   1      45.221  27.183  36.515  1.00  0.00     0.040 A 
ATOM     44  C   UNL A   1      44.862  25.393  34.975  1.00  0.00     0.040 A 
ATOM     45  F   UNL A   1      43.702  25.712  33.010  1.00  0.00    -0.206 F 
ATOM     46  C   UNL A   1      45.455  25.869  36.134  1.00  0.00     0.006 A 
ENDBRANCH  25  39
BRANCH  26  47
ATOM     47  C   UNL A   1      42.595  24.493  26.644  1.00  0.00     0.057 A 
ATOM     48  C   UNL A   1      43.310  24.214  25.466  1.00  0.00     0.134 A 
ATOM     49  C   UNL A   1      42.031  23.383  27.294  1.00  0.00     0.134 A 
ATOM     50  F   UNL A   1      43.926  25.198  24.795  1.00  0.00    -0.206 F 
ATOM     51  C   UNL A   1      43.472  22.908  24.979  1.00  0.00     0.040 A 
ATOM     52  C   UNL A   1      42.184  22.075  26.818  1.00  0.00     0.040 A 
ATOM     53  F   UNL A   1      41.396  23.522  28.466  1.00  0.00    -0.206 F 
ATOM     54  C   UNL A   1      42.919  21.831  25.664  1.00  0.00     0.006 A 
ENDBRANCH  26  47
BRANCH  38  55
ATOM     55  C   UNL A   1      45.371  29.908  28.284  1.00  0.00     0.057 A 
ATOM     56  C   UNL A   1      44.286  30.583  27.705  1.00  0.00     0.134 A 
ATOM     57  C   UNL A   1      46.652  30.289  27.869  1.00  0.00     0.134 A 
ATOM     58  F   UNL A   1      43.029  30.352  28.105  1.00  0.00    -0.206 F 
ATOM     59  C   UNL A   1      44.472  31.575  26.737  1.00  0.00     0.040 A 
ATOM     60  C   UNL A   1      46.851  31.300  26.929  1.00  0.00     0.040 A 
ATOM     61  F   UNL A   1      47.737  29.720  28.420  1.00  0.00    -0.206 F 
ATOM     62  C   UNL A   1      45.759  31.945  26.356  1.00  0.00     0.006 A 
ENDBRANCH  38  55
ENDBRANCH  12  13
ENDBRANCH   5   7
ENDBRANCH   2   3
ENDBRANCH   1   2
BRANCH   1  63
ATOM     63  C   UNL A   1      33.778  30.364  27.008  1.00  0.00     0.117 C 
BRANCH  63  64
ATOM     64  N   UNL A   1      32.990  29.353  27.709  1.00  0.00    -0.354 N 
ATOM     65  C   UNL A   1      32.014  28.468  27.269  1.00  0.00     0.243 C 
ATOM     66  H   UNL A   1      33.188  29.287  28.672  1.00  0.00     0.163 HD
ATOM     67  O   UNL A   1      31.557  27.716  28.142  1.00  0.00    -0.273 OA
BRANCH  65  68
ATOM     68  C   UNL A   1      31.421  28.384  25.788  1.00  0.00     0.180 C 
ATOM     69  C   UNL A   1      30.888  29.741  25.231  1.00  0.00     0.091 C 
ATOM     70  N   UNL A   1      31.969  27.450  24.666  1.00  0.00    -0.324 N 
ATOM     71  C   UNL A   1      30.424  29.633  23.839  1.00  0.00     0.042 A 
ATOM     72  C   UNL A   1      31.010  27.202  23.543  1.00  0.00     0.178 C 
ATOM     73  N   UNL A   1      29.981  30.639  23.032  1.00  0.00    -0.348 N 
ATOM     74  C   UNL A   1      30.496  28.514  23.055  1.00  0.00     0.081 A 
ATOM     75  C   UNL A   1      29.808  30.093  21.790  1.00  0.00     0.197 A 
ATOM     76  H   UNL A   1      29.819  31.575  23.292  1.00  0.00     0.167 HD
ATOM     77  N   UNL A   1      30.089  28.805  21.778  1.00  0.00    -0.240 NA
BRANCH  70  78
ATOM     78  C   UNL A   1      33.247  26.947  24.418  1.00  0.00     0.224 C 
ATOM     79  O   UNL A   1      33.824  27.144  23.339  1.00  0.00    -0.275 OA
BRANCH  78  80
ATOM     80  C   UNL A   1      33.995  26.095  25.421  1.00  0.00     0.107 C 
BRANCH  80  81
ATOM     81  C   UNL A   1      33.433  24.680  25.669  1.00  0.00    -0.020 C 
ATOM     82  C   UNL A   1      34.578  23.832  26.281  1.00  0.00     0.011 C 
ATOM     83  C   UNL A   1      32.934  24.052  24.361  1.00  0.00     0.011 C 
ATOM     84  C   UNL A   1      32.240  24.612  26.660  1.00  0.00     0.011 C 
ATOM     85  C   UNL A   1      34.141  22.377  26.461  1.00  0.00    -0.010 C 
ATOM     86  C   UNL A   1      32.522  22.600  24.530  1.00  0.00    -0.010 C 
ATOM     87  C   UNL A   1      31.781  23.138  26.855  1.00  0.00    -0.010 C 
ATOM     88  C   UNL A   1      32.949  22.305  27.417  1.00  0.00     0.007 C 
ATOM     89  C   UNL A   1      33.704  21.825  25.104  1.00  0.00     0.007 C 
ATOM     90  C   UNL A   1      31.352  22.535  25.504  1.00  0.00     0.007 C 
ENDBRANCH  80  81
ENDBRANCH  78  80
ENDBRANCH  70  78
ENDBRANCH  65  68
ENDBRANCH  63  64
ENDBRANCH   1  63
TORSDOF 13
ENDMDL
MODEL 3
REMARK VINA RESULT:     -12.8      3.195      8.008
REMARK SMILES O=C(NCCCNC(=O)[C@H]1Cc2[nH]cnc2CN1C(=O)C[C@]12C[C@H]3C[C@H](C[C@H](C3)C1)C2)c1ccc(-c2c3nc(c(-c4c(F)cccc4F)c4ccc([nH]4)c(-c4c(F)cccc4F)c4nc(c(-c5c(F)cccc5F)c5ccc2[nH]5)C=C4)C=C3)cc1
REMARK SMILES IDX 5 1 4 2 3 3 1 4 2 5 32 7 33 8 85 9 34 10 84 11 35 12 36 13
REMARK SMILES IDX 37 14 78 15 38 16 83 17 77 18 79 19 39 20 82 21 76 22 75 23
REMARK SMILES IDX 40 25 66 26 49 27 65 28 50 29 53 30 64 31 80 32 51 33 52 34
REMARK SMILES IDX 63 36 81 37 54 38 41 39 42 40 47 41 43 42 44 43 46 44 48 45
REMARK SMILES IDX 45 46 67 47 68 48 73 49 69 50 70 51 72 52 74 53 71 54 55 55
REMARK SMILES IDX 56 56 61 57 57 58 58 59 60 60 62 61 59 62 6 63 7 64 8 65
REMARK SMILES IDX 9 67 10 68 11 69 18 70 12 71 17 72 13 73 16 74 14 75 15 77
REMARK SMILES IDX 19 78 20 79 21 80 22 81 23 82 30 83 31 84 24 85 28 86 26 87
REMARK SMILES IDX 25 88 29 89 27 90
REMARK H PARENT 3 6 79 24 53 35 7 66 13 76
REMARK Flexibility Score: inf
ROOT
ATOM      1  C   UNL A   1      38.073  23.336  26.270  1.00  0.00     0.042 C 
ENDROOT
BRANCH   1   2
ATOM      2  C   UNL A   1      38.954  22.107  26.006  1.00  0.00     0.118 C 
BRANCH   2   3
ATOM      3  N   UNL A   1      40.399  22.221  25.896  1.00  0.00    -0.352 N 
ATOM      4  O   UNL A   1      42.541  22.525  26.280  1.00  0.00    -0.269 OA
ATOM      5  C   UNL A   1      41.420  23.024  26.351  1.00  0.00     0.251 C 
ATOM      6  H   UNL A   1      40.756  21.506  25.320  1.00  0.00     0.163 HD
BRANCH   5   7
ATOM      7  C   UNL A   1      41.327  24.434  26.828  1.00  0.00     0.039 A 
ATOM      8  C   UNL A   1      40.779  25.498  26.125  1.00  0.00     0.014 A 
ATOM      9  C   UNL A   1      41.856  24.689  28.119  1.00  0.00     0.014 A 
ATOM     10  C   UNL A   1      40.788  26.784  26.690  1.00  0.00     0.010 A 
ATOM     11  C   UNL A   1      41.857  25.967  28.688  1.00  0.00     0.010 A 
ATOM     12  C   UNL A   1      41.332  27.030  27.969  1.00  0.00    -0.014 A 
BRANCH  12  13
ATOM     13  C   UNL A   1      41.122  28.354  28.582  1.00  0.00     0.031 A 
ATOM     14  C   UNL A   1      42.201  29.339  28.257  1.00  0.00     0.074 A 
ATOM     15  C   UNL A   1      40.031  28.790  29.254  1.00  0.00     0.049 A 
ATOM     16  N   UNL A   1      43.067  29.866  29.060  1.00  0.00    -0.248 NA
ATOM     17  C   UNL A   1      42.410  29.686  26.842  1.00  0.00     0.031 C 
ATOM     18  C   UNL A   1      38.725  28.146  29.411  1.00  0.00     0.029 A 
ATOM     19  N   UNL A   1      39.857  29.980  29.910  1.00  0.00    -0.354 N 
ATOM     20  C   UNL A   1      43.841  30.733  28.286  1.00  0.00     0.074 A 
ATOM     21  C   UNL A   1      43.477  30.486  26.916  1.00  0.00     0.031 C 
ATOM     22  C   UNL A   1      37.844  29.031  29.939  1.00  0.00     0.029 A 
ATOM     23  C   UNL A   1      38.547  30.254  30.293  1.00  0.00     0.049 A 
ATOM     24  H   UNL A   1      40.602  30.596  30.096  1.00  0.00     0.167 HD
ATOM     25  C   UNL A   1      44.603  31.714  28.848  1.00  0.00     0.037 A 
ATOM     26  C   UNL A   1      38.074  31.410  30.830  1.00  0.00     0.037 A 
ATOM     27  C   UNL A   1      44.805  31.482  30.252  1.00  0.00     0.049 A 
ATOM     28  C   UNL A   1      39.228  32.156  31.388  1.00  0.00     0.074 A 
ATOM     29  C   UNL A   1      45.406  30.490  31.003  1.00  0.00     0.029 A 
ATOM     30  N   UNL A   1      44.044  32.205  31.136  1.00  0.00    -0.354 N 
ATOM     31  N   UNL A   1      39.909  31.779  32.431  1.00  0.00    -0.248 NA
ATOM     32  C   UNL A   1      39.888  33.117  30.520  1.00  0.00     0.031 C 
ATOM     33  C   UNL A   1      44.585  30.362  32.161  1.00  0.00     0.029 A 
ATOM     34  C   UNL A   1      43.574  31.319  32.068  1.00  0.00     0.049 A 
ATOM     35  H   UNL A   1      43.869  33.172  31.105  1.00  0.00     0.167 HD
ATOM     36  C   UNL A   1      41.221  32.103  32.128  1.00  0.00     0.074 A 
ATOM     37  C   UNL A   1      41.137  32.999  30.977  1.00  0.00     0.031 C 
ATOM     38  C   UNL A   1      42.261  31.402  32.661  1.00  0.00     0.037 A 
BRANCH  25  39
ATOM     39  C   UNL A   1      44.885  33.061  28.224  1.00  0.00     0.057 A 
ATOM     40  C   UNL A   1      43.826  33.976  28.053  1.00  0.00     0.134 A 
ATOM     41  C   UNL A   1      46.059  33.368  27.511  1.00  0.00     0.134 A 
ATOM     42  F   UNL A   1      42.652  33.797  28.677  1.00  0.00    -0.206 F 
ATOM     43  C   UNL A   1      43.900  35.055  27.165  1.00  0.00     0.040 A 
ATOM     44  C   UNL A   1      46.160  34.472  26.659  1.00  0.00     0.040 A 
ATOM     45  F   UNL A   1      47.131  32.568  27.518  1.00  0.00    -0.206 F 
ATOM     46  C   UNL A   1      45.067  35.299  26.454  1.00  0.00     0.006 A 
ENDBRANCH  25  39
BRANCH  26  47
ATOM     47  C   UNL A   1      36.757  32.068  30.645  1.00  0.00     0.057 A 
ATOM     48  C   UNL A   1      35.857  32.238  31.712  1.00  0.00     0.134 A 
ATOM     49  C   UNL A   1      36.483  32.819  29.490  1.00  0.00     0.134 A 
ATOM     50  F   UNL A   1      36.054  31.602  32.876  1.00  0.00    -0.206 F 
ATOM     51  C   UNL A   1      34.766  33.118  31.641  1.00  0.00     0.040 A 
ATOM     52  C   UNL A   1      35.396  33.699  29.405  1.00  0.00     0.040 A 
ATOM     53  F   UNL A   1      37.317  32.796  28.441  1.00  0.00    -0.206 F 
ATOM     54  C   UNL A   1      34.541  33.862  30.487  1.00  0.00     0.006 A 
ENDBRANCH  26  47
BRANCH  38  55
ATOM     55  C   UNL A   1      41.975  30.445  33.782  1.00  0.00     0.057 A 
ATOM     56  C   UNL A   1      41.630  29.099  33.596  1.00  0.00     0.134 A 
ATOM     57  C   UNL A   1      42.243  30.858  35.092  1.00  0.00     0.134 A 
ATOM     58  F   UNL A   1      41.446  28.591  32.370  1.00  0.00    -0.206 F 
ATOM     59  C   UNL A   1      41.531  28.211  34.671  1.00  0.00     0.040 A 
ATOM     60  C   UNL A   1      42.180  29.973  36.170  1.00  0.00     0.040 A 
ATOM     61  F   UNL A   1      42.630  32.120  35.337  1.00  0.00    -0.206 F 
ATOM     62  C   UNL A   1      41.819  28.646  35.963  1.00  0.00     0.006 A 
ENDBRANCH  38  55
ENDBRANCH  12  13
ENDBRANCH   5   7
ENDBRANCH   2   3
ENDBRANCH   1   2
BRANCH   1  63
ATOM     63  C   UNL A   1      36.563  23.453  25.954  1.00  0.00     0.117 C 
BRANCH  63  64
ATOM     64  N   UNL A   1      36.036  23.887  24.662  1.00  0.00    -0.354 N 
ATOM     65  C   UNL A   1      34.978  23.425  23.888  1.00  0.00     0.243 C 
ATOM     66  H   UNL A   1      36.522  24.646  24.265  1.00  0.00     0.163 HD
ATOM     67  O   UNL A   1      34.789  24.047  22.834  1.00  0.00    -0.273 OA
BRANCH  65  68
ATOM     68  C   UNL A   1      34.053  22.165  24.220  1.00  0.00     0.180 C 
ATOM     69  C   UNL A   1      34.810  20.801  24.251  1.00  0.00     0.091 C 
ATOM     70  N   UNL A   1      32.831  22.194  25.188  1.00  0.00    -0.324 N 
ATOM     71  C   UNL A   1      33.936  19.682  24.635  1.00  0.00     0.042 A 
ATOM     72  C   UNL A   1      31.864  21.066  25.000  1.00  0.00     0.178 C 
ATOM     73  N   UNL A   1      34.294  18.382  24.839  1.00  0.00    -0.348 N 
ATOM     74  C   UNL A   1      32.621  19.781  25.002  1.00  0.00     0.081 A 
ATOM     75  C   UNL A   1      33.186  17.745  25.327  1.00  0.00     0.197 A 
ATOM     76  H   UNL A   1      35.177  17.980  24.669  1.00  0.00     0.167 HD
ATOM     77  N   UNL A   1      32.153  18.560  25.415  1.00  0.00    -0.240 NA
BRANCH  70  78
ATOM     78  C   UNL A   1      32.559  22.966  26.318  1.00  0.00     0.224 C 
ATOM     79  O   UNL A   1      33.186  22.814  27.375  1.00  0.00    -0.275 OA
BRANCH  78  80
ATOM     80  C   UNL A   1      31.458  24.005  26.347  1.00  0.00     0.107 C 
BRANCH  80  81
ATOM     81  C   UNL A   1      31.824  25.404  25.809  1.00  0.00    -0.020 C 
ATOM     82  C   UNL A   1      31.588  25.382  24.277  1.00  0.00     0.011 C 
ATOM     83  C   UNL A   1      33.284  25.749  26.128  1.00  0.00     0.011 C 
ATOM     84  C   UNL A   1      30.973  26.570  26.381  1.00  0.00     0.011 C 
ATOM     85  C   UNL A   1      32.029  26.701  23.640  1.00  0.00    -0.010 C 
ATOM     86  C   UNL A   1      33.733  27.046  25.478  1.00  0.00    -0.010 C 
ATOM     87  C   UNL A   1      31.407  27.921  25.744  1.00  0.00    -0.010 C 
ATOM     88  C   UNL A   1      31.212  27.858  24.218  1.00  0.00     0.007 C 
ATOM     89  C   UNL A   1      33.502  26.938  23.974  1.00  0.00     0.007 C 
ATOM     90  C   UNL A   1      32.896  28.189  26.038  1.00  0.00     0.007 C 
ENDBRANCH  80  81
ENDBRANCH  78  80
ENDBRANCH  70  78
ENDBRANCH  65  68
ENDBRANCH  63  64
ENDBRANCH   1  63
TORSDOF 13
ENDMDL
