MODEL 1
REMARK VINA RESULT:     -12.2      0.000      0.000
REMARK SMILES CC(C)(C)OC(=O)N1CCC2(CC1)CNc1ccc(C(=O)NCCCNC(=O)c3ccc(-c4c5nc(c(-c6c(F)cccc6F)c6ccc([nH]6)c(-c6c(F)cccc6F)c6nc(c(-c7c(F)cccc7F)c7ccc4[nH]7)C=C6)C=C5)cc3)cc12
REMARK SMILES IDX 24 1 23 2 22 3 20 4 21 5 19 7 6 8 7 9 8 10 9 11 13 12 10 13
REMARK SMILES IDX 12 14 11 15 14 16 84 17 15 18 16 19 83 20 17 22 18 23 5 24
REMARK SMILES IDX 2 25 1 26 3 27 4 28 25 29 26 30 27 31 28 33 29 34 30 35
REMARK SMILES IDX 82 36 31 37 81 38 32 39 33 40 34 41 75 42 35 43 80 44 74 45
REMARK SMILES IDX 76 46 36 47 79 48 73 49 72 50 37 52 63 53 46 54 62 55 47 56
REMARK SMILES IDX 50 57 61 58 77 59 48 60 49 61 60 63 78 64 51 65 38 66 39 67
REMARK SMILES IDX 44 68 40 69 41 70 43 71 45 72 42 73 64 74 65 75 70 76 66 77
REMARK SMILES IDX 67 78 69 79 71 80 68 81 52 82 53 83 58 84 54 85 55 86 57 87
REMARK SMILES IDX 59 88 56 89
REMARK H PARENT 22 6 15 21 26 32 76 51 50 62
REMARK Flexibility Score: inf
ROOT
ATOM      1  C   UNL A   1      37.993  20.142  24.933  1.00  0.00     0.042 C 
ENDROOT
BRANCH   1   2
ATOM      2  C   UNL A   1      37.005  21.304  24.861  1.00  0.00     0.118 C 
BRANCH   2   3
ATOM      3  N   UNL A   1      36.272  21.442  26.106  1.00  0.00    -0.352 N 
ATOM      4  C   UNL A   1      34.953  21.668  26.404  1.00  0.00     0.251 C 
ATOM      5  O   UNL A   1      34.658  21.701  27.601  1.00  0.00    -0.269 OA
ATOM      6  H   UNL A   1      36.842  21.356  26.905  1.00  0.00     0.163 HD
BRANCH   4   7
ATOM      7  C   UNL A   1      33.870  21.831  25.390  1.00  0.00     0.040 A 
ATOM      8  C   UNL A   1      31.788  28.829  24.409  1.00  0.00     0.410 C 
ATOM      9  O   UNL A   1      32.310  29.601  23.620  1.00  0.00    -0.224 OA
ATOM     10  N   UNL A   1      31.425  27.536  24.077  1.00  0.00    -0.308 N 
ATOM     11  C   UNL A   1      31.975  26.935  22.875  1.00  0.00     0.124 C 
ATOM     12  C   UNL A   1      30.475  26.732  24.838  1.00  0.00     0.124 C 
ATOM     13  C   UNL A   1      32.638  25.603  23.223  1.00  0.00     0.035 C 
ATOM     14  C   UNL A   1      31.049  25.359  25.176  1.00  0.00     0.035 C 
ATOM     15  C   UNL A   1      31.653  24.656  23.942  1.00  0.00     0.018 C 
ATOM     16  C   UNL A   1      30.556  24.145  22.942  1.00  0.00     0.124 C 
ATOM     17  C   UNL A   1      32.330  23.358  24.316  1.00  0.00    -0.016 A 
ATOM     18  N   UNL A   1      30.707  22.701  22.810  1.00  0.00    -0.384 N 
ATOM     19  C   UNL A   1      31.796  22.315  23.569  1.00  0.00     0.038 A 
ATOM     20  C   UNL A   1      33.354  23.131  25.230  1.00  0.00     0.020 A 
ATOM     21  H   UNL A   1      30.134  22.106  22.274  1.00  0.00     0.160 HD
ATOM     22  C   UNL A   1      32.299  21.037  23.692  1.00  0.00     0.027 A 
ATOM     23  C   UNL A   1      33.363  20.805  24.575  1.00  0.00     0.016 A 
BRANCH   8  24
ATOM     24  O   UNL A   1      31.555  29.103  25.717  1.00  0.00    -0.444 OA
BRANCH  24  25
ATOM     25  C   UNL A   1      32.603  28.959  26.712  1.00  0.00     0.106 C 
ATOM     26  C   UNL A   1      31.961  28.135  27.838  1.00  0.00     0.056 C 
ATOM     27  C   UNL A   1      32.985  30.341  27.247  1.00  0.00     0.056 C 
ATOM     28  C   UNL A   1      33.832  28.187  26.207  1.00  0.00     0.056 C 
ENDBRANCH  24  25
ENDBRANCH   8  24
ENDBRANCH   4   7
ENDBRANCH   2   3
ENDBRANCH   1   2
BRANCH   1  29
ATOM     29  C   UNL A   1      39.065  20.330  26.006  1.00  0.00     0.118 C 
BRANCH  29  30
ATOM     30  N   UNL A   1      40.180  19.404  25.848  1.00  0.00    -0.352 N 
ATOM     31  C   UNL A   1      41.533  19.609  25.990  1.00  0.00     0.251 C 
ATOM     32  H   UNL A   1      39.925  18.486  25.599  1.00  0.00     0.163 HD
ATOM     33  O   UNL A   1      42.321  18.741  25.629  1.00  0.00    -0.269 OA
BRANCH  31  34
ATOM     34  C   UNL A   1      42.044  20.880  26.549  1.00  0.00     0.039 A 
ATOM     35  C   UNL A   1      42.150  21.068  27.927  1.00  0.00     0.014 A 
ATOM     36  C   UNL A   1      42.429  21.902  25.674  1.00  0.00     0.014 A 
ATOM     37  C   UNL A   1      42.464  22.327  28.430  1.00  0.00     0.010 A 
ATOM     38  C   UNL A   1      42.828  23.141  26.183  1.00  0.00     0.010 A 
ATOM     39  C   UNL A   1      42.792  23.382  27.565  1.00  0.00    -0.014 A 
BRANCH  39  40
ATOM     40  C   UNL A   1      43.050  24.735  28.127  1.00  0.00     0.031 A 
ATOM     41  C   UNL A   1      44.458  25.193  28.402  1.00  0.00     0.074 A 
ATOM     42  C   UNL A   1      42.020  25.579  28.326  1.00  0.00     0.049 A 
ATOM     43  N   UNL A   1      44.881  26.347  28.856  1.00  0.00    -0.248 NA
ATOM     44  C   UNL A   1      45.536  24.227  28.139  1.00  0.00     0.031 C 
ATOM     45  C   UNL A   1      40.611  25.264  28.087  1.00  0.00     0.029 A 
ATOM     46  N   UNL A   1      42.001  26.885  28.749  1.00  0.00    -0.354 N 
ATOM     47  C   UNL A   1      46.263  26.240  28.945  1.00  0.00     0.074 A 
ATOM     48  C   UNL A   1      46.608  24.896  28.536  1.00  0.00     0.031 C 
ATOM     49  C   UNL A   1      39.870  26.359  28.315  1.00  0.00     0.029 A 
ATOM     50  C   UNL A   1      40.743  27.436  28.771  1.00  0.00     0.049 A 
ATOM     51  H   UNL A   1      42.811  27.378  29.011  1.00  0.00     0.167 HD
ATOM     52  C   UNL A   1      47.168  27.179  29.318  1.00  0.00     0.037 A 
ATOM     53  C   UNL A   1      40.336  28.667  29.129  1.00  0.00     0.037 A 
ATOM     54  C   UNL A   1      46.829  28.522  29.712  1.00  0.00     0.049 A 
ATOM     55  C   UNL A   1      41.354  29.672  29.588  1.00  0.00     0.074 A 
ATOM     56  C   UNL A   1      47.673  29.550  30.094  1.00  0.00     0.029 A 
ATOM     57  N   UNL A   1      45.537  29.023  29.777  1.00  0.00    -0.354 N 
ATOM     58  N   UNL A   1      42.657  29.559  29.656  1.00  0.00    -0.248 NA
ATOM     59  C   UNL A   1      40.839  30.975  30.029  1.00  0.00     0.031 C 
ATOM     60  C   UNL A   1      46.889  30.660  30.431  1.00  0.00     0.029 A 
ATOM     61  C   UNL A   1      45.560  30.338  30.212  1.00  0.00     0.049 A 
ATOM     62  H   UNL A   1      44.724  28.517  29.548  1.00  0.00     0.167 HD
ATOM     63  C   UNL A   1      43.121  30.780  30.127  1.00  0.00     0.074 A 
ATOM     64  C   UNL A   1      41.959  31.626  30.308  1.00  0.00     0.031 C 
ATOM     65  C   UNL A   1      44.394  31.166  30.388  1.00  0.00     0.037 A 
BRANCH  52  66
ATOM     66  C   UNL A   1      48.614  26.772  29.335  1.00  0.00     0.057 A 
ATOM     67  C   UNL A   1      49.424  26.962  28.207  1.00  0.00     0.134 A 
ATOM     68  C   UNL A   1      49.205  26.182  30.460  1.00  0.00     0.134 A 
ATOM     69  F   UNL A   1      48.921  27.516  27.093  1.00  0.00    -0.206 F 
ATOM     70  C   UNL A   1      50.768  26.586  28.201  1.00  0.00     0.040 A 
ATOM     71  C   UNL A   1      50.556  25.825  30.474  1.00  0.00     0.040 A 
ATOM     72  F   UNL A   1      48.491  25.984  31.578  1.00  0.00    -0.206 F 
ATOM     73  C   UNL A   1      51.340  26.023  29.339  1.00  0.00     0.006 A 
ENDBRANCH  52  66
BRANCH  53  74
ATOM     74  C   UNL A   1      38.895  29.021  29.072  1.00  0.00     0.057 A 
ATOM     75  C   UNL A   1      38.078  28.933  30.205  1.00  0.00     0.134 A 
ATOM     76  C   UNL A   1      38.308  29.473  27.884  1.00  0.00     0.134 A 
ATOM     77  F   UNL A   1      38.581  28.504  31.371  1.00  0.00    -0.206 F 
ATOM     78  C   UNL A   1      36.726  29.274  30.159  1.00  0.00     0.040 A 
ATOM     79  C   UNL A   1      36.963  29.843  27.830  1.00  0.00     0.040 A 
ATOM     80  F   UNL A   1      39.045  29.599  26.771  1.00  0.00    -0.206 F 
ATOM     81  C   UNL A   1      36.167  29.739  28.970  1.00  0.00     0.006 A 
ENDBRANCH  53  74
BRANCH  65  82
ATOM     82  C   UNL A   1      44.589  32.576  30.867  1.00  0.00     0.057 A 
ATOM     83  C   UNL A   1      44.763  33.622  29.952  1.00  0.00     0.134 A 
ATOM     84  C   UNL A   1      44.608  32.897  32.231  1.00  0.00     0.134 A 
ATOM     85  F   UNL A   1      44.762  33.380  28.633  1.00  0.00    -0.206 F 
ATOM     86  C   UNL A   1      44.945  34.938  30.377  1.00  0.00     0.040 A 
ATOM     87  C   UNL A   1      44.762  34.215  32.666  1.00  0.00     0.040 A 
ATOM     88  F   UNL A   1      44.431  31.944  33.157  1.00  0.00    -0.206 F 
ATOM     89  C   UNL A   1      44.935  35.239  31.737  1.00  0.00     0.006 A 
ENDBRANCH  65  82
ENDBRANCH  39  40
ENDBRANCH  31  34
ENDBRANCH  29  30
ENDBRANCH   1  29
TORSDOF 12
ENDMDL
MODEL 2
REMARK VINA RESULT:     -12.1      3.388      9.005
REMARK SMILES CC(C)(C)OC(=O)N1CCC2(CC1)CNc1ccc(C(=O)NCCCNC(=O)c3ccc(-c4c5nc(c(-c6c(F)cccc6F)c6ccc([nH]6)c(-c6c(F)cccc6F)c6nc(c(-c7c(F)cccc7F)c7ccc4[nH]7)C=C6)C=C5)cc3)cc12
REMARK SMILES IDX 24 1 23 2 22 3 20 4 21 5 19 7 6 8 7 9 8 10 9 11 13 12 10 13
REMARK SMILES IDX 12 14 11 15 14 16 84 17 15 18 16 19 83 20 17 22 18 23 5 24
REMARK SMILES IDX 2 25 1 26 3 27 4 28 25 29 26 30 27 31 28 33 29 34 30 35
REMARK SMILES IDX 82 36 31 37 81 38 32 39 33 40 34 41 75 42 35 43 80 44 74 45
REMARK SMILES IDX 76 46 36 47 79 48 73 49 72 50 37 52 63 53 46 54 62 55 47 56
REMARK SMILES IDX 50 57 61 58 77 59 48 60 49 61 60 63 78 64 51 65 38 66 39 67
REMARK SMILES IDX 44 68 40 69 41 70 43 71 45 72 42 73 64 74 65 75 70 76 66 77
REMARK SMILES IDX 67 78 69 79 71 80 68 81 52 82 53 83 58 84 54 85 55 86 57 87
REMARK SMILES IDX 59 88 56 89
REMARK H PARENT 22 6 15 21 26 32 76 51 50 62
REMARK Flexibility Score: inf
ROOT
ATOM      1  C   UNL A   1      31.615  31.766  26.513  1.00  0.00     0.042 C 
ENDROOT
BRANCH   1   2
ATOM      2  C   UNL A   1      31.823  30.280  26.228  1.00  0.00     0.118 C 
BRANCH   2   3
ATOM      3  N   UNL A   1      32.814  30.083  25.187  1.00  0.00    -0.352 N 
ATOM      4  C   UNL A   1      32.958  29.158  24.186  1.00  0.00     0.251 C 
ATOM      5  O   UNL A   1      33.928  29.304  23.438  1.00  0.00    -0.269 OA
ATOM      6  H   UNL A   1      33.535  30.754  25.205  1.00  0.00     0.163 HD
BRANCH   4   7
ATOM      7  C   UNL A   1      32.009  28.036  23.924  1.00  0.00     0.040 A 
ATOM      8  C   UNL A   1      34.732  21.417  25.669  1.00  0.00     0.410 C 
ATOM      9  O   UNL A   1      34.651  20.907  26.775  1.00  0.00    -0.224 OA
ATOM     10  N   UNL A   1      33.660  22.010  25.027  1.00  0.00    -0.308 N 
ATOM     11  C   UNL A   1      32.480  22.359  25.799  1.00  0.00     0.124 C 
ATOM     12  C   UNL A   1      33.608  22.276  23.594  1.00  0.00     0.124 C 
ATOM     13  C   UNL A   1      32.148  23.836  25.592  1.00  0.00     0.035 C 
ATOM     14  C   UNL A   1      33.226  23.725  23.306  1.00  0.00     0.035 C 
ATOM     15  C   UNL A   1      31.975  24.168  24.094  1.00  0.00     0.018 C 
ATOM     16  C   UNL A   1      30.654  23.525  23.540  1.00  0.00     0.124 C 
ATOM     17  C   UNL A   1      31.685  25.638  23.897  1.00  0.00    -0.016 A 
ATOM     18  N   UNL A   1      29.766  24.607  23.131  1.00  0.00    -0.384 N 
ATOM     19  C   UNL A   1      30.387  25.805  23.433  1.00  0.00     0.038 A 
ATOM     20  C   UNL A   1      32.505  26.736  24.138  1.00  0.00     0.020 A 
ATOM     21  H   UNL A   1      28.880  24.502  22.714  1.00  0.00     0.160 HD
ATOM     22  C   UNL A   1      29.871  27.069  23.236  1.00  0.00     0.027 A 
ATOM     23  C   UNL A   1      30.672  28.184  23.520  1.00  0.00     0.016 A 
BRANCH   8  24
ATOM     24  O   UNL A   1      35.880  21.531  24.953  1.00  0.00    -0.444 OA
BRANCH  24  25
ATOM     25  C   UNL A   1      36.808  22.623  25.193  1.00  0.00     0.106 C 
ATOM     26  C   UNL A   1      37.029  23.255  23.811  1.00  0.00     0.056 C 
ATOM     27  C   UNL A   1      38.130  22.056  25.712  1.00  0.00     0.056 C 
ATOM     28  C   UNL A   1      36.252  23.712  26.125  1.00  0.00     0.056 C 
ENDBRANCH  24  25
ENDBRANCH   8  24
ENDBRANCH   4   7
ENDBRANCH   2   3
ENDBRANCH   1   2
BRANCH   1  29
ATOM     29  C   UNL A   1      32.815  32.422  27.196  1.00  0.00     0.118 C 
BRANCH  29  30
ATOM     30  N   UNL A   1      32.516  33.765  27.678  1.00  0.00    -0.352 N 
ATOM     31  C   UNL A   1      33.140  34.521  28.642  1.00  0.00     0.251 C 
ATOM     32  H   UNL A   1      31.746  34.200  27.244  1.00  0.00     0.163 HD
ATOM     33  O   UNL A   1      32.617  35.561  29.033  1.00  0.00    -0.269 OA
BRANCH  31  34
ATOM     34  C   UNL A   1      34.422  34.077  29.232  1.00  0.00     0.039 A 
ATOM     35  C   UNL A   1      35.640  34.410  28.640  1.00  0.00     0.014 A 
ATOM     36  C   UNL A   1      34.403  33.314  30.405  1.00  0.00     0.014 A 
ATOM     37  C   UNL A   1      36.817  33.835  29.110  1.00  0.00     0.010 A 
ATOM     38  C   UNL A   1      35.597  32.808  30.927  1.00  0.00     0.010 A 
ATOM     39  C   UNL A   1      36.808  33.016  30.250  1.00  0.00    -0.014 A 
BRANCH  39  40
ATOM     40  C   UNL A   1      38.067  32.355  30.684  1.00  0.00     0.031 A 
ATOM     41  C   UNL A   1      38.845  32.890  31.858  1.00  0.00     0.074 A 
ATOM     42  C   UNL A   1      38.477  31.232  30.065  1.00  0.00     0.049 A 
ATOM     43  N   UNL A   1      39.943  32.428  32.406  1.00  0.00    -0.248 NA
ATOM     44  C   UNL A   1      38.326  34.106  32.502  1.00  0.00     0.031 C 
ATOM     45  C   UNL A   1      37.808  30.603  28.925  1.00  0.00     0.029 A 
ATOM     46  N   UNL A   1      39.539  30.402  30.325  1.00  0.00    -0.354 N 
ATOM     47  C   UNL A   1      40.250  33.301  33.442  1.00  0.00     0.074 A 
ATOM     48  C   UNL A   1      39.247  34.343  33.425  1.00  0.00     0.031 C 
ATOM     49  C   UNL A   1      38.442  29.462  28.617  1.00  0.00     0.029 A 
ATOM     50  C   UNL A   1      39.595  29.307  29.498  1.00  0.00     0.049 A 
ATOM     51  H   UNL A   1      40.198  30.576  31.035  1.00  0.00     0.167 HD
ATOM     52  C   UNL A   1      41.266  33.235  34.338  1.00  0.00     0.037 A 
ATOM     53  C   UNL A   1      40.480  28.295  29.448  1.00  0.00     0.037 A 
ATOM     54  C   UNL A   1      42.258  32.191  34.366  1.00  0.00     0.049 A 
ATOM     55  C   UNL A   1      41.626  28.275  30.419  1.00  0.00     0.074 A 
ATOM     56  C   UNL A   1      43.317  32.028  35.241  1.00  0.00     0.029 A 
ATOM     57  N   UNL A   1      42.312  31.130  33.474  1.00  0.00    -0.354 N 
ATOM     58  N   UNL A   1      41.897  29.101  31.399  1.00  0.00    -0.248 NA
ATOM     59  C   UNL A   1      42.596  27.181  30.269  1.00  0.00     0.031 C 
ATOM     60  C   UNL A   1      44.038  30.893  34.852  1.00  0.00     0.029 A 
ATOM     61  C   UNL A   1      43.399  30.321  33.765  1.00  0.00     0.049 A 
ATOM     62  H   UNL A   1      41.673  30.976  32.741  1.00  0.00     0.167 HD
ATOM     63  C   UNL A   1      43.054  28.618  31.995  1.00  0.00     0.074 A 
ATOM     64  C   UNL A   1      43.421  27.414  31.278  1.00  0.00     0.031 C 
ATOM     65  C   UNL A   1      43.751  29.127  33.040  1.00  0.00     0.037 A 
BRANCH  52  66
ATOM     66  C   UNL A   1      41.362  34.341  35.350  1.00  0.00     0.057 A 
ATOM     67  C   UNL A   1      42.111  35.494  35.080  1.00  0.00     0.134 A 
ATOM     68  C   UNL A   1      40.725  34.264  36.596  1.00  0.00     0.134 A 
ATOM     69  F   UNL A   1      42.753  35.631  33.910  1.00  0.00    -0.206 F 
ATOM     70  C   UNL A   1      42.218  36.530  36.010  1.00  0.00     0.040 A 
ATOM     71  C   UNL A   1      40.803  35.306  37.523  1.00  0.00     0.040 A 
ATOM     72  F   UNL A   1      39.980  33.195  36.914  1.00  0.00    -0.206 F 
ATOM     73  C   UNL A   1      41.556  36.442  37.232  1.00  0.00     0.006 A 
ENDBRANCH  52  66
BRANCH  53  74
ATOM     74  C   UNL A   1      40.324  27.217  28.439  1.00  0.00     0.057 A 
ATOM     75  C   UNL A   1      39.530  26.093  28.692  1.00  0.00     0.134 A 
ATOM     76  C   UNL A   1      40.953  27.297  27.191  1.00  0.00     0.134 A 
ATOM     77  F   UNL A   1      38.904  25.956  29.869  1.00  0.00    -0.206 F 
ATOM     78  C   UNL A   1      39.372  25.082  27.744  1.00  0.00     0.040 A 
ATOM     79  C   UNL A   1      40.783  26.306  26.223  1.00  0.00     0.040 A 
ATOM     80  F   UNL A   1      41.710  28.361  26.883  1.00  0.00    -0.206 F 
ATOM     81  C   UNL A   1      39.994  25.192  26.501  1.00  0.00     0.006 A 
ENDBRANCH  53  74
BRANCH  65  82
ATOM     82  C   UNL A   1      44.962  28.358  33.484  1.00  0.00     0.057 A 
ATOM     83  C   UNL A   1      46.225  28.650  32.954  1.00  0.00     0.134 A 
ATOM     84  C   UNL A   1      44.879  27.329  34.432  1.00  0.00     0.134 A 
ATOM     85  F   UNL A   1      46.373  29.618  32.039  1.00  0.00    -0.206 F 
ATOM     86  C   UNL A   1      47.363  27.948  33.354  1.00  0.00     0.040 A 
ATOM     87  C   UNL A   1      46.015  26.639  34.859  1.00  0.00     0.040 A 
ATOM     88  F   UNL A   1      43.701  27.012  34.989  1.00  0.00    -0.206 F 
ATOM     89  C   UNL A   1      47.261  26.946  34.316  1.00  0.00     0.006 A 
ENDBRANCH  65  82
ENDBRANCH  39  40
ENDBRANCH  31  34
ENDBRANCH  29  30
ENDBRANCH   1  29
TORSDOF 12
ENDMDL
MODEL 3
REMARK VINA RESULT:     -11.9      2.361      8.152
REMARK SMILES CC(C)(C)OC(=O)N1CCC2(CC1)CNc1ccc(C(=O)NCCCNC(=O)c3ccc(-c4c5nc(c(-c6c(F)cccc6F)c6ccc([nH]6)c(-c6c(F)cccc6F)c6nc(c(-c7c(F)cccc7F)c7ccc4[nH]7)C=C6)C=C5)cc3)cc12
REMARK SMILES IDX 24 1 23 2 22 3 20 4 21 5 19 7 6 8 7 9 8 10 9 11 13 12 10 13
REMARK SMILES IDX 12 14 11 15 14 16 84 17 15 18 16 19 83 20 17 22 18 23 5 24
REMARK SMILES IDX 2 25 1 26 3 27 4 28 25 29 26 30 27 31 28 33 29 34 30 35
REMARK SMILES IDX 82 36 31 37 81 38 32 39 33 40 34 41 75 42 35 43 80 44 74 45
REMARK SMILES IDX 76 46 36 47 79 48 73 49 72 50 37 52 63 53 46 54 62 55 47 56
REMARK SMILES IDX 50 57 61 58 77 59 48 60 49 61 60 63 78 64 51 65 38 66 39 67
REMARK SMILES IDX 44 68 40 69 41 70 43 71 45 72 42 73 64 74 65 75 70 76 66 77
REMARK SMILES IDX 67 78 69 79 71 80 68 81 52 82 53 83 58 84 54 85 55 86 57 87
REMARK SMILES IDX 59 88 56 89
REMARK H PARENT 22 6 15 21 26 32 76 51 50 62
REMARK Flexibility Score: inf
ROOT
ATOM      1  C   UNL A   1      33.673  30.707  27.207  1.00  0.00     0.042 C 
ENDROOT
BRANCH   1   2
ATOM      2  C   UNL A   1      33.087  29.601  26.332  1.00  0.00     0.118 C 
BRANCH   2   3
ATOM      3  N   UNL A   1      33.562  29.712  24.965  1.00  0.00    -0.352 N 
ATOM      4  C   UNL A   1      33.253  29.053  23.804  1.00  0.00     0.251 C 
ATOM      5  O   UNL A   1      33.840  29.428  22.786  1.00  0.00    -0.269 OA
ATOM      6  H   UNL A   1      34.252  30.405  24.848  1.00  0.00     0.163 HD
BRANCH   4   7
ATOM      7  C   UNL A   1      32.239  27.964  23.690  1.00  0.00     0.040 A 
ATOM      8  C   UNL A   1      34.743  21.381  25.852  1.00  0.00     0.410 C 
ATOM      9  O   UNL A   1      34.701  20.970  27.000  1.00  0.00    -0.224 OA
ATOM     10  N   UNL A   1      33.665  21.974  25.219  1.00  0.00    -0.308 N 
ATOM     11  C   UNL A   1      32.548  22.446  26.019  1.00  0.00     0.124 C 
ATOM     12  C   UNL A   1      33.544  22.121  23.773  1.00  0.00     0.124 C 
ATOM     13  C   UNL A   1      32.275  23.916  25.704  1.00  0.00     0.035 C 
ATOM     14  C   UNL A   1      33.215  23.559  23.382  1.00  0.00     0.035 C 
ATOM     15  C   UNL A   1      32.033  24.130  24.193  1.00  0.00     0.018 C 
ATOM     16  C   UNL A   1      30.653  23.513  23.767  1.00  0.00     0.124 C 
ATOM     17  C   UNL A   1      31.802  25.592  23.887  1.00  0.00    -0.016 A 
ATOM     18  N   UNL A   1      29.796  24.601  23.315  1.00  0.00    -0.384 N 
ATOM     19  C   UNL A   1      30.488  25.787  23.479  1.00  0.00     0.038 A 
ATOM     20  C   UNL A   1      32.685  26.662  23.988  1.00  0.00     0.020 A 
ATOM     21  H   UNL A   1      28.883  24.508  22.955  1.00  0.00     0.160 HD
ATOM     22  C   UNL A   1      30.022  27.054  23.202  1.00  0.00     0.027 A 
ATOM     23  C   UNL A   1      30.889  28.146  23.345  1.00  0.00     0.016 A 
BRANCH   8  24
ATOM     24  O   UNL A   1      35.852  21.376  25.070  1.00  0.00    -0.444 OA
BRANCH  24  25
ATOM     25  C   UNL A   1      36.818  22.459  25.131  1.00  0.00     0.106 C 
ATOM     26  C   UNL A   1      36.968  22.928  23.676  1.00  0.00     0.056 C 
ATOM     27  C   UNL A   1      38.156  21.914  25.631  1.00  0.00     0.056 C 
ATOM     28  C   UNL A   1      36.346  23.661  25.965  1.00  0.00     0.056 C 
ENDBRANCH  24  25
ENDBRANCH   8  24
ENDBRANCH   4   7
ENDBRANCH   2   3
ENDBRANCH   1   2
BRANCH   1  29
ATOM     29  C   UNL A   1      34.969  30.297  27.907  1.00  0.00     0.118 C 
BRANCH  29  30
ATOM     30  N   UNL A   1      35.123  30.932  29.210  1.00  0.00    -0.352 N 
ATOM     31  C   UNL A   1      36.153  30.856  30.119  1.00  0.00     0.251 C 
ATOM     32  H   UNL A   1      34.372  31.508  29.483  1.00  0.00     0.163 HD
ATOM     33  O   UNL A   1      36.006  31.321  31.245  1.00  0.00    -0.269 OA
BRANCH  31  34
ATOM     34  C   UNL A   1      37.424  30.191  29.758  1.00  0.00     0.039 A 
ATOM     35  C   UNL A   1      38.149  29.463  30.703  1.00  0.00     0.014 A 
ATOM     36  C   UNL A   1      37.898  30.297  28.446  1.00  0.00     0.014 A 
ATOM     37  C   UNL A   1      39.422  28.999  30.388  1.00  0.00     0.010 A 
ATOM     38  C   UNL A   1      39.142  29.753  28.108  1.00  0.00     0.010 A 
ATOM     39  C   UNL A   1      39.941  29.151  29.092  1.00  0.00    -0.014 A 
BRANCH  39  40
ATOM     40  C   UNL A   1      41.332  28.713  28.806  1.00  0.00     0.031 A 
ATOM     41  C   UNL A   1      41.616  27.293  28.392  1.00  0.00     0.074 A 
ATOM     42  C   UNL A   1      42.335  29.611  28.851  1.00  0.00     0.049 A 
ATOM     43  N   UNL A   1      42.758  26.736  28.067  1.00  0.00    -0.248 NA
ATOM     44  C   UNL A   1      40.470  26.372  28.341  1.00  0.00     0.031 C 
ATOM     45  C   UNL A   1      42.191  31.019  29.223  1.00  0.00     0.029 A 
ATOM     46  N   UNL A   1      43.668  29.480  28.554  1.00  0.00    -0.354 N 
ATOM     47  C   UNL A   1      42.469  25.406  27.789  1.00  0.00     0.074 A 
ATOM     48  C   UNL A   1      41.053  25.226  28.020  1.00  0.00     0.031 C 
ATOM     49  C   UNL A   1      43.375  31.634  29.083  1.00  0.00     0.029 A 
ATOM     50  C   UNL A   1      44.373  30.654  28.667  1.00  0.00     0.049 A 
ATOM     51  H   UNL A   1      44.080  28.627  28.288  1.00  0.00     0.167 HD
ATOM     52  C   UNL A   1      43.303  24.425  27.363  1.00  0.00     0.037 A 
ATOM     53  C   UNL A   1      45.678  30.910  28.468  1.00  0.00     0.037 A 
ATOM     54  C   UNL A   1      44.711  24.604  27.119  1.00  0.00     0.049 A 
ATOM     55  C   UNL A   1      46.590  29.793  28.047  1.00  0.00     0.074 A 
ATOM     56  C   UNL A   1      45.636  23.677  26.674  1.00  0.00     0.029 A 
ATOM     57  N   UNL A   1      45.397  25.796  27.301  1.00  0.00    -0.354 N 
ATOM     58  N   UNL A   1      46.300  28.544  27.778  1.00  0.00    -0.248 NA
ATOM     59  C   UNL A   1      48.015  30.123  27.912  1.00  0.00     0.031 C 
ATOM     60  C   UNL A   1      46.891  24.296  26.628  1.00  0.00     0.029 A 
ATOM     61  C   UNL A   1      46.738  25.622  26.998  1.00  0.00     0.049 A 
ATOM     62  H   UNL A   1      44.991  26.641  27.603  1.00  0.00     0.167 HD
ATOM     63  C   UNL A   1      47.500  27.944  27.422  1.00  0.00     0.074 A 
ATOM     64  C   UNL A   1      48.518  28.972  27.490  1.00  0.00     0.031 C 
ATOM     65  C   UNL A   1      47.738  26.656  27.072  1.00  0.00     0.037 A 
BRANCH  52  66
ATOM     66  C   UNL A   1      42.709  23.060  27.157  1.00  0.00     0.057 A 
ATOM     67  C   UNL A   1      42.457  22.578  25.865  1.00  0.00     0.134 A 
ATOM     68  C   UNL A   1      42.375  22.225  28.232  1.00  0.00     0.134 A 
ATOM     69  F   UNL A   1      42.746  23.328  24.790  1.00  0.00    -0.206 F 
ATOM     70  C   UNL A   1      41.901  21.316  25.652  1.00  0.00     0.040 A 
ATOM     71  C   UNL A   1      41.843  20.950  28.030  1.00  0.00     0.040 A 
ATOM     72  F   UNL A   1      42.604  22.619  29.494  1.00  0.00    -0.206 F 
ATOM     73  C   UNL A   1      41.601  20.494  26.736  1.00  0.00     0.006 A 
ENDBRANCH  52  66
BRANCH  53  74
ATOM     74  C   UNL A   1      46.206  32.283  28.667  1.00  0.00     0.057 A 
ATOM     75  C   UNL A   1      46.270  33.200  27.611  1.00  0.00     0.134 A 
ATOM     76  C   UNL A   1      46.644  32.715  29.925  1.00  0.00     0.134 A 
ATOM     77  F   UNL A   1      45.870  32.846  26.381  1.00  0.00    -0.206 F 
ATOM     78  C   UNL A   1      46.757  34.494  27.795  1.00  0.00     0.040 A 
ATOM     79  C   UNL A   1      47.108  34.015  30.130  1.00  0.00     0.040 A 
ATOM     80  F   UNL A   1      46.587  31.889  30.980  1.00  0.00    -0.206 F 
ATOM     81  C   UNL A   1      47.170  34.908  29.061  1.00  0.00     0.006 A 
ENDBRANCH  53  74
BRANCH  65  82
ATOM     82  C   UNL A   1      49.152  26.304  26.707  1.00  0.00     0.057 A 
ATOM     83  C   UNL A   1      50.014  25.742  27.657  1.00  0.00     0.134 A 
ATOM     84  C   UNL A   1      49.660  26.525  25.420  1.00  0.00     0.134 A 
ATOM     85  F   UNL A   1      49.592  25.511  28.909  1.00  0.00    -0.206 F 
ATOM     86  C   UNL A   1      51.331  25.407  27.338  1.00  0.00     0.040 A 
ATOM     87  C   UNL A   1      50.968  26.169  25.083  1.00  0.00     0.040 A 
ATOM     88  F   UNL A   1      48.881  27.046  24.461  1.00  0.00    -0.206 F 
ATOM     89  C   UNL A   1      51.807  25.612  26.045  1.00  0.00     0.006 A 
ENDBRANCH  65  82
ENDBRANCH  39  40
ENDBRANCH  31  34
ENDBRANCH  29  30
ENDBRANCH   1  29
TORSDOF 12
ENDMDL
