MODEL 1
REMARK VINA RESULT:     -11.9      0.000      0.000
REMARK SMILES O=Cc1ccc(-c2cnccc2C(=O)NCCCNC(=O)c2ccc(-c3c4nc(c(-c5c(F)cccc5F)c5ccc([nH]5)c(-c5c(F)cccc5F)c5nc(c(-c6c(F)cccc6F)c6ccc3[nH]6)C=C5)C=C4)cc2)s1
REMARK SMILES IDX 17 1 16 2 15 3 13 4 14 5 12 7 7 8 8 9 9 10 11 11 10 12 6 13
REMARK SMILES IDX 3 14 4 15 76 16 5 17 2 18 1 19 18 20 19 21 20 22 21 24 22 25
REMARK SMILES IDX 23 26 75 27 24 28 74 29 25 30 26 31 27 32 68 33 28 34 73 35
REMARK SMILES IDX 67 36 69 37 29 38 72 39 66 40 65 41 30 43 56 44 39 45 55 46
REMARK SMILES IDX 40 47 43 48 54 49 70 50 41 51 42 52 53 54 71 55 44 56 31 57
REMARK SMILES IDX 32 58 37 59 33 60 34 61 36 62 38 63 35 64 57 65 58 66 63 67
REMARK SMILES IDX 59 68 60 69 62 70 64 71 61 72 45 73 46 74 51 75 47 76 48 77
REMARK SMILES IDX 50 78 52 79 49 80
REMARK H PARENT 15 6 19 23 69 42 43 53
REMARK Flexibility Score: inf
ROOT
ATOM      1  C   UNL A   1      31.209  31.514  26.875  1.00  0.00     0.042 C 
ENDROOT
BRANCH   1   2
ATOM      2  C   UNL A   1      31.797  30.128  26.695  1.00  0.00     0.118 C 
BRANCH   2   3
ATOM      3  N   UNL A   1      32.576  29.884  25.510  1.00  0.00    -0.352 N 
ATOM      4  C   UNL A   1      32.201  29.276  24.335  1.00  0.00     0.252 C 
ATOM      5  O   UNL A   1      33.000  29.330  23.397  1.00  0.00    -0.269 OA
ATOM      6  H   UNL A   1      33.509  30.196  25.545  1.00  0.00     0.163 HD
BRANCH   4   7
ATOM      7  C   UNL A   1      30.961  28.459  24.150  1.00  0.00     0.051 A 
ATOM      8  C   UNL A   1      29.718  28.842  23.609  1.00  0.00     0.023 A 
ATOM      9  C   UNL A   1      28.752  27.832  23.502  1.00  0.00     0.121 A 
ATOM     10  N   UNL A   1      28.914  26.540  23.873  1.00  0.00    -0.264 NA
ATOM     11  C   UNL A   1      31.147  27.111  24.522  1.00  0.00     0.034 A 
ATOM     12  C   UNL A   1      30.113  26.206  24.372  1.00  0.00     0.112 A 
BRANCH   8  13
ATOM     13  C   UNL A   1      29.343  30.186  23.162  1.00  0.00     0.037 A 
ATOM     14  C   UNL A   1      28.387  31.980  21.751  1.00  0.00     0.067 A 
ATOM     15  C   UNL A   1      28.561  32.384  23.060  1.00  0.00     0.024 A 
ATOM     16  S   UNL A   1      29.107  30.459  21.470  1.00  0.00    -0.132 S 
ATOM     17  C   UNL A   1      29.125  31.349  23.877  1.00  0.00     0.021 A 
BRANCH  14  18
ATOM     18  C   UNL A   1      27.694  32.647  20.672  1.00  0.00     0.270 C 
ATOM     19  O   UNL A   1      27.278  33.803  20.708  1.00  0.00    -0.297 OA
ENDBRANCH  14  18
ENDBRANCH   8  13
ENDBRANCH   4   7
ENDBRANCH   2   3
ENDBRANCH   1   2
BRANCH   1  20
ATOM     20  C   UNL A   1      32.069  32.659  26.352  1.00  0.00     0.118 C 
BRANCH  20  21
ATOM     21  N   UNL A   1      32.152  33.826  27.224  1.00  0.00    -0.352 N 
ATOM     22  C   UNL A   1      33.030  34.232  28.204  1.00  0.00     0.251 C 
ATOM     23  H   UNL A   1      31.418  34.465  27.080  1.00  0.00     0.163 HD
ATOM     24  O   UNL A   1      32.817  35.307  28.765  1.00  0.00    -0.269 OA
BRANCH  22  25
ATOM     25  C   UNL A   1      34.186  33.411  28.638  1.00  0.00     0.039 A 
ATOM     26  C   UNL A   1      35.435  34.028  28.796  1.00  0.00     0.014 A 
ATOM     27  C   UNL A   1      34.084  32.043  28.868  1.00  0.00     0.014 A 
ATOM     28  C   UNL A   1      36.531  33.300  29.279  1.00  0.00     0.010 A 
ATOM     29  C   UNL A   1      35.130  31.351  29.471  1.00  0.00     0.010 A 
ATOM     30  C   UNL A   1      36.370  31.968  29.689  1.00  0.00    -0.014 A 
BRANCH  30  31
ATOM     31  C   UNL A   1      37.455  31.196  30.358  1.00  0.00     0.031 A 
ATOM     32  C   UNL A   1      37.755  31.412  31.821  1.00  0.00     0.074 A 
ATOM     33  C   UNL A   1      38.257  30.395  29.629  1.00  0.00     0.049 A 
ATOM     34  N   UNL A   1      38.767  30.983  32.534  1.00  0.00    -0.248 NA
ATOM     35  C   UNL A   1      36.817  32.264  32.570  1.00  0.00     0.031 C 
ATOM     36  C   UNL A   1      38.125  30.137  28.193  1.00  0.00     0.029 A 
ATOM     37  N   UNL A   1      39.362  29.662  29.993  1.00  0.00    -0.354 N 
ATOM     38  C   UNL A   1      38.613  31.552  33.793  1.00  0.00     0.074 A 
ATOM     39  C   UNL A   1      37.439  32.395  33.733  1.00  0.00     0.031 C 
ATOM     40  C   UNL A   1      39.085  29.284  27.806  1.00  0.00     0.029 A 
ATOM     41  C   UNL A   1      39.935  28.972  28.951  1.00  0.00     0.049 A 
ATOM     42  H   UNL A   1      39.710  29.635  30.913  1.00  0.00     0.167 HD
ATOM     43  C   UNL A   1      39.363  31.371  34.907  1.00  0.00     0.037 A 
ATOM     44  C   UNL A   1      41.027  28.186  28.914  1.00  0.00     0.037 A 
ATOM     45  C   UNL A   1      40.490  30.480  34.987  1.00  0.00     0.049 A 
ATOM     46  C   UNL A   1      41.826  27.975  30.169  1.00  0.00     0.074 A 
ATOM     47  C   UNL A   1      41.250  30.147  36.095  1.00  0.00     0.029 A 
ATOM     48  N   UNL A   1      41.014  29.774  33.915  1.00  0.00    -0.354 N 
ATOM     49  N   UNL A   1      41.631  28.471  31.366  1.00  0.00    -0.248 NA
ATOM     50  C   UNL A   1      42.999  27.097  30.065  1.00  0.00     0.031 C 
ATOM     51  C   UNL A   1      42.258  29.267  35.686  1.00  0.00     0.029 A 
ATOM     52  C   UNL A   1      42.101  29.023  34.331  1.00  0.00     0.049 A 
ATOM     53  H   UNL A   1      40.665  29.801  32.995  1.00  0.00     0.167 HD
ATOM     54  C   UNL A   1      42.642  27.951  32.161  1.00  0.00     0.074 A 
ATOM     55  C   UNL A   1      43.441  27.089  31.316  1.00  0.00     0.031 C 
ATOM     56  C   UNL A   1      42.889  28.171  33.476  1.00  0.00     0.037 A 
BRANCH  43  57
ATOM     57  C   UNL A   1      38.979  32.148  36.135  1.00  0.00     0.057 A 
ATOM     58  C   UNL A   1      38.156  31.604  37.130  1.00  0.00     0.134 A 
ATOM     59  C   UNL A   1      39.454  33.450  36.334  1.00  0.00     0.134 A 
ATOM     60  F   UNL A   1      37.658  30.365  36.997  1.00  0.00    -0.206 F 
ATOM     61  C   UNL A   1      37.789  32.339  38.258  1.00  0.00     0.040 A 
ATOM     62  C   UNL A   1      39.119  34.185  37.473  1.00  0.00     0.040 A 
ATOM     63  F   UNL A   1      40.255  34.030  35.427  1.00  0.00    -0.206 F 
ATOM     64  C   UNL A   1      38.276  33.633  38.435  1.00  0.00     0.006 A 
ENDBRANCH  43  57
BRANCH  44  65
ATOM     65  C   UNL A   1      41.411  27.513  27.648  1.00  0.00     0.057 A 
ATOM     66  C   UNL A   1      40.973  26.212  27.371  1.00  0.00     0.134 A 
ATOM     67  C   UNL A   1      42.207  28.145  26.687  1.00  0.00     0.134 A 
ATOM     68  F   UNL A   1      40.223  25.549  28.263  1.00  0.00    -0.206 F 
ATOM     69  C   UNL A   1      41.322  25.560  26.187  1.00  0.00     0.040 A 
ATOM     70  C   UNL A   1      42.546  27.513  25.489  1.00  0.00     0.040 A 
ATOM     71  F   UNL A   1      42.651  29.395  26.890  1.00  0.00    -0.206 F 
ATOM     72  C   UNL A   1      42.106  26.214  25.240  1.00  0.00     0.006 A 
ENDBRANCH  44  65
BRANCH  56  73
ATOM     73  C   UNL A   1      44.057  27.453  34.082  1.00  0.00     0.057 A 
ATOM     74  C   UNL A   1      43.932  26.166  34.617  1.00  0.00     0.134 A 
ATOM     75  C   UNL A   1      45.328  28.042  34.098  1.00  0.00     0.134 A 
ATOM     76  F   UNL A   1      42.738  25.554  34.645  1.00  0.00    -0.206 F 
ATOM     77  C   UNL A   1      45.027  25.495  35.165  1.00  0.00     0.040 A 
ATOM     78  C   UNL A   1      46.435  27.372  34.620  1.00  0.00     0.040 A 
ATOM     79  F   UNL A   1      45.516  29.271  33.593  1.00  0.00    -0.206 F 
ATOM     80  C   UNL A   1      46.285  26.097  35.160  1.00  0.00     0.006 A 
ENDBRANCH  56  73
ENDBRANCH  30  31
ENDBRANCH  22  25
ENDBRANCH  20  21
ENDBRANCH   1  20
TORSDOF 12
ENDMDL
MODEL 2
REMARK VINA RESULT:     -11.9      6.653     10.524
REMARK SMILES O=Cc1ccc(-c2cnccc2C(=O)NCCCNC(=O)c2ccc(-c3c4nc(c(-c5c(F)cccc5F)c5ccc([nH]5)c(-c5c(F)cccc5F)c5nc(c(-c6c(F)cccc6F)c6ccc3[nH]6)C=C5)C=C4)cc2)s1
REMARK SMILES IDX 17 1 16 2 15 3 13 4 14 5 12 7 7 8 8 9 9 10 11 11 10 12 6 13
REMARK SMILES IDX 3 14 4 15 76 16 5 17 2 18 1 19 18 20 19 21 20 22 21 24 22 25
REMARK SMILES IDX 23 26 75 27 24 28 74 29 25 30 26 31 27 32 68 33 28 34 73 35
REMARK SMILES IDX 67 36 69 37 29 38 72 39 66 40 65 41 30 43 56 44 39 45 55 46
REMARK SMILES IDX 40 47 43 48 54 49 70 50 41 51 42 52 53 54 71 55 44 56 31 57
REMARK SMILES IDX 32 58 37 59 33 60 34 61 36 62 38 63 35 64 57 65 58 66 63 67
REMARK SMILES IDX 59 68 60 69 62 70 64 71 61 72 45 73 46 74 51 75 47 76 48 77
REMARK SMILES IDX 50 78 52 79 49 80
REMARK H PARENT 15 6 19 23 69 42 43 53
REMARK Flexibility Score: inf
ROOT
ATOM      1  C   UNL A   1      37.646  19.833  24.999  1.00  0.00     0.042 C 
ENDROOT
BRANCH   1   2
ATOM      2  C   UNL A   1      36.637  20.946  24.798  1.00  0.00     0.118 C 
BRANCH   2   3
ATOM      3  N   UNL A   1      35.696  21.193  25.858  1.00  0.00    -0.352 N 
ATOM      4  C   UNL A   1      34.328  21.057  25.854  1.00  0.00     0.252 C 
ATOM      5  O   UNL A   1      33.751  21.170  26.937  1.00  0.00    -0.269 OA
ATOM      6  H   UNL A   1      36.087  21.502  26.707  1.00  0.00     0.163 HD
BRANCH   4   7
ATOM      7  C   UNL A   1      33.486  20.905  24.626  1.00  0.00     0.051 A 
ATOM      8  C   UNL A   1      33.076  19.727  23.972  1.00  0.00     0.023 A 
ATOM      9  C   UNL A   1      32.228  19.894  22.869  1.00  0.00     0.121 A 
ATOM     10  N   UNL A   1      31.780  21.078  22.389  1.00  0.00    -0.264 NA
ATOM     11  C   UNL A   1      33.010  22.142  24.145  1.00  0.00     0.034 A 
ATOM     12  C   UNL A   1      32.178  22.180  23.043  1.00  0.00     0.112 A 
BRANCH   8  13
ATOM     13  C   UNL A   1      33.458  18.357  24.328  1.00  0.00     0.037 A 
ATOM     14  C   UNL A   1      33.258  16.028  25.136  1.00  0.00     0.067 A 
ATOM     15  C   UNL A   1      34.363  16.204  24.327  1.00  0.00     0.024 A 
ATOM     16  S   UNL A   1      32.521  17.519  25.515  1.00  0.00    -0.132 S 
ATOM     17  C   UNL A   1      34.487  17.557  23.866  1.00  0.00     0.021 A 
BRANCH  14  18
ATOM     18  C   UNL A   1      32.685  14.803  25.647  1.00  0.00     0.270 C 
ATOM     19  O   UNL A   1      33.279  13.732  25.743  1.00  0.00    -0.297 OA
ENDBRANCH  14  18
ENDBRANCH   8  13
ENDBRANCH   4   7
ENDBRANCH   2   3
ENDBRANCH   1   2
BRANCH   1  20
ATOM     20  C   UNL A   1      38.910  20.229  25.753  1.00  0.00     0.118 C 
BRANCH  20  21
ATOM     21  N   UNL A   1      39.976  19.231  25.753  1.00  0.00    -0.352 N 
ATOM     22  C   UNL A   1      41.323  19.265  26.036  1.00  0.00     0.251 C 
ATOM     23  H   UNL A   1      39.662  18.336  25.492  1.00  0.00     0.163 HD
ATOM     24  O   UNL A   1      41.961  18.216  25.945  1.00  0.00    -0.269 OA
BRANCH  22  25
ATOM     25  C   UNL A   1      42.037  20.512  26.399  1.00  0.00     0.039 A 
ATOM     26  C   UNL A   1      42.515  21.342  25.376  1.00  0.00     0.014 A 
ATOM     27  C   UNL A   1      42.277  20.875  27.720  1.00  0.00     0.014 A 
ATOM     28  C   UNL A   1      43.127  22.566  25.682  1.00  0.00     0.010 A 
ATOM     29  C   UNL A   1      42.761  22.145  28.023  1.00  0.00     0.010 A 
ATOM     30  C   UNL A   1      43.192  23.013  27.010  1.00  0.00    -0.014 A 
BRANCH  30  31
ATOM     31  C   UNL A   1      43.682  24.370  27.379  1.00  0.00     0.031 A 
ATOM     32  C   UNL A   1      42.715  25.429  27.849  1.00  0.00     0.074 A 
ATOM     33  C   UNL A   1      44.973  24.698  27.172  1.00  0.00     0.049 A 
ATOM     34  N   UNL A   1      42.912  26.711  28.035  1.00  0.00    -0.248 NA
ATOM     35  C   UNL A   1      41.330  24.997  28.096  1.00  0.00     0.031 C 
ATOM     36  C   UNL A   1      46.009  23.796  26.664  1.00  0.00     0.029 A 
ATOM     37  N   UNL A   1      45.633  25.891  27.344  1.00  0.00    -0.354 N 
ATOM     38  C   UNL A   1      41.671  27.241  28.370  1.00  0.00     0.074 A 
ATOM     39  C   UNL A   1      40.719  26.153  28.313  1.00  0.00     0.031 C 
ATOM     40  C   UNL A   1      47.176  24.454  26.598  1.00  0.00     0.029 A 
ATOM     41  C   UNL A   1      46.965  25.839  27.006  1.00  0.00     0.049 A 
ATOM     42  H   UNL A   1      45.194  26.706  27.677  1.00  0.00     0.167 HD
ATOM     43  C   UNL A   1      41.354  28.512  28.719  1.00  0.00     0.037 A 
ATOM     44  C   UNL A   1      47.910  26.798  27.012  1.00  0.00     0.037 A 
ATOM     45  C   UNL A   1      42.312  29.579  28.842  1.00  0.00     0.049 A 
ATOM     46  C   UNL A   1      47.543  28.192  27.432  1.00  0.00     0.074 A 
ATOM     47  C   UNL A   1      42.108  30.873  29.290  1.00  0.00     0.029 A 
ATOM     48  N   UNL A   1      43.657  29.473  28.524  1.00  0.00    -0.354 N 
ATOM     49  N   UNL A   1      46.378  28.663  27.805  1.00  0.00    -0.248 NA
ATOM     50  C   UNL A   1      48.622  29.190  27.428  1.00  0.00     0.031 C 
ATOM     51  C   UNL A   1      43.324  31.561  29.207  1.00  0.00     0.029 A 
ATOM     52  C   UNL A   1      44.291  30.684  28.745  1.00  0.00     0.049 A 
ATOM     53  H   UNL A   1      44.096  28.657  28.191  1.00  0.00     0.167 HD
ATOM     54  C   UNL A   1      46.587  30.003  28.099  1.00  0.00     0.074 A 
ATOM     55  C   UNL A   1      47.993  30.268  27.875  1.00  0.00     0.031 C 
ATOM     56  C   UNL A   1      45.692  30.933  28.514  1.00  0.00     0.037 A 
BRANCH  43  57
ATOM     57  C   UNL A   1      39.909  28.813  29.002  1.00  0.00     0.057 A 
ATOM     58  C   UNL A   1      39.373  28.724  30.293  1.00  0.00     0.134 A 
ATOM     59  C   UNL A   1      39.048  29.214  27.973  1.00  0.00     0.134 A 
ATOM     60  F   UNL A   1      40.140  28.336  31.323  1.00  0.00    -0.206 F 
ATOM     61  C   UNL A   1      38.024  28.988  30.544  1.00  0.00     0.040 A 
ATOM     62  C   UNL A   1      37.705  29.510  28.217  1.00  0.00     0.040 A 
ATOM     63  F   UNL A   1      39.497  29.330  26.714  1.00  0.00    -0.206 F 
ATOM     64  C   UNL A   1      37.188  29.388  29.504  1.00  0.00     0.006 A 
ENDBRANCH  43  57
BRANCH  44  65
ATOM     65  C   UNL A   1      49.306  26.462  26.636  1.00  0.00     0.057 A 
ATOM     66  C   UNL A   1      50.191  25.930  27.581  1.00  0.00     0.134 A 
ATOM     67  C   UNL A   1      49.787  26.649  25.335  1.00  0.00     0.134 A 
ATOM     68  F   UNL A   1      49.793  25.746  28.849  1.00  0.00    -0.206 F 
ATOM     69  C   UNL A   1      51.508  25.608  27.251  1.00  0.00     0.040 A 
ATOM     70  C   UNL A   1      51.095  26.311  24.985  1.00  0.00     0.040 A 
ATOM     71  F   UNL A   1      48.985  27.147  24.382  1.00  0.00    -0.206 F 
ATOM     72  C   UNL A   1      51.961  25.793  25.946  1.00  0.00     0.006 A 
ENDBRANCH  44  65
BRANCH  56  73
ATOM     73  C   UNL A   1      46.212  32.316  28.772  1.00  0.00     0.057 A 
ATOM     74  C   UNL A   1      46.709  32.692  30.025  1.00  0.00     0.134 A 
ATOM     75  C   UNL A   1      46.248  33.268  27.746  1.00  0.00     0.134 A 
ATOM     76  F   UNL A   1      46.689  31.829  31.053  1.00  0.00    -0.206 F 
ATOM     77  C   UNL A   1      47.208  33.975  30.255  1.00  0.00     0.040 A 
ATOM     78  C   UNL A   1      46.766  34.546  27.957  1.00  0.00     0.040 A 
ATOM     79  F   UNL A   1      45.793  32.967  26.520  1.00  0.00    -0.206 F 
ATOM     80  C   UNL A   1      47.244  34.904  29.215  1.00  0.00     0.006 A 
ENDBRANCH  56  73
ENDBRANCH  30  31
ENDBRANCH  22  25
ENDBRANCH  20  21
ENDBRANCH   1  20
TORSDOF 12
ENDMDL
MODEL 3
REMARK VINA RESULT:     -11.9      0.616      6.502
REMARK SMILES O=Cc1ccc(-c2cnccc2C(=O)NCCCNC(=O)c2ccc(-c3c4nc(c(-c5c(F)cccc5F)c5ccc([nH]5)c(-c5c(F)cccc5F)c5nc(c(-c6c(F)cccc6F)c6ccc3[nH]6)C=C5)C=C4)cc2)s1
REMARK SMILES IDX 17 1 16 2 15 3 13 4 14 5 12 7 7 8 8 9 9 10 11 11 10 12 6 13
REMARK SMILES IDX 3 14 4 15 76 16 5 17 2 18 1 19 18 20 19 21 20 22 21 24 22 25
REMARK SMILES IDX 23 26 75 27 24 28 74 29 25 30 26 31 27 32 68 33 28 34 73 35
REMARK SMILES IDX 67 36 69 37 29 38 72 39 66 40 65 41 30 43 56 44 39 45 55 46
REMARK SMILES IDX 40 47 43 48 54 49 70 50 41 51 42 52 53 54 71 55 44 56 31 57
REMARK SMILES IDX 32 58 37 59 33 60 34 61 36 62 38 63 35 64 57 65 58 66 63 67
REMARK SMILES IDX 59 68 60 69 62 70 64 71 61 72 45 73 46 74 51 75 47 76 48 77
REMARK SMILES IDX 50 78 52 79 49 80
REMARK H PARENT 15 6 19 23 69 42 43 53
REMARK Flexibility Score: inf
ROOT
ATOM      1  C   UNL A   1      31.325  31.450  26.856  1.00  0.00     0.042 C 
ENDROOT
BRANCH   1   2
ATOM      2  C   UNL A   1      31.960  30.084  26.683  1.00  0.00     0.118 C 
BRANCH   2   3
ATOM      3  N   UNL A   1      32.728  29.853  25.489  1.00  0.00    -0.352 N 
ATOM      4  C   UNL A   1      32.344  29.252  24.313  1.00  0.00     0.252 C 
ATOM      5  O   UNL A   1      33.134  29.317  23.368  1.00  0.00    -0.269 OA
ATOM      6  H   UNL A   1      33.660  30.169  25.517  1.00  0.00     0.163 HD
BRANCH   4   7
ATOM      7  C   UNL A   1      31.108  28.430  24.134  1.00  0.00     0.051 A 
ATOM      8  C   UNL A   1      29.860  28.808  23.600  1.00  0.00     0.023 A 
ATOM      9  C   UNL A   1      28.898  27.795  23.497  1.00  0.00     0.121 A 
ATOM     10  N   UNL A   1      29.067  26.503  23.867  1.00  0.00    -0.264 NA
ATOM     11  C   UNL A   1      31.300  27.083  24.505  1.00  0.00     0.034 A 
ATOM     12  C   UNL A   1      30.270  26.173  24.359  1.00  0.00     0.112 A 
BRANCH   8  13
ATOM     13  C   UNL A   1      29.477  30.151  23.155  1.00  0.00     0.037 A 
ATOM     14  C   UNL A   1      28.573  31.949  21.716  1.00  0.00     0.067 A 
ATOM     15  C   UNL A   1      28.636  32.326  23.043  1.00  0.00     0.024 A 
ATOM     16  S   UNL A   1      29.359  30.458  21.457  1.00  0.00    -0.132 S 
ATOM     17  C   UNL A   1      29.170  31.289  23.877  1.00  0.00     0.021 A 
BRANCH  14  18
ATOM     18  C   UNL A   1      27.942  32.621  20.603  1.00  0.00     0.270 C 
ATOM     19  O   UNL A   1      27.279  33.653  20.684  1.00  0.00    -0.297 OA
ENDBRANCH  14  18
ENDBRANCH   8  13
ENDBRANCH   4   7
ENDBRANCH   2   3
ENDBRANCH   1   2
BRANCH   1  20
ATOM     20  C   UNL A   1      32.177  32.627  26.395  1.00  0.00     0.118 C 
BRANCH  20  21
ATOM     21  N   UNL A   1      32.121  33.810  27.248  1.00  0.00    -0.352 N 
ATOM     22  C   UNL A   1      32.936  34.323  28.232  1.00  0.00     0.251 C 
ATOM     23  H   UNL A   1      31.326  34.364  27.082  1.00  0.00     0.163 HD
ATOM     24  O   UNL A   1      32.601  35.378  28.771  1.00  0.00    -0.269 OA
BRANCH  22  25
ATOM     25  C   UNL A   1      34.165  33.637  28.697  1.00  0.00     0.039 A 
ATOM     26  C   UNL A   1      35.390  34.317  28.623  1.00  0.00     0.014 A 
ATOM     27  C   UNL A   1      34.155  32.332  29.177  1.00  0.00     0.014 A 
ATOM     28  C   UNL A   1      36.559  33.729  29.124  1.00  0.00     0.010 A 
ATOM     29  C   UNL A   1      35.284  31.800  29.794  1.00  0.00     0.010 A 
ATOM     30  C   UNL A   1      36.504  32.490  29.780  1.00  0.00    -0.014 A 
BRANCH  30  31
ATOM     31  C   UNL A   1      37.681  31.893  30.473  1.00  0.00     0.031 A 
ATOM     32  C   UNL A   1      38.498  30.818  29.800  1.00  0.00     0.074 A 
ATOM     33  C   UNL A   1      37.942  32.220  31.754  1.00  0.00     0.049 A 
ATOM     34  N   UNL A   1      39.432  30.047  30.301  1.00  0.00    -0.248 NA
ATOM     35  C   UNL A   1      38.189  30.538  28.389  1.00  0.00     0.031 C 
ATOM     36  C   UNL A   1      37.199  33.198  32.552  1.00  0.00     0.029 A 
ATOM     37  N   UNL A   1      38.897  31.746  32.622  1.00  0.00    -0.354 N 
ATOM     38  C   UNL A   1      39.783  29.166  29.286  1.00  0.00     0.074 A 
ATOM     39  C   UNL A   1      38.928  29.462  28.157  1.00  0.00     0.031 C 
ATOM     40  C   UNL A   1      37.744  33.276  33.775  1.00  0.00     0.029 A 
ATOM     41  C   UNL A   1      38.840  32.318  33.871  1.00  0.00     0.049 A 
ATOM     42  H   UNL A   1      39.558  31.062  32.373  1.00  0.00     0.167 HD
ATOM     43  C   UNL A   1      40.746  28.213  29.281  1.00  0.00     0.037 A 
ATOM     44  C   UNL A   1      39.577  32.092  34.974  1.00  0.00     0.037 A 
ATOM     45  C   UNL A   1      41.642  27.963  30.379  1.00  0.00     0.049 A 
ATOM     46  C   UNL A   1      40.660  31.051  34.937  1.00  0.00     0.074 A 
ATOM     47  C   UNL A   1      42.718  27.093  30.434  1.00  0.00     0.029 A 
ATOM     48  N   UNL A   1      41.571  28.591  31.613  1.00  0.00    -0.354 N 
ATOM     49  N   UNL A   1      41.020  30.269  33.949  1.00  0.00    -0.248 NA
ATOM     50  C   UNL A   1      41.437  30.860  36.170  1.00  0.00     0.031 C 
ATOM     51  C   UNL A   1      43.275  27.168  31.715  1.00  0.00     0.029 A 
ATOM     52  C   UNL A   1      42.571  28.112  32.444  1.00  0.00     0.049 A 
ATOM     53  H   UNL A   1      40.910  29.276  31.862  1.00  0.00     0.167 HD
ATOM     54  C   UNL A   1      42.076  29.509  34.433  1.00  0.00     0.074 A 
ATOM     55  C   UNL A   1      42.309  29.933  35.797  1.00  0.00     0.031 C 
ATOM     56  C   UNL A   1      42.788  28.542  33.802  1.00  0.00     0.037 A 
BRANCH  43  57
ATOM     57  C   UNL A   1      40.886  27.374  28.041  1.00  0.00     0.057 A 
ATOM     58  C   UNL A   1      41.723  27.749  26.983  1.00  0.00     0.134 A 
ATOM     59  C   UNL A   1      40.187  26.167  27.913  1.00  0.00     0.134 A 
ATOM     60  F   UNL A   1      42.413  28.898  27.036  1.00  0.00    -0.206 F 
ATOM     61  C   UNL A   1      41.832  26.974  25.826  1.00  0.00     0.040 A 
ATOM     62  C   UNL A   1      40.311  25.368  26.775  1.00  0.00     0.040 A 
ATOM     63  F   UNL A   1      39.375  25.741  28.893  1.00  0.00    -0.206 F 
ATOM     64  C   UNL A   1      41.129  25.776  25.723  1.00  0.00     0.006 A 
ENDBRANCH  43  57
BRANCH  44  65
ATOM     65  C   UNL A   1      39.335  32.891  36.202  1.00  0.00     0.057 A 
ATOM     66  C   UNL A   1      40.013  34.097  36.412  1.00  0.00     0.134 A 
ATOM     67  C   UNL A   1      38.424  32.482  37.182  1.00  0.00     0.134 A 
ATOM     68  F   UNL A   1      40.913  34.530  35.517  1.00  0.00    -0.206 F 
ATOM     69  C   UNL A   1      39.802  34.864  37.559  1.00  0.00     0.040 A 
ATOM     70  C   UNL A   1      38.187  33.250  38.323  1.00  0.00     0.040 A 
ATOM     71  F   UNL A   1      37.737  31.340  37.034  1.00  0.00    -0.206 F 
ATOM     72  C   UNL A   1      38.881  34.443  38.516  1.00  0.00     0.006 A 
ENDBRANCH  44  65
BRANCH  56  73
ATOM     73  C   UNL A   1      43.896  27.894  34.577  1.00  0.00     0.057 A 
ATOM     74  C   UNL A   1      45.181  28.445  34.623  1.00  0.00     0.134 A 
ATOM     75  C   UNL A   1      43.664  26.725  35.314  1.00  0.00     0.134 A 
ATOM     76  F   UNL A   1      45.471  29.556  33.927  1.00  0.00    -0.206 F 
ATOM     77  C   UNL A   1      46.204  27.847  35.359  1.00  0.00     0.040 A 
ATOM     78  C   UNL A   1      44.672  26.131  36.073  1.00  0.00     0.040 A 
ATOM     79  F   UNL A   1      42.451  26.151  35.317  1.00  0.00    -0.206 F 
ATOM     80  C   UNL A   1      45.948  26.689  36.094  1.00  0.00     0.006 A 
ENDBRANCH  56  73
ENDBRANCH  30  31
ENDBRANCH  22  25
ENDBRANCH  20  21
ENDBRANCH   1  20
TORSDOF 12
ENDMDL
