MODEL 1
REMARK VINA RESULT:     -11.2      0.000      0.000
REMARK SMILES CCC[C@@H](Oc1ccc(-c2ccccc2)cc1)C(=O)NCCCNC(=O)c1ccc(-c2c3nc(c(-c4c(F)cccc4F)c4ccc([nH]4)c(-c4c(F)cccc4F)c4nc(c(-c5c(F)cccc5F)c5ccc2[nH]5)C=C4)C=C3)cc1
REMARK SMILES IDX 21 1 20 2 18 3 19 4 4 6 3 7 2 8 1 9 5 10 6 11 7 12 17 13
REMARK SMILES IDX 8 14 16 15 9 16 10 17 11 18 15 19 12 20 14 21 13 22 22 23
REMARK SMILES IDX 23 24 24 25 25 26 26 28 27 29 28 30 80 31 29 32 79 33 30 34
REMARK SMILES IDX 31 35 32 36 73 37 33 38 78 39 72 40 74 41 34 42 77 43 71 44
REMARK SMILES IDX 70 45 35 47 61 48 44 49 60 50 45 51 48 52 59 53 75 54 46 55
REMARK SMILES IDX 47 56 58 58 76 59 49 60 36 61 37 62 42 63 38 64 39 65 41 66
REMARK SMILES IDX 43 67 40 68 62 69 63 70 68 71 64 72 65 73 67 74 69 75 66 76
REMARK SMILES IDX 50 77 51 78 56 79 52 80 53 81 55 82 57 83 54 84
REMARK H PARENT 20 5 24 27 74 46 48 57
REMARK Flexibility Score: inf
ROOT
ATOM      1  C   UNL A   1      31.916  29.660  25.339  1.00  0.00     0.118 C 
ENDROOT
BRANCH   1   2
ATOM      2  N   UNL A   1      31.416  29.451  23.987  1.00  0.00    -0.353 N 
ATOM      3  C   UNL A   1      31.074  28.286  23.349  1.00  0.00     0.261 C 
ATOM      4  O   UNL A   1      30.618  28.370  22.206  1.00  0.00    -0.271 OA
ATOM      5  H   UNL A   1      31.306  30.269  23.451  1.00  0.00     0.163 HD
BRANCH   3   6
ATOM      6  C   UNL A   1      31.337  26.919  24.007  1.00  0.00     0.261 C 
BRANCH   6   7
ATOM      7  C   UNL A   1      29.959  26.352  24.426  1.00  0.00     0.055 C 
BRANCH   7   8
ATOM      8  C   UNL A   1      29.824  25.701  25.809  1.00  0.00     0.001 C 
ATOM      9  C   UNL A   1      30.536  24.373  25.980  1.00  0.00     0.004 C 
ENDBRANCH   7   8
ENDBRANCH   6   7
BRANCH   6  10
ATOM     10  O   UNL A   1      32.061  26.185  23.009  1.00  0.00    -0.481 OA
BRANCH  10  11
ATOM     11  C   UNL A   1      33.063  25.409  23.484  1.00  0.00     0.120 A 
ATOM     12  C   UNL A   1      33.399  24.230  22.837  1.00  0.00     0.047 A 
ATOM     13  C   UNL A   1      33.656  25.745  24.691  1.00  0.00     0.047 A 
ATOM     14  C   UNL A   1      34.434  23.443  23.348  1.00  0.00     0.012 A 
ATOM     15  C   UNL A   1      34.725  24.992  25.167  1.00  0.00     0.012 A 
ATOM     16  C   UNL A   1      35.153  23.835  24.494  1.00  0.00    -0.018 A 
BRANCH  16  17
ATOM     17  C   UNL A   1      36.340  23.088  24.956  1.00  0.00    -0.018 A 
ATOM     18  C   UNL A   1      36.545  21.749  24.576  1.00  0.00     0.009 A 
ATOM     19  C   UNL A   1      37.331  23.696  25.748  1.00  0.00     0.009 A 
ATOM     20  C   UNL A   1      37.688  21.049  24.969  1.00  0.00     0.001 A 
ATOM     21  C   UNL A   1      38.481  23.002  26.132  1.00  0.00     0.001 A 
ATOM     22  C   UNL A   1      38.658  21.678  25.742  1.00  0.00     0.000 A 
ENDBRANCH  16  17
ENDBRANCH  10  11
ENDBRANCH   6  10
ENDBRANCH   3   6
ENDBRANCH   1   2
BRANCH   1  23
ATOM     23  C   UNL A   1      33.364  29.226  25.501  1.00  0.00     0.042 C 
BRANCH  23  24
ATOM     24  C   UNL A   1      33.802  29.092  26.951  1.00  0.00     0.118 C 
BRANCH  24  25
ATOM     25  N   UNL A   1      33.837  30.374  27.645  1.00  0.00    -0.352 N 
ATOM     26  C   UNL A   1      34.786  30.912  28.477  1.00  0.00     0.251 C 
ATOM     27  H   UNL A   1      33.052  30.949  27.490  1.00  0.00     0.163 HD
ATOM     28  O   UNL A   1      34.527  31.927  29.121  1.00  0.00    -0.269 OA
BRANCH  26  29
ATOM     29  C   UNL A   1      36.107  30.268  28.625  1.00  0.00     0.039 A 
ATOM     30  C   UNL A   1      37.007  30.321  27.558  1.00  0.00     0.014 A 
ATOM     31  C   UNL A   1      36.459  29.608  29.804  1.00  0.00     0.014 A 
ATOM     32  C   UNL A   1      38.291  29.794  27.707  1.00  0.00     0.010 A 
ATOM     33  C   UNL A   1      37.765  29.162  29.985  1.00  0.00     0.010 A 
ATOM     34  C   UNL A   1      38.697  29.260  28.942  1.00  0.00    -0.014 A 
BRANCH  34  35
ATOM     35  C   UNL A   1      40.101  28.842  29.176  1.00  0.00     0.031 A 
ATOM     36  C   UNL A   1      41.087  29.786  29.800  1.00  0.00     0.074 A 
ATOM     37  C   UNL A   1      40.506  27.632  28.744  1.00  0.00     0.049 A 
ATOM     38  N   UNL A   1      42.367  29.619  30.016  1.00  0.00    -0.248 NA
ATOM     39  C   UNL A   1      40.572  31.099  30.215  1.00  0.00     0.031 C 
ATOM     40  C   UNL A   1      39.653  26.641  28.084  1.00  0.00     0.029 A 
ATOM     41  N   UNL A   1      41.739  27.033  28.787  1.00  0.00    -0.354 N 
ATOM     42  C   UNL A   1      42.812  30.807  30.583  1.00  0.00     0.074 A 
ATOM     43  C   UNL A   1      41.677  31.705  30.622  1.00  0.00     0.031 C 
ATOM     44  C   UNL A   1      40.380  25.547  27.814  1.00  0.00     0.029 A 
ATOM     45  C   UNL A   1      41.759  25.776  28.233  1.00  0.00     0.049 A 
ATOM     46  H   UNL A   1      42.534  27.463  29.176  1.00  0.00     0.167 HD
ATOM     47  C   UNL A   1      44.047  31.113  31.048  1.00  0.00     0.037 A 
ATOM     48  C   UNL A   1      42.775  24.908  28.071  1.00  0.00     0.037 A 
ATOM     49  C   UNL A   1      45.173  30.215  31.003  1.00  0.00     0.049 A 
ATOM     50  C   UNL A   1      44.149  25.291  28.542  1.00  0.00     0.074 A 
ATOM     51  C   UNL A   1      46.450  30.407  31.499  1.00  0.00     0.029 A 
ATOM     52  N   UNL A   1      45.160  28.960  30.411  1.00  0.00    -0.354 N 
ATOM     53  N   UNL A   1      44.540  26.387  29.145  1.00  0.00    -0.248 NA
ATOM     54  C   UNL A   1      45.223  24.317  28.304  1.00  0.00     0.031 C 
ATOM     55  C   UNL A   1      47.226  29.296  31.152  1.00  0.00     0.029 A 
ATOM     56  C   UNL A   1      46.418  28.384  30.491  1.00  0.00     0.049 A 
ATOM     57  H   UNL A   1      44.372  28.539  29.995  1.00  0.00     0.167 HD
ATOM     58  C   UNL A   1      45.899  26.227  29.379  1.00  0.00     0.074 A 
ATOM     59  C   UNL A   1      46.261  24.921  28.867  1.00  0.00     0.031 C 
ATOM     60  C   UNL A   1      46.769  27.087  29.966  1.00  0.00     0.037 A 
BRANCH  47  61
ATOM     61  C   UNL A   1      44.241  32.486  31.627  1.00  0.00     0.057 A 
ATOM     62  C   UNL A   1      44.654  33.572  30.842  1.00  0.00     0.134 A 
ATOM     63  C   UNL A   1      44.009  32.729  32.987  1.00  0.00     0.134 A 
ATOM     64  F   UNL A   1      44.902  33.410  29.534  1.00  0.00    -0.206 F 
ATOM     65  C   UNL A   1      44.872  34.836  31.396  1.00  0.00     0.040 A 
ATOM     66  C   UNL A   1      44.193  33.995  33.546  1.00  0.00     0.040 A 
ATOM     67  F   UNL A   1      43.603  31.740  33.798  1.00  0.00    -0.206 F 
ATOM     68  C   UNL A   1      44.637  35.050  32.752  1.00  0.00     0.006 A 
ENDBRANCH  47  61
BRANCH  48  69
ATOM     69  C   UNL A   1      42.519  23.582  27.453  1.00  0.00     0.057 A 
ATOM     70  C   UNL A   1      42.608  23.410  26.067  1.00  0.00     0.134 A 
ATOM     71  C   UNL A   1      42.205  22.459  28.226  1.00  0.00     0.134 A 
ATOM     72  F   UNL A   1      42.888  24.453  25.274  1.00  0.00    -0.206 F 
ATOM     73  C   UNL A   1      42.387  22.167  25.471  1.00  0.00     0.040 A 
ATOM     74  C   UNL A   1      42.007  21.205  27.645  1.00  0.00     0.040 A 
ATOM     75  F   UNL A   1      42.113  22.557  29.561  1.00  0.00    -0.206 F 
ATOM     76  C   UNL A   1      42.093  21.059  26.261  1.00  0.00     0.006 A 
ENDBRANCH  48  69
BRANCH  60  77
ATOM     77  C   UNL A   1      48.196  26.637  30.098  1.00  0.00     0.057 A 
ATOM     78  C   UNL A   1      48.631  25.870  31.186  1.00  0.00     0.134 A 
ATOM     79  C   UNL A   1      49.136  26.938  29.103  1.00  0.00     0.134 A 
ATOM     80  F   UNL A   1      47.785  25.560  32.181  1.00  0.00    -0.206 F 
ATOM     81  C   UNL A   1      49.953  25.436  31.290  1.00  0.00     0.040 A 
ATOM     82  C   UNL A   1      50.453  26.485  29.183  1.00  0.00     0.040 A 
ATOM     83  F   UNL A   1      48.785  27.664  28.031  1.00  0.00    -0.206 F 
ATOM     84  C   UNL A   1      50.867  25.735  30.282  1.00  0.00     0.006 A 
ENDBRANCH  60  77
ENDBRANCH  34  35
ENDBRANCH  26  29
ENDBRANCH  24  25
ENDBRANCH  23  24
ENDBRANCH   1  23
TORSDOF 15
ENDMDL
MODEL 2
REMARK VINA RESULT:     -11.1      2.699      7.889
REMARK SMILES CCC[C@@H](Oc1ccc(-c2ccccc2)cc1)C(=O)NCCCNC(=O)c1ccc(-c2c3nc(c(-c4c(F)cccc4F)c4ccc([nH]4)c(-c4c(F)cccc4F)c4nc(c(-c5c(F)cccc5F)c5ccc2[nH]5)C=C4)C=C3)cc1
REMARK SMILES IDX 21 1 20 2 18 3 19 4 4 6 3 7 2 8 1 9 5 10 6 11 7 12 17 13
REMARK SMILES IDX 8 14 16 15 9 16 10 17 11 18 15 19 12 20 14 21 13 22 22 23
REMARK SMILES IDX 23 24 24 25 25 26 26 28 27 29 28 30 80 31 29 32 79 33 30 34
REMARK SMILES IDX 31 35 32 36 73 37 33 38 78 39 72 40 74 41 34 42 77 43 71 44
REMARK SMILES IDX 70 45 35 47 61 48 44 49 60 50 45 51 48 52 59 53 75 54 46 55
REMARK SMILES IDX 47 56 58 58 76 59 49 60 36 61 37 62 42 63 38 64 39 65 41 66
REMARK SMILES IDX 43 67 40 68 62 69 63 70 68 71 64 72 65 73 67 74 69 75 66 76
REMARK SMILES IDX 50 77 51 78 56 79 52 80 53 81 55 82 57 83 54 84
REMARK H PARENT 20 5 24 27 74 46 48 57
REMARK Flexibility Score: inf
ROOT
ATOM      1  C   UNL A   1      36.456  20.780  25.042  1.00  0.00     0.118 C 
ENDROOT
BRANCH   1   2
ATOM      2  N   UNL A   1      35.290  19.942  25.287  1.00  0.00    -0.353 N 
ATOM      3  C   UNL A   1      33.958  20.232  25.152  1.00  0.00     0.261 C 
ATOM      4  O   UNL A   1      33.147  19.328  25.370  1.00  0.00    -0.271 OA
ATOM      5  H   UNL A   1      35.490  19.028  25.595  1.00  0.00     0.163 HD
BRANCH   3   6
ATOM      6  C   UNL A   1      33.491  21.663  24.827  1.00  0.00     0.261 C 
BRANCH   6   7
ATOM      7  C   UNL A   1      32.256  21.533  23.904  1.00  0.00     0.055 C 
BRANCH   7   8
ATOM      8  C   UNL A   1      32.065  22.564  22.784  1.00  0.00     0.001 C 
ATOM      9  C   UNL A   1      33.337  23.200  22.256  1.00  0.00     0.004 C 
ENDBRANCH   7   8
ENDBRANCH   6   7
BRANCH   6  10
ATOM     10  O   UNL A   1      33.273  22.260  26.115  1.00  0.00    -0.481 OA
BRANCH  10  11
ATOM     11  C   UNL A   1      33.015  23.589  26.094  1.00  0.00     0.120 A 
ATOM     12  C   UNL A   1      31.738  24.055  26.364  1.00  0.00     0.047 A 
ATOM     13  C   UNL A   1      34.010  24.458  25.674  1.00  0.00     0.047 A 
ATOM     14  C   UNL A   1      31.494  25.430  26.332  1.00  0.00     0.012 A 
ATOM     15  C   UNL A   1      33.781  25.830  25.699  1.00  0.00     0.012 A 
ATOM     16  C   UNL A   1      32.524  26.349  26.051  1.00  0.00    -0.018 A 
BRANCH  16  17
ATOM     17  C   UNL A   1      32.311  27.806  26.157  1.00  0.00    -0.018 A 
ATOM     18  C   UNL A   1      32.896  28.549  27.198  1.00  0.00     0.009 A 
ATOM     19  C   UNL A   1      31.561  28.513  25.198  1.00  0.00     0.009 A 
ATOM     20  C   UNL A   1      32.741  29.935  27.280  1.00  0.00     0.001 A 
ATOM     21  C   UNL A   1      31.414  29.901  25.271  1.00  0.00     0.001 A 
ATOM     22  C   UNL A   1      32.004  30.610  26.312  1.00  0.00     0.000 A 
ENDBRANCH  16  17
ENDBRANCH  10  11
ENDBRANCH   6  10
ENDBRANCH   3   6
ENDBRANCH   1   2
BRANCH   1  23
ATOM     23  C   UNL A   1      37.726  19.970  24.835  1.00  0.00     0.042 C 
BRANCH  23  24
ATOM     24  C   UNL A   1      38.900  20.451  25.675  1.00  0.00     0.118 C 
BRANCH  24  25
ATOM     25  N   UNL A   1      39.958  19.452  25.778  1.00  0.00    -0.352 N 
ATOM     26  C   UNL A   1      41.286  19.590  26.090  1.00  0.00     0.251 C 
ATOM     27  H   UNL A   1      39.672  18.528  25.594  1.00  0.00     0.163 HD
ATOM     28  O   UNL A   1      42.053  18.643  25.923  1.00  0.00    -0.269 OA
BRANCH  26  29
ATOM     29  C   UNL A   1      41.809  20.874  26.601  1.00  0.00     0.039 A 
ATOM     30  C   UNL A   1      42.330  21.800  25.694  1.00  0.00     0.014 A 
ATOM     31  C   UNL A   1      41.794  21.166  27.967  1.00  0.00     0.014 A 
ATOM     32  C   UNL A   1      42.750  23.052  26.145  1.00  0.00     0.010 A 
ATOM     33  C   UNL A   1      42.128  22.443  28.406  1.00  0.00     0.010 A 
ATOM     34  C   UNL A   1      42.600  23.402  27.498  1.00  0.00    -0.014 A 
BRANCH  34  35
ATOM     35  C   UNL A   1      42.887  24.778  27.973  1.00  0.00     0.031 A 
ATOM     36  C   UNL A   1      44.282  25.183  28.352  1.00  0.00     0.074 A 
ATOM     37  C   UNL A   1      41.865  25.640  28.144  1.00  0.00     0.049 A 
ATOM     38  N   UNL A   1      44.707  26.315  28.853  1.00  0.00    -0.248 NA
ATOM     39  C   UNL A   1      45.335  24.173  28.166  1.00  0.00     0.031 C 
ATOM     40  C   UNL A   1      40.459  25.352  27.851  1.00  0.00     0.029 A 
ATOM     41  N   UNL A   1      41.851  26.929  28.612  1.00  0.00    -0.354 N 
ATOM     42  C   UNL A   1      46.072  26.152  29.049  1.00  0.00     0.074 A 
ATOM     43  C   UNL A   1      46.392  24.792  28.668  1.00  0.00     0.031 C 
ATOM     44  C   UNL A   1      39.725  26.442  28.116  1.00  0.00     0.029 A 
ATOM     45  C   UNL A   1      40.595  27.487  28.643  1.00  0.00     0.049 A 
ATOM     46  H   UNL A   1      42.661  27.408  28.897  1.00  0.00     0.167 HD
ATOM     47  C   UNL A   1      46.980  27.059  29.485  1.00  0.00     0.037 A 
ATOM     48  C   UNL A   1      40.189  28.701  29.060  1.00  0.00     0.037 A 
ATOM     49  C   UNL A   1      46.653  28.410  29.864  1.00  0.00     0.049 A 
ATOM     50  C   UNL A   1      41.204  29.671  29.593  1.00  0.00     0.074 A 
ATOM     51  C   UNL A   1      47.505  29.424  30.264  1.00  0.00     0.029 A 
ATOM     52  N   UNL A   1      45.366  28.930  29.907  1.00  0.00    -0.354 N 
ATOM     53  N   UNL A   1      42.502  29.531  29.703  1.00  0.00    -0.248 NA
ATOM     54  C   UNL A   1      40.694  30.965  30.066  1.00  0.00     0.031 C 
ATOM     55  C   UNL A   1      46.730  30.537  30.609  1.00  0.00     0.029 A 
ATOM     56  C   UNL A   1      45.398  30.237  30.368  1.00  0.00     0.049 A 
ATOM     57  H   UNL A   1      44.551  28.443  29.648  1.00  0.00     0.167 HD
ATOM     58  C   UNL A   1      42.969  30.725  30.236  1.00  0.00     0.074 A 
ATOM     59  C   UNL A   1      41.815  31.583  30.413  1.00  0.00     0.031 C 
ATOM     60  C   UNL A   1      44.240  31.078  30.551  1.00  0.00     0.037 A 
BRANCH  47  61
ATOM     61  C   UNL A   1      48.408  26.605  29.590  1.00  0.00     0.057 A 
ATOM     62  C   UNL A   1      49.327  26.797  28.549  1.00  0.00     0.134 A 
ATOM     63  C   UNL A   1      48.875  25.970  30.749  1.00  0.00     0.134 A 
ATOM     64  F   UNL A   1      48.947  27.391  27.407  1.00  0.00    -0.206 F 
ATOM     65  C   UNL A   1      50.642  26.335  28.637  1.00  0.00     0.040 A 
ATOM     66  C   UNL A   1      50.196  25.533  30.862  1.00  0.00     0.040 A 
ATOM     67  F   UNL A   1      48.055  25.761  31.790  1.00  0.00    -0.206 F 
ATOM     68  C   UNL A   1      51.080  25.704  29.799  1.00  0.00     0.006 A 
ENDBRANCH  47  61
BRANCH  48  69
ATOM     69  C   UNL A   1      38.754  29.069  28.964  1.00  0.00     0.057 A 
ATOM     70  C   UNL A   1      37.914  28.971  30.079  1.00  0.00     0.134 A 
ATOM     71  C   UNL A   1      38.195  29.546  27.773  1.00  0.00     0.134 A 
ATOM     72  F   UNL A   1      38.389  28.504  31.242  1.00  0.00    -0.206 F 
ATOM     73  C   UNL A   1      36.567  29.329  30.012  1.00  0.00     0.040 A 
ATOM     74  C   UNL A   1      36.855  29.931  27.698  1.00  0.00     0.040 A 
ATOM     75  F   UNL A   1      38.950  29.671  26.671  1.00  0.00    -0.206 F 
ATOM     76  C   UNL A   1      36.036  29.818  28.820  1.00  0.00     0.006 A 
ENDBRANCH  48  69
BRANCH  60  77
ATOM     77  C   UNL A   1      44.453  32.457  31.107  1.00  0.00     0.057 A 
ATOM     78  C   UNL A   1      44.638  33.569  30.275  1.00  0.00     0.134 A 
ATOM     79  C   UNL A   1      44.430  32.682  32.490  1.00  0.00     0.134 A 
ATOM     80  F   UNL A   1      44.686  33.420  28.942  1.00  0.00    -0.206 F 
ATOM     81  C   UNL A   1      44.811  34.851  30.799  1.00  0.00     0.040 A 
ATOM     82  C   UNL A   1      44.573  33.964  33.023  1.00  0.00     0.040 A 
ATOM     83  F   UNL A   1      44.251  31.663  33.344  1.00  0.00    -0.206 F 
ATOM     84  C   UNL A   1      44.770  35.052  32.177  1.00  0.00     0.006 A 
ENDBRANCH  60  77
ENDBRANCH  34  35
ENDBRANCH  26  29
ENDBRANCH  24  25
ENDBRANCH  23  24
ENDBRANCH   1  23
TORSDOF 15
ENDMDL
MODEL 3
REMARK VINA RESULT:     -11.1      1.685      2.484
REMARK SMILES CCC[C@@H](Oc1ccc(-c2ccccc2)cc1)C(=O)NCCCNC(=O)c1ccc(-c2c3nc(c(-c4c(F)cccc4F)c4ccc([nH]4)c(-c4c(F)cccc4F)c4nc(c(-c5c(F)cccc5F)c5ccc2[nH]5)C=C4)C=C3)cc1
REMARK SMILES IDX 21 1 20 2 18 3 19 4 4 6 3 7 2 8 1 9 5 10 6 11 7 12 17 13
REMARK SMILES IDX 8 14 16 15 9 16 10 17 11 18 15 19 12 20 14 21 13 22 22 23
REMARK SMILES IDX 23 24 24 25 25 26 26 28 27 29 28 30 80 31 29 32 79 33 30 34
REMARK SMILES IDX 31 35 32 36 73 37 33 38 78 39 72 40 74 41 34 42 77 43 71 44
REMARK SMILES IDX 70 45 35 47 61 48 44 49 60 50 45 51 48 52 59 53 75 54 46 55
REMARK SMILES IDX 47 56 58 58 76 59 49 60 36 61 37 62 42 63 38 64 39 65 41 66
REMARK SMILES IDX 43 67 40 68 62 69 63 70 68 71 64 72 65 73 67 74 69 75 66 76
REMARK SMILES IDX 50 77 51 78 56 79 52 80 53 81 55 82 57 83 54 84
REMARK H PARENT 20 5 24 27 74 46 48 57
REMARK Flexibility Score: inf
ROOT
ATOM      1  C   UNL A   1      32.466  28.691  25.068  1.00  0.00     0.118 C 
ENDROOT
BRANCH   1   2
ATOM      2  N   UNL A   1      31.471  27.991  25.870  1.00  0.00    -0.353 N 
ATOM      3  C   UNL A   1      31.212  26.649  25.971  1.00  0.00     0.261 C 
ATOM      4  O   UNL A   1      30.343  26.289  26.769  1.00  0.00    -0.271 OA
ATOM      5  H   UNL A   1      30.898  28.570  26.424  1.00  0.00     0.163 HD
BRANCH   3   6
ATOM      6  C   UNL A   1      31.923  25.637  25.053  1.00  0.00     0.261 C 
BRANCH   6   7
ATOM      7  C   UNL A   1      33.176  25.144  25.815  1.00  0.00     0.055 C 
BRANCH   7   8
ATOM      8  C   UNL A   1      34.504  25.042  25.053  1.00  0.00     0.001 C 
ATOM      9  C   UNL A   1      35.156  23.672  25.056  1.00  0.00     0.004 C 
ENDBRANCH   7   8
ENDBRANCH   6   7
BRANCH   6  10
ATOM     10  O   UNL A   1      30.914  24.657  24.768  1.00  0.00    -0.481 OA
BRANCH  10  11
ATOM     11  C   UNL A   1      31.380  23.411  24.516  1.00  0.00     0.120 A 
ATOM     12  C   UNL A   1      31.726  23.043  23.226  1.00  0.00     0.047 A 
ATOM     13  C   UNL A   1      31.384  22.478  25.541  1.00  0.00     0.047 A 
ATOM     14  C   UNL A   1      32.201  21.751  22.990  1.00  0.00     0.012 A 
ATOM     15  C   UNL A   1      31.911  21.210  25.317  1.00  0.00     0.012 A 
ATOM     16  C   UNL A   1      32.353  20.825  24.040  1.00  0.00    -0.018 A 
BRANCH  16  17
ATOM     17  C   UNL A   1      32.989  19.510  23.826  1.00  0.00    -0.018 A 
ATOM     18  C   UNL A   1      34.114  19.119  24.575  1.00  0.00     0.009 A 
ATOM     19  C   UNL A   1      32.469  18.581  22.906  1.00  0.00     0.009 A 
ATOM     20  C   UNL A   1      34.693  17.858  24.415  1.00  0.00     0.001 A 
ATOM     21  C   UNL A   1      33.039  17.314  22.752  1.00  0.00     0.001 A 
ATOM     22  C   UNL A   1      34.151  16.954  23.506  1.00  0.00     0.000 A 
ENDBRANCH  16  17
ENDBRANCH  10  11
ENDBRANCH   6  10
ENDBRANCH   3   6
ENDBRANCH   1   2
BRANCH   1  23
ATOM     23  C   UNL A   1      33.828  28.742  25.741  1.00  0.00     0.042 C 
BRANCH  23  24
ATOM     24  C   UNL A   1      33.758  28.808  27.259  1.00  0.00     0.118 C 
BRANCH  24  25
ATOM     25  N   UNL A   1      33.844  30.174  27.762  1.00  0.00    -0.352 N 
ATOM     26  C   UNL A   1      34.850  30.811  28.443  1.00  0.00     0.251 C 
ATOM     27  H   UNL A   1      33.050  30.730  27.583  1.00  0.00     0.163 HD
ATOM     28  O   UNL A   1      34.637  31.909  28.955  1.00  0.00    -0.269 OA
BRANCH  26  29
ATOM     29  C   UNL A   1      36.177  30.179  28.587  1.00  0.00     0.039 A 
ATOM     30  C   UNL A   1      37.072  30.236  27.516  1.00  0.00     0.014 A 
ATOM     31  C   UNL A   1      36.540  29.526  29.767  1.00  0.00     0.014 A 
ATOM     32  C   UNL A   1      38.361  29.721  27.661  1.00  0.00     0.010 A 
ATOM     33  C   UNL A   1      37.850  29.093  29.944  1.00  0.00     0.010 A 
ATOM     34  C   UNL A   1      38.777  29.195  28.895  1.00  0.00    -0.014 A 
BRANCH  34  35
ATOM     35  C   UNL A   1      40.185  28.790  29.125  1.00  0.00     0.031 A 
ATOM     36  C   UNL A   1      41.168  29.747  29.736  1.00  0.00     0.074 A 
ATOM     37  C   UNL A   1      40.598  27.580  28.700  1.00  0.00     0.049 A 
ATOM     38  N   UNL A   1      42.450  29.592  29.945  1.00  0.00    -0.248 NA
ATOM     39  C   UNL A   1      40.644  31.058  30.144  1.00  0.00     0.031 C 
ATOM     40  C   UNL A   1      39.749  26.577  28.053  1.00  0.00     0.029 A 
ATOM     41  N   UNL A   1      41.836  26.991  28.740  1.00  0.00    -0.354 N 
ATOM     42  C   UNL A   1      42.888  30.788  30.501  1.00  0.00     0.074 A 
ATOM     43  C   UNL A   1      41.746  31.676  30.540  1.00  0.00     0.031 C 
ATOM     44  C   UNL A   1      40.483  25.487  27.787  1.00  0.00     0.029 A 
ATOM     45  C   UNL A   1      41.862  25.730  28.195  1.00  0.00     0.049 A 
ATOM     46  H   UNL A   1      42.629  27.430  29.121  1.00  0.00     0.167 HD
ATOM     47  C   UNL A   1      44.124  31.107  30.956  1.00  0.00     0.037 A 
ATOM     48  C   UNL A   1      42.885  24.869  28.034  1.00  0.00     0.037 A 
ATOM     49  C   UNL A   1      45.256  30.218  30.912  1.00  0.00     0.049 A 
ATOM     50  C   UNL A   1      44.258  25.267  28.495  1.00  0.00     0.074 A 
ATOM     51  C   UNL A   1      46.535  30.424  31.399  1.00  0.00     0.029 A 
ATOM     52  N   UNL A   1      45.250  28.958  30.330  1.00  0.00    -0.354 N 
ATOM     53  N   UNL A   1      44.644  26.370  29.087  1.00  0.00    -0.248 NA
ATOM     54  C   UNL A   1      45.339  24.299  28.258  1.00  0.00     0.031 C 
ATOM     55  C   UNL A   1      47.318  29.316  31.056  1.00  0.00     0.029 A 
ATOM     56  C   UNL A   1      46.513  28.393  30.407  1.00  0.00     0.049 A 
ATOM     57  H   UNL A   1      44.463  28.528  29.921  1.00  0.00     0.167 HD
ATOM     58  C   UNL A   1      46.006  26.223  29.314  1.00  0.00     0.074 A 
ATOM     59  C   UNL A   1      46.374  24.916  28.810  1.00  0.00     0.031 C 
ATOM     60  C   UNL A   1      46.872  27.094  29.889  1.00  0.00     0.037 A 
BRANCH  47  61
ATOM     61  C   UNL A   1      44.310  32.486  31.524  1.00  0.00     0.057 A 
ATOM     62  C   UNL A   1      44.102  32.764  32.883  1.00  0.00     0.134 A 
ATOM     63  C   UNL A   1      44.707  33.551  30.705  1.00  0.00     0.134 A 
ATOM     64  F   UNL A   1      43.713  31.793  33.724  1.00  0.00    -0.206 F 
ATOM     65  C   UNL A   1      44.236  34.056  33.396  1.00  0.00     0.040 A 
ATOM     66  C   UNL A   1      44.876  34.840  31.213  1.00  0.00     0.040 A 
ATOM     67  F   UNL A   1      44.934  33.358  29.397  1.00  0.00    -0.206 F 
ATOM     68  C   UNL A   1      44.629  35.098  32.559  1.00  0.00     0.006 A 
ENDBRANCH  47  61
BRANCH  48  69
ATOM     69  C   UNL A   1      42.635  23.537  27.428  1.00  0.00     0.057 A 
ATOM     70  C   UNL A   1      42.735  23.350  26.045  1.00  0.00     0.134 A 
ATOM     71  C   UNL A   1      42.319  22.420  28.210  1.00  0.00     0.134 A 
ATOM     72  F   UNL A   1      43.018  24.387  25.243  1.00  0.00    -0.206 F 
ATOM     73  C   UNL A   1      42.521  22.102  25.459  1.00  0.00     0.040 A 
ATOM     74  C   UNL A   1      42.127  21.161  27.640  1.00  0.00     0.040 A 
ATOM     75  F   UNL A   1      42.218  22.532  29.543  1.00  0.00    -0.206 F 
ATOM     76  C   UNL A   1      42.224  21.001  26.259  1.00  0.00     0.006 A 
ENDBRANCH  48  69
BRANCH  60  77
ATOM     77  C   UNL A   1      48.303  26.657  30.016  1.00  0.00     0.057 A 
ATOM     78  C   UNL A   1      48.741  25.867  31.087  1.00  0.00     0.134 A 
ATOM     79  C   UNL A   1      49.244  26.994  29.035  1.00  0.00     0.134 A 
ATOM     80  F   UNL A   1      47.894  25.522  32.069  1.00  0.00    -0.206 F 
ATOM     81  C   UNL A   1      50.068  25.444  31.186  1.00  0.00     0.040 A 
ATOM     82  C   UNL A   1      50.566  26.553  29.109  1.00  0.00     0.040 A 
ATOM     83  F   UNL A   1      48.890  27.744  27.980  1.00  0.00    -0.206 F 
ATOM     84  C   UNL A   1      50.983  25.780  30.190  1.00  0.00     0.006 A 
ENDBRANCH  60  77
ENDBRANCH  34  35
ENDBRANCH  26  29
ENDBRANCH  24  25
ENDBRANCH  23  24
ENDBRANCH   1  23
TORSDOF 15
ENDMDL
