MODEL 1
REMARK VINA RESULT:     -12.1      0.000      0.000
REMARK SMILES C[C@H]1[C@H](C(=O)NCCCNC(=O)c2ccc(-c3c4nc(c(-c5c(F)cccc5F)c5ccc([nH]5)c(-c5c(F)cccc5F)c5nc(c(-c6c(F)cccc6F)c6ccc3[nH]6)C=C5)C=C4)cc2)CCN1c1ccc(C(N)=O)c(Cl)c1
REMARK SMILES IDX 8 1 7 2 6 3 4 4 5 5 3 7 1 8 2 9 69 10 67 11 68 12 70 13
REMARK SMILES IDX 71 14 79 15 72 16 77 17 73 18 78 19 74 20 75 21 76 22 9 25
REMARK SMILES IDX 10 26 11 27 12 29 13 30 14 31 66 32 15 33 65 34 16 35 17 36
REMARK SMILES IDX 18 37 59 38 19 39 64 40 58 41 60 42 20 43 63 44 57 45 56 46
REMARK SMILES IDX 21 48 47 49 30 50 46 51 31 52 34 53 45 54 61 55 32 56 33 57
REMARK SMILES IDX 44 59 62 60 35 61 22 62 23 63 28 64 24 65 25 66 27 67 29 68
REMARK SMILES IDX 26 69 48 70 49 71 54 72 50 73 51 74 53 75 55 76 52 77 36 78
REMARK SMILES IDX 37 79 42 80 38 81 39 82 41 83 43 84 40 85
REMARK H PARENT 6 6 75 23 75 24 10 28 60 47 34 58
REMARK Flexibility Score: inf
ROOT
ATOM      1  C   UNL A   1      37.667  19.478  25.014  1.00  0.00     0.042 C 
ENDROOT
BRANCH   1   2
ATOM      2  C   UNL A   1      36.465  20.415  25.019  1.00  0.00     0.117 C 
BRANCH   2   3
ATOM      3  N   UNL A   1      36.672  21.577  24.170  1.00  0.00    -0.356 N 
ATOM      4  C   UNL A   1      35.826  22.563  23.775  1.00  0.00     0.225 C 
ATOM      5  O   UNL A   1      36.274  23.414  23.001  1.00  0.00    -0.275 OA
ATOM      6  H   UNL A   1      37.588  21.663  23.819  1.00  0.00     0.163 HD
BRANCH   4   7
ATOM      7  C   UNL A   1      34.383  22.651  24.244  1.00  0.00     0.102 C 
ATOM      8  C   UNL A   1      33.703  24.172  26.143  1.00  0.00     0.032 C 
ATOM      9  C   UNL A   1      33.982  24.080  24.641  1.00  0.00     0.091 C 
ATOM     10  N   UNL A   1      32.753  24.339  23.885  1.00  0.00    -0.368 N 
ATOM     11  C   UNL A   1      33.367  22.168  23.209  1.00  0.00     0.037 C 
ATOM     12  C   UNL A   1      32.184  23.121  23.326  1.00  0.00     0.118 C 
BRANCH  10  13
ATOM     13  C   UNL A   1      32.178  25.571  23.700  1.00  0.00     0.038 A 
ATOM     14  C   UNL A   1      30.796  25.723  23.589  1.00  0.00     0.027 A 
ATOM     15  C   UNL A   1      32.944  26.732  23.568  1.00  0.00     0.047 A 
ATOM     16  C   UNL A   1      30.205  26.972  23.341  1.00  0.00     0.017 A 
ATOM     17  C   UNL A   1      32.377  27.987  23.279  1.00  0.00     0.055 A 
ATOM     18  C   UNL A   1      30.986  28.126  23.168  1.00  0.00     0.058 A 
ATOM     19  Cl  UNL A   1      33.515  29.277  23.067  1.00  0.00    -0.083 Cl
BRANCH  18  20
ATOM     20  C   UNL A   1      30.335  29.438  22.846  1.00  0.00     0.250 C 
ATOM     21  N   UNL A   1      30.534  29.981  21.605  1.00  0.00    -0.366 N 
ATOM     22  O   UNL A   1      29.635  30.062  23.636  1.00  0.00    -0.269 OA
ATOM     23  H   UNL A   1      31.091  29.510  20.944  1.00  0.00     0.159 HD
ATOM     24  H   UNL A   1      30.121  30.845  21.374  1.00  0.00     0.159 HD
ENDBRANCH  18  20
ENDBRANCH  10  13
ENDBRANCH   4   7
ENDBRANCH   2   3
ENDBRANCH   1   2
BRANCH   1  25
ATOM     25  C   UNL A   1      38.938  20.091  25.578  1.00  0.00     0.118 C 
BRANCH  25  26
ATOM     26  N   UNL A   1      39.984  19.103  25.792  1.00  0.00    -0.352 N 
ATOM     27  C   UNL A   1      41.312  19.266  26.102  1.00  0.00     0.251 C 
ATOM     28  H   UNL A   1      39.694  18.168  25.700  1.00  0.00     0.163 HD
ATOM     29  O   UNL A   1      42.068  18.302  26.028  1.00  0.00    -0.269 OA
BRANCH  27  30
ATOM     30  C   UNL A   1      41.842  20.586  26.510  1.00  0.00     0.039 A 
ATOM     31  C   UNL A   1      42.254  21.480  25.516  1.00  0.00     0.014 A 
ATOM     32  C   UNL A   1      41.975  20.939  27.855  1.00  0.00     0.014 A 
ATOM     33  C   UNL A   1      42.740  22.740  25.871  1.00  0.00     0.010 A 
ATOM     34  C   UNL A   1      42.364  22.229  28.204  1.00  0.00     0.010 A 
ATOM     35  C   UNL A   1      42.764  23.140  27.217  1.00  0.00    -0.014 A 
BRANCH  35  36
ATOM     36  C   UNL A   1      43.211  24.503  27.604  1.00  0.00     0.031 A 
ATOM     37  C   UNL A   1      42.206  25.559  27.980  1.00  0.00     0.074 A 
ATOM     38  C   UNL A   1      44.523  24.805  27.571  1.00  0.00     0.049 A 
ATOM     39  N   UNL A   1      42.405  26.809  28.314  1.00  0.00    -0.248 NA
ATOM     40  C   UNL A   1      40.788  25.167  27.951  1.00  0.00     0.031 C 
ATOM     41  C   UNL A   1      45.592  23.891  27.163  1.00  0.00     0.029 A 
ATOM     42  N   UNL A   1      45.182  25.970  27.877  1.00  0.00    -0.354 N 
ATOM     43  C   UNL A   1      41.143  27.352  28.525  1.00  0.00     0.074 A 
ATOM     44  C   UNL A   1      40.182  26.315  28.218  1.00  0.00     0.031 C 
ATOM     45  C   UNL A   1      46.773  24.518  27.276  1.00  0.00     0.029 A 
ATOM     46  C   UNL A   1      46.544  25.888  27.722  1.00  0.00     0.049 A 
ATOM     47  H   UNL A   1      44.722  26.785  28.181  1.00  0.00     0.167 HD
ATOM     48  C   UNL A   1      40.814  28.591  28.962  1.00  0.00     0.037 A 
ATOM     49  C   UNL A   1      47.502  26.815  27.911  1.00  0.00     0.037 A 
ATOM     50  C   UNL A   1      41.773  29.617  29.279  1.00  0.00     0.049 A 
ATOM     51  C   UNL A   1      47.112  28.184  28.393  1.00  0.00     0.074 A 
ATOM     52  C   UNL A   1      41.543  30.889  29.775  1.00  0.00     0.029 A 
ATOM     53  N   UNL A   1      43.146  29.491  29.124  1.00  0.00    -0.354 N 
ATOM     54  N   UNL A   1      45.919  28.659  28.658  1.00  0.00    -0.248 NA
ATOM     55  C   UNL A   1      48.204  29.141  28.611  1.00  0.00     0.031 C 
ATOM     56  C   UNL A   1      42.774  31.549  29.875  1.00  0.00     0.029 A 
ATOM     57  C   UNL A   1      43.775  30.670  29.493  1.00  0.00     0.049 A 
ATOM     58  H   UNL A   1      43.605  28.683  28.798  1.00  0.00     0.167 HD
ATOM     59  C   UNL A   1      46.118  29.963  29.095  1.00  0.00     0.074 A 
ATOM     60  C   UNL A   1      47.548  30.193  29.082  1.00  0.00     0.031 C 
ATOM     61  C   UNL A   1      45.199  30.887  29.471  1.00  0.00     0.037 A 
BRANCH  48  62
ATOM     62  C   UNL A   1      39.353  28.899  29.128  1.00  0.00     0.057 A 
ATOM     63  C   UNL A   1      38.693  28.716  30.351  1.00  0.00     0.134 A 
ATOM     64  C   UNL A   1      38.600  29.410  28.062  1.00  0.00     0.134 A 
ATOM     65  F   UNL A   1      39.349  28.219  31.411  1.00  0.00    -0.206 F 
ATOM     66  C   UNL A   1      37.334  28.998  30.500  1.00  0.00     0.040 A 
ATOM     67  C   UNL A   1      37.248  29.726  28.208  1.00  0.00     0.040 A 
ATOM     68  F   UNL A   1      39.169  29.618  26.865  1.00  0.00    -0.206 F 
ATOM     69  C   UNL A   1      36.609  29.512  29.427  1.00  0.00     0.006 A 
ENDBRANCH  48  62
BRANCH  49  70
ATOM     70  C   UNL A   1      48.925  26.470  27.663  1.00  0.00     0.057 A 
ATOM     71  C   UNL A   1      49.518  26.691  26.414  1.00  0.00     0.134 A 
ATOM     72  C   UNL A   1      49.725  25.911  28.666  1.00  0.00     0.134 A 
ATOM     73  F   UNL A   1      48.797  27.206  25.407  1.00  0.00    -0.206 F 
ATOM     74  C   UNL A   1      50.849  26.351  26.166  1.00  0.00     0.040 A 
ATOM     75  C   UNL A   1      51.066  25.595  28.441  1.00  0.00     0.040 A 
ATOM     76  F   UNL A   1      49.218  25.677  29.886  1.00  0.00    -0.206 F 
ATOM     77  C   UNL A   1      51.629  25.808  27.184  1.00  0.00     0.006 A 
ENDBRANCH  49  70
BRANCH  61  78
ATOM     78  C   UNL A   1      45.719  32.221  29.925  1.00  0.00     0.057 A 
ATOM     79  C   UNL A   1      46.042  32.474  31.264  1.00  0.00     0.134 A 
ATOM     80  C   UNL A   1      45.918  33.259  29.006  1.00  0.00     0.134 A 
ATOM     81  F   UNL A   1      45.865  31.527  32.199  1.00  0.00    -0.206 F 
ATOM     82  C   UNL A   1      46.513  33.722  31.678  1.00  0.00     0.040 A 
ATOM     83  C   UNL A   1      46.416  34.500  29.402  1.00  0.00     0.040 A 
ATOM     84  F   UNL A   1      45.640  33.081  27.706  1.00  0.00    -0.206 F 
ATOM     85  C   UNL A   1      46.707  34.737  30.744  1.00  0.00     0.006 A 
ENDBRANCH  61  78
ENDBRANCH  35  36
ENDBRANCH  27  30
ENDBRANCH  25  26
ENDBRANCH   1  25
TORSDOF 12
ENDMDL
MODEL 2
REMARK VINA RESULT:     -12.0      0.997      6.338
REMARK SMILES C[C@H]1[C@H](C(=O)NCCCNC(=O)c2ccc(-c3c4nc(c(-c5c(F)cccc5F)c5ccc([nH]5)c(-c5c(F)cccc5F)c5nc(c(-c6c(F)cccc6F)c6ccc3[nH]6)C=C5)C=C4)cc2)CCN1c1ccc(C(N)=O)c(Cl)c1
REMARK SMILES IDX 8 1 7 2 6 3 4 4 5 5 3 7 1 8 2 9 69 10 67 11 68 12 70 13
REMARK SMILES IDX 71 14 79 15 72 16 77 17 73 18 78 19 74 20 75 21 76 22 9 25
REMARK SMILES IDX 10 26 11 27 12 29 13 30 14 31 66 32 15 33 65 34 16 35 17 36
REMARK SMILES IDX 18 37 59 38 19 39 64 40 58 41 60 42 20 43 63 44 57 45 56 46
REMARK SMILES IDX 21 48 47 49 30 50 46 51 31 52 34 53 45 54 61 55 32 56 33 57
REMARK SMILES IDX 44 59 62 60 35 61 22 62 23 63 28 64 24 65 25 66 27 67 29 68
REMARK SMILES IDX 26 69 48 70 49 71 54 72 50 73 51 74 53 75 55 76 52 77 36 78
REMARK SMILES IDX 37 79 42 80 38 81 39 82 41 83 43 84 40 85
REMARK H PARENT 6 6 75 23 75 24 10 28 60 47 34 58
REMARK Flexibility Score: inf
ROOT
ATOM      1  C   UNL A   1      37.723  19.471  25.000  1.00  0.00     0.042 C 
ENDROOT
BRANCH   1   2
ATOM      2  C   UNL A   1      36.493  20.370  24.987  1.00  0.00     0.117 C 
BRANCH   2   3
ATOM      3  N   UNL A   1      36.678  21.538  24.140  1.00  0.00    -0.356 N 
ATOM      4  C   UNL A   1      35.834  22.550  23.809  1.00  0.00     0.225 C 
ATOM      5  O   UNL A   1      36.255  23.399  23.019  1.00  0.00    -0.275 OA
ATOM      6  H   UNL A   1      37.572  21.607  23.735  1.00  0.00     0.163 HD
BRANCH   4   7
ATOM      7  C   UNL A   1      34.425  22.667  24.366  1.00  0.00     0.102 C 
ATOM      8  C   UNL A   1      33.805  24.477  26.016  1.00  0.00     0.032 C 
ATOM      9  C   UNL A   1      33.981  24.128  24.537  1.00  0.00     0.091 C 
ATOM     10  N   UNL A   1      32.691  24.202  23.845  1.00  0.00    -0.368 N 
ATOM     11  C   UNL A   1      33.364  21.969  23.515  1.00  0.00     0.037 C 
ATOM     12  C   UNL A   1      32.146  22.884  23.555  1.00  0.00     0.118 C 
BRANCH  10  13
ATOM     13  C   UNL A   1      32.044  25.359  23.492  1.00  0.00     0.038 A 
ATOM     14  C   UNL A   1      32.731  26.446  22.952  1.00  0.00     0.027 A 
ATOM     15  C   UNL A   1      30.672  25.529  23.695  1.00  0.00     0.047 A 
ATOM     16  C   UNL A   1      32.084  27.653  22.644  1.00  0.00     0.017 A 
ATOM     17  C   UNL A   1      30.009  26.743  23.432  1.00  0.00     0.055 A 
ATOM     18  C   UNL A   1      30.713  27.829  22.891  1.00  0.00     0.058 A 
ATOM     19  Cl  UNL A   1      28.326  26.766  23.841  1.00  0.00    -0.083 Cl
BRANCH  18  20
ATOM     20  C   UNL A   1      30.057  29.147  22.608  1.00  0.00     0.250 C 
ATOM     21  N   UNL A   1      30.152  30.141  23.545  1.00  0.00    -0.366 N 
ATOM     22  O   UNL A   1      29.428  29.389  21.583  1.00  0.00    -0.269 OA
ATOM     23  H   UNL A   1      30.648  29.985  24.381  1.00  0.00     0.159 HD
ATOM     24  H   UNL A   1      29.723  31.013  23.382  1.00  0.00     0.159 HD
ENDBRANCH  18  20
ENDBRANCH  10  13
ENDBRANCH   4   7
ENDBRANCH   2   3
ENDBRANCH   1   2
BRANCH   1  25
ATOM     25  C   UNL A   1      38.995  20.159  25.468  1.00  0.00     0.118 C 
BRANCH  25  26
ATOM     26  N   UNL A   1      40.072  19.218  25.731  1.00  0.00    -0.352 N 
ATOM     27  C   UNL A   1      41.365  19.437  26.139  1.00  0.00     0.251 C 
ATOM     28  H   UNL A   1      39.837  18.273  25.596  1.00  0.00     0.163 HD
ATOM     29  O   UNL A   1      42.172  18.513  26.096  1.00  0.00    -0.269 OA
BRANCH  27  30
ATOM     30  C   UNL A   1      41.798  20.770  26.615  1.00  0.00     0.039 A 
ATOM     31  C   UNL A   1      42.183  21.727  25.672  1.00  0.00     0.014 A 
ATOM     32  C   UNL A   1      41.867  21.074  27.977  1.00  0.00     0.014 A 
ATOM     33  C   UNL A   1      42.577  22.999  26.093  1.00  0.00     0.010 A 
ATOM     34  C   UNL A   1      42.162  22.370  28.389  1.00  0.00     0.010 A 
ATOM     35  C   UNL A   1      42.535  23.344  27.453  1.00  0.00    -0.014 A 
BRANCH  35  36
ATOM     36  C   UNL A   1      42.882  24.715  27.907  1.00  0.00     0.031 A 
ATOM     37  C   UNL A   1      44.321  25.121  28.086  1.00  0.00     0.074 A 
ATOM     38  C   UNL A   1      41.897  25.585  28.204  1.00  0.00     0.049 A 
ATOM     39  N   UNL A   1      44.814  26.259  28.503  1.00  0.00    -0.248 NA
ATOM     40  C   UNL A   1      45.340  24.103  27.783  1.00  0.00     0.031 C 
ATOM     41  C   UNL A   1      40.463  25.295  28.134  1.00  0.00     0.029 A 
ATOM     42  N   UNL A   1      41.951  26.887  28.634  1.00  0.00    -0.354 N 
ATOM     43  C   UNL A   1      46.193  26.092  28.519  1.00  0.00     0.074 A 
ATOM     44  C   UNL A   1      46.457  24.723  28.134  1.00  0.00     0.031 C 
ATOM     45  C   UNL A   1      39.775  26.395  28.476  1.00  0.00     0.029 A 
ATOM     46  C   UNL A   1      40.715  27.454  28.830  1.00  0.00     0.049 A 
ATOM     47  H   UNL A   1      42.796  27.369  28.787  1.00  0.00     0.167 HD
ATOM     48  C   UNL A   1      47.156  27.003  28.801  1.00  0.00     0.037 A 
ATOM     49  C   UNL A   1      40.376  28.687  29.252  1.00  0.00     0.037 A 
ATOM     50  C   UNL A   1      46.891  28.369  29.171  1.00  0.00     0.049 A 
ATOM     51  C   UNL A   1      41.461  29.679  29.562  1.00  0.00     0.074 A 
ATOM     52  C   UNL A   1      47.797  29.384  29.429  1.00  0.00     0.029 A 
ATOM     53  N   UNL A   1      45.626  28.911  29.343  1.00  0.00    -0.354 N 
ATOM     54  N   UNL A   1      42.763  29.528  29.504  1.00  0.00    -0.248 NA
ATOM     55  C   UNL A   1      41.030  31.016  29.988  1.00  0.00     0.031 C 
ATOM     56  C   UNL A   1      47.080  30.526  29.804  1.00  0.00     0.029 A 
ATOM     57  C   UNL A   1      45.726  30.239  29.725  1.00  0.00     0.049 A 
ATOM     58  H   UNL A   1      44.780  28.423  29.213  1.00  0.00     0.167 HD
ATOM     59  C   UNL A   1      43.305  30.755  29.862  1.00  0.00     0.074 A 
ATOM     60  C   UNL A   1      42.190  31.645  30.113  1.00  0.00     0.031 C 
ATOM     61  C   UNL A   1      44.609  31.113  29.977  1.00  0.00     0.037 A 
BRANCH  48  62
ATOM     62  C   UNL A   1      48.585  26.548  28.712  1.00  0.00     0.057 A 
ATOM     63  C   UNL A   1      49.251  25.984  29.809  1.00  0.00     0.134 A 
ATOM     64  C   UNL A   1      49.297  26.648  27.509  1.00  0.00     0.134 A 
ATOM     65  F   UNL A   1      48.632  25.869  30.994  1.00  0.00    -0.206 F 
ATOM     66  C   UNL A   1      50.580  25.567  29.724  1.00  0.00     0.040 A 
ATOM     67  C   UNL A   1      50.618  26.205  27.403  1.00  0.00     0.040 A 
ATOM     68  F   UNL A   1      48.721  27.170  26.417  1.00  0.00    -0.206 F 
ATOM     69  C   UNL A   1      51.265  25.671  28.515  1.00  0.00     0.006 A 
ENDBRANCH  48  62
BRANCH  49  70
ATOM     70  C   UNL A   1      38.944  29.055  29.387  1.00  0.00     0.057 A 
ATOM     71  C   UNL A   1      38.275  28.932  30.610  1.00  0.00     0.134 A 
ATOM     72  C   UNL A   1      38.210  29.538  28.297  1.00  0.00     0.134 A 
ATOM     73  F   UNL A   1      38.919  28.455  31.686  1.00  0.00    -0.206 F 
ATOM     74  C   UNL A   1      36.924  29.256  30.741  1.00  0.00     0.040 A 
ATOM     75  C   UNL A   1      36.868  29.897  28.421  1.00  0.00     0.040 A 
ATOM     76  F   UNL A   1      38.794  29.684  27.098  1.00  0.00    -0.206 F 
ATOM     77  C   UNL A   1      36.218  29.747  29.645  1.00  0.00     0.006 A 
ENDBRANCH  49  70
BRANCH  61  78
ATOM     78  C   UNL A   1      44.894  32.536  30.364  1.00  0.00     0.057 A 
ATOM     79  C   UNL A   1      45.035  32.927  31.701  1.00  0.00     0.134 A 
ATOM     80  C   UNL A   1      45.051  33.524  29.382  1.00  0.00     0.134 A 
ATOM     81  F   UNL A   1      44.886  32.034  32.691  1.00  0.00    -0.206 F 
ATOM     82  C   UNL A   1      45.287  34.255  32.050  1.00  0.00     0.040 A 
ATOM     83  C   UNL A   1      45.333  34.848  29.718  1.00  0.00     0.040 A 
ATOM     84  F   UNL A   1      44.940  33.216  28.082  1.00  0.00    -0.206 F 
ATOM     85  C   UNL A   1      45.443  35.219  31.056  1.00  0.00     0.006 A 
ENDBRANCH  61  78
ENDBRANCH  35  36
ENDBRANCH  27  30
ENDBRANCH  25  26
ENDBRANCH   1  25
TORSDOF 12
ENDMDL
MODEL 3
REMARK VINA RESULT:     -12.0      4.960     10.134
REMARK SMILES C[C@H]1[C@H](C(=O)NCCCNC(=O)c2ccc(-c3c4nc(c(-c5c(F)cccc5F)c5ccc([nH]5)c(-c5c(F)cccc5F)c5nc(c(-c6c(F)cccc6F)c6ccc3[nH]6)C=C5)C=C4)cc2)CCN1c1ccc(C(N)=O)c(Cl)c1
REMARK SMILES IDX 8 1 7 2 6 3 4 4 5 5 3 7 1 8 2 9 69 10 67 11 68 12 70 13
REMARK SMILES IDX 71 14 79 15 72 16 77 17 73 18 78 19 74 20 75 21 76 22 9 25
REMARK SMILES IDX 10 26 11 27 12 29 13 30 14 31 66 32 15 33 65 34 16 35 17 36
REMARK SMILES IDX 18 37 59 38 19 39 64 40 58 41 60 42 20 43 63 44 57 45 56 46
REMARK SMILES IDX 21 48 47 49 30 50 46 51 31 52 34 53 45 54 61 55 32 56 33 57
REMARK SMILES IDX 44 59 62 60 35 61 22 62 23 63 28 64 24 65 25 66 27 67 29 68
REMARK SMILES IDX 26 69 48 70 49 71 54 72 50 73 51 74 53 75 55 76 52 77 36 78
REMARK SMILES IDX 37 79 42 80 38 81 39 82 41 83 43 84 40 85
REMARK H PARENT 6 6 75 23 75 24 10 28 60 47 34 58
REMARK Flexibility Score: inf
ROOT
ATOM      1  C   UNL A   1      31.335  31.916  26.394  1.00  0.00     0.042 C 
ENDROOT
BRANCH   1   2
ATOM      2  C   UNL A   1      31.476  30.540  25.755  1.00  0.00     0.117 C 
BRANCH   2   3
ATOM      3  N   UNL A   1      31.452  29.473  26.743  1.00  0.00    -0.356 N 
ATOM      4  C   UNL A   1      31.481  28.122  26.606  1.00  0.00     0.225 C 
ATOM      5  O   UNL A   1      31.403  27.450  27.638  1.00  0.00    -0.275 OA
ATOM      6  H   UNL A   1      31.407  29.786  27.676  1.00  0.00     0.163 HD
BRANCH   4   7
ATOM      7  C   UNL A   1      31.606  27.430  25.258  1.00  0.00     0.102 C 
ATOM      8  C   UNL A   1      33.816  26.520  24.442  1.00  0.00     0.032 C 
ATOM      9  C   UNL A   1      32.579  26.242  25.297  1.00  0.00     0.091 C 
ATOM     10  N   UNL A   1      31.817  25.125  24.731  1.00  0.00    -0.368 N 
ATOM     11  C   UNL A   1      30.279  26.910  24.707  1.00  0.00     0.037 C 
ATOM     12  C   UNL A   1      30.608  25.573  24.054  1.00  0.00     0.118 C 
BRANCH  10  13
ATOM     13  C   UNL A   1      32.167  23.802  24.811  1.00  0.00     0.038 A 
ATOM     14  C   UNL A   1      31.850  22.899  23.795  1.00  0.00     0.027 A 
ATOM     15  C   UNL A   1      32.819  23.276  25.929  1.00  0.00     0.047 A 
ATOM     16  C   UNL A   1      32.153  21.532  23.898  1.00  0.00     0.017 A 
ATOM     17  C   UNL A   1      33.096  21.903  26.071  1.00  0.00     0.055 A 
ATOM     18  C   UNL A   1      32.770  21.006  25.044  1.00  0.00     0.058 A 
ATOM     19  Cl  UNL A   1      33.828  21.453  27.576  1.00  0.00    -0.083 Cl
BRANCH  18  20
ATOM     20  C   UNL A   1      33.031  19.534  25.154  1.00  0.00     0.250 C 
ATOM     21  N   UNL A   1      34.314  19.082  25.001  1.00  0.00    -0.366 N 
ATOM     22  O   UNL A   1      32.156  18.702  25.367  1.00  0.00    -0.269 OA
ATOM     23  H   UNL A   1      35.044  19.719  24.828  1.00  0.00     0.159 HD
ATOM     24  H   UNL A   1      34.507  18.118  25.063  1.00  0.00     0.159 HD
ENDBRANCH  18  20
ENDBRANCH  10  13
ENDBRANCH   4   7
ENDBRANCH   2   3
ENDBRANCH   1   2
BRANCH   1  25
ATOM     25  C   UNL A   1      32.608  32.439  27.040  1.00  0.00     0.118 C 
BRANCH  25  26
ATOM     26  N   UNL A   1      32.495  33.831  27.445  1.00  0.00    -0.352 N 
ATOM     27  C   UNL A   1      33.139  34.522  28.442  1.00  0.00     0.251 C 
ATOM     28  H   UNL A   1      31.856  34.364  26.920  1.00  0.00     0.163 HD
ATOM     29  O   UNL A   1      32.738  35.641  28.751  1.00  0.00    -0.269 OA
BRANCH  27  30
ATOM     30  C   UNL A   1      34.294  33.933  29.154  1.00  0.00     0.039 A 
ATOM     31  C   UNL A   1      34.055  32.980  30.148  1.00  0.00     0.014 A 
ATOM     32  C   UNL A   1      35.604  34.335  28.883  1.00  0.00     0.014 A 
ATOM     33  C   UNL A   1      35.127  32.393  30.823  1.00  0.00     0.010 A 
ATOM     34  C   UNL A   1      36.675  33.678  29.482  1.00  0.00     0.010 A 
ATOM     35  C   UNL A   1      36.449  32.710  30.470  1.00  0.00    -0.014 A 
BRANCH  35  36
ATOM     36  C   UNL A   1      37.600  32.040  31.128  1.00  0.00     0.031 A 
ATOM     37  C   UNL A   1      38.351  30.941  30.425  1.00  0.00     0.074 A 
ATOM     38  C   UNL A   1      37.942  32.391  32.384  1.00  0.00     0.049 A 
ATOM     39  N   UNL A   1      39.358  30.222  30.852  1.00  0.00    -0.248 NA
ATOM     40  C   UNL A   1      37.892  30.584  29.073  1.00  0.00     0.031 C 
ATOM     41  C   UNL A   1      37.255  33.396  33.198  1.00  0.00     0.029 A 
ATOM     42  N   UNL A   1      38.947  31.934  33.199  1.00  0.00    -0.354 N 
ATOM     43  C   UNL A   1      39.645  29.326  29.830  1.00  0.00     0.074 A 
ATOM     44  C   UNL A   1      38.666  29.547  28.788  1.00  0.00     0.031 C 
ATOM     45  C   UNL A   1      37.878  33.503  34.381  1.00  0.00     0.029 A 
ATOM     46  C   UNL A   1      38.980  32.547  34.427  1.00  0.00     0.049 A 
ATOM     47  H   UNL A   1      39.585  31.235  32.928  1.00  0.00     0.167 HD
ATOM     48  C   UNL A   1      40.651  28.421  29.751  1.00  0.00     0.037 A 
ATOM     49  C   UNL A   1      39.802  32.357  35.477  1.00  0.00     0.037 A 
ATOM     50  C   UNL A   1      41.632  28.212  30.785  1.00  0.00     0.049 A 
ATOM     51  C   UNL A   1      40.907  31.345  35.368  1.00  0.00     0.074 A 
ATOM     52  C   UNL A   1      42.718  27.354  30.781  1.00  0.00     0.029 A 
ATOM     53  N   UNL A   1      41.641  28.864  32.009  1.00  0.00    -0.354 N 
ATOM     54  N   UNL A   1      41.211  30.556  34.366  1.00  0.00    -0.248 NA
ATOM     55  C   UNL A   1      41.790  31.205  36.533  1.00  0.00     0.031 C 
ATOM     56  C   UNL A   1      43.357  27.452  32.023  1.00  0.00     0.029 A 
ATOM     57  C   UNL A   1      42.702  28.412  32.778  1.00  0.00     0.049 A 
ATOM     58  H   UNL A   1      40.990  29.547  32.290  1.00  0.00     0.167 HD
ATOM     59  C   UNL A   1      42.332  29.842  34.770  1.00  0.00     0.074 A 
ATOM     60  C   UNL A   1      42.667  30.311  36.099  1.00  0.00     0.031 C 
ATOM     61  C   UNL A   1      43.021  28.883  34.102  1.00  0.00     0.037 A 
BRANCH  48  62
ATOM     62  C   UNL A   1      40.740  27.594  28.500  1.00  0.00     0.057 A 
ATOM     63  C   UNL A   1      40.033  26.392  28.357  1.00  0.00     0.134 A 
ATOM     64  C   UNL A   1      41.517  28.016  27.414  1.00  0.00     0.134 A 
ATOM     65  F   UNL A   1      39.278  25.922  29.362  1.00  0.00    -0.206 F 
ATOM     66  C   UNL A   1      40.122  25.623  27.195  1.00  0.00     0.040 A 
ATOM     67  C   UNL A   1      41.589  27.272  26.234  1.00  0.00     0.040 A 
ATOM     68  F   UNL A   1      42.213  29.160  27.477  1.00  0.00    -0.206 F 
ATOM     69  C   UNL A   1      40.897  26.067  26.126  1.00  0.00     0.006 A 
ENDBRANCH  48  62
BRANCH  49  70
ATOM     70  C   UNL A   1      39.619  33.158  36.714  1.00  0.00     0.057 A 
ATOM     71  C   UNL A   1      40.332  34.345  36.922  1.00  0.00     0.134 A 
ATOM     72  C   UNL A   1      38.728  32.757  37.717  1.00  0.00     0.134 A 
ATOM     73  F   UNL A   1      41.216  34.770  36.006  1.00  0.00    -0.206 F 
ATOM     74  C   UNL A   1      40.182  35.093  38.090  1.00  0.00     0.040 A 
ATOM     75  C   UNL A   1      38.545  33.513  38.876  1.00  0.00     0.040 A 
ATOM     76  F   UNL A   1      38.012  31.632  37.577  1.00  0.00    -0.206 F 
ATOM     77  C   UNL A   1      39.279  34.681  39.068  1.00  0.00     0.006 A 
ENDBRANCH  49  70
BRANCH  61  78
ATOM     78  C   UNL A   1      44.221  28.300  34.791  1.00  0.00     0.057 A 
ATOM     79  C   UNL A   1      45.493  28.875  34.679  1.00  0.00     0.134 A 
ATOM     80  C   UNL A   1      44.098  27.159  35.595  1.00  0.00     0.134 A 
ATOM     81  F   UNL A   1      45.684  29.963  33.917  1.00  0.00    -0.206 F 
ATOM     82  C   UNL A   1      46.605  28.317  35.313  1.00  0.00     0.040 A 
ATOM     83  C   UNL A   1      45.195  26.610  36.258  1.00  0.00     0.040 A 
ATOM     84  F   UNL A   1      42.906  26.564  35.755  1.00  0.00    -0.206 F 
ATOM     85  C   UNL A   1      46.456  27.185  36.111  1.00  0.00     0.006 A 
ENDBRANCH  61  78
ENDBRANCH  35  36
ENDBRANCH  27  30
ENDBRANCH  25  26
ENDBRANCH   1  25
TORSDOF 12
ENDMDL
