MODEL 1
REMARK VINA RESULT:     -13.0      0.000      0.000
REMARK SMILES O=C(NCCCNC(=O)[C@H]1CC=CC[C@H]1c1nc2cc(Br)ccc2o1)c1ccc(-c2c3nc(c(-c4c(F)cccc4F)c4ccc([nH]4)c(-c4c(F)cccc4F)c4nc(c(-c5c(F)cccc5F)c5ccc2[nH]5)C=C4)C=C3)cc1
REMARK SMILES IDX 4 1 3 2 1 3 2 4 26 6 27 7 79 8 28 9 78 10 29 11 30 12 31 13
REMARK SMILES IDX 72 14 32 15 77 16 71 17 73 18 33 19 76 20 70 21 69 22 34 24
REMARK SMILES IDX 60 25 43 26 59 27 44 28 47 29 58 30 74 31 45 32 46 33 57 35
REMARK SMILES IDX 75 36 48 37 35 38 36 39 41 40 37 41 38 42 40 43 42 44 39 45
REMARK SMILES IDX 61 46 62 47 67 48 63 49 64 50 66 51 68 52 65 53 49 54 50 55
REMARK SMILES IDX 55 56 51 57 52 58 54 59 56 60 53 61 5 62 6 63 7 64 8 65 9 67
REMARK SMILES IDX 10 68 11 69 15 70 12 71 14 72 13 73 16 74 17 75 25 76 18 77
REMARK SMILES IDX 24 78 19 79 23 80 20 81 22 82 21 83
REMARK H PARENT 3 5 73 23 47 34 7 66
REMARK Flexibility Score: inf
ROOT
ATOM      1  C   UNL A   1      35.397  29.330  27.586  1.00  0.00     0.118 C 
ENDROOT
BRANCH   1   2
ATOM      2  N   UNL A   1      35.506  29.709  28.999  1.00  0.00    -0.352 N 
ATOM      3  O   UNL A   1      36.398  29.485  31.086  1.00  0.00    -0.269 OA
ATOM      4  C   UNL A   1      36.534  29.389  29.884  1.00  0.00     0.251 C 
ATOM      5  H   UNL A   1      34.769  30.251  29.363  1.00  0.00     0.163 HD
BRANCH   4   6
ATOM      6  C   UNL A   1      37.808  28.929  29.298  1.00  0.00     0.039 A 
ATOM      7  C   UNL A   1      38.376  29.506  28.163  1.00  0.00     0.014 A 
ATOM      8  C   UNL A   1      38.485  27.951  30.010  1.00  0.00     0.014 A 
ATOM      9  C   UNL A   1      39.675  29.133  27.818  1.00  0.00     0.010 A 
ATOM     10  C   UNL A   1      39.833  27.836  29.855  1.00  0.00     0.010 A 
ATOM     11  C   UNL A   1      40.407  28.309  28.693  1.00  0.00    -0.014 A 
BRANCH  11  12
ATOM     12  C   UNL A   1      41.797  27.950  28.448  1.00  0.00     0.031 A 
ATOM     13  C   UNL A   1      41.969  26.694  27.683  1.00  0.00     0.074 A 
ATOM     14  C   UNL A   1      42.839  28.759  28.753  1.00  0.00     0.049 A 
ATOM     15  N   UNL A   1      42.331  25.548  28.147  1.00  0.00    -0.248 NA
ATOM     16  C   UNL A   1      41.508  26.655  26.286  1.00  0.00     0.031 C 
ATOM     17  C   UNL A   1      42.830  30.151  29.233  1.00  0.00     0.029 A 
ATOM     18  N   UNL A   1      44.171  28.510  28.628  1.00  0.00    -0.354 N 
ATOM     19  C   UNL A   1      42.374  24.689  27.054  1.00  0.00     0.074 A 
ATOM     20  C   UNL A   1      41.663  25.360  25.998  1.00  0.00     0.031 C 
ATOM     21  C   UNL A   1      44.066  30.684  29.138  1.00  0.00     0.029 A 
ATOM     22  C   UNL A   1      44.990  29.624  28.794  1.00  0.00     0.049 A 
ATOM     23  H   UNL A   1      44.527  27.612  28.436  1.00  0.00     0.167 HD
ATOM     24  C   UNL A   1      43.229  23.630  27.050  1.00  0.00     0.037 A 
ATOM     25  C   UNL A   1      46.339  29.666  28.671  1.00  0.00     0.037 A 
ATOM     26  C   UNL A   1      43.705  23.360  28.390  1.00  0.00     0.049 A 
ATOM     27  C   UNL A   1      46.836  28.277  28.784  1.00  0.00     0.074 A 
ATOM     28  C   UNL A   1      43.110  23.021  29.590  1.00  0.00     0.029 A 
ATOM     29  N   UNL A   1      44.956  23.827  28.714  1.00  0.00    -0.354 N 
ATOM     30  N   UNL A   1      46.811  27.594  29.893  1.00  0.00    -0.248 NA
ATOM     31  C   UNL A   1      46.923  27.492  27.564  1.00  0.00     0.031 C 
ATOM     32  C   UNL A   1      43.846  23.733  30.585  1.00  0.00     0.029 A 
ATOM     33  C   UNL A   1      44.892  24.406  29.953  1.00  0.00     0.049 A 
ATOM     34  H   UNL A   1      45.761  23.758  28.150  1.00  0.00     0.167 HD
ATOM     35  C   UNL A   1      46.423  26.320  29.507  1.00  0.00     0.074 A 
ATOM     36  C   UNL A   1      46.606  26.291  28.056  1.00  0.00     0.031 C 
ATOM     37  C   UNL A   1      45.715  25.521  30.359  1.00  0.00     0.037 A 
BRANCH  24  38
ATOM     38  C   UNL A   1      43.974  23.133  25.827  1.00  0.00     0.057 A 
ATOM     39  C   UNL A   1      44.932  23.871  25.105  1.00  0.00     0.134 A 
ATOM     40  C   UNL A   1      43.970  21.749  25.559  1.00  0.00     0.134 A 
ATOM     41  F   UNL A   1      45.089  25.191  25.239  1.00  0.00    -0.206 F 
ATOM     42  C   UNL A   1      45.866  23.274  24.253  1.00  0.00     0.040 A 
ATOM     43  C   UNL A   1      44.930  21.137  24.745  1.00  0.00     0.040 A 
ATOM     44  F   UNL A   1      43.090  20.932  26.157  1.00  0.00    -0.206 F 
ATOM     45  C   UNL A   1      45.897  21.898  24.105  1.00  0.00     0.006 A 
ENDBRANCH  24  38
BRANCH  25  46
ATOM     46  C   UNL A   1      47.198  30.760  28.182  1.00  0.00     0.057 A 
ATOM     47  C   UNL A   1      48.058  31.434  29.061  1.00  0.00     0.134 A 
ATOM     48  C   UNL A   1      46.964  31.376  26.944  1.00  0.00     0.134 A 
ATOM     49  F   UNL A   1      48.293  30.965  30.295  1.00  0.00    -0.206 F 
ATOM     50  C   UNL A   1      48.617  32.672  28.740  1.00  0.00     0.040 A 
ATOM     51  C   UNL A   1      47.534  32.610  26.608  1.00  0.00     0.040 A 
ATOM     52  F   UNL A   1      46.115  30.828  26.062  1.00  0.00    -0.206 F 
ATOM     53  C   UNL A   1      48.354  33.272  27.515  1.00  0.00     0.006 A 
ENDBRANCH  25  46
BRANCH  37  54
ATOM     54  C   UNL A   1      45.614  25.965  31.795  1.00  0.00     0.057 A 
ATOM     55  C   UNL A   1      44.486  26.687  32.195  1.00  0.00     0.134 A 
ATOM     56  C   UNL A   1      46.630  25.802  32.752  1.00  0.00     0.134 A 
ATOM     57  F   UNL A   1      43.496  26.930  31.322  1.00  0.00    -0.206 F 
ATOM     58  C   UNL A   1      44.363  27.212  33.484  1.00  0.00     0.040 A 
ATOM     59  C   UNL A   1      46.505  26.291  34.056  1.00  0.00     0.040 A 
ATOM     60  F   UNL A   1      47.787  25.208  32.440  1.00  0.00    -0.206 F 
ATOM     61  C   UNL A   1      45.368  27.004  34.424  1.00  0.00     0.006 A 
ENDBRANCH  37  54
ENDBRANCH  11  12
ENDBRANCH   4   6
ENDBRANCH   1   2
BRANCH   1  62
ATOM     62  C   UNL A   1      34.135  29.794  26.894  1.00  0.00     0.042 C 
BRANCH  62  63
ATOM     63  C   UNL A   1      33.566  28.780  25.908  1.00  0.00     0.117 C 
BRANCH  63  64
ATOM     64  N   UNL A   1      32.518  27.921  26.443  1.00  0.00    -0.356 N 
ATOM     65  C   UNL A   1      32.120  26.661  26.099  1.00  0.00     0.224 C 
ATOM     66  H   UNL A   1      32.007  28.320  27.184  1.00  0.00     0.163 HD
ATOM     67  O   UNL A   1      31.265  26.137  26.812  1.00  0.00    -0.275 OA
BRANCH  65  68
ATOM     68  C   UNL A   1      32.692  25.989  24.850  1.00  0.00     0.095 C 
ATOM     69  C   UNL A   1      33.484  24.707  25.195  1.00  0.00     0.041 C 
ATOM     70  C   UNL A   1      31.618  25.663  23.783  1.00  0.00     0.092 C 
ATOM     71  C   UNL A   1      32.674  23.456  25.309  1.00  0.00    -0.030 C 
ATOM     72  C   UNL A   1      30.701  24.489  24.201  1.00  0.00     0.041 C 
ATOM     73  C   UNL A   1      31.412  23.363  24.882  1.00  0.00    -0.030 C 
BRANCH  70  74
ATOM     74  C   UNL A   1      30.775  26.831  23.376  1.00  0.00     0.199 A 
ATOM     75  N   UNL A   1      31.183  27.940  22.790  1.00  0.00    -0.213 NA
ATOM     76  O   UNL A   1      29.432  26.794  23.663  1.00  0.00    -0.440 OA
ATOM     77  C   UNL A   1      30.042  28.663  22.620  1.00  0.00     0.111 A 
ATOM     78  C   UNL A   1      28.965  27.981  23.163  1.00  0.00     0.154 A 
ATOM     79  C   UNL A   1      29.851  29.917  22.038  1.00  0.00     0.048 A 
ATOM     80  C   UNL A   1      27.662  28.466  23.176  1.00  0.00     0.050 A 
ATOM     81  C   UNL A   1      28.561  30.450  22.069  1.00  0.00     0.020 A 
ATOM     82  C   UNL A   1      27.481  29.738  22.610  1.00  0.00     0.019 A 
ATOM     83  Br  UNL A   1      28.313  32.213  21.436  1.00  0.00    -0.051 Br
ENDBRANCH  70  74
ENDBRANCH  65  68
ENDBRANCH  63  64
ENDBRANCH  62  63
ENDBRANCH   1  62
TORSDOF 11
ENDMDL
MODEL 2
REMARK VINA RESULT:     -12.9      2.876      7.141
REMARK SMILES O=C(NCCCNC(=O)[C@H]1CC=CC[C@H]1c1nc2cc(Br)ccc2o1)c1ccc(-c2c3nc(c(-c4c(F)cccc4F)c4ccc([nH]4)c(-c4c(F)cccc4F)c4nc(c(-c5c(F)cccc5F)c5ccc2[nH]5)C=C4)C=C3)cc1
REMARK SMILES IDX 4 1 3 2 1 3 2 4 26 6 27 7 79 8 28 9 78 10 29 11 30 12 31 13
REMARK SMILES IDX 72 14 32 15 77 16 71 17 73 18 33 19 76 20 70 21 69 22 34 24
REMARK SMILES IDX 60 25 43 26 59 27 44 28 47 29 58 30 74 31 45 32 46 33 57 35
REMARK SMILES IDX 75 36 48 37 35 38 36 39 41 40 37 41 38 42 40 43 42 44 39 45
REMARK SMILES IDX 61 46 62 47 67 48 63 49 64 50 66 51 68 52 65 53 49 54 50 55
REMARK SMILES IDX 55 56 51 57 52 58 54 59 56 60 53 61 5 62 6 63 7 64 8 65 9 67
REMARK SMILES IDX 10 68 11 69 15 70 12 71 14 72 13 73 16 74 17 75 25 76 18 77
REMARK SMILES IDX 24 78 19 79 23 80 20 81 22 82 21 83
REMARK H PARENT 3 5 73 23 47 34 7 66
REMARK Flexibility Score: inf
ROOT
ATOM      1  C   UNL A   1      34.470  31.420  27.631  1.00  0.00     0.118 C 
ENDROOT
BRANCH   1   2
ATOM      2  N   UNL A   1      34.383  32.034  28.961  1.00  0.00    -0.352 N 
ATOM      3  O   UNL A   1      34.872  32.106  31.186  1.00  0.00    -0.269 OA
ATOM      4  C   UNL A   1      35.198  31.785  30.063  1.00  0.00     0.251 C 
ATOM      5  H   UNL A   1      33.666  32.697  29.088  1.00  0.00     0.163 HD
BRANCH   4   6
ATOM      6  C   UNL A   1      36.488  31.113  29.808  1.00  0.00     0.039 A 
ATOM      7  C   UNL A   1      37.688  31.805  29.651  1.00  0.00     0.014 A 
ATOM      8  C   UNL A   1      36.468  29.728  29.847  1.00  0.00     0.014 A 
ATOM      9  C   UNL A   1      38.871  31.066  29.621  1.00  0.00     0.010 A 
ATOM     10  C   UNL A   1      37.619  29.058  30.132  1.00  0.00     0.010 A 
ATOM     11  C   UNL A   1      38.824  29.685  29.889  1.00  0.00    -0.014 A 
BRANCH  11  12
ATOM     12  C   UNL A   1      40.024  28.863  29.965  1.00  0.00     0.031 A 
ATOM     13  C   UNL A   1      40.576  28.728  31.332  1.00  0.00     0.074 A 
ATOM     14  C   UNL A   1      40.509  28.158  28.916  1.00  0.00     0.049 A 
ATOM     15  N   UNL A   1      41.618  29.318  31.808  1.00  0.00    -0.248 NA
ATOM     16  C   UNL A   1      39.782  28.010  32.342  1.00  0.00     0.031 C 
ATOM     17  C   UNL A   1      39.920  27.941  27.585  1.00  0.00     0.029 A 
ATOM     18  N   UNL A   1      41.644  27.410  28.851  1.00  0.00    -0.354 N 
ATOM     19  C   UNL A   1      41.752  28.862  33.115  1.00  0.00     0.074 A 
ATOM     20  C   UNL A   1      40.496  28.242  33.446  1.00  0.00     0.031 C 
ATOM     21  C   UNL A   1      40.574  26.951  26.941  1.00  0.00     0.029 A 
ATOM     22  C   UNL A   1      41.749  26.608  27.716  1.00  0.00     0.049 A 
ATOM     23  H   UNL A   1      42.337  27.433  29.550  1.00  0.00     0.167 HD
ATOM     24  C   UNL A   1      42.982  28.800  33.695  1.00  0.00     0.037 A 
ATOM     25  C   UNL A   1      42.743  25.733  27.429  1.00  0.00     0.037 A 
ATOM     26  C   UNL A   1      43.933  29.595  32.947  1.00  0.00     0.049 A 
ATOM     27  C   UNL A   1      43.905  26.094  28.269  1.00  0.00     0.074 A 
ATOM     28  C   UNL A   1      44.037  30.929  32.601  1.00  0.00     0.029 A 
ATOM     29  N   UNL A   1      44.770  28.922  32.090  1.00  0.00    -0.354 N 
ATOM     30  N   UNL A   1      44.608  27.176  28.097  1.00  0.00    -0.248 NA
ATOM     31  C   UNL A   1      43.994  25.492  29.589  1.00  0.00     0.031 C 
ATOM     32  C   UNL A   1      44.559  30.930  31.273  1.00  0.00     0.029 A 
ATOM     33  C   UNL A   1      44.815  29.609  30.905  1.00  0.00     0.049 A 
ATOM     34  H   UNL A   1      45.254  28.088  32.292  1.00  0.00     0.167 HD
ATOM     35  C   UNL A   1      44.854  27.639  29.379  1.00  0.00     0.074 A 
ATOM     36  C   UNL A   1      44.542  26.511  30.256  1.00  0.00     0.031 C 
ATOM     37  C   UNL A   1      45.001  28.976  29.620  1.00  0.00     0.037 A 
BRANCH  24  38
ATOM     38  C   UNL A   1      43.432  27.704  34.640  1.00  0.00     0.057 A 
ATOM     39  C   UNL A   1      43.528  27.827  36.040  1.00  0.00     0.134 A 
ATOM     40  C   UNL A   1      43.458  26.379  34.162  1.00  0.00     0.134 A 
ATOM     41  F   UNL A   1      43.507  29.004  36.672  1.00  0.00    -0.206 F 
ATOM     42  C   UNL A   1      43.558  26.724  36.899  1.00  0.00     0.040 A 
ATOM     43  C   UNL A   1      43.441  25.269  35.014  1.00  0.00     0.040 A 
ATOM     44  F   UNL A   1      43.402  26.118  32.846  1.00  0.00    -0.206 F 
ATOM     45  C   UNL A   1      43.470  25.441  36.391  1.00  0.00     0.006 A 
ENDBRANCH  24  38
BRANCH  25  46
ATOM     46  C   UNL A   1      42.676  24.450  26.705  1.00  0.00     0.057 A 
ATOM     47  C   UNL A   1      42.260  23.285  27.365  1.00  0.00     0.134 A 
ATOM     48  C   UNL A   1      43.316  24.272  25.471  1.00  0.00     0.134 A 
ATOM     49  F   UNL A   1      41.700  23.340  28.582  1.00  0.00    -0.206 F 
ATOM     50  C   UNL A   1      42.508  22.014  26.843  1.00  0.00     0.040 A 
ATOM     51  C   UNL A   1      43.554  23.001  24.931  1.00  0.00     0.040 A 
ATOM     52  F   UNL A   1      43.794  25.327  24.795  1.00  0.00    -0.206 F 
ATOM     53  C   UNL A   1      43.162  21.863  25.627  1.00  0.00     0.006 A 
ENDBRANCH  25  46
BRANCH  37  54
ATOM     54  C   UNL A   1      45.153  29.879  28.424  1.00  0.00     0.057 A 
ATOM     55  C   UNL A   1      46.441  30.189  27.979  1.00  0.00     0.134 A 
ATOM     56  C   UNL A   1      44.089  30.530  27.778  1.00  0.00     0.134 A 
ATOM     57  F   UNL A   1      47.512  29.647  28.581  1.00  0.00    -0.206 F 
ATOM     58  C   UNL A   1      46.666  31.091  26.937  1.00  0.00     0.040 A 
ATOM     59  C   UNL A   1      44.298  31.408  26.710  1.00  0.00     0.040 A 
ATOM     60  F   UNL A   1      42.826  30.373  28.190  1.00  0.00    -0.206 F 
ATOM     61  C   UNL A   1      45.592  31.695  26.288  1.00  0.00     0.006 A 
ENDBRANCH  37  54
ENDBRANCH  11  12
ENDBRANCH   4   6
ENDBRANCH   1   2
BRANCH   1  62
ATOM     62  C   UNL A   1      33.572  30.222  27.419  1.00  0.00     0.042 C 
BRANCH  62  63
ATOM     63  C   UNL A   1      34.293  29.005  26.851  1.00  0.00     0.117 C 
BRANCH  63  64
ATOM     64  N   UNL A   1      34.402  28.976  25.399  1.00  0.00    -0.356 N 
ATOM     65  C   UNL A   1      33.551  28.507  24.439  1.00  0.00     0.224 C 
ATOM     66  H   UNL A   1      35.237  29.362  25.047  1.00  0.00     0.163 HD
ATOM     67  O   UNL A   1      33.867  28.720  23.269  1.00  0.00    -0.275 OA
BRANCH  65  68
ATOM     68  C   UNL A   1      32.306  27.714  24.837  1.00  0.00     0.095 C 
ATOM     69  C   UNL A   1      31.006  28.504  24.563  1.00  0.00     0.041 C 
ATOM     70  C   UNL A   1      32.221  26.324  24.157  1.00  0.00     0.092 C 
ATOM     71  C   UNL A   1      30.453  28.380  23.179  1.00  0.00    -0.030 C 
ATOM     72  C   UNL A   1      31.886  26.418  22.650  1.00  0.00     0.041 C 
ATOM     73  C   UNL A   1      30.865  27.456  22.309  1.00  0.00    -0.030 C 
BRANCH  70  74
ATOM     74  C   UNL A   1      33.435  25.469  24.344  1.00  0.00     0.199 A 
ATOM     75  N   UNL A   1      34.234  25.441  25.393  1.00  0.00    -0.213 NA
ATOM     76  O   UNL A   1      33.810  24.639  23.315  1.00  0.00    -0.440 OA
ATOM     77  C   UNL A   1      35.163  24.497  25.076  1.00  0.00     0.111 A 
ATOM     78  C   UNL A   1      34.925  24.008  23.801  1.00  0.00     0.154 A 
ATOM     79  C   UNL A   1      36.251  24.023  25.811  1.00  0.00     0.048 A 
ATOM     80  C   UNL A   1      35.714  23.051  23.173  1.00  0.00     0.050 A 
ATOM     81  C   UNL A   1      37.086  23.090  25.194  1.00  0.00     0.020 A 
ATOM     82  C   UNL A   1      36.820  22.598  23.909  1.00  0.00     0.019 A 
ATOM     83  Br  UNL A   1      38.654  22.562  26.107  1.00  0.00    -0.051 Br
ENDBRANCH  70  74
ENDBRANCH  65  68
ENDBRANCH  63  64
ENDBRANCH  62  63
ENDBRANCH   1  62
TORSDOF 11
ENDMDL
MODEL 3
REMARK VINA RESULT:     -12.8      1.994      6.239
REMARK SMILES O=C(NCCCNC(=O)[C@H]1CC=CC[C@H]1c1nc2cc(Br)ccc2o1)c1ccc(-c2c3nc(c(-c4c(F)cccc4F)c4ccc([nH]4)c(-c4c(F)cccc4F)c4nc(c(-c5c(F)cccc5F)c5ccc2[nH]5)C=C4)C=C3)cc1
REMARK SMILES IDX 4 1 3 2 1 3 2 4 26 6 27 7 79 8 28 9 78 10 29 11 30 12 31 13
REMARK SMILES IDX 72 14 32 15 77 16 71 17 73 18 33 19 76 20 70 21 69 22 34 24
REMARK SMILES IDX 60 25 43 26 59 27 44 28 47 29 58 30 74 31 45 32 46 33 57 35
REMARK SMILES IDX 75 36 48 37 35 38 36 39 41 40 37 41 38 42 40 43 42 44 39 45
REMARK SMILES IDX 61 46 62 47 67 48 63 49 64 50 66 51 68 52 65 53 49 54 50 55
REMARK SMILES IDX 55 56 51 57 52 58 54 59 56 60 53 61 5 62 6 63 7 64 8 65 9 67
REMARK SMILES IDX 10 68 11 69 15 70 12 71 14 72 13 73 16 74 17 75 25 76 18 77
REMARK SMILES IDX 24 78 19 79 23 80 20 81 22 82 21 83
REMARK H PARENT 3 5 73 23 47 34 7 66
REMARK Flexibility Score: inf
ROOT
ATOM      1  C   UNL A   1      34.295  31.458  27.670  1.00  0.00     0.118 C 
ENDROOT
BRANCH   1   2
ATOM      2  N   UNL A   1      34.267  32.146  28.966  1.00  0.00    -0.352 N 
ATOM      3  O   UNL A   1      34.849  32.336  31.162  1.00  0.00    -0.269 OA
ATOM      4  C   UNL A   1      35.126  31.951  30.046  1.00  0.00     0.251 C 
ATOM      5  H   UNL A   1      33.561  32.821  29.085  1.00  0.00     0.163 HD
BRANCH   4   6
ATOM      6  C   UNL A   1      36.399  31.255  29.776  1.00  0.00     0.039 A 
ATOM      7  C   UNL A   1      37.602  31.925  29.561  1.00  0.00     0.014 A 
ATOM      8  C   UNL A   1      36.364  29.872  29.863  1.00  0.00     0.014 A 
ATOM      9  C   UNL A   1      38.774  31.170  29.521  1.00  0.00     0.010 A 
ATOM     10  C   UNL A   1      37.515  29.198  30.137  1.00  0.00     0.010 A 
ATOM     11  C   UNL A   1      38.720  29.801  29.837  1.00  0.00    -0.014 A 
BRANCH  11  12
ATOM     12  C   UNL A   1      39.912  28.966  29.906  1.00  0.00     0.031 A 
ATOM     13  C   UNL A   1      40.453  28.801  31.275  1.00  0.00     0.074 A 
ATOM     14  C   UNL A   1      40.398  28.276  28.848  1.00  0.00     0.049 A 
ATOM     15  N   UNL A   1      41.497  29.372  31.769  1.00  0.00    -0.248 NA
ATOM     16  C   UNL A   1      39.645  28.072  32.265  1.00  0.00     0.031 C 
ATOM     17  C   UNL A   1      39.816  28.089  27.509  1.00  0.00     0.029 A 
ATOM     18  N   UNL A   1      41.527  27.519  28.776  1.00  0.00    -0.354 N 
ATOM     19  C   UNL A   1      41.617  28.891  33.067  1.00  0.00     0.074 A 
ATOM     20  C   UNL A   1      40.354  28.276  33.379  1.00  0.00     0.031 C 
ATOM     21  C   UNL A   1      40.466  27.105  26.851  1.00  0.00     0.029 A 
ATOM     22  C   UNL A   1      41.632  26.738  27.628  1.00  0.00     0.049 A 
ATOM     23  H   UNL A   1      42.215  27.523  29.481  1.00  0.00     0.167 HD
ATOM     24  C   UNL A   1      42.843  28.807  33.655  1.00  0.00     0.037 A 
ATOM     25  C   UNL A   1      42.620  25.860  27.331  1.00  0.00     0.037 A 
ATOM     26  C   UNL A   1      43.806  29.607  32.928  1.00  0.00     0.049 A 
ATOM     27  C   UNL A   1      43.780  26.194  28.186  1.00  0.00     0.074 A 
ATOM     28  C   UNL A   1      43.925  30.946  32.609  1.00  0.00     0.029 A 
ATOM     29  N   UNL A   1      44.643  28.943  32.064  1.00  0.00    -0.354 N 
ATOM     30  N   UNL A   1      44.494  27.273  28.038  1.00  0.00    -0.248 NA
ATOM     31  C   UNL A   1      43.854  25.567  29.495  1.00  0.00     0.031 C 
ATOM     32  C   UNL A   1      44.456  30.967  31.284  1.00  0.00     0.029 A 
ATOM     33  C   UNL A   1      44.703  29.651  30.893  1.00  0.00     0.049 A 
ATOM     34  H   UNL A   1      45.119  28.101  32.254  1.00  0.00     0.167 HD
ATOM     35  C   UNL A   1      44.735  27.710  29.331  1.00  0.00     0.074 A 
ATOM     36  C   UNL A   1      44.407  26.568  30.185  1.00  0.00     0.031 C 
ATOM     37  C   UNL A   1      44.892  29.040  29.598  1.00  0.00     0.037 A 
BRANCH  24  38
ATOM     38  C   UNL A   1      43.276  27.690  34.582  1.00  0.00     0.057 A 
ATOM     39  C   UNL A   1      43.333  27.776  35.987  1.00  0.00     0.134 A 
ATOM     40  C   UNL A   1      43.326  26.378  34.070  1.00  0.00     0.134 A 
ATOM     41  F   UNL A   1      43.287  28.936  36.650  1.00  0.00    -0.206 F 
ATOM     42  C   UNL A   1      43.350  26.651  36.817  1.00  0.00     0.040 A 
ATOM     43  C   UNL A   1      43.295  25.246  34.892  1.00  0.00     0.040 A 
ATOM     44  F   UNL A   1      43.308  26.152  32.747  1.00  0.00    -0.206 F 
ATOM     45  C   UNL A   1      43.286  25.381  36.273  1.00  0.00     0.006 A 
ENDBRANCH  24  38
BRANCH  25  46
ATOM     46  C   UNL A   1      42.548  24.590  26.583  1.00  0.00     0.057 A 
ATOM     47  C   UNL A   1      42.032  23.437  27.192  1.00  0.00     0.134 A 
ATOM     48  C   UNL A   1      43.266  24.400  25.394  1.00  0.00     0.134 A 
ATOM     49  F   UNL A   1      41.389  23.503  28.367  1.00  0.00    -0.206 F 
ATOM     50  C   UNL A   1      42.258  22.164  26.668  1.00  0.00     0.040 A 
ATOM     51  C   UNL A   1      43.484  23.127  24.852  1.00  0.00     0.040 A 
ATOM     52  F   UNL A   1      43.839  25.440  24.772  1.00  0.00    -0.206 F 
ATOM     53  C   UNL A   1      42.990  21.999  25.499  1.00  0.00     0.006 A 
ENDBRANCH  25  46
BRANCH  37  54
ATOM     54  C   UNL A   1      45.060  29.964  28.420  1.00  0.00     0.057 A 
ATOM     55  C   UNL A   1      46.355  30.283  28.000  1.00  0.00     0.134 A 
ATOM     56  C   UNL A   1      44.005  30.626  27.770  1.00  0.00     0.134 A 
ATOM     57  F   UNL A   1      47.417  29.731  28.608  1.00  0.00    -0.206 F 
ATOM     58  C   UNL A   1      46.594  31.203  26.976  1.00  0.00     0.040 A 
ATOM     59  C   UNL A   1      44.229  31.522  26.720  1.00  0.00     0.040 A 
ATOM     60  F   UNL A   1      42.737  30.460  28.161  1.00  0.00    -0.206 F 
ATOM     61  C   UNL A   1      45.528  31.817  26.323  1.00  0.00     0.006 A 
ENDBRANCH  37  54
ENDBRANCH  11  12
ENDBRANCH   4   6
ENDBRANCH   1   2
BRANCH   1  62
ATOM     62  C   UNL A   1      32.986  30.829  27.250  1.00  0.00     0.042 C 
BRANCH  62  63
ATOM     63  C   UNL A   1      33.150  29.560  26.422  1.00  0.00     0.117 C 
BRANCH  63  64
ATOM     64  N   UNL A   1      32.236  28.479  26.763  1.00  0.00    -0.356 N 
ATOM     65  C   UNL A   1      32.164  27.186  26.328  1.00  0.00     0.224 C 
ATOM     66  H   UNL A   1      31.549  28.723  27.424  1.00  0.00     0.163 HD
ATOM     67  O   UNL A   1      31.340  26.461  26.883  1.00  0.00    -0.275 OA
BRANCH  65  68
ATOM     68  C   UNL A   1      33.042  26.716  25.168  1.00  0.00     0.095 C 
ATOM     69  C   UNL A   1      34.019  25.598  25.599  1.00  0.00     0.041 C 
ATOM     70  C   UNL A   1      32.231  26.248  23.934  1.00  0.00     0.092 C 
ATOM     71  C   UNL A   1      33.473  24.207  25.547  1.00  0.00    -0.030 C 
ATOM     72  C   UNL A   1      31.520  24.894  24.168  1.00  0.00     0.041 C 
ATOM     73  C   UNL A   1      32.336  23.892  24.922  1.00  0.00    -0.030 C 
BRANCH  70  74
ATOM     74  C   UNL A   1      31.238  27.249  23.431  1.00  0.00     0.199 A 
ATOM     75  N   UNL A   1      31.492  28.341  22.737  1.00  0.00    -0.213 NA
ATOM     76  O   UNL A   1      29.912  27.061  23.740  1.00  0.00    -0.440 OA
ATOM     77  C   UNL A   1      30.264  28.887  22.516  1.00  0.00     0.111 A 
ATOM     78  C   UNL A   1      29.289  28.122  23.137  1.00  0.00     0.154 A 
ATOM     79  C   UNL A   1      29.905  30.042  21.820  1.00  0.00     0.048 A 
ATOM     80  C   UNL A   1      27.932  28.428  23.124  1.00  0.00     0.050 A 
ATOM     81  C   UNL A   1      28.555  30.399  21.821  1.00  0.00     0.020 A 
ATOM     82  C   UNL A   1      27.582  29.604  22.443  1.00  0.00     0.019 A 
ATOM     83  Br  UNL A   1      28.072  32.044  21.027  1.00  0.00    -0.051 Br
ENDBRANCH  70  74
ENDBRANCH  65  68
ENDBRANCH  63  64
ENDBRANCH  62  63
ENDBRANCH   1  62
TORSDOF 11
ENDMDL
