MODEL 1
REMARK VINA RESULT:     -11.2      0.000      0.000
REMARK SMILES C[C@@H]1SCCC[C@@]1(CC(=O)NCCCNC(=O)c1ccc(-c2c3nc(c(-c4c(F)cccc4F)c4ccc([nH]4)c(-c4c(F)cccc4F)c4nc(c(-c5c(F)cccc5F)c5ccc2[nH]5)C=C4)C=C3)cc1)[NH+]1CCCC1
REMARK SMILES IDX 13 1 12 2 11 3 9 4 10 5 8 7 7 8 1 9 2 10 3 11 4 12 6 13 5 14
REMARK SMILES IDX 72 15 73 16 76 17 74 19 75 20 14 21 15 22 16 23 17 25 18 26
REMARK SMILES IDX 19 27 71 28 20 29 70 30 21 31 22 32 23 33 64 34 24 35 69 36
REMARK SMILES IDX 63 37 65 38 25 39 68 40 62 41 61 42 26 44 52 45 35 46 51 47
REMARK SMILES IDX 36 48 39 49 50 50 66 51 37 52 38 53 49 55 67 56 40 57 27 58
REMARK SMILES IDX 28 59 33 60 29 61 30 62 32 63 34 64 31 65 53 66 54 67 59 68
REMARK SMILES IDX 55 69 56 70 58 71 60 72 57 73 41 74 42 75 47 76 43 77 44 78
REMARK SMILES IDX 46 79 48 80 45 81
REMARK H PARENT 11 6 72 18 15 24 65 43 39 54
REMARK Flexibility Score: inf
ROOT
ATOM      1  C   UNL A   1      38.234  19.798  24.769  1.00  0.00     0.042 C 
ENDROOT
BRANCH   1   2
ATOM      2  C   UNL A   1      37.175  20.900  24.655  1.00  0.00     0.117 C 
BRANCH   2   3
ATOM      3  N   UNL A   1      37.435  22.038  25.513  1.00  0.00    -0.356 N 
ATOM      4  C   UNL A   1      36.915  23.291  25.560  1.00  0.00     0.226 C 
ATOM      5  O   UNL A   1      37.398  24.045  26.412  1.00  0.00    -0.275 OA
ATOM      6  H   UNL A   1      38.124  21.869  26.195  1.00  0.00     0.163 HD
BRANCH   4   7
ATOM      7  C   UNL A   1      35.763  23.767  24.689  1.00  0.00     0.169 C 
BRANCH   7   8
ATOM      8  C   UNL A   1      34.219  23.425  24.893  1.00  0.00     0.118 C 
ATOM      9  C   UNL A   1      34.090  26.048  25.311  1.00  0.00     0.026 C 
ATOM     10  C   UNL A   1      33.435  24.812  24.651  1.00  0.00     0.105 C 
ATOM     11  S   UNL A   1      31.668  24.860  25.182  1.00  0.00    -0.152 SA
ATOM     12  C   UNL A   1      31.848  24.292  26.889  1.00  0.00     0.070 C 
ATOM     13  C   UNL A   1      34.034  23.043  26.403  1.00  0.00     0.071 C 
ATOM     14  C   UNL A   1      32.631  22.997  27.006  1.00  0.00     0.017 C 
BRANCH   8  15
ATOM     15  N   UNL A   1      33.701  22.342  24.028  1.00  0.00    -0.329 N 
ATOM     16  C   UNL A   1      33.185  22.500  22.680  1.00  0.00     0.262 C 
ATOM     17  C   UNL A   1      33.535  20.951  24.417  1.00  0.00     0.262 C 
ATOM     18  H   UNL A   1      34.372  22.983  24.451  1.00  0.00     0.348 HD
ATOM     19  C   UNL A   1      31.995  21.556  22.694  1.00  0.00     0.067 C 
ATOM     20  C   UNL A   1      32.544  20.351  23.422  1.00  0.00     0.067 C 
ENDBRANCH   8  15
ENDBRANCH   7   8
ENDBRANCH   4   7
ENDBRANCH   2   3
ENDBRANCH   1   2
BRANCH   1  21
ATOM     21  C   UNL A   1      39.088  19.822  26.032  1.00  0.00     0.118 C 
BRANCH  21  22
ATOM     22  N   UNL A   1      40.330  19.091  25.880  1.00  0.00    -0.352 N 
ATOM     23  C   UNL A   1      41.632  19.521  25.959  1.00  0.00     0.251 C 
ATOM     24  H   UNL A   1      40.222  18.131  25.688  1.00  0.00     0.163 HD
ATOM     25  O   UNL A   1      42.527  18.763  25.592  1.00  0.00    -0.269 OA
BRANCH  23  26
ATOM     26  C   UNL A   1      41.991  20.875  26.460  1.00  0.00     0.039 A 
ATOM     27  C   UNL A   1      41.914  21.108  27.839  1.00  0.00     0.014 A 
ATOM     28  C   UNL A   1      42.303  21.939  25.608  1.00  0.00     0.014 A 
ATOM     29  C   UNL A   1      42.176  22.380  28.360  1.00  0.00     0.010 A 
ATOM     30  C   UNL A   1      42.628  23.194  26.134  1.00  0.00     0.010 A 
ATOM     31  C   UNL A   1      42.551  23.434  27.514  1.00  0.00    -0.014 A 
BRANCH  31  32
ATOM     32  C   UNL A   1      42.823  24.793  28.060  1.00  0.00     0.031 A 
ATOM     33  C   UNL A   1      44.220  25.186  28.462  1.00  0.00     0.074 A 
ATOM     34  C   UNL A   1      41.816  25.673  28.218  1.00  0.00     0.049 A 
ATOM     35  N   UNL A   1      44.644  26.307  28.994  1.00  0.00    -0.248 NA
ATOM     36  C   UNL A   1      45.277  24.185  28.254  1.00  0.00     0.031 C 
ATOM     37  C   UNL A   1      40.411  25.420  27.892  1.00  0.00     0.029 A 
ATOM     38  N   UNL A   1      41.817  26.959  28.702  1.00  0.00    -0.354 N 
ATOM     39  C   UNL A   1      46.010  26.140  29.196  1.00  0.00     0.074 A 
ATOM     40  C   UNL A   1      46.336  24.796  28.766  1.00  0.00     0.031 C 
ATOM     41  C   UNL A   1      39.691  26.519  28.169  1.00  0.00     0.029 A 
ATOM     42  C   UNL A   1      40.575  27.543  28.721  1.00  0.00     0.049 A 
ATOM     43  H   UNL A   1      42.634  27.418  29.005  1.00  0.00     0.167 HD
ATOM     44  C   UNL A   1      46.913  27.028  29.675  1.00  0.00     0.037 A 
ATOM     45  C   UNL A   1      40.187  28.762  29.142  1.00  0.00     0.037 A 
ATOM     46  C   UNL A   1      46.604  28.374  30.077  1.00  0.00     0.049 A 
ATOM     47  C   UNL A   1      41.208  29.725  29.682  1.00  0.00     0.074 A 
ATOM     48  C   UNL A   1      47.467  29.360  30.529  1.00  0.00     0.029 A 
ATOM     49  N   UNL A   1      45.333  28.927  30.074  1.00  0.00    -0.354 N 
ATOM     50  N   UNL A   1      42.501  29.567  29.819  1.00  0.00    -0.248 NA
ATOM     51  C   UNL A   1      40.714  31.039  30.121  1.00  0.00     0.031 C 
ATOM     52  C   UNL A   1      46.713  30.499  30.831  1.00  0.00     0.029 A 
ATOM     53  C   UNL A   1      45.387  30.235  30.533  1.00  0.00     0.049 A 
ATOM     54  H   UNL A   1      44.515  28.462  29.790  1.00  0.00     0.167 HD
ATOM     55  C   UNL A   1      42.978  30.766  30.333  1.00  0.00     0.074 A 
ATOM     56  C   UNL A   1      41.838  31.647  30.473  1.00  0.00     0.031 C 
ATOM     57  C   UNL A   1      44.248  31.107  30.658  1.00  0.00     0.037 A 
BRANCH  44  58
ATOM     58  C   UNL A   1      48.338  26.570  29.788  1.00  0.00     0.057 A 
ATOM     59  C   UNL A   1      49.281  26.847  28.791  1.00  0.00     0.134 A 
ATOM     60  C   UNL A   1      48.783  25.891  30.929  1.00  0.00     0.134 A 
ATOM     61  F   UNL A   1      48.916  27.487  27.669  1.00  0.00    -0.206 F 
ATOM     62  C   UNL A   1      50.612  26.445  28.913  1.00  0.00     0.040 A 
ATOM     63  C   UNL A   1      50.116  25.504  31.073  1.00  0.00     0.040 A 
ATOM     64  F   UNL A   1      47.932  25.601  31.926  1.00  0.00    -0.206 F 
ATOM     65  C   UNL A   1      51.034  25.776  30.061  1.00  0.00     0.006 A 
ENDBRANCH  44  58
BRANCH  45  66
ATOM     66  C   UNL A   1      38.759  29.155  29.058  1.00  0.00     0.057 A 
ATOM     67  C   UNL A   1      37.919  29.066  30.175  1.00  0.00     0.134 A 
ATOM     68  C   UNL A   1      38.195  29.610  27.860  1.00  0.00     0.134 A 
ATOM     69  F   UNL A   1      38.398  28.616  31.344  1.00  0.00    -0.206 F 
ATOM     70  C   UNL A   1      36.566  29.399  30.100  1.00  0.00     0.040 A 
ATOM     71  C   UNL A   1      36.849  29.967  27.777  1.00  0.00     0.040 A 
ATOM     72  F   UNL A   1      38.948  29.720  26.757  1.00  0.00    -0.206 F 
ATOM     73  C   UNL A   1      36.028  29.855  28.898  1.00  0.00     0.006 A 
ENDBRANCH  45  66
BRANCH  57  74
ATOM     74  C   UNL A   1      44.481  32.499  31.163  1.00  0.00     0.057 A 
ATOM     75  C   UNL A   1      44.464  32.801  32.531  1.00  0.00     0.134 A 
ATOM     76  C   UNL A   1      44.762  33.544  30.273  1.00  0.00     0.134 A 
ATOM     77  F   UNL A   1      44.186  31.847  33.433  1.00  0.00    -0.206 F 
ATOM     78  C   UNL A   1      44.699  34.096  32.994  1.00  0.00     0.040 A 
ATOM     79  C   UNL A   1      45.021  34.838  30.726  1.00  0.00     0.040 A 
ATOM     80  F   UNL A   1      44.800  33.320  28.950  1.00  0.00    -0.206 F 
ATOM     81  C   UNL A   1      44.985  35.118  32.090  1.00  0.00     0.006 A 
ENDBRANCH  57  74
ENDBRANCH  31  32
ENDBRANCH  23  26
ENDBRANCH  21  22
ENDBRANCH   1  21
TORSDOF 12
ENDMDL
MODEL 2
REMARK VINA RESULT:     -11.2      0.777      6.557
REMARK SMILES C[C@@H]1SCCC[C@@]1(CC(=O)NCCCNC(=O)c1ccc(-c2c3nc(c(-c4c(F)cccc4F)c4ccc([nH]4)c(-c4c(F)cccc4F)c4nc(c(-c5c(F)cccc5F)c5ccc2[nH]5)C=C4)C=C3)cc1)[NH+]1CCCC1
REMARK SMILES IDX 13 1 12 2 11 3 9 4 10 5 8 7 7 8 1 9 2 10 3 11 4 12 6 13 5 14
REMARK SMILES IDX 72 15 73 16 76 17 74 19 75 20 14 21 15 22 16 23 17 25 18 26
REMARK SMILES IDX 19 27 71 28 20 29 70 30 21 31 22 32 23 33 64 34 24 35 69 36
REMARK SMILES IDX 63 37 65 38 25 39 68 40 62 41 61 42 26 44 52 45 35 46 51 47
REMARK SMILES IDX 36 48 39 49 50 50 66 51 37 52 38 53 49 55 67 56 40 57 27 58
REMARK SMILES IDX 28 59 33 60 29 61 30 62 32 63 34 64 31 65 53 66 54 67 59 68
REMARK SMILES IDX 55 69 56 70 58 71 60 72 57 73 41 74 42 75 47 76 43 77 44 78
REMARK SMILES IDX 46 79 48 80 45 81
REMARK H PARENT 11 6 72 18 15 24 65 43 39 54
REMARK Flexibility Score: inf
ROOT
ATOM      1  C   UNL A   1      37.606  19.575  24.899  1.00  0.00     0.042 C 
ENDROOT
BRANCH   1   2
ATOM      2  C   UNL A   1      36.280  20.339  24.987  1.00  0.00     0.117 C 
BRANCH   2   3
ATOM      3  N   UNL A   1      36.448  21.753  25.258  1.00  0.00    -0.356 N 
ATOM      4  C   UNL A   1      35.873  22.864  24.734  1.00  0.00     0.226 C 
ATOM      5  O   UNL A   1      36.281  23.944  25.174  1.00  0.00    -0.275 OA
ATOM      6  H   UNL A   1      37.110  21.944  25.962  1.00  0.00     0.163 HD
BRANCH   4   7
ATOM      7  C   UNL A   1      34.745  22.837  23.713  1.00  0.00     0.169 C 
BRANCH   7   8
ATOM      8  C   UNL A   1      33.187  22.713  24.030  1.00  0.00     0.118 C 
ATOM      9  C   UNL A   1      33.161  25.123  22.903  1.00  0.00     0.026 C 
ATOM     10  C   UNL A   1      32.462  23.748  23.030  1.00  0.00     0.105 C 
ATOM     11  S   UNL A   1      30.694  24.138  23.392  1.00  0.00    -0.152 SA
ATOM     12  C   UNL A   1      30.839  24.620  25.129  1.00  0.00     0.070 C 
ATOM     13  C   UNL A   1      32.976  23.249  25.488  1.00  0.00     0.071 C 
ATOM     14  C   UNL A   1      31.567  23.591  25.973  1.00  0.00     0.017 C 
BRANCH   8  15
ATOM     15  N   UNL A   1      32.632  21.347  23.905  1.00  0.00    -0.329 N 
ATOM     16  C   UNL A   1      32.535  20.365  24.969  1.00  0.00     0.262 C 
ATOM     17  C   UNL A   1      32.177  20.725  22.672  1.00  0.00     0.262 C 
ATOM     18  H   UNL A   1      32.655  22.354  24.068  1.00  0.00     0.348 HD
ATOM     19  C   UNL A   1      32.916  19.086  24.244  1.00  0.00     0.067 C 
ATOM     20  C   UNL A   1      32.173  19.221  22.935  1.00  0.00     0.067 C 
ENDBRANCH   8  15
ENDBRANCH   7   8
ENDBRANCH   4   7
ENDBRANCH   2   3
ENDBRANCH   1   2
BRANCH   1  21
ATOM     21  C   UNL A   1      38.792  20.213  25.613  1.00  0.00     0.118 C 
BRANCH  21  22
ATOM     22  N   UNL A   1      39.907  19.299  25.769  1.00  0.00    -0.352 N 
ATOM     23  C   UNL A   1      41.219  19.542  26.093  1.00  0.00     0.251 C 
ATOM     24  H   UNL A   1      39.687  18.352  25.616  1.00  0.00     0.163 HD
ATOM     25  O   UNL A   1      42.036  18.633  25.968  1.00  0.00    -0.269 OA
BRANCH  23  26
ATOM     26  C   UNL A   1      41.684  20.870  26.577  1.00  0.00     0.039 A 
ATOM     27  C   UNL A   1      41.579  21.144  27.947  1.00  0.00     0.014 A 
ATOM     28  C   UNL A   1      42.123  21.878  25.713  1.00  0.00     0.014 A 
ATOM     29  C   UNL A   1      41.938  22.401  28.449  1.00  0.00     0.010 A 
ATOM     30  C   UNL A   1      42.543  23.112  26.223  1.00  0.00     0.010 A 
ATOM     31  C   UNL A   1      42.439  23.394  27.594  1.00  0.00    -0.014 A 
BRANCH  31  32
ATOM     32  C   UNL A   1      42.816  24.735  28.118  1.00  0.00     0.031 A 
ATOM     33  C   UNL A   1      41.762  25.787  28.348  1.00  0.00     0.074 A 
ATOM     34  C   UNL A   1      44.107  25.025  28.371  1.00  0.00     0.049 A 
ATOM     35  N   UNL A   1      41.903  27.024  28.759  1.00  0.00    -0.248 NA
ATOM     36  C   UNL A   1      40.371  25.405  28.064  1.00  0.00     0.031 C 
ATOM     37  C   UNL A   1      45.234  24.112  28.174  1.00  0.00     0.029 A 
ATOM     38  N   UNL A   1      44.691  26.176  28.841  1.00  0.00    -0.354 N 
ATOM     39  C   UNL A   1      40.624  27.569  28.770  1.00  0.00     0.074 A 
ATOM     40  C   UNL A   1      39.725  26.541  28.286  1.00  0.00     0.031 C 
ATOM     41  C   UNL A   1      46.369  24.731  28.535  1.00  0.00     0.029 A 
ATOM     42  C   UNL A   1      46.057  26.094  28.960  1.00  0.00     0.049 A 
ATOM     43  H   UNL A   1      44.178  26.984  29.072  1.00  0.00     0.167 HD
ATOM     44  C   UNL A   1      40.228  28.803  29.164  1.00  0.00     0.037 A 
ATOM     45  C   UNL A   1      46.958  27.012  29.357  1.00  0.00     0.037 A 
ATOM     46  C   UNL A   1      41.109  29.821  29.673  1.00  0.00     0.049 A 
ATOM     47  C   UNL A   1      46.495  28.379  29.778  1.00  0.00     0.074 A 
ATOM     48  C   UNL A   1      40.787  31.084  30.142  1.00  0.00     0.029 A 
ATOM     49  N   UNL A   1      42.485  29.693  29.782  1.00  0.00    -0.354 N 
ATOM     50  N   UNL A   1      45.277  28.860  29.828  1.00  0.00    -0.248 NA
ATOM     51  C   UNL A   1      47.534  29.330  30.203  1.00  0.00     0.031 C 
ATOM     52  C   UNL A   1      41.973  31.733  30.505  1.00  0.00     0.029 A 
ATOM     53  C   UNL A   1      43.027  30.861  30.296  1.00  0.00     0.049 A 
ATOM     54  H   UNL A   1      42.999  28.893  29.533  1.00  0.00     0.167 HD
ATOM     55  C   UNL A   1      45.400  30.155  30.314  1.00  0.00     0.074 A 
ATOM     56  C   UNL A   1      46.809  30.384  30.553  1.00  0.00     0.031 C 
ATOM     57  C   UNL A   1      44.430  31.073  30.542  1.00  0.00     0.037 A 
BRANCH  44  58
ATOM     58  C   UNL A   1      38.766  29.124  29.065  1.00  0.00     0.057 A 
ATOM     59  C   UNL A   1      37.915  29.029  30.173  1.00  0.00     0.134 A 
ATOM     60  C   UNL A   1      38.214  29.583  27.862  1.00  0.00     0.134 A 
ATOM     61  F   UNL A   1      38.381  28.588  31.352  1.00  0.00    -0.206 F 
ATOM     62  C   UNL A   1      36.561  29.357  30.083  1.00  0.00     0.040 A 
ATOM     63  C   UNL A   1      36.867  29.935  27.766  1.00  0.00     0.040 A 
ATOM     64  F   UNL A   1      38.976  29.705  26.765  1.00  0.00    -0.206 F 
ATOM     65  C   UNL A   1      36.035  29.818  28.878  1.00  0.00     0.006 A 
ENDBRANCH  44  58
BRANCH  45  66
ATOM     66  C   UNL A   1      48.401  26.667  29.393  1.00  0.00     0.057 A 
ATOM     67  C   UNL A   1      49.239  26.957  28.309  1.00  0.00     0.134 A 
ATOM     68  C   UNL A   1      48.972  26.025  30.498  1.00  0.00     0.134 A 
ATOM     69  F   UNL A   1      48.742  27.550  27.214  1.00  0.00    -0.206 F 
ATOM     70  C   UNL A   1      50.588  26.605  28.316  1.00  0.00     0.040 A 
ATOM     71  C   UNL A   1      50.326  25.688  30.526  1.00  0.00     0.040 A 
ATOM     72  F   UNL A   1      48.222  25.724  31.568  1.00  0.00    -0.206 F 
ATOM     73  C   UNL A   1      51.137  25.972  29.429  1.00  0.00     0.006 A 
ENDBRANCH  45  66
BRANCH  57  74
ATOM     74  C   UNL A   1      44.852  32.396  31.110  1.00  0.00     0.057 A 
ATOM     75  C   UNL A   1      45.167  33.485  30.288  1.00  0.00     0.134 A 
ATOM     76  C   UNL A   1      44.908  32.591  32.495  1.00  0.00     0.134 A 
ATOM     77  F   UNL A   1      45.147  33.357  28.953  1.00  0.00    -0.206 F 
ATOM     78  C   UNL A   1      45.542  34.718  30.825  1.00  0.00     0.040 A 
ATOM     79  C   UNL A   1      45.259  33.825  33.044  1.00  0.00     0.040 A 
ATOM     80  F   UNL A   1      44.611  31.589  33.337  1.00  0.00    -0.206 F 
ATOM     81  C   UNL A   1      45.582  34.892  32.208  1.00  0.00     0.006 A 
ENDBRANCH  57  74
ENDBRANCH  31  32
ENDBRANCH  23  26
ENDBRANCH  21  22
ENDBRANCH   1  21
TORSDOF 12
ENDMDL
MODEL 3
REMARK VINA RESULT:     -11.1      1.164      6.685
REMARK SMILES C[C@@H]1SCCC[C@@]1(CC(=O)NCCCNC(=O)c1ccc(-c2c3nc(c(-c4c(F)cccc4F)c4ccc([nH]4)c(-c4c(F)cccc4F)c4nc(c(-c5c(F)cccc5F)c5ccc2[nH]5)C=C4)C=C3)cc1)[NH+]1CCCC1
REMARK SMILES IDX 13 1 12 2 11 3 9 4 10 5 8 7 7 8 1 9 2 10 3 11 4 12 6 13 5 14
REMARK SMILES IDX 72 15 73 16 76 17 74 19 75 20 14 21 15 22 16 23 17 25 18 26
REMARK SMILES IDX 19 27 71 28 20 29 70 30 21 31 22 32 23 33 64 34 24 35 69 36
REMARK SMILES IDX 63 37 65 38 25 39 68 40 62 41 61 42 26 44 52 45 35 46 51 47
REMARK SMILES IDX 36 48 39 49 50 50 66 51 37 52 38 53 49 55 67 56 40 57 27 58
REMARK SMILES IDX 28 59 33 60 29 61 30 62 32 63 34 64 31 65 53 66 54 67 59 68
REMARK SMILES IDX 55 69 56 70 58 71 60 72 57 73 41 74 42 75 47 76 43 77 44 78
REMARK SMILES IDX 46 79 48 80 45 81
REMARK H PARENT 11 6 72 18 15 24 65 43 39 54
REMARK Flexibility Score: inf
ROOT
ATOM      1  C   UNL A   1      37.342  19.585  24.947  1.00  0.00     0.042 C 
ENDROOT
BRANCH   1   2
ATOM      2  C   UNL A   1      36.057  20.418  25.009  1.00  0.00     0.117 C 
BRANCH   2   3
ATOM      3  N   UNL A   1      34.850  19.616  24.969  1.00  0.00    -0.356 N 
ATOM      4  C   UNL A   1      33.580  19.845  25.386  1.00  0.00     0.226 C 
ATOM      5  O   UNL A   1      32.783  18.913  25.233  1.00  0.00    -0.275 OA
ATOM      6  H   UNL A   1      34.978  18.730  24.558  1.00  0.00     0.163 HD
BRANCH   4   7
ATOM      7  C   UNL A   1      33.097  21.173  25.952  1.00  0.00     0.169 C 
BRANCH   7   8
ATOM      8  C   UNL A   1      32.953  22.544  25.152  1.00  0.00     0.118 C 
ATOM      9  C   UNL A   1      30.537  22.491  26.263  1.00  0.00     0.026 C 
ATOM     10  C   UNL A   1      31.768  23.350  25.891  1.00  0.00     0.105 C 
ATOM     11  S   UNL A   1      31.084  24.810  24.991  1.00  0.00    -0.152 SA
ATOM     12  C   UNL A   1      30.702  24.037  23.403  1.00  0.00     0.070 C 
ATOM     13  C   UNL A   1      32.443  22.181  23.715  1.00  0.00     0.071 C 
ATOM     14  C   UNL A   1      31.875  23.276  22.813  1.00  0.00     0.017 C 
BRANCH   8  15
ATOM     15  N   UNL A   1      34.193  23.348  25.064  1.00  0.00    -0.329 N 
ATOM     16  C   UNL A   1      34.817  23.821  23.843  1.00  0.00     0.262 C 
ATOM     17  C   UNL A   1      35.045  23.718  26.182  1.00  0.00     0.262 C 
ATOM     18  H   UNL A   1      33.197  23.140  25.143  1.00  0.00     0.348 HD
ATOM     19  C   UNL A   1      36.290  23.606  24.147  1.00  0.00     0.067 C 
ATOM     20  C   UNL A   1      36.399  24.082  25.577  1.00  0.00     0.067 C 
ENDBRANCH   8  15
ENDBRANCH   7   8
ENDBRANCH   4   7
ENDBRANCH   2   3
ENDBRANCH   1   2
BRANCH   1  21
ATOM     21  C   UNL A   1      38.592  20.245  25.520  1.00  0.00     0.118 C 
BRANCH  21  22
ATOM     22  N   UNL A   1      39.687  19.310  25.692  1.00  0.00    -0.352 N 
ATOM     23  C   UNL A   1      40.997  19.529  26.041  1.00  0.00     0.251 C 
ATOM     24  H   UNL A   1      39.453  18.368  25.532  1.00  0.00     0.163 HD
ATOM     25  O   UNL A   1      41.799  18.605  25.927  1.00  0.00    -0.269 OA
BRANCH  23  26
ATOM     26  C   UNL A   1      41.477  20.846  26.539  1.00  0.00     0.039 A 
ATOM     27  C   UNL A   1      41.409  21.094  27.915  1.00  0.00     0.014 A 
ATOM     28  C   UNL A   1      41.894  21.870  25.683  1.00  0.00     0.014 A 
ATOM     29  C   UNL A   1      41.784  22.340  28.432  1.00  0.00     0.010 A 
ATOM     30  C   UNL A   1      42.330  23.094  26.205  1.00  0.00     0.010 A 
ATOM     31  C   UNL A   1      42.264  23.348  27.583  1.00  0.00    -0.014 A 
BRANCH  31  32
ATOM     32  C   UNL A   1      42.657  24.679  28.124  1.00  0.00     0.031 A 
ATOM     33  C   UNL A   1      41.622  25.754  28.330  1.00  0.00     0.074 A 
ATOM     34  C   UNL A   1      43.947  24.938  28.412  1.00  0.00     0.049 A 
ATOM     35  N   UNL A   1      41.779  26.986  28.750  1.00  0.00    -0.248 NA
ATOM     36  C   UNL A   1      40.230  25.405  28.007  1.00  0.00     0.031 C 
ATOM     37  C   UNL A   1      45.057  24.001  28.241  1.00  0.00     0.029 A 
ATOM     38  N   UNL A   1      44.544  26.074  28.903  1.00  0.00    -0.354 N 
ATOM     39  C   UNL A   1      40.513  27.560  28.729  1.00  0.00     0.074 A 
ATOM     40  C   UNL A   1      39.605  26.555  28.217  1.00  0.00     0.031 C 
ATOM     41  C   UNL A   1      46.196  24.592  28.635  1.00  0.00     0.029 A 
ATOM     42  C   UNL A   1      45.904  25.960  29.057  1.00  0.00     0.049 A 
ATOM     43  H   UNL A   1      44.044  26.893  29.124  1.00  0.00     0.167 HD
ATOM     44  C   UNL A   1      40.135  28.801  29.118  1.00  0.00     0.037 A 
ATOM     45  C   UNL A   1      46.815  26.855  29.483  1.00  0.00     0.037 A 
ATOM     46  C   UNL A   1      41.025  29.797  29.654  1.00  0.00     0.049 A 
ATOM     47  C   UNL A   1      46.372  28.231  29.897  1.00  0.00     0.074 A 
ATOM     48  C   UNL A   1      40.720  31.066  30.120  1.00  0.00     0.029 A 
ATOM     49  N   UNL A   1      42.394  29.637  29.800  1.00  0.00    -0.354 N 
ATOM     50  N   UNL A   1      45.165  28.740  29.916  1.00  0.00    -0.248 NA
ATOM     51  C   UNL A   1      47.421  29.157  30.353  1.00  0.00     0.031 C 
ATOM     52  C   UNL A   1      41.910  31.686  30.517  1.00  0.00     0.029 A 
ATOM     53  C   UNL A   1      42.949  30.790  30.332  1.00  0.00     0.049 A 
ATOM     54  H   UNL A   1      42.897  28.826  29.560  1.00  0.00     0.167 HD
ATOM     55  C   UNL A   1      45.304  30.031  30.411  1.00  0.00     0.074 A 
ATOM     56  C   UNL A   1      46.711  30.226  30.689  1.00  0.00     0.031 C 
ATOM     57  C   UNL A   1      44.350  30.970  30.617  1.00  0.00     0.037 A 
BRANCH  44  58
ATOM     58  C   UNL A   1      38.684  29.157  28.980  1.00  0.00     0.057 A 
ATOM     59  C   UNL A   1      38.141  29.570  27.757  1.00  0.00     0.134 A 
ATOM     60  C   UNL A   1      37.811  29.036  30.068  1.00  0.00     0.134 A 
ATOM     61  F   UNL A   1      38.926  29.714  26.679  1.00  0.00    -0.206 F 
ATOM     62  C   UNL A   1      36.784  29.872  27.626  1.00  0.00     0.040 A 
ATOM     63  C   UNL A   1      36.449  29.313  29.944  1.00  0.00     0.040 A 
ATOM     64  F   UNL A   1      38.265  28.637  31.266  1.00  0.00    -0.206 F 
ATOM     65  C   UNL A   1      35.933  29.737  28.721  1.00  0.00     0.006 A 
ENDBRANCH  44  58
BRANCH  45  66
ATOM     66  C   UNL A   1      48.248  26.478  29.555  1.00  0.00     0.057 A 
ATOM     67  C   UNL A   1      49.120  26.745  28.492  1.00  0.00     0.134 A 
ATOM     68  C   UNL A   1      48.776  25.826  30.676  1.00  0.00     0.134 A 
ATOM     69  F   UNL A   1      48.665  27.346  27.383  1.00  0.00    -0.206 F 
ATOM     70  C   UNL A   1      50.460  26.362  28.533  1.00  0.00     0.040 A 
ATOM     71  C   UNL A   1      50.121  25.458  30.739  1.00  0.00     0.040 A 
ATOM     72  F   UNL A   1      47.993  25.545  31.727  1.00  0.00    -0.206 F 
ATOM     73  C   UNL A   1      50.966  25.720  29.662  1.00  0.00     0.006 A 
ENDBRANCH  45  66
BRANCH  57  74
ATOM     74  C   UNL A   1      44.786  32.280  31.201  1.00  0.00     0.057 A 
ATOM     75  C   UNL A   1      45.150  33.364  30.394  1.00  0.00     0.134 A 
ATOM     76  C   UNL A   1      44.807  32.470  32.589  1.00  0.00     0.134 A 
ATOM     77  F   UNL A   1      45.165  33.241  29.058  1.00  0.00    -0.206 F 
ATOM     78  C   UNL A   1      45.539  34.586  30.946  1.00  0.00     0.040 A 
ATOM     79  C   UNL A   1      45.171  33.693  33.152  1.00  0.00     0.040 A 
ATOM     80  F   UNL A   1      44.462  31.472  33.418  1.00  0.00    -0.206 F 
ATOM     81  C   UNL A   1      45.543  34.754  32.330  1.00  0.00     0.006 A 
ENDBRANCH  57  74
ENDBRANCH  31  32
ENDBRANCH  23  26
ENDBRANCH  21  22
ENDBRANCH   1  21
TORSDOF 12
ENDMDL
