MODEL 1
REMARK VINA RESULT:     -10.6      0.000      0.000
REMARK SMILES O=C(CN(CC(F)(F)F)C(=O)[C@H]1C[C@H]2CC[C@@H]1[NH2+]2)NCCCNC(=O)c1ccc(-c2c3nc(c(-c4c(F)cccc4F)c4ccc([nH]4)c(-c4c(F)cccc4F)c4nc(c(-c5c(F)cccc5F)c5ccc2[nH]5)C=C4)C=C3)cc1
REMARK SMILES IDX 20 1 19 2 1 3 2 4 3 6 4 7 5 8 6 9 7 10 8 11 9 12 10 13 11 14
REMARK SMILES IDX 12 15 13 16 17 17 14 18 16 19 18 20 15 21 21 24 22 25 23 26
REMARK SMILES IDX 24 27 25 29 26 30 27 31 79 32 28 33 78 34 29 35 30 36 31 37
REMARK SMILES IDX 72 38 32 39 77 40 71 41 73 42 33 43 76 44 70 45 69 46 34 48
REMARK SMILES IDX 60 49 43 50 59 51 44 52 47 53 58 54 74 55 45 56 46 57 57 59
REMARK SMILES IDX 75 60 48 61 35 62 36 63 41 64 37 65 38 66 40 67 42 68 39 69
REMARK SMILES IDX 61 70 62 71 67 72 63 73 64 74 66 75 68 76 65 77 49 78 50 79
REMARK SMILES IDX 55 80 51 81 52 82 54 83 56 84 53 85
REMARK H PARENT 19 5 18 22 18 23 23 28 73 47 47 58
REMARK Flexibility Score: inf
ROOT
ATOM      1  C   UNL A   1      37.133  21.028  24.673  1.00  0.00     0.117 C 
ENDROOT
BRANCH   1   2
ATOM      2  N   UNL A   1      35.921  20.896  25.456  1.00  0.00    -0.354 N 
ATOM      3  O   UNL A   1      35.950  23.039  26.263  1.00  0.00    -0.273 OA
ATOM      4  C   UNL A   1      35.376  21.959  26.149  1.00  0.00     0.239 C 
ATOM      5  H   UNL A   1      35.472  20.022  25.495  1.00  0.00     0.163 HD
BRANCH   4   6
ATOM      6  C   UNL A   1      34.059  21.662  26.885  1.00  0.00     0.219 C 
BRANCH   6   7
ATOM      7  N   UNL A   1      32.838  22.155  26.209  1.00  0.00    -0.324 N 
BRANCH   7   8
ATOM      8  C   UNL A   1      32.195  21.197  25.295  1.00  0.00     0.235 C 
BRANCH   8   9
ATOM      9  C   UNL A   1      32.315  21.569  23.807  1.00  0.00     0.406 C 
ATOM     10  F   UNL A   1      32.072  20.510  23.004  1.00  0.00    -0.169 F 
ATOM     11  F   UNL A   1      31.430  22.537  23.482  1.00  0.00    -0.169 F 
ATOM     12  F   UNL A   1      33.552  22.026  23.519  1.00  0.00    -0.169 F 
ENDBRANCH   8   9
ENDBRANCH   7   8
BRANCH   7  13
ATOM     13  C   UNL A   1      32.306  23.348  26.670  1.00  0.00     0.232 C 
ATOM     14  O   UNL A   1      31.492  23.308  27.603  1.00  0.00    -0.274 OA
BRANCH  13  15
ATOM     15  C   UNL A   1      32.758  24.742  26.205  1.00  0.00     0.142 C 
ATOM     16  C   UNL A   1      33.404  25.116  24.863  1.00  0.00     0.084 C 
ATOM     17  C   UNL A   1      31.544  25.704  26.222  1.00  0.00     0.195 C 
ATOM     18  C   UNL A   1      32.560  26.298  24.367  1.00  0.00     0.183 C 
ATOM     19  C   UNL A   1      30.519  25.343  25.132  1.00  0.00     0.072 C 
ATOM     20  N   UNL A   1      32.167  26.913  25.641  1.00  0.00    -0.341 N 
ATOM     21  C   UNL A   1      31.222  25.777  23.844  1.00  0.00     0.071 C 
ATOM     22  H   UNL A   1      31.503  27.678  25.521  1.00  0.00     0.346 HD
ATOM     23  H   UNL A   1      32.905  27.360  26.187  1.00  0.00     0.346 HD
ENDBRANCH  13  15
ENDBRANCH   7  13
ENDBRANCH   6   7
ENDBRANCH   4   6
ENDBRANCH   1   2
BRANCH   1  24
ATOM     24  C   UNL A   1      38.071  19.827  24.775  1.00  0.00     0.042 C 
BRANCH  24  25
ATOM     25  C   UNL A   1      38.971  19.804  26.009  1.00  0.00     0.118 C 
BRANCH  25  26
ATOM     26  N   UNL A   1      40.240  19.125  25.789  1.00  0.00    -0.352 N 
ATOM     27  C   UNL A   1      41.535  19.540  25.961  1.00  0.00     0.251 C 
ATOM     28  H   UNL A   1      40.153  18.203  25.455  1.00  0.00     0.163 HD
ATOM     29  O   UNL A   1      42.445  18.794  25.586  1.00  0.00    -0.269 OA
BRANCH  27  30
ATOM     30  C   UNL A   1      41.879  20.852  26.559  1.00  0.00     0.039 A 
ATOM     31  C   UNL A   1      42.276  21.883  25.698  1.00  0.00     0.014 A 
ATOM     32  C   UNL A   1      41.886  21.073  27.939  1.00  0.00     0.014 A 
ATOM     33  C   UNL A   1      42.625  23.136  26.211  1.00  0.00     0.010 A 
ATOM     34  C   UNL A   1      42.168  22.346  28.446  1.00  0.00     0.010 A 
ATOM     35  C   UNL A   1      42.544  23.391  27.589  1.00  0.00    -0.014 A 
BRANCH  35  36
ATOM     36  C   UNL A   1      42.838  24.748  28.126  1.00  0.00     0.031 A 
ATOM     37  C   UNL A   1      44.243  25.153  28.482  1.00  0.00     0.074 A 
ATOM     38  C   UNL A   1      41.825  25.614  28.322  1.00  0.00     0.049 A 
ATOM     39  N   UNL A   1      44.680  26.297  28.948  1.00  0.00    -0.248 NA
ATOM     40  C   UNL A   1      45.292  24.137  28.311  1.00  0.00     0.031 C 
ATOM     41  C   UNL A   1      40.410  25.333  28.075  1.00  0.00     0.029 A 
ATOM     42  N   UNL A   1      41.830  26.911  28.775  1.00  0.00    -0.354 N 
ATOM     43  C   UNL A   1      46.047  26.136  29.137  1.00  0.00     0.074 A 
ATOM     44  C   UNL A   1      46.359  24.768  28.783  1.00  0.00     0.031 C 
ATOM     45  C   UNL A   1      39.688  26.431  28.346  1.00  0.00     0.029 A 
ATOM     46  C   UNL A   1      40.583  27.486  28.813  1.00  0.00     0.049 A 
ATOM     47  H   UNL A   1      42.650  27.385  29.047  1.00  0.00     0.167 HD
ATOM     48  C   UNL A   1      46.963  27.048  29.545  1.00  0.00     0.037 A 
ATOM     49  C   UNL A   1      40.200  28.724  29.175  1.00  0.00     0.037 A 
ATOM     50  C   UNL A   1      46.660  28.416  29.878  1.00  0.00     0.049 A 
ATOM     51  C   UNL A   1      41.238  29.723  29.605  1.00  0.00     0.074 A 
ATOM     52  C   UNL A   1      47.530  29.428  30.245  1.00  0.00     0.029 A 
ATOM     53  N   UNL A   1      45.386  28.965  29.884  1.00  0.00    -0.354 N 
ATOM     54  N   UNL A   1      42.536  29.576  29.706  1.00  0.00    -0.248 NA
ATOM     55  C   UNL A   1      40.756  31.067  29.958  1.00  0.00     0.031 C 
ATOM     56  C   UNL A   1      46.780  30.579  30.512  1.00  0.00     0.029 A 
ATOM     57  C   UNL A   1      45.446  30.296  30.265  1.00  0.00     0.049 A 
ATOM     58  H   UNL A   1      44.561  28.480  29.652  1.00  0.00     0.167 HD
ATOM     59  C   UNL A   1      43.029  30.810  30.107  1.00  0.00     0.074 A 
ATOM     60  C   UNL A   1      41.891  31.700  30.212  1.00  0.00     0.031 C 
ATOM     61  C   UNL A   1      44.309  31.174  30.366  1.00  0.00     0.037 A 
BRANCH  48  62
ATOM     62  C   UNL A   1      48.391  26.594  29.647  1.00  0.00     0.057 A 
ATOM     63  C   UNL A   1      49.286  26.730  28.577  1.00  0.00     0.134 A 
ATOM     64  C   UNL A   1      48.889  26.052  30.838  1.00  0.00     0.134 A 
ATOM     65  F   UNL A   1      48.872  27.232  27.404  1.00  0.00    -0.206 F 
ATOM     66  C   UNL A   1      50.617  26.319  28.680  1.00  0.00     0.040 A 
ATOM     67  C   UNL A   1      50.224  25.662  30.963  1.00  0.00     0.040 A 
ATOM     68  F   UNL A   1      48.090  25.901  31.905  1.00  0.00    -0.206 F 
ATOM     69  C   UNL A   1      51.090  25.790  29.879  1.00  0.00     0.006 A 
ENDBRANCH  48  62
BRANCH  49  70
ATOM     70  C   UNL A   1      38.767  29.107  29.110  1.00  0.00     0.057 A 
ATOM     71  C   UNL A   1      37.951  29.042  30.245  1.00  0.00     0.134 A 
ATOM     72  C   UNL A   1      38.179  29.537  27.915  1.00  0.00     0.134 A 
ATOM     73  F   UNL A   1      38.454  28.619  31.414  1.00  0.00    -0.206 F 
ATOM     74  C   UNL A   1      36.596  29.371  30.192  1.00  0.00     0.040 A 
ATOM     75  C   UNL A   1      36.831  29.892  27.853  1.00  0.00     0.040 A 
ATOM     76  F   UNL A   1      38.909  29.628  26.794  1.00  0.00    -0.206 F 
ATOM     77  C   UNL A   1      36.034  29.802  28.992  1.00  0.00     0.006 A 
ENDBRANCH  49  70
BRANCH  61  78
ATOM     78  C   UNL A   1      44.547  32.604  30.756  1.00  0.00     0.057 A 
ATOM     79  C   UNL A   1      44.550  33.015  32.095  1.00  0.00     0.134 A 
ATOM     80  C   UNL A   1      44.784  33.579  29.779  1.00  0.00     0.134 A 
ATOM     81  F   UNL A   1      44.315  32.134  33.078  1.00  0.00    -0.206 F 
ATOM     82  C   UNL A   1      44.749  34.352  32.447  1.00  0.00     0.040 A 
ATOM     83  C   UNL A   1      45.012  34.913  30.121  1.00  0.00     0.040 A 
ATOM     84  F   UNL A   1      44.802  33.252  28.478  1.00  0.00    -0.206 F 
ATOM     85  C   UNL A   1      44.985  35.304  31.457  1.00  0.00     0.006 A 
ENDBRANCH  61  78
ENDBRANCH  35  36
ENDBRANCH  27  30
ENDBRANCH  25  26
ENDBRANCH  24  25
ENDBRANCH   1  24
TORSDOF 15
ENDMDL
MODEL 2
REMARK VINA RESULT:     -10.4      0.405      6.311
REMARK SMILES O=C(CN(CC(F)(F)F)C(=O)[C@H]1C[C@H]2CC[C@@H]1[NH2+]2)NCCCNC(=O)c1ccc(-c2c3nc(c(-c4c(F)cccc4F)c4ccc([nH]4)c(-c4c(F)cccc4F)c4nc(c(-c5c(F)cccc5F)c5ccc2[nH]5)C=C4)C=C3)cc1
REMARK SMILES IDX 20 1 19 2 1 3 2 4 3 6 4 7 5 8 6 9 7 10 8 11 9 12 10 13 11 14
REMARK SMILES IDX 12 15 13 16 17 17 14 18 16 19 18 20 15 21 21 24 22 25 23 26
REMARK SMILES IDX 24 27 25 29 26 30 27 31 79 32 28 33 78 34 29 35 30 36 31 37
REMARK SMILES IDX 72 38 32 39 77 40 71 41 73 42 33 43 76 44 70 45 69 46 34 48
REMARK SMILES IDX 60 49 43 50 59 51 44 52 47 53 58 54 74 55 45 56 46 57 57 59
REMARK SMILES IDX 75 60 48 61 35 62 36 63 41 64 37 65 38 66 40 67 42 68 39 69
REMARK SMILES IDX 61 70 62 71 67 72 63 73 64 74 66 75 68 76 65 77 49 78 50 79
REMARK SMILES IDX 55 80 51 81 52 82 54 83 56 84 53 85
REMARK H PARENT 19 5 18 22 18 23 23 28 73 47 47 58
REMARK Flexibility Score: inf
ROOT
ATOM      1  C   UNL A   1      36.983  21.017  24.522  1.00  0.00     0.117 C 
ENDROOT
BRANCH   1   2
ATOM      2  N   UNL A   1      35.777  20.921  25.321  1.00  0.00    -0.354 N 
ATOM      3  O   UNL A   1      35.998  22.983  26.293  1.00  0.00    -0.273 OA
ATOM      4  C   UNL A   1      35.334  21.965  26.108  1.00  0.00     0.239 C 
ATOM      5  H   UNL A   1      35.258  20.086  25.302  1.00  0.00     0.163 HD
BRANCH   4   6
ATOM      6  C   UNL A   1      34.010  21.718  26.849  1.00  0.00     0.219 C 
BRANCH   6   7
ATOM      7  N   UNL A   1      32.804  22.244  26.170  1.00  0.00    -0.324 N 
BRANCH   7   8
ATOM      8  C   UNL A   1      32.148  21.311  25.241  1.00  0.00     0.235 C 
BRANCH   8   9
ATOM      9  C   UNL A   1      32.267  21.711  23.760  1.00  0.00     0.406 C 
ATOM     10  F   UNL A   1      32.091  20.652  22.939  1.00  0.00    -0.169 F 
ATOM     11  F   UNL A   1      31.336  22.635  23.436  1.00  0.00    -0.169 F 
ATOM     12  F   UNL A   1      33.482  22.236  23.495  1.00  0.00    -0.169 F 
ENDBRANCH   8   9
ENDBRANCH   7   8
BRANCH   7  13
ATOM     13  C   UNL A   1      32.293  23.443  26.643  1.00  0.00     0.232 C 
ATOM     14  O   UNL A   1      31.438  23.406  27.539  1.00  0.00    -0.274 OA
BRANCH  13  15
ATOM     15  C   UNL A   1      32.812  24.831  26.237  1.00  0.00     0.142 C 
ATOM     16  C   UNL A   1      33.592  25.205  24.968  1.00  0.00     0.084 C 
ATOM     17  C   UNL A   1      31.619  25.815  26.145  1.00  0.00     0.195 C 
ATOM     18  C   UNL A   1      32.820  26.405  24.404  1.00  0.00     0.183 C 
ATOM     19  C   UNL A   1      30.698  25.481  24.958  1.00  0.00     0.072 C 
ATOM     20  N   UNL A   1      32.315  27.017  25.639  1.00  0.00    -0.341 N 
ATOM     21  C   UNL A   1      31.530  25.913  23.748  1.00  0.00     0.071 C 
ATOM     22  H   UNL A   1      31.679  27.795  25.462  1.00  0.00     0.346 HD
ATOM     23  H   UNL A   1      33.004  27.447  26.258  1.00  0.00     0.346 HD
ENDBRANCH  13  15
ENDBRANCH   7  13
ENDBRANCH   6   7
ENDBRANCH   4   6
ENDBRANCH   1   2
BRANCH   1  24
ATOM     24  C   UNL A   1      37.958  19.861  24.731  1.00  0.00     0.042 C 
BRANCH  24  25
ATOM     25  C   UNL A   1      38.870  19.987  25.950  1.00  0.00     0.118 C 
BRANCH  25  26
ATOM     26  N   UNL A   1      40.094  19.207  25.842  1.00  0.00    -0.352 N 
ATOM     27  C   UNL A   1      41.406  19.537  26.067  1.00  0.00     0.251 C 
ATOM     28  H   UNL A   1      39.957  18.276  25.554  1.00  0.00     0.163 HD
ATOM     29  O   UNL A   1      42.276  18.707  25.787  1.00  0.00    -0.269 OA
BRANCH  27  30
ATOM     30  C   UNL A   1      41.815  20.854  26.612  1.00  0.00     0.039 A 
ATOM     31  C   UNL A   1      42.209  21.846  25.706  1.00  0.00     0.014 A 
ATOM     32  C   UNL A   1      41.884  21.113  27.984  1.00  0.00     0.014 A 
ATOM     33  C   UNL A   1      42.617  23.101  26.167  1.00  0.00     0.010 A 
ATOM     34  C   UNL A   1      42.226  22.389  28.442  1.00  0.00     0.010 A 
ATOM     35  C   UNL A   1      42.599  23.397  27.540  1.00  0.00    -0.014 A 
BRANCH  35  36
ATOM     36  C   UNL A   1      42.957  24.759  28.025  1.00  0.00     0.031 A 
ATOM     37  C   UNL A   1      41.898  25.800  28.266  1.00  0.00     0.074 A 
ATOM     38  C   UNL A   1      44.254  25.069  28.223  1.00  0.00     0.049 A 
ATOM     39  N   UNL A   1      42.032  27.030  28.699  1.00  0.00    -0.248 NA
ATOM     40  C   UNL A   1      40.511  25.420  27.962  1.00  0.00     0.031 C 
ATOM     41  C   UNL A   1      45.386  24.175  27.974  1.00  0.00     0.029 A 
ATOM     42  N   UNL A   1      44.839  26.224  28.681  1.00  0.00    -0.354 N 
ATOM     43  C   UNL A   1      40.753  27.572  28.709  1.00  0.00     0.074 A 
ATOM     44  C   UNL A   1      39.863  26.555  28.191  1.00  0.00     0.031 C 
ATOM     45  C   UNL A   1      46.524  24.800  28.313  1.00  0.00     0.029 A 
ATOM     46  C   UNL A   1      46.208  26.148  28.775  1.00  0.00     0.049 A 
ATOM     47  H   UNL A   1      44.326  27.030  28.919  1.00  0.00     0.167 HD
ATOM     48  C   UNL A   1      40.351  28.795  29.132  1.00  0.00     0.037 A 
ATOM     49  C   UNL A   1      47.108  27.056  29.194  1.00  0.00     0.037 A 
ATOM     50  C   UNL A   1      41.229  29.802  29.669  1.00  0.00     0.049 A 
ATOM     51  C   UNL A   1      46.634  28.398  29.678  1.00  0.00     0.074 A 
ATOM     52  C   UNL A   1      40.906  31.049  30.177  1.00  0.00     0.029 A 
ATOM     53  N   UNL A   1      42.608  29.679  29.767  1.00  0.00    -0.354 N 
ATOM     54  N   UNL A   1      45.413  28.868  29.751  1.00  0.00    -0.248 NA
ATOM     55  C   UNL A   1      47.666  29.333  30.150  1.00  0.00     0.031 C 
ATOM     56  C   UNL A   1      42.091  31.696  30.546  1.00  0.00     0.029 A 
ATOM     57  C   UNL A   1      43.149  30.833  30.311  1.00  0.00     0.049 A 
ATOM     58  H   UNL A   1      43.125  28.888  29.490  1.00  0.00     0.167 HD
ATOM     59  C   UNL A   1      45.526  30.138  30.300  1.00  0.00     0.074 A 
ATOM     60  C   UNL A   1      46.934  30.358  30.559  1.00  0.00     0.031 C 
ATOM     61  C   UNL A   1      44.551  31.042  30.566  1.00  0.00     0.037 A 
BRANCH  48  62
ATOM     62  C   UNL A   1      38.885  29.111  29.040  1.00  0.00     0.057 A 
ATOM     63  C   UNL A   1      38.038  29.014  30.152  1.00  0.00     0.134 A 
ATOM     64  C   UNL A   1      38.321  29.556  27.837  1.00  0.00     0.134 A 
ATOM     65  F   UNL A   1      38.511  28.584  31.331  1.00  0.00    -0.206 F 
ATOM     66  C   UNL A   1      36.679  29.321  30.064  1.00  0.00     0.040 A 
ATOM     67  C   UNL A   1      36.969  29.891  27.744  1.00  0.00     0.040 A 
ATOM     68  F   UNL A   1      39.076  29.680  26.735  1.00  0.00    -0.206 F 
ATOM     69  C   UNL A   1      36.142  29.768  28.859  1.00  0.00     0.006 A 
ENDBRANCH  48  62
BRANCH  49  70
ATOM     70  C   UNL A   1      48.553  26.715  29.215  1.00  0.00     0.057 A 
ATOM     71  C   UNL A   1      49.383  27.034  28.135  1.00  0.00     0.134 A 
ATOM     72  C   UNL A   1      49.133  26.056  30.304  1.00  0.00     0.134 A 
ATOM     73  F   UNL A   1      48.880  27.648  27.054  1.00  0.00    -0.206 F 
ATOM     74  C   UNL A   1      50.737  26.692  28.128  1.00  0.00     0.040 A 
ATOM     75  C   UNL A   1      50.489  25.731  30.322  1.00  0.00     0.040 A 
ATOM     76  F   UNL A   1      48.391  25.730  31.373  1.00  0.00    -0.206 F 
ATOM     77  C   UNL A   1      51.294  26.042  29.228  1.00  0.00     0.006 A 
ENDBRANCH  49  70
BRANCH  61  78
ATOM     78  C   UNL A   1      44.974  32.336  31.198  1.00  0.00     0.057 A 
ATOM     79  C   UNL A   1      45.056  32.489  32.588  1.00  0.00     0.134 A 
ATOM     80  C   UNL A   1      45.311  33.440  30.404  1.00  0.00     0.134 A 
ATOM     81  F   UNL A   1      44.733  31.476  33.404  1.00  0.00    -0.206 F 
ATOM     82  C   UNL A   1      45.428  33.705  33.167  1.00  0.00     0.040 A 
ATOM     83  C   UNL A   1      45.711  34.651  30.971  1.00  0.00     0.040 A 
ATOM     84  F   UNL A   1      45.262  33.358  29.066  1.00  0.00    -0.206 F 
ATOM     85  C   UNL A   1      45.761  34.788  32.357  1.00  0.00     0.006 A 
ENDBRANCH  61  78
ENDBRANCH  35  36
ENDBRANCH  27  30
ENDBRANCH  25  26
ENDBRANCH  24  25
ENDBRANCH   1  24
TORSDOF 15
ENDMDL
MODEL 3
REMARK VINA RESULT:     -10.4      4.375      9.273
REMARK SMILES O=C(CN(CC(F)(F)F)C(=O)[C@H]1C[C@H]2CC[C@@H]1[NH2+]2)NCCCNC(=O)c1ccc(-c2c3nc(c(-c4c(F)cccc4F)c4ccc([nH]4)c(-c4c(F)cccc4F)c4nc(c(-c5c(F)cccc5F)c5ccc2[nH]5)C=C4)C=C3)cc1
REMARK SMILES IDX 20 1 19 2 1 3 2 4 3 6 4 7 5 8 6 9 7 10 8 11 9 12 10 13 11 14
REMARK SMILES IDX 12 15 13 16 17 17 14 18 16 19 18 20 15 21 21 24 22 25 23 26
REMARK SMILES IDX 24 27 25 29 26 30 27 31 79 32 28 33 78 34 29 35 30 36 31 37
REMARK SMILES IDX 72 38 32 39 77 40 71 41 73 42 33 43 76 44 70 45 69 46 34 48
REMARK SMILES IDX 60 49 43 50 59 51 44 52 47 53 58 54 74 55 45 56 46 57 57 59
REMARK SMILES IDX 75 60 48 61 35 62 36 63 41 64 37 65 38 66 40 67 42 68 39 69
REMARK SMILES IDX 61 70 62 71 67 72 63 73 64 74 66 75 68 76 65 77 49 78 50 79
REMARK SMILES IDX 55 80 51 81 52 82 54 83 56 84 53 85
REMARK H PARENT 19 5 18 22 18 23 23 28 73 47 47 58
REMARK Flexibility Score: inf
ROOT
ATOM      1  C   UNL A   1      31.473  30.562  26.353  1.00  0.00     0.117 C 
ENDROOT
BRANCH   1   2
ATOM      2  N   UNL A   1      31.666  30.134  24.982  1.00  0.00    -0.354 N 
ATOM      3  O   UNL A   1      33.605  28.985  25.386  1.00  0.00    -0.273 OA
ATOM      4  C   UNL A   1      32.704  29.302  24.614  1.00  0.00     0.239 C 
ATOM      5  H   UNL A   1      31.038  30.447  24.292  1.00  0.00     0.163 HD
BRANCH   4   6
ATOM      6  C   UNL A   1      32.733  28.901  23.129  1.00  0.00     0.219 C 
BRANCH   6   7
ATOM      7  N   UNL A   1      32.021  27.645  22.805  1.00  0.00    -0.324 N 
BRANCH   7   8
ATOM      8  C   UNL A   1      30.576  27.787  22.561  1.00  0.00     0.235 C 
BRANCH   8   9
ATOM      9  C   UNL A   1      29.691  27.061  23.588  1.00  0.00     0.406 C 
ATOM     10  F   UNL A   1      30.140  27.236  24.851  1.00  0.00    -0.169 F 
ATOM     11  F   UNL A   1      28.423  27.524  23.540  1.00  0.00    -0.169 F 
ATOM     12  F   UNL A   1      29.656  25.733  23.348  1.00  0.00    -0.169 F 
ENDBRANCH   8   9
ENDBRANCH   7   8
BRANCH   7  13
ATOM     13  C   UNL A   1      32.804  26.533  22.538  1.00  0.00     0.232 C 
ATOM     14  O   UNL A   1      33.786  26.669  21.797  1.00  0.00    -0.274 OA
BRANCH  13  15
ATOM     15  C   UNL A   1      32.627  25.162  23.210  1.00  0.00     0.142 C 
ATOM     16  C   UNL A   1      33.428  23.879  22.943  1.00  0.00     0.084 C 
ATOM     17  C   UNL A   1      32.822  25.314  24.739  1.00  0.00     0.195 C 
ATOM     18  C   UNL A   1      33.858  23.418  24.343  1.00  0.00     0.183 C 
ATOM     19  C   UNL A   1      34.285  25.635  25.095  1.00  0.00     0.072 C 
ATOM     20  N   UNL A   1      32.731  23.897  25.152  1.00  0.00    -0.341 N 
ATOM     21  C   UNL A   1      35.000  24.306  24.836  1.00  0.00     0.071 C 
ATOM     22  H   UNL A   1      32.883  23.769  26.153  1.00  0.00     0.346 HD
ATOM     23  H   UNL A   1      31.832  23.433  25.016  1.00  0.00     0.346 HD
ENDBRANCH  13  15
ENDBRANCH   7  13
ENDBRANCH   6   7
ENDBRANCH   4   6
ENDBRANCH   1   2
BRANCH   1  24
ATOM     24  C   UNL A   1      31.380  32.077  26.523  1.00  0.00     0.042 C 
BRANCH  24  25
ATOM     25  C   UNL A   1      32.684  32.773  26.909  1.00  0.00     0.118 C 
BRANCH  25  26
ATOM     26  N   UNL A   1      32.485  33.992  27.679  1.00  0.00    -0.352 N 
ATOM     27  C   UNL A   1      33.169  34.516  28.745  1.00  0.00     0.251 C 
ATOM     28  H   UNL A   1      31.723  34.538  27.382  1.00  0.00     0.163 HD
ATOM     29  O   UNL A   1      32.717  35.526  29.293  1.00  0.00    -0.269 OA
BRANCH  27  30
ATOM     30  C   UNL A   1      34.413  33.905  29.273  1.00  0.00     0.039 A 
ATOM     31  C   UNL A   1      34.292  32.891  30.231  1.00  0.00     0.014 A 
ATOM     32  C   UNL A   1      35.686  34.347  28.902  1.00  0.00     0.014 A 
ATOM     33  C   UNL A   1      35.433  32.291  30.772  1.00  0.00     0.010 A 
ATOM     34  C   UNL A   1      36.826  33.701  29.390  1.00  0.00     0.010 A 
ATOM     35  C   UNL A   1      36.713  32.668  30.333  1.00  0.00    -0.014 A 
BRANCH  35  36
ATOM     36  C   UNL A   1      37.924  31.973  30.850  1.00  0.00     0.031 A 
ATOM     37  C   UNL A   1      38.513  32.334  32.187  1.00  0.00     0.074 A 
ATOM     38  C   UNL A   1      38.516  31.028  30.095  1.00  0.00     0.049 A 
ATOM     39  N   UNL A   1      39.556  31.823  32.795  1.00  0.00    -0.248 NA
ATOM     40  C   UNL A   1      37.862  33.423  32.929  1.00  0.00     0.031 C 
ATOM     41  C   UNL A   1      38.085  30.621  28.756  1.00  0.00     0.029 A 
ATOM     42  N   UNL A   1      39.610  30.236  30.345  1.00  0.00    -0.354 N 
ATOM     43  C   UNL A   1      39.691  32.532  33.983  1.00  0.00     0.074 A 
ATOM     44  C   UNL A   1      38.655  33.544  33.985  1.00  0.00     0.031 C 
ATOM     45  C   UNL A   1      38.882  29.634  28.317  1.00  0.00     0.029 A 
ATOM     46  C   UNL A   1      39.898  29.357  29.328  1.00  0.00     0.049 A 
ATOM     47  H   UNL A   1      40.138  30.291  31.174  1.00  0.00     0.167 HD
ATOM     48  C   UNL A   1      40.580  32.346  34.989  1.00  0.00     0.037 A 
ATOM     49  C   UNL A   1      40.865  28.427  29.223  1.00  0.00     0.037 A 
ATOM     50  C   UNL A   1      41.597  31.327  35.000  1.00  0.00     0.049 A 
ATOM     51  C   UNL A   1      41.825  28.226  30.361  1.00  0.00     0.074 A 
ATOM     52  C   UNL A   1      42.506  31.024  36.000  1.00  0.00     0.029 A 
ATOM     53  N   UNL A   1      41.843  30.443  33.959  1.00  0.00    -0.354 N 
ATOM     54  N   UNL A   1      41.893  28.856  31.509  1.00  0.00    -0.248 NA
ATOM     55  C   UNL A   1      42.838  27.173  30.195  1.00  0.00     0.031 C 
ATOM     56  C   UNL A   1      43.327  29.984  35.550  1.00  0.00     0.029 A 
ATOM     57  C   UNL A   1      42.899  29.607  34.288  1.00  0.00     0.049 A 
ATOM     58  H   UNL A   1      41.342  30.415  33.113  1.00  0.00     0.167 HD
ATOM     59  C   UNL A   1      42.932  28.261  32.209  1.00  0.00     0.074 A 
ATOM     60  C   UNL A   1      43.456  27.206  31.365  1.00  0.00     0.031 C 
ATOM     61  C   UNL A   1      43.412  28.560  33.442  1.00  0.00     0.037 A 
BRANCH  48  62
ATOM     62  C   UNL A   1      40.484  33.264  36.174  1.00  0.00     0.057 A 
ATOM     63  C   UNL A   1      41.261  34.425  36.273  1.00  0.00     0.134 A 
ATOM     64  C   UNL A   1      39.576  33.006  37.209  1.00  0.00     0.134 A 
ATOM     65  F   UNL A   1      42.157  34.726  35.321  1.00  0.00    -0.206 F 
ATOM     66  C   UNL A   1      41.159  35.282  37.370  1.00  0.00     0.040 A 
ATOM     67  C   UNL A   1      39.446  33.870  38.299  1.00  0.00     0.040 A 
ATOM     68  F   UNL A   1      38.794  31.917  37.175  1.00  0.00    -0.206 F 
ATOM     69  C   UNL A   1      40.244  35.008  38.384  1.00  0.00     0.006 A 
ENDBRANCH  48  62
BRANCH  49  70
ATOM     70  C   UNL A   1      40.951  27.581  28.006  1.00  0.00     0.057 A 
ATOM     71  C   UNL A   1      41.707  27.985  26.900  1.00  0.00     0.134 A 
ATOM     72  C   UNL A   1      40.277  26.359  27.915  1.00  0.00     0.134 A 
ATOM     73  F   UNL A   1      42.360  29.157  26.920  1.00  0.00    -0.206 F 
ATOM     74  C   UNL A   1      41.774  27.215  25.738  1.00  0.00     0.040 A 
ATOM     75  C   UNL A   1      40.354  25.566  26.770  1.00  0.00     0.040 A 
ATOM     76  F   UNL A   1      39.542  25.912  28.945  1.00  0.00    -0.206 F 
ATOM     77  C   UNL A   1      41.099  25.997  25.674  1.00  0.00     0.006 A 
ENDBRANCH  49  70
BRANCH  61  78
ATOM     78  C   UNL A   1      44.538  27.715  33.960  1.00  0.00     0.057 A 
ATOM     79  C   UNL A   1      45.879  28.077  33.780  1.00  0.00     0.134 A 
ATOM     80  C   UNL A   1      44.276  26.528  34.656  1.00  0.00     0.134 A 
ATOM     81  F   UNL A   1      46.198  29.194  33.110  1.00  0.00    -0.206 F 
ATOM     82  C   UNL A   1      46.921  27.272  34.246  1.00  0.00     0.040 A 
ATOM     83  C   UNL A   1      45.309  25.729  35.151  1.00  0.00     0.040 A 
ATOM     84  F   UNL A   1      43.015  26.127  34.870  1.00  0.00    -0.206 F 
ATOM     85  C   UNL A   1      46.636  26.096  34.937  1.00  0.00     0.006 A 
ENDBRANCH  61  78
ENDBRANCH  35  36
ENDBRANCH  27  30
ENDBRANCH  25  26
ENDBRANCH  24  25
ENDBRANCH   1  24
TORSDOF 15
ENDMDL
