MODEL 1
REMARK VINA RESULT:     -12.6      0.000      0.000
REMARK SMILES O=C(COc1ccccc1Br)Nc1cccc(C(=O)Nc2ccc(C(=O)NCCCNC(=O)c3ccc(-c4c5nc(c(-c6c(F)cccc6F)c6ccc([nH]6)c(-c6c(F)cccc6F)c6nc(c(-c7c(F)cccc7F)c7ccc4[nH]7)C=C6)C=C5)cc3)cc2)c1
REMARK SMILES IDX 25 1 26 2 27 3 24 5 21 6 22 7 89 8 23 9 88 10 20 11 18 12
REMARK SMILES IDX 19 13 17 15 13 16 14 17 90 18 15 19 16 20 12 21 1 22 2 23
REMARK SMILES IDX 3 25 4 26 5 27 6 28 10 29 7 30 9 31 11 32 8 33 28 34 29 35
REMARK SMILES IDX 30 36 31 37 32 38 33 40 34 41 35 42 87 43 36 44 86 45 37 46
REMARK SMILES IDX 38 47 39 48 80 49 40 50 85 51 79 52 81 53 41 54 84 55 78 56
REMARK SMILES IDX 77 57 42 59 68 60 51 61 67 62 52 63 55 64 66 65 82 66 53 67
REMARK SMILES IDX 54 68 65 70 83 71 56 72 43 73 44 74 49 75 45 76 46 77 48 78
REMARK SMILES IDX 50 79 47 80 69 81 70 82 75 83 71 84 72 85 74 86 76 87 73 88
REMARK SMILES IDX 57 89 58 90 63 91 59 92 60 93 62 94 64 95 61 96
REMARK H PARENT 27 4 20 14 12 24 31 39 81 58 55 69
REMARK Flexibility Score: inf
ROOT
ATOM      1  C   UNL A   1      30.621  29.318  23.427  1.00  0.00     0.251 C 
ATOM      2  O   UNL A   1      30.039  29.724  22.420  1.00  0.00    -0.269 OA
ATOM      3  N   UNL A   1      30.918  30.246  24.396  1.00  0.00    -0.352 N 
ATOM      4  H   UNL A   1      30.633  31.159  24.165  1.00  0.00     0.163 HD
ENDROOT
BRANCH   1   5
ATOM      5  C   UNL A   1      30.892  27.863  23.581  1.00  0.00     0.039 A 
ATOM      6  C   UNL A   1      31.243  25.103  23.311  1.00  0.00     0.041 A 
ATOM      7  C   UNL A   1      32.206  25.970  22.794  1.00  0.00     0.027 A 
ATOM      8  C   UNL A   1      30.226  25.602  24.129  1.00  0.00     0.027 A 
ATOM      9  C   UNL A   1      32.008  27.349  22.901  1.00  0.00     0.016 A 
ATOM     10  C   UNL A   1      30.076  26.984  24.294  1.00  0.00     0.016 A 
BRANCH   6  11
ATOM     11  N   UNL A   1      31.268  23.768  22.879  1.00  0.00    -0.322 N 
ATOM     12  C   UNL A   1      32.026  22.708  23.353  1.00  0.00     0.255 C 
ATOM     13  O   UNL A   1      32.055  21.659  22.709  1.00  0.00    -0.269 OA
ATOM     14  H   UNL A   1      30.661  23.553  22.134  1.00  0.00     0.170 HD
BRANCH  12  15
ATOM     15  C   UNL A   1      32.722  22.753  24.680  1.00  0.00     0.042 A 
ATOM     16  C   UNL A   1      34.756  22.784  26.025  1.00  0.00     0.042 A 
ATOM     17  C   UNL A   1      33.980  22.786  27.185  1.00  0.00     0.026 A 
ATOM     18  C   UNL A   1      34.114  22.834  24.790  1.00  0.00     0.040 A 
ATOM     19  C   UNL A   1      32.587  22.847  27.099  1.00  0.00     0.003 A 
ATOM     20  C   UNL A   1      31.959  22.818  25.850  1.00  0.00     0.014 A 
BRANCH  16  21
ATOM     21  N   UNL A   1      36.157  22.793  26.162  1.00  0.00    -0.323 N 
ATOM     22  O   UNL A   1      36.776  20.682  25.361  1.00  0.00    -0.271 OA
ATOM     23  C   UNL A   1      37.049  21.811  25.753  1.00  0.00     0.262 C 
ATOM     24  H   UNL A   1      36.548  23.585  26.598  1.00  0.00     0.170 HD
BRANCH  23  25
ATOM     25  C   UNL A   1      38.499  22.267  25.829  1.00  0.00     0.329 C 
BRANCH  25  26
ATOM     26  O   UNL A   1      39.345  21.142  26.096  1.00  0.00    -0.483 OA
BRANCH  26  27
ATOM     27  C   UNL A   1      40.435  21.545  26.819  1.00  0.00     0.134 A 
ATOM     28  C   UNL A   1      40.329  22.766  27.487  1.00  0.00     0.047 A 
ATOM     29  C   UNL A   1      41.621  20.806  26.878  1.00  0.00     0.060 A 
ATOM     30  C   UNL A   1      41.398  23.229  28.252  1.00  0.00     0.004 A 
ATOM     31  C   UNL A   1      42.679  21.267  27.659  1.00  0.00     0.019 A 
ATOM     32  Br  UNL A   1      41.908  19.201  25.919  1.00  0.00    -0.047 Br
ATOM     33  C   UNL A   1      42.567  22.474  28.345  1.00  0.00     0.001 A 
ENDBRANCH  26  27
ENDBRANCH  25  26
ENDBRANCH  23  25
ENDBRANCH  16  21
ENDBRANCH  12  15
ENDBRANCH   6  11
ENDBRANCH   1   5
BRANCH   3  34
ATOM     34  C   UNL A   1      31.568  30.152  25.693  1.00  0.00     0.118 C 
BRANCH  34  35
ATOM     35  C   UNL A   1      31.369  31.429  26.495  1.00  0.00     0.042 C 
BRANCH  35  36
ATOM     36  C   UNL A   1      32.692  32.088  26.878  1.00  0.00     0.118 C 
BRANCH  36  37
ATOM     37  N   UNL A   1      32.536  33.491  27.255  1.00  0.00    -0.352 N 
ATOM     38  C   UNL A   1      33.143  34.211  28.257  1.00  0.00     0.251 C 
ATOM     39  H   UNL A   1      31.896  33.999  26.706  1.00  0.00     0.163 HD
ATOM     40  O   UNL A   1      32.735  35.328  28.542  1.00  0.00    -0.269 OA
BRANCH  38  41
ATOM     41  C   UNL A   1      34.275  33.618  28.998  1.00  0.00     0.039 A 
ATOM     42  C   UNL A   1      34.029  32.590  29.912  1.00  0.00     0.014 A 
ATOM     43  C   UNL A   1      35.578  34.067  28.777  1.00  0.00     0.014 A 
ATOM     44  C   UNL A   1      35.104  31.954  30.536  1.00  0.00     0.010 A 
ATOM     45  C   UNL A   1      36.648  33.367  29.320  1.00  0.00     0.010 A 
ATOM     46  C   UNL A   1      36.423  32.304  30.207  1.00  0.00    -0.014 A 
BRANCH  46  47
ATOM     47  C   UNL A   1      37.586  31.573  30.771  1.00  0.00     0.031 A 
ATOM     48  C   UNL A   1      38.004  31.808  32.197  1.00  0.00     0.074 A 
ATOM     49  C   UNL A   1      38.312  30.763  29.975  1.00  0.00     0.049 A 
ATOM     50  N   UNL A   1      39.042  31.340  32.841  1.00  0.00    -0.248 NA
ATOM     51  C   UNL A   1      37.163  32.717  32.994  1.00  0.00     0.031 C 
ATOM     52  C   UNL A   1      38.042  30.498  28.559  1.00  0.00     0.029 A 
ATOM     53  N   UNL A   1      39.437  30.021  30.240  1.00  0.00    -0.354 N 
ATOM     54  C   UNL A   1      38.987  31.908  34.108  1.00  0.00     0.074 A 
ATOM     55  C   UNL A   1      37.850  32.802  34.123  1.00  0.00     0.031 C 
ATOM     56  C   UNL A   1      38.957  29.636  28.088  1.00  0.00     0.029 A 
ATOM     57  C   UNL A   1      39.904  29.322  29.152  1.00  0.00     0.049 A 
ATOM     58  H   UNL A   1      39.867  29.994  31.124  1.00  0.00     0.167 HD
ATOM     59  C   UNL A   1      39.796  31.686  35.170  1.00  0.00     0.037 A 
ATOM     60  C   UNL A   1      40.983  28.526  29.025  1.00  0.00     0.037 A 
ATOM     61  C   UNL A   1      40.908  30.773  35.158  1.00  0.00     0.049 A 
ATOM     62  C   UNL A   1      41.867  28.300  30.222  1.00  0.00     0.074 A 
ATOM     63  C   UNL A   1      41.750  30.428  36.199  1.00  0.00     0.029 A 
ATOM     64  N   UNL A   1      41.334  30.063  34.045  1.00  0.00    -0.354 N 
ATOM     65  N   UNL A   1      41.759  28.785  31.435  1.00  0.00    -0.248 NA
ATOM     66  C   UNL A   1      43.022  27.410  30.034  1.00  0.00     0.031 C 
ATOM     67  C   UNL A   1      42.717  29.547  35.705  1.00  0.00     0.029 A 
ATOM     68  C   UNL A   1      42.442  29.298  34.371  1.00  0.00     0.049 A 
ATOM     69  H   UNL A   1      40.912  30.098  33.157  1.00  0.00     0.167 HD
ATOM     70  C   UNL A   1      42.806  28.233  32.161  1.00  0.00     0.074 A 
ATOM     71  C   UNL A   1      43.530  27.365  31.256  1.00  0.00     0.031 C 
ATOM     72  C   UNL A   1      43.141  28.428  33.460  1.00  0.00     0.037 A 
BRANCH  59  73
ATOM     73  C   UNL A   1      39.503  32.433  36.440  1.00  0.00     0.057 A 
ATOM     74  C   UNL A   1      40.190  33.605  36.783  1.00  0.00     0.134 A 
ATOM     75  C   UNL A   1      38.488  32.003  37.305  1.00  0.00     0.134 A 
ATOM     76  F   UNL A   1      41.182  34.065  36.006  1.00  0.00    -0.206 F 
ATOM     77  C   UNL A   1      39.893  34.310  37.952  1.00  0.00     0.040 A 
ATOM     78  C   UNL A   1      38.162  32.716  38.460  1.00  0.00     0.040 A 
ATOM     79  F   UNL A   1      37.787  30.891  37.034  1.00  0.00    -0.206 F 
ATOM     80  C   UNL A   1      38.869  33.870  38.788  1.00  0.00     0.006 A 
ENDBRANCH  59  73
BRANCH  60  81
ATOM     81  C   UNL A   1      41.284  27.869  27.728  1.00  0.00     0.057 A 
ATOM     82  C   UNL A   1      40.634  26.690  27.345  1.00  0.00     0.134 A 
ATOM     83  C   UNL A   1      42.247  28.386  26.851  1.00  0.00     0.134 A 
ATOM     84  F   UNL A   1      39.714  26.135  28.149  1.00  0.00    -0.206 F 
ATOM     85  C   UNL A   1      40.951  26.031  26.155  1.00  0.00     0.040 A 
ATOM     86  C   UNL A   1      42.552  27.753  25.644  1.00  0.00     0.040 A 
ATOM     87  F   UNL A   1      42.899  29.518  27.151  1.00  0.00    -0.206 F 
ATOM     88  C   UNL A   1      41.910  26.566  25.299  1.00  0.00     0.006 A 
ENDBRANCH  60  81
BRANCH  72  89
ATOM     89  C   UNL A   1      44.310  27.653  33.994  1.00  0.00     0.057 A 
ATOM     90  C   UNL A   1      44.167  26.367  34.529  1.00  0.00     0.134 A 
ATOM     91  C   UNL A   1      45.604  28.188  33.932  1.00  0.00     0.134 A 
ATOM     92  F   UNL A   1      42.954  25.803  34.628  1.00  0.00    -0.206 F 
ATOM     93  C   UNL A   1      45.265  25.650  35.007  1.00  0.00     0.040 A 
ATOM     94  C   UNL A   1      46.712  27.469  34.377  1.00  0.00     0.040 A 
ATOM     95  F   UNL A   1      45.812  29.411  33.422  1.00  0.00    -0.206 F 
ATOM     96  C   UNL A   1      46.544  26.198  34.923  1.00  0.00     0.006 A 
ENDBRANCH  72  89
ENDBRANCH  46  47
ENDBRANCH  38  41
ENDBRANCH  36  37
ENDBRANCH  35  36
ENDBRANCH  34  35
ENDBRANCH   3  34
TORSDOF 16
ENDMDL
MODEL 2
REMARK VINA RESULT:     -12.6      1.655      2.150
REMARK SMILES O=C(COc1ccccc1Br)Nc1cccc(C(=O)Nc2ccc(C(=O)NCCCNC(=O)c3ccc(-c4c5nc(c(-c6c(F)cccc6F)c6ccc([nH]6)c(-c6c(F)cccc6F)c6nc(c(-c7c(F)cccc7F)c7ccc4[nH]7)C=C6)C=C5)cc3)cc2)c1
REMARK SMILES IDX 25 1 26 2 27 3 24 5 21 6 22 7 89 8 23 9 88 10 20 11 18 12
REMARK SMILES IDX 19 13 17 15 13 16 14 17 90 18 15 19 16 20 12 21 1 22 2 23
REMARK SMILES IDX 3 25 4 26 5 27 6 28 10 29 7 30 9 31 11 32 8 33 28 34 29 35
REMARK SMILES IDX 30 36 31 37 32 38 33 40 34 41 35 42 87 43 36 44 86 45 37 46
REMARK SMILES IDX 38 47 39 48 80 49 40 50 85 51 79 52 81 53 41 54 84 55 78 56
REMARK SMILES IDX 77 57 42 59 68 60 51 61 67 62 52 63 55 64 66 65 82 66 53 67
REMARK SMILES IDX 54 68 65 70 83 71 56 72 43 73 44 74 49 75 45 76 46 77 48 78
REMARK SMILES IDX 50 79 47 80 69 81 70 82 75 83 71 84 72 85 74 86 76 87 73 88
REMARK SMILES IDX 57 89 58 90 63 91 59 92 60 93 62 94 64 95 61 96
REMARK H PARENT 27 4 20 14 12 24 31 39 81 58 55 69
REMARK Flexibility Score: inf
ROOT
ATOM      1  C   UNL A   1      31.805  28.378  26.931  1.00  0.00     0.251 C 
ATOM      2  O   UNL A   1      31.725  27.672  27.937  1.00  0.00    -0.269 OA
ATOM      3  N   UNL A   1      31.690  29.736  27.108  1.00  0.00    -0.352 N 
ATOM      4  H   UNL A   1      31.541  29.998  28.045  1.00  0.00     0.163 HD
ENDROOT
BRANCH   1   5
ATOM      5  C   UNL A   1      32.104  27.750  25.616  1.00  0.00     0.039 A 
ATOM      6  C   UNL A   1      32.563  26.071  23.428  1.00  0.00     0.041 A 
ATOM      7  C   UNL A   1      31.253  26.332  23.827  1.00  0.00     0.027 A 
ATOM      8  C   UNL A   1      33.617  26.801  23.984  1.00  0.00     0.027 A 
ATOM      9  C   UNL A   1      31.030  27.144  24.944  1.00  0.00     0.016 A 
ATOM     10  C   UNL A   1      33.379  27.670  25.055  1.00  0.00     0.016 A 
BRANCH   6  11
ATOM     11  N   UNL A   1      32.778  24.987  22.564  1.00  0.00    -0.322 N 
ATOM     12  C   UNL A   1      33.527  23.838  22.770  1.00  0.00     0.255 C 
ATOM     13  O   UNL A   1      33.760  23.097  21.814  1.00  0.00    -0.269 OA
ATOM     14  H   UNL A   1      32.336  25.051  21.687  1.00  0.00     0.170 HD
BRANCH  12  15
ATOM     15  C   UNL A   1      33.966  23.405  24.136  1.00  0.00     0.042 A 
ATOM     16  C   UNL A   1      35.672  22.570  25.665  1.00  0.00     0.042 A 
ATOM     17  C   UNL A   1      34.730  22.553  26.696  1.00  0.00     0.026 A 
ATOM     18  C   UNL A   1      35.291  23.057  24.418  1.00  0.00     0.040 A 
ATOM     19  C   UNL A   1      33.435  23.029  26.472  1.00  0.00     0.003 A 
ATOM     20  C   UNL A   1      33.050  23.441  25.193  1.00  0.00     0.014 A 
BRANCH  16  21
ATOM     21  N   UNL A   1      36.982  22.147  25.957  1.00  0.00    -0.323 N 
ATOM     22  O   UNL A   1      38.208  24.140  25.871  1.00  0.00    -0.271 OA
ATOM     23  C   UNL A   1      38.107  22.945  26.123  1.00  0.00     0.262 C 
ATOM     24  H   UNL A   1      37.117  21.176  26.055  1.00  0.00     0.170 HD
BRANCH  23  25
ATOM     25  C   UNL A   1      39.296  22.175  26.681  1.00  0.00     0.329 C 
BRANCH  25  26
ATOM     26  O   UNL A   1      40.512  22.722  26.160  1.00  0.00    -0.483 OA
BRANCH  26  27
ATOM     27  C   UNL A   1      41.443  21.729  26.019  1.00  0.00     0.134 A 
ATOM     28  C   UNL A   1      41.012  20.424  26.267  1.00  0.00     0.047 A 
ATOM     29  C   UNL A   1      42.775  21.980  25.675  1.00  0.00     0.060 A 
ATOM     30  C   UNL A   1      41.906  19.364  26.129  1.00  0.00     0.004 A 
ATOM     31  C   UNL A   1      43.659  20.914  25.522  1.00  0.00     0.019 A 
ATOM     32  Br  UNL A   1      43.487  23.716  25.431  1.00  0.00    -0.047 Br
ATOM     33  C   UNL A   1      43.224  19.609  25.747  1.00  0.00     0.001 A 
ENDBRANCH  26  27
ENDBRANCH  25  26
ENDBRANCH  23  25
ENDBRANCH  16  21
ENDBRANCH  12  15
ENDBRANCH   6  11
ENDBRANCH   1   5
BRANCH   3  34
ATOM     34  C   UNL A   1      31.744  30.863  26.192  1.00  0.00     0.118 C 
BRANCH  34  35
ATOM     35  C   UNL A   1      31.458  32.169  26.919  1.00  0.00     0.042 C 
BRANCH  35  36
ATOM     36  C   UNL A   1      32.735  32.928  27.274  1.00  0.00     0.118 C 
BRANCH  36  37
ATOM     37  N   UNL A   1      32.476  34.306  27.684  1.00  0.00    -0.352 N 
ATOM     38  C   UNL A   1      33.022  35.043  28.709  1.00  0.00     0.251 C 
ATOM     39  H   UNL A   1      31.806  34.782  27.141  1.00  0.00     0.163 HD
ATOM     40  O   UNL A   1      32.533  36.121  29.017  1.00  0.00    -0.269 OA
BRANCH  38  41
ATOM     41  C   UNL A   1      34.187  34.513  29.447  1.00  0.00     0.039 A 
ATOM     42  C   UNL A   1      33.983  33.847  30.658  1.00  0.00     0.014 A 
ATOM     43  C   UNL A   1      35.477  34.662  28.934  1.00  0.00     0.014 A 
ATOM     44  C   UNL A   1      35.067  33.252  31.307  1.00  0.00     0.010 A 
ATOM     45  C   UNL A   1      36.535  33.985  29.526  1.00  0.00     0.010 A 
ATOM     46  C   UNL A   1      36.342  33.274  30.720  1.00  0.00    -0.014 A 
BRANCH  46  47
ATOM     47  C   UNL A   1      37.491  32.558  31.330  1.00  0.00     0.031 A 
ATOM     48  C   UNL A   1      38.048  33.014  32.651  1.00  0.00     0.074 A 
ATOM     49  C   UNL A   1      38.083  31.553  30.654  1.00  0.00     0.049 A 
ATOM     50  N   UNL A   1      39.099  32.582  33.298  1.00  0.00    -0.248 NA
ATOM     51  C   UNL A   1      37.350  34.127  33.317  1.00  0.00     0.031 C 
ATOM     52  C   UNL A   1      37.672  31.055  29.338  1.00  0.00     0.029 A 
ATOM     53  N   UNL A   1      39.167  30.774  30.976  1.00  0.00    -0.354 N 
ATOM     54  C   UNL A   1      39.198  33.377  34.432  1.00  0.00     0.074 A 
ATOM     55  C   UNL A   1      38.137  34.357  34.357  1.00  0.00     0.031 C 
ATOM     56  C   UNL A   1      38.475  30.042  28.978  1.00  0.00     0.029 A 
ATOM     57  C   UNL A   1      39.484  29.846  30.013  1.00  0.00     0.049 A 
ATOM     58  H   UNL A   1      39.669  30.872  31.817  1.00  0.00     0.167 HD
ATOM     59  C   UNL A   1      40.076  33.283  35.458  1.00  0.00     0.037 A 
ATOM     60  C   UNL A   1      40.485  28.946  29.965  1.00  0.00     0.037 A 
ATOM     61  C   UNL A   1      41.111  32.287  35.542  1.00  0.00     0.049 A 
ATOM     62  C   UNL A   1      41.450  28.866  31.117  1.00  0.00     0.074 A 
ATOM     63  C   UNL A   1      42.012  32.066  36.568  1.00  0.00     0.029 A 
ATOM     64  N   UNL A   1      41.385  31.348  34.559  1.00  0.00    -0.354 N 
ATOM     65  N   UNL A   1      41.484  29.576  32.219  1.00  0.00    -0.248 NA
ATOM     66  C   UNL A   1      42.514  27.857  31.022  1.00  0.00     0.031 C 
ATOM     67  C   UNL A   1      42.864  31.026  36.185  1.00  0.00     0.029 A 
ATOM     68  C   UNL A   1      42.455  30.560  34.946  1.00  0.00     0.049 A 
ATOM     69  H   UNL A   1      40.891  31.256  33.713  1.00  0.00     0.167 HD
ATOM     70  C   UNL A   1      42.546  29.076  32.961  1.00  0.00     0.074 A 
ATOM     71  C   UNL A   1      43.121  27.993  32.191  1.00  0.00     0.031 C 
ATOM     72  C   UNL A   1      43.006  29.477  34.172  1.00  0.00     0.037 A 
BRANCH  59  73
ATOM     73  C   UNL A   1      39.952  34.276  36.578  1.00  0.00     0.057 A 
ATOM     74  C   UNL A   1      40.488  35.567  36.485  1.00  0.00     0.134 A 
ATOM     75  C   UNL A   1      39.244  33.953  37.744  1.00  0.00     0.134 A 
ATOM     76  F   UNL A   1      41.187  35.937  35.402  1.00  0.00    -0.206 F 
ATOM     77  C   UNL A   1      40.344  36.494  37.519  1.00  0.00     0.040 A 
ATOM     78  C   UNL A   1      39.069  34.882  38.771  1.00  0.00     0.040 A 
ATOM     79  F   UNL A   1      38.701  32.736  37.897  1.00  0.00    -0.206 F 
ATOM     80  C   UNL A   1      39.623  36.155  38.663  1.00  0.00     0.006 A 
ENDBRANCH  59  73
BRANCH  60  81
ATOM     81  C   UNL A   1      40.623  28.036  28.799  1.00  0.00     0.057 A 
ATOM     82  C   UNL A   1      39.986  26.789  28.775  1.00  0.00     0.134 A 
ATOM     83  C   UNL A   1      41.414  28.375  27.694  1.00  0.00     0.134 A 
ATOM     84  F   UNL A   1      39.227  26.399  29.810  1.00  0.00    -0.206 F 
ATOM     85  C   UNL A   1      40.154  25.900  27.711  1.00  0.00     0.040 A 
ATOM     86  C   UNL A   1      41.567  27.507  26.611  1.00  0.00     0.040 A 
ATOM     87  F   UNL A   1      42.043  29.557  27.648  1.00  0.00    -0.206 F 
ATOM     88  C   UNL A   1      40.945  26.261  26.623  1.00  0.00     0.006 A 
ENDBRANCH  60  81
BRANCH  72  89
ATOM     89  C   UNL A   1      44.155  28.711  34.761  1.00  0.00     0.057 A 
ATOM     90  C   UNL A   1      45.484  29.113  34.583  1.00  0.00     0.134 A 
ATOM     91  C   UNL A   1      43.921  27.578  35.553  1.00  0.00     0.134 A 
ATOM     92  F   UNL A   1      45.776  30.181  33.826  1.00  0.00    -0.206 F 
ATOM     93  C   UNL A   1      46.543  28.402  35.150  1.00  0.00     0.040 A 
ATOM     94  C   UNL A   1      44.968  26.878  36.150  1.00  0.00     0.040 A 
ATOM     95  F   UNL A   1      42.670  27.146  35.772  1.00  0.00    -0.206 F 
ATOM     96  C   UNL A   1      46.284  27.285  35.944  1.00  0.00     0.006 A 
ENDBRANCH  72  89
ENDBRANCH  46  47
ENDBRANCH  38  41
ENDBRANCH  36  37
ENDBRANCH  35  36
ENDBRANCH  34  35
ENDBRANCH   3  34
TORSDOF 16
ENDMDL
MODEL 3
REMARK VINA RESULT:     -12.5      1.672      2.429
REMARK SMILES O=C(COc1ccccc1Br)Nc1cccc(C(=O)Nc2ccc(C(=O)NCCCNC(=O)c3ccc(-c4c5nc(c(-c6c(F)cccc6F)c6ccc([nH]6)c(-c6c(F)cccc6F)c6nc(c(-c7c(F)cccc7F)c7ccc4[nH]7)C=C6)C=C5)cc3)cc2)c1
REMARK SMILES IDX 25 1 26 2 27 3 24 5 21 6 22 7 89 8 23 9 88 10 20 11 18 12
REMARK SMILES IDX 19 13 17 15 13 16 14 17 90 18 15 19 16 20 12 21 1 22 2 23
REMARK SMILES IDX 3 25 4 26 5 27 6 28 10 29 7 30 9 31 11 32 8 33 28 34 29 35
REMARK SMILES IDX 30 36 31 37 32 38 33 40 34 41 35 42 87 43 36 44 86 45 37 46
REMARK SMILES IDX 38 47 39 48 80 49 40 50 85 51 79 52 81 53 41 54 84 55 78 56
REMARK SMILES IDX 77 57 42 59 68 60 51 61 67 62 52 63 55 64 66 65 82 66 53 67
REMARK SMILES IDX 54 68 65 70 83 71 56 72 43 73 44 74 49 75 45 76 46 77 48 78
REMARK SMILES IDX 50 79 47 80 69 81 70 82 75 83 71 84 72 85 74 86 76 87 73 88
REMARK SMILES IDX 57 89 58 90 63 91 59 92 60 93 62 94 64 95 61 96
REMARK H PARENT 27 4 20 14 12 24 31 39 81 58 55 69
REMARK Flexibility Score: inf
ROOT
ATOM      1  C   UNL A   1      32.043  28.664  26.881  1.00  0.00     0.251 C 
ATOM      2  O   UNL A   1      31.390  27.789  27.450  1.00  0.00    -0.269 OA
ATOM      3  N   UNL A   1      32.534  29.685  27.657  1.00  0.00    -0.352 N 
ATOM      4  H   UNL A   1      32.293  29.606  28.608  1.00  0.00     0.163 HD
ENDROOT
BRANCH   1   5
ATOM      5  C   UNL A   1      32.338  28.531  25.428  1.00  0.00     0.039 A 
ATOM      6  C   UNL A   1      32.644  27.758  22.759  1.00  0.00     0.041 A 
ATOM      7  C   UNL A   1      31.393  28.176  23.211  1.00  0.00     0.027 A 
ATOM      8  C   UNL A   1      33.768  27.920  23.574  1.00  0.00     0.027 A 
ATOM      9  C   UNL A   1      31.237  28.528  24.555  1.00  0.00     0.016 A 
ATOM     10  C   UNL A   1      33.616  28.344  24.899  1.00  0.00     0.016 A 
BRANCH   6  11
ATOM     11  N   UNL A   1      32.700  27.070  21.538  1.00  0.00    -0.322 N 
ATOM     12  C   UNL A   1      32.817  25.708  21.303  1.00  0.00     0.255 C 
ATOM     13  O   UNL A   1      33.054  25.316  20.161  1.00  0.00    -0.269 OA
ATOM     14  H   UNL A   1      32.649  27.633  20.732  1.00  0.00     0.170 HD
BRANCH  12  15
ATOM     15  C   UNL A   1      32.551  24.688  22.370  1.00  0.00     0.042 A 
ATOM     16  C   UNL A   1      33.322  22.981  23.931  1.00  0.00     0.042 A 
ATOM     17  C   UNL A   1      32.002  22.755  24.325  1.00  0.00     0.026 A 
ATOM     18  C   UNL A   1      33.582  23.990  23.007  1.00  0.00     0.040 A 
ATOM     19  C   UNL A   1      30.969  23.539  23.804  1.00  0.00     0.003 A 
ATOM     20  C   UNL A   1      31.241  24.494  22.820  1.00  0.00     0.014 A 
BRANCH  16  21
ATOM     21  N   UNL A   1      34.336  22.215  24.536  1.00  0.00    -0.323 N 
ATOM     22  O   UNL A   1      33.528  20.026  24.336  1.00  0.00    -0.271 OA
ATOM     23  C   UNL A   1      34.410  20.830  24.615  1.00  0.00     0.262 C 
ATOM     24  H   UNL A   1      35.076  22.716  24.950  1.00  0.00     0.170 HD
BRANCH  23  25
ATOM     25  C   UNL A   1      35.764  20.342  25.110  1.00  0.00     0.329 C 
BRANCH  25  26
ATOM     26  O   UNL A   1      36.809  20.994  24.378  1.00  0.00    -0.483 OA
BRANCH  26  27
ATOM     27  C   UNL A   1      37.961  20.993  25.117  1.00  0.00     0.134 A 
ATOM     28  C   UNL A   1      38.678  19.795  25.163  1.00  0.00     0.047 A 
ATOM     29  C   UNL A   1      38.406  22.112  25.829  1.00  0.00     0.060 A 
ATOM     30  C   UNL A   1      39.865  19.730  25.888  1.00  0.00     0.004 A 
ATOM     31  C   UNL A   1      39.605  22.044  26.536  1.00  0.00     0.019 A 
ATOM     32  Br  UNL A   1      37.452  23.742  25.926  1.00  0.00    -0.047 Br
ATOM     33  C   UNL A   1      40.333  20.856  26.565  1.00  0.00     0.001 A 
ENDBRANCH  26  27
ENDBRANCH  25  26
ENDBRANCH  23  25
ENDBRANCH  16  21
ENDBRANCH  12  15
ENDBRANCH   6  11
ENDBRANCH   1   5
BRANCH   3  34
ATOM     34  C   UNL A   1      33.339  30.859  27.361  1.00  0.00     0.118 C 
BRANCH  34  35
ATOM     35  C   UNL A   1      32.511  32.130  27.474  1.00  0.00     0.042 C 
BRANCH  35  36
ATOM     36  C   UNL A   1      33.342  33.389  27.236  1.00  0.00     0.118 C 
BRANCH  36  37
ATOM     37  N   UNL A   1      32.887  34.524  28.036  1.00  0.00    -0.352 N 
ATOM     38  C   UNL A   1      33.262  34.926  29.297  1.00  0.00     0.251 C 
ATOM     39  H   UNL A   1      32.206  35.090  27.604  1.00  0.00     0.163 HD
ATOM     40  O   UNL A   1      32.624  35.792  29.879  1.00  0.00    -0.269 OA
BRANCH  38  41
ATOM     41  C   UNL A   1      34.426  34.290  29.949  1.00  0.00     0.039 A 
ATOM     42  C   UNL A   1      34.212  33.363  30.972  1.00  0.00     0.014 A 
ATOM     43  C   UNL A   1      35.723  34.598  29.537  1.00  0.00     0.014 A 
ATOM     44  C   UNL A   1      35.300  32.681  31.520  1.00  0.00     0.010 A 
ATOM     45  C   UNL A   1      36.792  33.848  30.010  1.00  0.00     0.010 A 
ATOM     46  C   UNL A   1      36.592  32.881  31.008  1.00  0.00    -0.014 A 
BRANCH  46  47
ATOM     47  C   UNL A   1      37.753  32.093  31.492  1.00  0.00     0.031 A 
ATOM     48  C   UNL A   1      38.364  32.397  32.833  1.00  0.00     0.074 A 
ATOM     49  C   UNL A   1      38.305  31.160  30.691  1.00  0.00     0.049 A 
ATOM     50  N   UNL A   1      39.432  31.887  33.390  1.00  0.00    -0.248 NA
ATOM     51  C   UNL A   1      37.707  33.439  33.641  1.00  0.00     0.031 C 
ATOM     52  C   UNL A   1      37.839  30.812  29.346  1.00  0.00     0.029 A 
ATOM     53  N   UNL A   1      39.389  30.340  30.886  1.00  0.00    -0.354 N 
ATOM     54  C   UNL A   1      39.583  32.554  34.599  1.00  0.00     0.074 A 
ATOM     55  C   UNL A   1      38.534  33.547  34.669  1.00  0.00     0.031 C 
ATOM     56  C   UNL A   1      38.614  29.835  28.848  1.00  0.00     0.029 A 
ATOM     57  C   UNL A   1      39.658  29.519  29.817  1.00  0.00     0.049 A 
ATOM     58  H   UNL A   1      39.923  30.342  31.712  1.00  0.00     0.167 HD
ATOM     59  C   UNL A   1      40.497  32.341  35.574  1.00  0.00     0.037 A 
ATOM     60  C   UNL A   1      40.643  28.619  29.635  1.00  0.00     0.037 A 
ATOM     61  C   UNL A   1      41.520  31.331  35.511  1.00  0.00     0.049 A 
ATOM     62  C   UNL A   1      41.649  28.406  30.734  1.00  0.00     0.074 A 
ATOM     63  C   UNL A   1      42.455  30.991  36.473  1.00  0.00     0.029 A 
ATOM     64  N   UNL A   1      41.744  30.501  34.423  1.00  0.00    -0.354 N 
ATOM     65  N   UNL A   1      41.733  28.992  31.904  1.00  0.00    -0.248 NA
ATOM     66  C   UNL A   1      42.694  27.401  30.490  1.00  0.00     0.031 C 
ATOM     67  C   UNL A   1      43.277  29.990  35.948  1.00  0.00     0.029 A 
ATOM     68  C   UNL A   1      42.817  29.665  34.682  1.00  0.00     0.049 A 
ATOM     69  H   UNL A   1      41.218  30.506  33.591  1.00  0.00     0.167 HD
ATOM     70  C   UNL A   1      42.814  28.403  32.547  1.00  0.00     0.074 A 
ATOM     71  C   UNL A   1      43.345  27.405  31.643  1.00  0.00     0.031 C 
ATOM     72  C   UNL A   1      43.323  28.666  33.776  1.00  0.00     0.037 A 
BRANCH  59  73
ATOM     73  C   UNL A   1      40.427  33.208  36.798  1.00  0.00     0.057 A 
ATOM     74  C   UNL A   1      41.256  34.327  36.961  1.00  0.00     0.134 A 
ATOM     75  C   UNL A   1      39.487  32.950  37.805  1.00  0.00     0.134 A 
ATOM     76  F   UNL A   1      42.187  34.623  36.041  1.00  0.00    -0.206 F 
ATOM     77  C   UNL A   1      41.166  35.144  38.089  1.00  0.00     0.040 A 
ATOM     78  C   UNL A   1      39.368  33.778  38.922  1.00  0.00     0.040 A 
ATOM     79  F   UNL A   1      38.659  31.898  37.711  1.00  0.00    -0.206 F 
ATOM     80  C   UNL A   1      40.213  34.876  39.069  1.00  0.00     0.006 A 
ENDBRANCH  59  73
BRANCH  60  81
ATOM     81  C   UNL A   1      40.725  27.839  28.373  1.00  0.00     0.057 A 
ATOM     82  C   UNL A   1      40.100  26.592  28.251  1.00  0.00     0.134 A 
ATOM     83  C   UNL A   1      41.451  28.305  27.269  1.00  0.00     0.134 A 
ATOM     84  F   UNL A   1      39.404  26.083  29.279  1.00  0.00    -0.206 F 
ATOM     85  C   UNL A   1      40.219  25.822  27.092  1.00  0.00     0.040 A 
ATOM     86  C   UNL A   1      41.553  27.558  26.093  1.00  0.00     0.040 A 
ATOM     87  F   UNL A   1      42.065  29.495  27.315  1.00  0.00    -0.206 F 
ATOM     88  C   UNL A   1      40.944  26.309  26.007  1.00  0.00     0.006 A 
ENDBRANCH  60  81
BRANCH  72  89
ATOM     89  C   UNL A   1      44.482  27.830  34.235  1.00  0.00     0.057 A 
ATOM     90  C   UNL A   1      45.810  28.238  34.057  1.00  0.00     0.134 A 
ATOM     91  C   UNL A   1      44.262  26.617  34.903  1.00  0.00     0.134 A 
ATOM     92  F   UNL A   1      46.089  29.382  33.415  1.00  0.00    -0.206 F 
ATOM     93  C   UNL A   1      46.878  27.459  34.503  1.00  0.00     0.040 A 
ATOM     94  C   UNL A   1      45.320  25.846  35.381  1.00  0.00     0.040 A 
ATOM     95  F   UNL A   1      43.014  26.174  35.116  1.00  0.00    -0.206 F 
ATOM     96  C   UNL A   1      46.633  26.262  35.176  1.00  0.00     0.006 A 
ENDBRANCH  72  89
ENDBRANCH  46  47
ENDBRANCH  38  41
ENDBRANCH  36  37
ENDBRANCH  35  36
ENDBRANCH  34  35
ENDBRANCH   3  34
TORSDOF 16
ENDMDL
