MODEL 1
REMARK VINA RESULT:     -11.6      0.000      0.000
REMARK SMILES C[C@@H](Oc1ccc(/C=N/NC(=O)c2ccc(I)c(O)c2)cc1)C(=O)NCCCNC(=O)c1ccc(-c2c3nc(c(-c4c(F)cccc4F)c4ccc([nH]4)c(-c4c(F)cccc4F)c4nc(c(-c5c(F)cccc5F)c5ccc2[nH]5)C=C4)C=C3)cc1
REMARK SMILES IDX 23 1 24 2 25 3 2 5 1 6 3 7 4 8 5 9 22 10 6 11 21 12 7 13
REMARK SMILES IDX 8 14 9 15 10 16 11 17 12 19 13 20 14 21 20 22 15 23 18 24
REMARK SMILES IDX 16 25 17 26 19 27 26 29 27 30 28 31 29 32 30 33 31 35 32 36
REMARK SMILES IDX 33 37 85 38 34 39 84 40 35 41 36 42 37 43 78 44 38 45 83 46
REMARK SMILES IDX 77 47 79 48 39 49 82 50 76 51 75 52 40 54 66 55 49 56 65 57
REMARK SMILES IDX 50 58 53 59 64 60 80 61 51 62 52 63 63 65 81 66 54 67 41 68
REMARK SMILES IDX 42 69 47 70 43 71 44 72 46 73 48 74 45 75 67 76 68 77 73 78
REMARK SMILES IDX 69 79 70 80 72 81 74 82 71 83 55 84 56 85 61 86 57 87 58 88
REMARK SMILES IDX 60 89 62 90 59 91
REMARK H PARENT 25 4 10 18 19 28 29 34 79 53 53 64
REMARK Flexibility Score: inf
ROOT
ATOM      1  C   UNL A   1      36.114  33.642  28.914  1.00  0.00     0.260 C 
ATOM      2  O   UNL A   1      37.331  33.669  29.113  1.00  0.00    -0.271 OA
ATOM      3  N   UNL A   1      35.496  34.817  28.576  1.00  0.00    -0.353 N 
ATOM      4  H   UNL A   1      36.083  35.606  28.551  1.00  0.00     0.163 HD
ENDROOT
BRANCH   1   5
ATOM      5  C   UNL A   1      35.301  32.357  29.126  1.00  0.00     0.258 C 
ATOM      6  C   UNL A   1      34.755  32.395  30.553  1.00  0.00     0.064 C 
BRANCH   5   7
ATOM      7  O   UNL A   1      34.323  32.309  28.080  1.00  0.00    -0.481 OA
BRANCH   7   8
ATOM      8  C   UNL A   1      33.983  31.087  27.593  1.00  0.00     0.120 A 
ATOM      9  C   UNL A   1      34.970  30.096  27.613  1.00  0.00     0.047 A 
ATOM     10  C   UNL A   1      32.779  30.855  26.937  1.00  0.00     0.047 A 
ATOM     11  C   UNL A   1      34.729  28.853  27.025  1.00  0.00     0.013 A 
ATOM     12  C   UNL A   1      32.509  29.602  26.401  1.00  0.00     0.013 A 
ATOM     13  C   UNL A   1      33.486  28.609  26.445  1.00  0.00    -0.005 A 
BRANCH  13  14
ATOM     14  C   UNL A   1      33.158  27.324  25.821  1.00  0.00     0.141 C 
ATOM     15  N   UNL A   1      33.645  26.983  24.671  1.00  0.00    -0.180 NA
BRANCH  15  16
ATOM     16  N   UNL A   1      33.153  25.839  24.099  1.00  0.00    -0.243 N 
ATOM     17  C   UNL A   1      31.947  25.622  23.448  1.00  0.00     0.271 C 
ATOM     18  H   UNL A   1      33.744  25.054  24.159  1.00  0.00     0.194 HD
ATOM     19  O   UNL A   1      31.615  24.492  23.098  1.00  0.00    -0.267 OA
BRANCH  17  20
ATOM     20  C   UNL A   1      31.031  26.750  23.155  1.00  0.00     0.045 A 
ATOM     21  C   UNL A   1      29.731  26.701  23.674  1.00  0.00     0.015 A 
ATOM     22  C   UNL A   1      31.453  27.861  22.414  1.00  0.00     0.061 A 
ATOM     23  C   UNL A   1      28.876  27.794  23.517  1.00  0.00     0.019 A 
ATOM     24  C   UNL A   1      30.600  28.957  22.274  1.00  0.00     0.129 A 
ATOM     25  C   UNL A   1      29.317  28.930  22.832  1.00  0.00     0.055 A 
ATOM     26  I   UNL A   1      28.031  30.575  22.720  1.00  0.00    -0.040 I 
BRANCH  24  27
ATOM     27  O   UNL A   1      31.051  30.078  21.633  1.00  0.00    -0.507 OA
ATOM     28  H   UNL A   1      30.850  30.211  20.727  1.00  0.00     0.293 HD
ENDBRANCH  24  27
ENDBRANCH  17  20
ENDBRANCH  15  16
ENDBRANCH  13  14
ENDBRANCH   7   8
ENDBRANCH   5   7
ENDBRANCH   1   5
BRANCH   3  29
ATOM     29  C   UNL A   1      34.102  35.074  28.247  1.00  0.00     0.118 C 
BRANCH  29  30
ATOM     30  C   UNL A   1      33.459  36.093  29.177  1.00  0.00     0.042 C 
BRANCH  30  31
ATOM     31  C   UNL A   1      32.836  35.484  30.424  1.00  0.00     0.118 C 
BRANCH  31  32
ATOM     32  N   UNL A   1      32.828  36.405  31.552  1.00  0.00    -0.352 N 
ATOM     33  C   UNL A   1      33.523  36.374  32.736  1.00  0.00     0.251 C 
ATOM     34  H   UNL A   1      32.225  37.176  31.450  1.00  0.00     0.163 HD
ATOM     35  O   UNL A   1      33.221  37.149  33.637  1.00  0.00    -0.269 OA
BRANCH  33  36
ATOM     36  C   UNL A   1      34.616  35.399  32.943  1.00  0.00     0.039 A 
ATOM     37  C   UNL A   1      35.831  35.604  32.283  1.00  0.00     0.014 A 
ATOM     38  C   UNL A   1      34.445  34.280  33.760  1.00  0.00     0.014 A 
ATOM     39  C   UNL A   1      36.900  34.732  32.510  1.00  0.00     0.010 A 
ATOM     40  C   UNL A   1      35.532  33.458  34.047  1.00  0.00     0.010 A 
ATOM     41  C   UNL A   1      36.772  33.681  33.431  1.00  0.00    -0.014 A 
BRANCH  41  42
ATOM     42  C   UNL A   1      37.929  32.823  33.787  1.00  0.00     0.031 A 
ATOM     43  C   UNL A   1      38.742  33.110  35.018  1.00  0.00     0.074 A 
ATOM     44  C   UNL A   1      38.295  31.829  32.955  1.00  0.00     0.049 A 
ATOM     45  N   UNL A   1      39.837  32.530  35.439  1.00  0.00    -0.248 NA
ATOM     46  C   UNL A   1      38.274  34.208  35.879  1.00  0.00     0.031 C 
ATOM     47  C   UNL A   1      37.613  31.476  31.706  1.00  0.00     0.029 A 
ATOM     48  N   UNL A   1      39.341  30.943  33.021  1.00  0.00    -0.354 N 
ATOM     49  C   UNL A   1      40.196  33.199  36.603  1.00  0.00     0.074 A 
ATOM     50  C   UNL A   1      39.229  34.258  36.796  1.00  0.00     0.031 C 
ATOM     51  C   UNL A   1      38.248  30.440  31.137  1.00  0.00     0.029 A 
ATOM     52  C   UNL A   1      39.405  30.085  31.951  1.00  0.00     0.049 A 
ATOM     53  H   UNL A   1      39.984  30.925  33.766  1.00  0.00     0.167 HD
ATOM     54  C   UNL A   1      41.226  32.940  37.443  1.00  0.00     0.037 A 
ATOM     55  C   UNL A   1      40.304  29.130  31.648  1.00  0.00     0.037 A 
ATOM     56  C   UNL A   1      42.177  31.875  37.255  1.00  0.00     0.049 A 
ATOM     57  C   UNL A   1      41.456  28.884  32.582  1.00  0.00     0.074 A 
ATOM     58  C   UNL A   1      43.220  31.495  38.083  1.00  0.00     0.029 A 
ATOM     59  N   UNL A   1      42.208  31.026  36.159  1.00  0.00    -0.354 N 
ATOM     60  N   UNL A   1      41.745  29.479  33.714  1.00  0.00    -0.248 NA
ATOM     61  C   UNL A   1      42.408  27.831  32.196  1.00  0.00     0.031 C 
ATOM     62  C   UNL A   1      43.912  30.449  37.463  1.00  0.00     0.029 A 
ATOM     63  C   UNL A   1      43.270  30.144  36.274  1.00  0.00     0.049 A 
ATOM     64  H   UNL A   1      41.570  31.046  35.410  1.00  0.00     0.167 HD
ATOM     65  C   UNL A   1      42.896  28.861  34.186  1.00  0.00     0.074 A 
ATOM     66  C   UNL A   1      43.240  27.832  33.227  1.00  0.00     0.031 C 
ATOM     67  C   UNL A   1      43.605  29.126  35.310  1.00  0.00     0.037 A 
BRANCH  54  68
ATOM     68  C   UNL A   1      41.379  33.826  38.644  1.00  0.00     0.057 A 
ATOM     69  C   UNL A   1      40.710  33.566  39.847  1.00  0.00     0.134 A 
ATOM     70  C   UNL A   1      42.240  34.931  38.613  1.00  0.00     0.134 A 
ATOM     71  F   UNL A   1      39.863  32.529  39.942  1.00  0.00    -0.206 F 
ATOM     72  C   UNL A   1      40.869  34.385  40.966  1.00  0.00     0.040 A 
ATOM     73  C   UNL A   1      42.429  35.743  39.733  1.00  0.00     0.040 A 
ATOM     74  F   UNL A   1      42.918  35.236  37.497  1.00  0.00    -0.206 F 
ATOM     75  C   UNL A   1      41.738  35.474  40.912  1.00  0.00     0.006 A 
ENDBRANCH  54  68
BRANCH  55  76
ATOM     76  C   UNL A   1      40.151  28.331  30.406  1.00  0.00     0.057 A 
ATOM     77  C   UNL A   1      39.261  27.252  30.347  1.00  0.00     0.134 A 
ATOM     78  C   UNL A   1      40.893  28.618  29.254  1.00  0.00     0.134 A 
ATOM     79  F   UNL A   1      38.536  26.916  31.425  1.00  0.00    -0.206 F 
ATOM     80  C   UNL A   1      39.127  26.477  29.195  1.00  0.00     0.040 A 
ATOM     81  C   UNL A   1      40.751  27.867  28.087  1.00  0.00     0.040 A 
ATOM     82  F   UNL A   1      41.759  29.643  29.244  1.00  0.00    -0.206 F 
ATOM     83  C   UNL A   1      39.871  26.787  28.057  1.00  0.00     0.006 A 
ENDBRANCH  55  76
BRANCH  67  84
ATOM     84  C   UNL A   1      44.811  28.273  35.576  1.00  0.00     0.057 A 
ATOM     85  C   UNL A   1      44.720  27.066  36.280  1.00  0.00     0.134 A 
ATOM     86  C   UNL A   1      46.071  28.647  35.094  1.00  0.00     0.134 A 
ATOM     87  F   UNL A   1      43.545  26.657  36.782  1.00  0.00    -0.206 F 
ATOM     88  C   UNL A   1      45.845  26.272  36.515  1.00  0.00     0.040 A 
ATOM     89  C   UNL A   1      47.197  27.849  35.297  1.00  0.00     0.040 A 
ATOM     90  F   UNL A   1      46.227  29.788  34.404  1.00  0.00    -0.206 F 
ATOM     91  C   UNL A   1      47.087  26.661  36.016  1.00  0.00     0.006 A 
ENDBRANCH  67  84
ENDBRANCH  41  42
ENDBRANCH  33  36
ENDBRANCH  31  32
ENDBRANCH  30  31
ENDBRANCH  29  30
ENDBRANCH   3  29
TORSDOF 16
ENDMDL
MODEL 2
REMARK VINA RESULT:     -11.6      3.376      9.178
REMARK SMILES C[C@@H](Oc1ccc(/C=N/NC(=O)c2ccc(I)c(O)c2)cc1)C(=O)NCCCNC(=O)c1ccc(-c2c3nc(c(-c4c(F)cccc4F)c4ccc([nH]4)c(-c4c(F)cccc4F)c4nc(c(-c5c(F)cccc5F)c5ccc2[nH]5)C=C4)C=C3)cc1
REMARK SMILES IDX 23 1 24 2 25 3 2 5 1 6 3 7 4 8 5 9 22 10 6 11 21 12 7 13
REMARK SMILES IDX 8 14 9 15 10 16 11 17 12 19 13 20 14 21 20 22 15 23 18 24
REMARK SMILES IDX 16 25 17 26 19 27 26 29 27 30 28 31 29 32 30 33 31 35 32 36
REMARK SMILES IDX 33 37 85 38 34 39 84 40 35 41 36 42 37 43 78 44 38 45 83 46
REMARK SMILES IDX 77 47 79 48 39 49 82 50 76 51 75 52 40 54 66 55 49 56 65 57
REMARK SMILES IDX 50 58 53 59 64 60 80 61 51 62 52 63 63 65 81 66 54 67 41 68
REMARK SMILES IDX 42 69 47 70 43 71 44 72 46 73 48 74 45 75 67 76 68 77 73 78
REMARK SMILES IDX 69 79 70 80 72 81 74 82 71 83 55 84 56 85 61 86 57 87 58 88
REMARK SMILES IDX 60 89 62 90 59 91
REMARK H PARENT 25 4 10 18 19 28 29 34 79 53 53 64
REMARK Flexibility Score: inf
ROOT
ATOM      1  C   UNL A   1      38.240  20.713  25.384  1.00  0.00     0.260 C 
ATOM      2  O   UNL A   1      38.104  19.574  24.931  1.00  0.00    -0.271 OA
ATOM      3  N   UNL A   1      39.442  21.036  25.954  1.00  0.00    -0.353 N 
ATOM      4  H   UNL A   1      40.100  20.306  25.983  1.00  0.00     0.163 HD
ENDROOT
BRANCH   1   5
ATOM      5  C   UNL A   1      37.072  21.711  25.393  1.00  0.00     0.258 C 
ATOM      6  C   UNL A   1      37.063  22.413  24.035  1.00  0.00     0.064 C 
BRANCH   5   7
ATOM      7  O   UNL A   1      35.894  20.965  25.723  1.00  0.00    -0.481 OA
BRANCH   7   8
ATOM      8  C   UNL A   1      34.692  21.571  25.532  1.00  0.00     0.120 A 
ATOM      9  C   UNL A   1      33.794  20.943  24.663  1.00  0.00     0.047 A 
ATOM     10  C   UNL A   1      34.412  22.841  26.022  1.00  0.00     0.047 A 
ATOM     11  C   UNL A   1      32.588  21.564  24.330  1.00  0.00     0.013 A 
ATOM     12  C   UNL A   1      33.190  23.441  25.743  1.00  0.00     0.013 A 
ATOM     13  C   UNL A   1      32.286  22.800  24.896  1.00  0.00    -0.005 A 
BRANCH  13  14
ATOM     14  C   UNL A   1      31.035  23.505  24.602  1.00  0.00     0.141 C 
ATOM     15  N   UNL A   1      30.943  24.349  23.625  1.00  0.00    -0.180 NA
BRANCH  15  16
ATOM     16  N   UNL A   1      29.785  25.074  23.534  1.00  0.00    -0.243 N 
ATOM     17  C   UNL A   1      29.470  26.314  24.071  1.00  0.00     0.271 C 
ATOM     18  H   UNL A   1      29.068  24.652  23.007  1.00  0.00     0.194 HD
ATOM     19  O   UNL A   1      28.330  26.766  23.988  1.00  0.00    -0.267 OA
BRANCH  17  20
ATOM     20  C   UNL A   1      30.503  27.126  24.757  1.00  0.00     0.045 A 
ATOM     21  C   UNL A   1      30.768  26.860  26.106  1.00  0.00     0.015 A 
ATOM     22  C   UNL A   1      31.230  28.109  24.077  1.00  0.00     0.061 A 
ATOM     23  C   UNL A   1      31.810  27.524  26.756  1.00  0.00     0.019 A 
ATOM     24  C   UNL A   1      32.282  28.759  24.726  1.00  0.00     0.129 A 
ATOM     25  C   UNL A   1      32.580  28.461  26.060  1.00  0.00     0.055 A 
ATOM     26  I   UNL A   1      34.194  29.344  27.054  1.00  0.00    -0.040 I 
BRANCH  24  27
ATOM     27  O   UNL A   1      33.052  29.648  24.028  1.00  0.00    -0.507 OA
ATOM     28  H   UNL A   1      32.703  30.485  23.792  1.00  0.00     0.293 HD
ENDBRANCH  24  27
ENDBRANCH  17  20
ENDBRANCH  15  16
ENDBRANCH  13  14
ENDBRANCH   7   8
ENDBRANCH   5   7
ENDBRANCH   1   5
BRANCH   3  29
ATOM     29  C   UNL A   1      39.894  22.297  26.523  1.00  0.00     0.118 C 
BRANCH  29  30
ATOM     30  C   UNL A   1      41.069  22.124  27.474  1.00  0.00     0.042 C 
BRANCH  30  31
ATOM     31  C   UNL A   1      42.160  23.171  27.305  1.00  0.00     0.118 C 
BRANCH  31  32
ATOM     32  N   UNL A   1      41.925  24.044  26.163  1.00  0.00    -0.352 N 
ATOM     33  C   UNL A   1      41.457  25.333  26.106  1.00  0.00     0.251 C 
ATOM     34  H   UNL A   1      42.137  23.644  25.289  1.00  0.00     0.163 HD
ATOM     35  O   UNL A   1      41.148  25.819  25.023  1.00  0.00    -0.269 OA
BRANCH  33  36
ATOM     36  C   UNL A   1      41.299  26.133  27.341  1.00  0.00     0.039 A 
ATOM     37  C   UNL A   1      42.227  27.143  27.609  1.00  0.00     0.014 A 
ATOM     38  C   UNL A   1      40.261  25.882  28.240  1.00  0.00     0.014 A 
ATOM     39  C   UNL A   1      42.065  27.953  28.736  1.00  0.00     0.010 A 
ATOM     40  C   UNL A   1      40.054  26.739  29.318  1.00  0.00     0.010 A 
ATOM     41  C   UNL A   1      40.950  27.788  29.572  1.00  0.00    -0.014 A 
BRANCH  41  42
ATOM     42  C   UNL A   1      40.685  28.717  30.698  1.00  0.00     0.031 A 
ATOM     43  C   UNL A   1      39.617  29.767  30.585  1.00  0.00     0.074 A 
ATOM     44  C   UNL A   1      41.465  28.664  31.795  1.00  0.00     0.049 A 
ATOM     45  N   UNL A   1      39.306  30.723  31.424  1.00  0.00    -0.248 NA
ATOM     46  C   UNL A   1      38.805  29.756  29.359  1.00  0.00     0.031 C 
ATOM     47  C   UNL A   1      42.564  27.718  32.008  1.00  0.00     0.029 A 
ATOM     48  N   UNL A   1      41.467  29.434  32.931  1.00  0.00    -0.354 N 
ATOM     49  C   UNL A   1      38.273  31.432  30.822  1.00  0.00     0.074 A 
ATOM     50  C   UNL A   1      38.043  30.827  29.528  1.00  0.00     0.031 C 
ATOM     51  C   UNL A   1      43.120  27.953  33.207  1.00  0.00     0.029 A 
ATOM     52  C   UNL A   1      42.451  29.091  33.827  1.00  0.00     0.049 A 
ATOM     53  H   UNL A   1      40.825  30.163  33.090  1.00  0.00     0.167 HD
ATOM     54  C   UNL A   1      37.569  32.480  31.313  1.00  0.00     0.037 A 
ATOM     55  C   UNL A   1      42.789  29.642  35.008  1.00  0.00     0.037 A 
ATOM     56  C   UNL A   1      37.792  33.070  32.608  1.00  0.00     0.049 A 
ATOM     57  C   UNL A   1      42.012  30.824  35.516  1.00  0.00     0.074 A 
ATOM     58  C   UNL A   1      37.091  34.096  33.219  1.00  0.00     0.029 A 
ATOM     59  N   UNL A   1      38.796  32.695  33.487  1.00  0.00    -0.354 N 
ATOM     60  N   UNL A   1      40.994  31.443  34.967  1.00  0.00    -0.248 NA
ATOM     61  C   UNL A   1      42.430  31.386  36.809  1.00  0.00     0.031 C 
ATOM     62  C   UNL A   1      37.703  34.374  34.446  1.00  0.00     0.029 A 
ATOM     63  C   UNL A   1      38.753  33.488  34.622  1.00  0.00     0.049 A 
ATOM     64  H   UNL A   1      39.445  31.971  33.329  1.00  0.00     0.167 HD
ATOM     65  C   UNL A   1      40.637  32.449  35.855  1.00  0.00     0.074 A 
ATOM     66  C   UNL A   1      41.535  32.346  36.986  1.00  0.00     0.031 C 
ATOM     67  C   UNL A   1      39.656  33.377  35.740  1.00  0.00     0.037 A 
BRANCH  54  68
ATOM     68  C   UNL A   1      36.491  33.058  30.444  1.00  0.00     0.057 A 
ATOM     69  C   UNL A   1      36.783  33.902  29.364  1.00  0.00     0.134 A 
ATOM     70  C   UNL A   1      35.146  32.736  30.664  1.00  0.00     0.134 A 
ATOM     71  F   UNL A   1      38.050  34.259  29.105  1.00  0.00    -0.206 F 
ATOM     72  C   UNL A   1      35.776  34.424  28.550  1.00  0.00     0.040 A 
ATOM     73  C   UNL A   1      34.131  33.229  29.841  1.00  0.00     0.040 A 
ATOM     74  F   UNL A   1      34.794  31.928  31.676  1.00  0.00    -0.206 F 
ATOM     75  C   UNL A   1      34.445  34.081  28.784  1.00  0.00     0.006 A 
ENDBRANCH  54  68
BRANCH  55  76
ATOM     76  C   UNL A   1      43.916  29.081  35.795  1.00  0.00     0.057 A 
ATOM     77  C   UNL A   1      45.213  29.589  35.661  1.00  0.00     0.134 A 
ATOM     78  C   UNL A   1      43.728  28.021  36.690  1.00  0.00     0.134 A 
ATOM     79  F   UNL A   1      45.460  30.592  34.805  1.00  0.00    -0.206 F 
ATOM     80  C   UNL A   1      46.286  29.053  36.375  1.00  0.00     0.040 A 
ATOM     81  C   UNL A   1      44.786  27.492  37.429  1.00  0.00     0.040 A 
ATOM     82  F   UNL A   1      42.507  27.494  36.868  1.00  0.00    -0.206 F 
ATOM     83  C   UNL A   1      46.072  28.002  37.267  1.00  0.00     0.006 A 
ENDBRANCH  55  76
BRANCH  67  84
ATOM     84  C   UNL A   1      39.488  34.340  36.879  1.00  0.00     0.057 A 
ATOM     85  C   UNL A   1      38.791  33.992  38.043  1.00  0.00     0.134 A 
ATOM     86  C   UNL A   1      40.057  35.618  36.825  1.00  0.00     0.134 A 
ATOM     87  F   UNL A   1      38.210  32.789  38.154  1.00  0.00    -0.206 F 
ATOM     88  C   UNL A   1      38.648  34.890  39.104  1.00  0.00     0.040 A 
ATOM     89  C   UNL A   1      39.945  36.514  37.889  1.00  0.00     0.040 A 
ATOM     90  F   UNL A   1      40.744  36.014  35.742  1.00  0.00    -0.206 F 
ATOM     91  C   UNL A   1      39.232  36.153  39.029  1.00  0.00     0.006 A 
ENDBRANCH  67  84
ENDBRANCH  41  42
ENDBRANCH  33  36
ENDBRANCH  31  32
ENDBRANCH  30  31
ENDBRANCH  29  30
ENDBRANCH   3  29
TORSDOF 16
ENDMDL
MODEL 3
REMARK VINA RESULT:     -11.5      4.830      7.488
REMARK SMILES C[C@@H](Oc1ccc(/C=N/NC(=O)c2ccc(I)c(O)c2)cc1)C(=O)NCCCNC(=O)c1ccc(-c2c3nc(c(-c4c(F)cccc4F)c4ccc([nH]4)c(-c4c(F)cccc4F)c4nc(c(-c5c(F)cccc5F)c5ccc2[nH]5)C=C4)C=C3)cc1
REMARK SMILES IDX 23 1 24 2 25 3 2 5 1 6 3 7 4 8 5 9 22 10 6 11 21 12 7 13
REMARK SMILES IDX 8 14 9 15 10 16 11 17 12 19 13 20 14 21 20 22 15 23 18 24
REMARK SMILES IDX 16 25 17 26 19 27 26 29 27 30 28 31 29 32 30 33 31 35 32 36
REMARK SMILES IDX 33 37 85 38 34 39 84 40 35 41 36 42 37 43 78 44 38 45 83 46
REMARK SMILES IDX 77 47 79 48 39 49 82 50 76 51 75 52 40 54 66 55 49 56 65 57
REMARK SMILES IDX 50 58 53 59 64 60 80 61 51 62 52 63 63 65 81 66 54 67 41 68
REMARK SMILES IDX 42 69 47 70 43 71 44 72 46 73 48 74 45 75 67 76 68 77 73 78
REMARK SMILES IDX 69 79 70 80 72 81 74 82 71 83 55 84 56 85 61 86 57 87 58 88
REMARK SMILES IDX 60 89 62 90 59 91
REMARK H PARENT 25 4 10 18 19 28 29 34 79 53 53 64
REMARK Flexibility Score: inf
ROOT
ATOM      1  C   UNL A   1      30.588  29.085  23.137  1.00  0.00     0.260 C 
ATOM      2  O   UNL A   1      30.472  29.598  22.022  1.00  0.00    -0.271 OA
ATOM      3  N   UNL A   1      31.482  29.647  24.009  1.00  0.00    -0.353 N 
ATOM      4  H   UNL A   1      31.990  30.410  23.653  1.00  0.00     0.163 HD
ENDROOT
BRANCH   1   5
ATOM      5  C   UNL A   1      29.826  27.804  23.508  1.00  0.00     0.258 C 
ATOM      6  C   UNL A   1      28.338  28.088  23.311  1.00  0.00     0.064 C 
BRANCH   5   7
ATOM      7  O   UNL A   1      30.376  26.750  22.709  1.00  0.00    -0.481 OA
BRANCH   7   8
ATOM      8  C   UNL A   1      31.510  26.148  23.157  1.00  0.00     0.120 A 
ATOM      9  C   UNL A   1      31.497  25.659  24.466  1.00  0.00     0.047 A 
ATOM     10  C   UNL A   1      32.697  26.162  22.432  1.00  0.00     0.047 A 
ATOM     11  C   UNL A   1      32.660  25.133  25.032  1.00  0.00     0.013 A 
ATOM     12  C   UNL A   1      33.844  25.588  22.965  1.00  0.00     0.013 A 
ATOM     13  C   UNL A   1      33.820  25.079  24.263  1.00  0.00    -0.005 A 
BRANCH  13  14
ATOM     14  C   UNL A   1      35.075  24.529  24.785  1.00  0.00     0.141 C 
ATOM     15  N   UNL A   1      35.740  23.624  24.141  1.00  0.00    -0.180 NA
BRANCH  15  16
ATOM     16  N   UNL A   1      36.809  23.060  24.786  1.00  0.00    -0.243 N 
ATOM     17  C   UNL A   1      36.950  21.787  25.320  1.00  0.00     0.271 C 
ATOM     18  H   UNL A   1      37.595  23.644  24.885  1.00  0.00     0.194 HD
ATOM     19  O   UNL A   1      37.946  21.485  25.976  1.00  0.00    -0.267 OA
BRANCH  17  20
ATOM     20  C   UNL A   1      35.905  20.757  25.110  1.00  0.00     0.045 A 
ATOM     21  C   UNL A   1      36.306  19.478  24.704  1.00  0.00     0.015 A 
ATOM     22  C   UNL A   1      34.552  21.030  25.346  1.00  0.00     0.061 A 
ATOM     23  C   UNL A   1      35.365  18.451  24.606  1.00  0.00     0.019 A 
ATOM     24  C   UNL A   1      33.618  19.996  25.262  1.00  0.00     0.129 A 
ATOM     25  C   UNL A   1      34.023  18.706  24.903  1.00  0.00     0.055 A 
ATOM     26  I   UNL A   1      32.679  17.105  24.842  1.00  0.00    -0.040 I 
BRANCH  24  27
ATOM     27  O   UNL A   1      32.313  20.245  25.588  1.00  0.00    -0.507 OA
ATOM     28  H   UNL A   1      31.665  20.298  24.913  1.00  0.00     0.293 HD
ENDBRANCH  24  27
ENDBRANCH  17  20
ENDBRANCH  15  16
ENDBRANCH  13  14
ENDBRANCH   7   8
ENDBRANCH   5   7
ENDBRANCH   1   5
BRANCH   3  29
ATOM     29  C   UNL A   1      31.794  29.286  25.384  1.00  0.00     0.118 C 
BRANCH  29  30
ATOM     30  C   UNL A   1      33.227  28.803  25.553  1.00  0.00     0.042 C 
BRANCH  30  31
ATOM     31  C   UNL A   1      33.714  28.809  26.995  1.00  0.00     0.118 C 
BRANCH  31  32
ATOM     32  N   UNL A   1      33.728  30.145  27.575  1.00  0.00    -0.352 N 
ATOM     33  C   UNL A   1      34.678  30.778  28.338  1.00  0.00     0.251 C 
ATOM     34  H   UNL A   1      32.924  30.682  27.391  1.00  0.00     0.163 HD
ATOM     35  O   UNL A   1      34.404  31.838  28.891  1.00  0.00    -0.269 OA
BRANCH  33  36
ATOM     36  C   UNL A   1      36.019  30.181  28.519  1.00  0.00     0.039 A 
ATOM     37  C   UNL A   1      36.923  30.226  27.454  1.00  0.00     0.014 A 
ATOM     38  C   UNL A   1      36.382  29.563  29.717  1.00  0.00     0.014 A 
ATOM     39  C   UNL A   1      38.217  29.725  27.619  1.00  0.00     0.010 A 
ATOM     40  C   UNL A   1      37.695  29.137  29.908  1.00  0.00     0.010 A 
ATOM     41  C   UNL A   1      38.627  29.221  28.863  1.00  0.00    -0.014 A 
BRANCH  41  42
ATOM     42  C   UNL A   1      40.031  28.805  29.102  1.00  0.00     0.031 A 
ATOM     43  C   UNL A   1      41.021  29.768  29.694  1.00  0.00     0.074 A 
ATOM     44  C   UNL A   1      40.432  27.580  28.711  1.00  0.00     0.049 A 
ATOM     45  N   UNL A   1      42.307  29.615  29.888  1.00  0.00    -0.248 NA
ATOM     46  C   UNL A   1      40.504  31.084  30.100  1.00  0.00     0.031 C 
ATOM     47  C   UNL A   1      39.577  26.568  28.085  1.00  0.00     0.029 A 
ATOM     48  N   UNL A   1      41.666  26.982  28.764  1.00  0.00    -0.354 N 
ATOM     49  C   UNL A   1      42.752  30.816  30.427  1.00  0.00     0.074 A 
ATOM     50  C   UNL A   1      41.610  31.703  30.484  1.00  0.00     0.031 C 
ATOM     51  C   UNL A   1      40.307  25.472  27.830  1.00  0.00     0.029 A 
ATOM     52  C   UNL A   1      41.688  25.717  28.229  1.00  0.00     0.049 A 
ATOM     53  H   UNL A   1      42.460  27.418  29.149  1.00  0.00     0.167 HD
ATOM     54  C   UNL A   1      43.996  31.142  30.852  1.00  0.00     0.037 A 
ATOM     55  C   UNL A   1      42.710  24.856  28.061  1.00  0.00     0.037 A 
ATOM     56  C   UNL A   1      45.127  30.250  30.808  1.00  0.00     0.049 A 
ATOM     57  C   UNL A   1      44.087  25.254  28.514  1.00  0.00     0.074 A 
ATOM     58  C   UNL A   1      46.414  30.467  31.271  1.00  0.00     0.029 A 
ATOM     59  N   UNL A   1      45.110  28.977  30.260  1.00  0.00    -0.354 N 
ATOM     60  N   UNL A   1      44.481  26.368  29.083  1.00  0.00    -0.248 NA
ATOM     61  C   UNL A   1      45.163  24.275  28.301  1.00  0.00     0.031 C 
ATOM     62  C   UNL A   1      47.187  29.344  30.958  1.00  0.00     0.029 A 
ATOM     63  C   UNL A   1      46.370  28.407  30.346  1.00  0.00     0.049 A 
ATOM     64  H   UNL A   1      44.319  28.540  29.868  1.00  0.00     0.167 HD
ATOM     65  C   UNL A   1      45.842  26.215  29.316  1.00  0.00     0.074 A 
ATOM     66  C   UNL A   1      46.201  24.894  28.844  1.00  0.00     0.031 C 
ATOM     67  C   UNL A   1      46.715  27.092  29.868  1.00  0.00     0.037 A 
BRANCH  54  68
ATOM     68  C   UNL A   1      44.201  32.523  31.403  1.00  0.00     0.057 A 
ATOM     69  C   UNL A   1      44.047  32.806  32.767  1.00  0.00     0.134 A 
ATOM     70  C   UNL A   1      44.598  33.574  30.567  1.00  0.00     0.134 A 
ATOM     71  F   UNL A   1      43.658  31.846  33.620  1.00  0.00    -0.206 F 
ATOM     72  C   UNL A   1      44.254  34.089  33.275  1.00  0.00     0.040 A 
ATOM     73  C   UNL A   1      44.835  34.856  31.068  1.00  0.00     0.040 A 
ATOM     74  F   UNL A   1      44.772  33.373  29.253  1.00  0.00    -0.206 F 
ATOM     75  C   UNL A   1      44.657  35.117  32.425  1.00  0.00     0.006 A 
ENDBRANCH  54  68
BRANCH  55  76
ATOM     76  C   UNL A   1      42.470  23.530  27.439  1.00  0.00     0.057 A 
ATOM     77  C   UNL A   1      42.579  23.351  26.055  1.00  0.00     0.134 A 
ATOM     78  C   UNL A   1      42.119  22.413  28.207  1.00  0.00     0.134 A 
ATOM     79  F   UNL A   1      42.894  24.388  25.264  1.00  0.00    -0.206 F 
ATOM     80  C   UNL A   1      42.330  22.116  25.455  1.00  0.00     0.040 A 
ATOM     81  C   UNL A   1      41.892  21.166  27.624  1.00  0.00     0.040 A 
ATOM     82  F   UNL A   1      42.004  22.517  29.540  1.00  0.00    -0.206 F 
ATOM     83  C   UNL A   1      41.989  21.017  26.242  1.00  0.00     0.006 A 
ENDBRANCH  55  76
BRANCH  67  84
ATOM     84  C   UNL A   1      48.139  26.641  30.012  1.00  0.00     0.057 A 
ATOM     85  C   UNL A   1      48.577  25.924  31.133  1.00  0.00     0.134 A 
ATOM     86  C   UNL A   1      49.076  26.900  29.004  1.00  0.00     0.134 A 
ATOM     87  F   UNL A   1      47.733  25.656  32.141  1.00  0.00    -0.206 F 
ATOM     88  C   UNL A   1      49.902  25.499  31.256  1.00  0.00     0.040 A 
ATOM     89  C   UNL A   1      50.396  26.456  29.102  1.00  0.00     0.040 A 
ATOM     90  F   UNL A   1      48.722  27.576  27.900  1.00  0.00    -0.206 F 
ATOM     91  C   UNL A   1      50.813  25.759  30.234  1.00  0.00     0.006 A 
ENDBRANCH  67  84
ENDBRANCH  41  42
ENDBRANCH  33  36
ENDBRANCH  31  32
ENDBRANCH  30  31
ENDBRANCH  29  30
ENDBRANCH   3  29
TORSDOF 16
ENDMDL
