MODEL 1
REMARK VINA RESULT:     -12.1      0.000      0.000
REMARK SMILES COc1ccc(F)c(NC(=O)N2CCCC[C@@H]2C(=O)NCCCNC(=O)c2ccc(-c3c4nc(c(-c5c(F)cccc5F)c5ccc([nH]5)c(-c5c(F)cccc5F)c5nc(c(-c6c(F)cccc6F)c6ccc3[nH]6)C=C5)C=C4)cc2)c1
REMARK SMILES IDX 21 1 20 2 18 3 19 4 17 6 12 7 13 8 14 9 16 10 15 11 10 12
REMARK SMILES IDX 9 13 11 15 8 16 3 17 4 18 81 19 5 20 6 21 7 22 2 23 1 24
REMARK SMILES IDX 22 25 23 26 24 27 25 28 26 30 27 31 28 32 80 33 29 34 79 35
REMARK SMILES IDX 30 36 31 37 32 38 73 39 33 40 78 41 72 42 74 43 34 44 77 45
REMARK SMILES IDX 71 46 70 47 35 49 61 50 44 51 60 52 45 53 48 54 59 55 75 56
REMARK SMILES IDX 46 57 47 58 58 60 76 61 49 62 36 63 37 64 42 65 38 66 39 67
REMARK SMILES IDX 41 68 43 69 40 70 62 71 63 72 68 73 64 74 65 75 67 76 69 77
REMARK SMILES IDX 66 78 50 79 51 80 56 81 52 82 53 83 55 84 57 85 54 86
REMARK H PARENT 20 5 9 14 24 29 74 48 48 59
REMARK Flexibility Score: inf
ROOT
ATOM      1  C   UNL A   1      37.282  20.679  24.725  1.00  0.00     0.117 C 
ENDROOT
BRANCH   1   2
ATOM      2  N   UNL A   1      36.200  20.695  25.692  1.00  0.00    -0.354 N 
ATOM      3  C   UNL A   1      34.911  21.100  25.531  1.00  0.00     0.242 C 
ATOM      4  O   UNL A   1      34.286  21.421  26.547  1.00  0.00    -0.273 OA
ATOM      5  H   UNL A   1      36.431  20.367  26.591  1.00  0.00     0.163 HD
BRANCH   3   6
ATOM      6  C   UNL A   1      34.295  21.284  24.127  1.00  0.00     0.176 C 
ATOM      7  N   UNL A   1      34.233  22.691  23.641  1.00  0.00    -0.313 N 
ATOM      8  C   UNL A   1      33.357  22.967  22.506  1.00  0.00     0.122 C 
ATOM      9  C   UNL A   1      31.993  22.307  22.605  1.00  0.00     0.022 C 
ATOM     10  C   UNL A   1      32.916  20.588  24.136  1.00  0.00     0.035 C 
ATOM     11  C   UNL A   1      32.141  20.815  22.849  1.00  0.00     0.004 C 
BRANCH   7  12
ATOM     12  C   UNL A   1      35.092  23.720  23.971  1.00  0.00     0.322 C 
ATOM     13  N   UNL A   1      34.652  24.931  24.387  1.00  0.00    -0.305 N 
ATOM     14  H   UNL A   1      35.252  25.672  24.142  1.00  0.00     0.171 HD
ATOM     15  O   UNL A   1      36.310  23.592  23.814  1.00  0.00    -0.248 OA
BRANCH  13  16
ATOM     16  C   UNL A   1      33.512  25.343  25.097  1.00  0.00     0.082 A 
ATOM     17  C   UNL A   1      31.621  24.921  26.517  1.00  0.00     0.121 A 
ATOM     18  C   UNL A   1      31.065  26.156  26.192  1.00  0.00     0.049 A 
ATOM     19  C   UNL A   1      32.888  24.564  26.062  1.00  0.00     0.075 A 
ATOM     20  C   UNL A   1      31.767  27.021  25.356  1.00  0.00     0.045 A 
ATOM     21  C   UNL A   1      32.974  26.602  24.802  1.00  0.00     0.147 A 
ATOM     22  F   UNL A   1      33.606  27.410  23.936  1.00  0.00    -0.205 F 
BRANCH  17  23
ATOM     23  O   UNL A   1      30.936  23.993  27.254  1.00  0.00    -0.497 OA
ATOM     24  C   UNL A   1      30.494  22.922  26.411  1.00  0.00     0.278 C 
ENDBRANCH  17  23
ENDBRANCH  13  16
ENDBRANCH   7  12
ENDBRANCH   3   6
ENDBRANCH   1   2
BRANCH   1  25
ATOM     25  C   UNL A   1      38.247  19.542  25.039  1.00  0.00     0.042 C 
BRANCH  25  26
ATOM     26  C   UNL A   1      39.418  19.975  25.908  1.00  0.00     0.118 C 
BRANCH  26  27
ATOM     27  N   UNL A   1      40.458  18.960  25.973  1.00  0.00    -0.352 N 
ATOM     28  C   UNL A   1      41.813  19.118  26.116  1.00  0.00     0.251 C 
ATOM     29  H   UNL A   1      40.145  18.029  25.904  1.00  0.00     0.163 HD
ATOM     30  O   UNL A   1      42.571  18.174  25.927  1.00  0.00    -0.269 OA
BRANCH  28  31
ATOM     31  C   UNL A   1      42.353  20.442  26.481  1.00  0.00     0.039 A 
ATOM     32  C   UNL A   1      42.910  21.244  25.485  1.00  0.00     0.014 A 
ATOM     33  C   UNL A   1      42.300  20.890  27.805  1.00  0.00     0.014 A 
ATOM     34  C   UNL A   1      43.362  22.523  25.806  1.00  0.00     0.010 A 
ATOM     35  C   UNL A   1      42.663  22.197  28.104  1.00  0.00     0.010 A 
ATOM     36  C   UNL A   1      43.209  23.022  27.111  1.00  0.00    -0.014 A 
BRANCH  36  37
ATOM     37  C   UNL A   1      43.621  24.404  27.457  1.00  0.00     0.031 A 
ATOM     38  C   UNL A   1      42.587  25.424  27.838  1.00  0.00     0.074 A 
ATOM     39  C   UNL A   1      44.919  24.753  27.368  1.00  0.00     0.049 A 
ATOM     40  N   UNL A   1      42.744  26.694  28.116  1.00  0.00    -0.248 NA
ATOM     41  C   UNL A   1      41.187  24.970  27.886  1.00  0.00     0.031 C 
ATOM     42  C   UNL A   1      46.007  23.862  26.961  1.00  0.00     0.029 A 
ATOM     43  N   UNL A   1      45.543  25.950  27.610  1.00  0.00    -0.354 N 
ATOM     44  C   UNL A   1      41.468  27.187  28.356  1.00  0.00     0.074 A 
ATOM     45  C   UNL A   1      40.542  26.099  28.135  1.00  0.00     0.031 C 
ATOM     46  C   UNL A   1      47.167  24.534  27.011  1.00  0.00     0.029 A 
ATOM     47  C   UNL A   1      46.902  25.913  27.409  1.00  0.00     0.049 A 
ATOM     48  H   UNL A   1      45.063  26.759  27.900  1.00  0.00     0.167 HD
ATOM     49  C   UNL A   1      41.106  28.429  28.750  1.00  0.00     0.037 A 
ATOM     50  C   UNL A   1      47.830  26.882  27.527  1.00  0.00     0.037 A 
ATOM     51  C   UNL A   1      42.037  29.498  28.998  1.00  0.00     0.049 A 
ATOM     52  C   UNL A   1      47.404  28.256  27.963  1.00  0.00     0.074 A 
ATOM     53  C   UNL A   1      41.776  30.771  29.471  1.00  0.00     0.029 A 
ATOM     54  N   UNL A   1      43.406  29.419  28.790  1.00  0.00    -0.354 N 
ATOM     55  N   UNL A   1      46.202  28.691  28.253  1.00  0.00    -0.248 NA
ATOM     56  C   UNL A   1      48.459  29.270  28.094  1.00  0.00     0.031 C 
ATOM     57  C   UNL A   1      42.978  31.482  29.492  1.00  0.00     0.029 A 
ATOM     58  C   UNL A   1      43.999  30.633  29.094  1.00  0.00     0.049 A 
ATOM     59  H   UNL A   1      43.886  28.619  28.474  1.00  0.00     0.167 HD
ATOM     60  C   UNL A   1      46.356  30.022  28.621  1.00  0.00     0.074 A 
ATOM     61  C   UNL A   1      47.771  30.317  28.529  1.00  0.00     0.031 C 
ATOM     62  C   UNL A   1      45.409  30.914  28.999  1.00  0.00     0.037 A 
BRANCH  49  63
ATOM     63  C   UNL A   1      39.644  28.705  28.948  1.00  0.00     0.057 A 
ATOM     64  C   UNL A   1      38.873  29.246  27.911  1.00  0.00     0.134 A 
ATOM     65  C   UNL A   1      39.012  28.501  30.182  1.00  0.00     0.134 A 
ATOM     66  F   UNL A   1      39.416  29.472  26.705  1.00  0.00    -0.206 F 
ATOM     67  C   UNL A   1      37.532  29.587  28.097  1.00  0.00     0.040 A 
ATOM     68  C   UNL A   1      37.663  28.810  30.372  1.00  0.00     0.040 A 
ATOM     69  F   UNL A   1      39.689  27.975  31.214  1.00  0.00    -0.206 F 
ATOM     70  C   UNL A   1      36.923  29.364  29.330  1.00  0.00     0.006 A 
ENDBRANCH  49  63
BRANCH  50  71
ATOM     71  C   UNL A   1      49.254  26.564  27.252  1.00  0.00     0.057 A 
ATOM     72  C   UNL A   1      49.794  26.679  25.966  1.00  0.00     0.134 A 
ATOM     73  C   UNL A   1      50.094  26.086  28.264  1.00  0.00     0.134 A 
ATOM     74  F   UNL A   1      49.037  27.121  24.950  1.00  0.00    -0.206 F 
ATOM     75  C   UNL A   1      51.111  26.308  25.690  1.00  0.00     0.040 A 
ATOM     76  C   UNL A   1      51.421  25.735  28.008  1.00  0.00     0.040 A 
ATOM     77  F   UNL A   1      49.639  25.969  29.520  1.00  0.00    -0.206 F 
ATOM     78  C   UNL A   1      51.929  25.836  26.714  1.00  0.00     0.006 A 
ENDBRANCH  50  71
BRANCH  62  79
ATOM     79  C   UNL A   1      45.860  32.299  29.362  1.00  0.00     0.057 A 
ATOM     80  C   UNL A   1      46.176  32.621  30.689  1.00  0.00     0.134 A 
ATOM     81  C   UNL A   1      45.889  33.336  28.421  1.00  0.00     0.134 A 
ATOM     82  F   UNL A   1      46.155  31.677  31.642  1.00  0.00    -0.206 F 
ATOM     83  C   UNL A   1      46.483  33.927  31.070  1.00  0.00     0.040 A 
ATOM     84  C   UNL A   1      46.224  34.642  28.785  1.00  0.00     0.040 A 
ATOM     85  F   UNL A   1      45.606  33.093  27.132  1.00  0.00    -0.206 F 
ATOM     86  C   UNL A   1      46.509  34.941  30.116  1.00  0.00     0.006 A 
ENDBRANCH  62  79
ENDBRANCH  36  37
ENDBRANCH  28  31
ENDBRANCH  26  27
ENDBRANCH  25  26
ENDBRANCH   1  25
TORSDOF 13
ENDMDL
MODEL 2
REMARK VINA RESULT:     -12.1      5.333     10.349
REMARK SMILES COc1ccc(F)c(NC(=O)N2CCCC[C@@H]2C(=O)NCCCNC(=O)c2ccc(-c3c4nc(c(-c5c(F)cccc5F)c5ccc([nH]5)c(-c5c(F)cccc5F)c5nc(c(-c6c(F)cccc6F)c6ccc3[nH]6)C=C5)C=C4)cc2)c1
REMARK SMILES IDX 21 1 20 2 18 3 19 4 17 6 12 7 13 8 14 9 16 10 15 11 10 12
REMARK SMILES IDX 9 13 11 15 8 16 3 17 4 18 81 19 5 20 6 21 7 22 2 23 1 24
REMARK SMILES IDX 22 25 23 26 24 27 25 28 26 30 27 31 28 32 80 33 29 34 79 35
REMARK SMILES IDX 30 36 31 37 32 38 73 39 33 40 78 41 72 42 74 43 34 44 77 45
REMARK SMILES IDX 71 46 70 47 35 49 61 50 44 51 60 52 45 53 48 54 59 55 75 56
REMARK SMILES IDX 46 57 47 58 58 60 76 61 49 62 36 63 37 64 42 65 38 66 39 67
REMARK SMILES IDX 41 68 43 69 40 70 62 71 63 72 68 73 64 74 65 75 67 76 69 77
REMARK SMILES IDX 66 78 50 79 51 80 56 81 52 82 53 83 55 84 57 85 54 86
REMARK H PARENT 20 5 9 14 24 29 74 48 48 59
REMARK Flexibility Score: inf
ROOT
ATOM      1  C   UNL A   1      31.561  30.679  26.565  1.00  0.00     0.117 C 
ENDROOT
BRANCH   1   2
ATOM      2  N   UNL A   1      32.128  30.334  25.275  1.00  0.00    -0.354 N 
ATOM      3  C   UNL A   1      31.917  29.226  24.514  1.00  0.00     0.242 C 
ATOM      4  O   UNL A   1      32.783  28.935  23.682  1.00  0.00    -0.273 OA
ATOM      5  H   UNL A   1      32.752  30.995  24.896  1.00  0.00     0.163 HD
BRANCH   3   6
ATOM      6  C   UNL A   1      30.714  28.291  24.769  1.00  0.00     0.176 C 
ATOM      7  N   UNL A   1      31.040  27.016  25.468  1.00  0.00    -0.313 N 
ATOM      8  C   UNL A   1      30.038  25.955  25.420  1.00  0.00     0.122 C 
ATOM      9  C   UNL A   1      29.426  25.745  24.046  1.00  0.00     0.022 C 
ATOM     10  C   UNL A   1      30.007  28.073  23.414  1.00  0.00     0.035 C 
ATOM     11  C   UNL A   1      28.881  27.055  23.502  1.00  0.00     0.004 C 
BRANCH   7  12
ATOM     12  C   UNL A   1      32.065  26.802  26.367  1.00  0.00     0.322 C 
ATOM     13  N   UNL A   1      32.946  25.782  26.239  1.00  0.00    -0.305 N 
ATOM     14  H   UNL A   1      33.289  25.449  27.099  1.00  0.00     0.171 HD
ATOM     15  O   UNL A   1      32.162  27.500  27.381  1.00  0.00    -0.248 OA
BRANCH  13  16
ATOM     16  C   UNL A   1      33.467  25.101  25.126  1.00  0.00     0.082 A 
ATOM     17  C   UNL A   1      33.832  24.849  22.764  1.00  0.00     0.121 A 
ATOM     18  C   UNL A   1      34.219  23.522  22.937  1.00  0.00     0.049 A 
ATOM     19  C   UNL A   1      33.566  25.666  23.861  1.00  0.00     0.075 A 
ATOM     20  C   UNL A   1      34.288  22.994  24.224  1.00  0.00     0.045 A 
ATOM     21  C   UNL A   1      33.896  23.781  25.304  1.00  0.00     0.147 A 
ATOM     22  F   UNL A   1      33.891  23.240  26.533  1.00  0.00    -0.205 F 
BRANCH  17  23
ATOM     23  O   UNL A   1      33.653  25.393  21.521  1.00  0.00    -0.497 OA
ATOM     24  C   UNL A   1      32.335  25.943  21.408  1.00  0.00     0.278 C 
ENDBRANCH  17  23
ENDBRANCH  13  16
ENDBRANCH   7  12
ENDBRANCH   3   6
ENDBRANCH   1   2
BRANCH   1  25
ATOM     25  C   UNL A   1      31.429  32.192  26.691  1.00  0.00     0.042 C 
BRANCH  25  26
ATOM     26  C   UNL A   1      32.677  32.857  27.252  1.00  0.00     0.118 C 
BRANCH  26  27
ATOM     27  N   UNL A   1      32.440  34.242  27.627  1.00  0.00    -0.352 N 
ATOM     28  C   UNL A   1      33.006  34.973  28.640  1.00  0.00     0.251 C 
ATOM     29  H   UNL A   1      31.778  34.722  27.077  1.00  0.00     0.163 HD
ATOM     30  O   UNL A   1      32.534  36.056  28.962  1.00  0.00    -0.269 OA
BRANCH  28  31
ATOM     31  C   UNL A   1      34.181  34.434  29.352  1.00  0.00     0.039 A 
ATOM     32  C   UNL A   1      33.991  33.774  30.567  1.00  0.00     0.014 A 
ATOM     33  C   UNL A   1      35.464  34.573  28.814  1.00  0.00     0.014 A 
ATOM     34  C   UNL A   1      35.085  33.203  31.216  1.00  0.00     0.010 A 
ATOM     35  C   UNL A   1      36.535  33.922  29.412  1.00  0.00     0.010 A 
ATOM     36  C   UNL A   1      36.360  33.242  30.625  1.00  0.00    -0.014 A 
BRANCH  36  37
ATOM     37  C   UNL A   1      37.523  32.581  31.264  1.00  0.00     0.031 A 
ATOM     38  C   UNL A   1      38.195  31.420  30.588  1.00  0.00     0.074 A 
ATOM     39  C   UNL A   1      37.933  32.989  32.481  1.00  0.00     0.049 A 
ATOM     40  N   UNL A   1      39.185  30.678  31.014  1.00  0.00    -0.248 NA
ATOM     41  C   UNL A   1      37.670  31.019  29.272  1.00  0.00     0.031 C 
ATOM     42  C   UNL A   1      37.327  34.072  33.257  1.00  0.00     0.029 A 
ATOM     43  N   UNL A   1      38.952  32.538  33.280  1.00  0.00    -0.354 N 
ATOM     44  C   UNL A   1      39.388  29.720  30.030  1.00  0.00     0.074 A 
ATOM     45  C   UNL A   1      38.384  29.935  29.012  1.00  0.00     0.031 C 
ATOM     46  C   UNL A   1      38.005  34.222  34.406  1.00  0.00     0.029 A 
ATOM     47  C   UNL A   1      39.063  33.218  34.469  1.00  0.00     0.049 A 
ATOM     48  H   UNL A   1      39.548  31.795  33.026  1.00  0.00     0.167 HD
ATOM     49  C   UNL A   1      40.343  28.763  29.970  1.00  0.00     0.037 A 
ATOM     50  C   UNL A   1      39.917  33.050  35.497  1.00  0.00     0.037 A 
ATOM     51  C   UNL A   1      41.357  28.576  30.973  1.00  0.00     0.049 A 
ATOM     52  C   UNL A   1      40.967  31.979  35.409  1.00  0.00     0.074 A 
ATOM     53  C   UNL A   1      42.413  27.682  30.968  1.00  0.00     0.029 A 
ATOM     54  N   UNL A   1      41.440  29.290  32.158  1.00  0.00    -0.354 N 
ATOM     55  N   UNL A   1      41.192  31.124  34.441  1.00  0.00    -0.248 NA
ATOM     56  C   UNL A   1      41.885  31.851  36.550  1.00  0.00     0.031 C 
ATOM     57  C   UNL A   1      43.099  27.814  32.177  1.00  0.00     0.029 A 
ATOM     58  C   UNL A   1      42.511  28.834  32.909  1.00  0.00     0.049 A 
ATOM     59  H   UNL A   1      40.829  30.014  32.427  1.00  0.00     0.167 HD
ATOM     60  C   UNL A   1      42.287  30.370  34.844  1.00  0.00     0.074 A 
ATOM     61  C   UNL A   1      42.688  30.879  36.139  1.00  0.00     0.031 C 
ATOM     62  C   UNL A   1      42.901  29.350  34.197  1.00  0.00     0.037 A 
BRANCH  49  63
ATOM     63  C   UNL A   1      40.346  27.848  28.780  1.00  0.00     0.057 A 
ATOM     64  C   UNL A   1      39.642  26.638  28.808  1.00  0.00     0.134 A 
ATOM     65  C   UNL A   1      41.100  28.129  27.632  1.00  0.00     0.134 A 
ATOM     66  F   UNL A   1      38.904  26.304  29.878  1.00  0.00    -0.206 F 
ATOM     67  C   UNL A   1      39.697  25.735  27.745  1.00  0.00     0.040 A 
ATOM     68  C   UNL A   1      41.139  27.248  26.550  1.00  0.00     0.040 A 
ATOM     69  F   UNL A   1      41.789  29.276  27.535  1.00  0.00    -0.206 F 
ATOM     70  C   UNL A   1      40.444  26.042  26.610  1.00  0.00     0.006 A 
ENDBRANCH  49  63
BRANCH  50  71
ATOM     71  C   UNL A   1      39.820  33.945  36.677  1.00  0.00     0.057 A 
ATOM     72  C   UNL A   1      39.057  33.596  37.799  1.00  0.00     0.134 A 
ATOM     73  C   UNL A   1      40.447  35.196  36.689  1.00  0.00     0.134 A 
ATOM     74  F   UNL A   1      38.422  32.415  37.845  1.00  0.00    -0.206 F 
ATOM     75  C   UNL A   1      38.903  34.467  38.878  1.00  0.00     0.040 A 
ATOM     76  C   UNL A   1      40.322  36.067  37.771  1.00  0.00     0.040 A 
ATOM     77  F   UNL A   1      41.205  35.579  35.650  1.00  0.00    -0.206 F 
ATOM     78  C   UNL A   1      39.538  35.707  38.867  1.00  0.00     0.006 A 
ENDBRANCH  50  71
BRANCH  62  79
ATOM     79  C   UNL A   1      44.087  28.714  34.861  1.00  0.00     0.057 A 
ATOM     80  C   UNL A   1      43.917  27.652  35.760  1.00  0.00     0.134 A 
ATOM     81  C   UNL A   1      45.384  29.212  34.687  1.00  0.00     0.134 A 
ATOM     82  F   UNL A   1      42.699  27.137  35.982  1.00  0.00    -0.206 F 
ATOM     83  C   UNL A   1      44.991  27.124  36.477  1.00  0.00     0.040 A 
ATOM     84  C   UNL A   1      46.471  28.673  35.377  1.00  0.00     0.040 A 
ATOM     85  F   UNL A   1      45.617  30.222  33.834  1.00  0.00    -0.206 F 
ATOM     86  C   UNL A   1      46.273  27.634  36.285  1.00  0.00     0.006 A 
ENDBRANCH  62  79
ENDBRANCH  36  37
ENDBRANCH  28  31
ENDBRANCH  26  27
ENDBRANCH  25  26
ENDBRANCH   1  25
TORSDOF 13
ENDMDL
MODEL 3
REMARK VINA RESULT:     -12.0      0.198      6.239
REMARK SMILES COc1ccc(F)c(NC(=O)N2CCCC[C@@H]2C(=O)NCCCNC(=O)c2ccc(-c3c4nc(c(-c5c(F)cccc5F)c5ccc([nH]5)c(-c5c(F)cccc5F)c5nc(c(-c6c(F)cccc6F)c6ccc3[nH]6)C=C5)C=C4)cc2)c1
REMARK SMILES IDX 21 1 20 2 18 3 19 4 17 6 12 7 13 8 14 9 16 10 15 11 10 12
REMARK SMILES IDX 9 13 11 15 8 16 3 17 4 18 81 19 5 20 6 21 7 22 2 23 1 24
REMARK SMILES IDX 22 25 23 26 24 27 25 28 26 30 27 31 28 32 80 33 29 34 79 35
REMARK SMILES IDX 30 36 31 37 32 38 73 39 33 40 78 41 72 42 74 43 34 44 77 45
REMARK SMILES IDX 71 46 70 47 35 49 61 50 44 51 60 52 45 53 48 54 59 55 75 56
REMARK SMILES IDX 46 57 47 58 58 60 76 61 49 62 36 63 37 64 42 65 38 66 39 67
REMARK SMILES IDX 41 68 43 69 40 70 62 71 63 72 68 73 64 74 65 75 67 76 69 77
REMARK SMILES IDX 66 78 50 79 51 80 56 81 52 82 53 83 55 84 57 85 54 86
REMARK H PARENT 20 5 9 14 24 29 74 48 48 59
REMARK Flexibility Score: inf
ROOT
ATOM      1  C   UNL A   1      37.334  20.712  24.716  1.00  0.00     0.117 C 
ENDROOT
BRANCH   1   2
ATOM      2  N   UNL A   1      36.282  20.734  25.716  1.00  0.00    -0.354 N 
ATOM      3  C   UNL A   1      34.992  21.148  25.594  1.00  0.00     0.242 C 
ATOM      4  O   UNL A   1      34.400  21.472  26.629  1.00  0.00    -0.273 OA
ATOM      5  H   UNL A   1      36.538  20.403  26.607  1.00  0.00     0.163 HD
BRANCH   3   6
ATOM      6  C   UNL A   1      34.334  21.338  24.210  1.00  0.00     0.176 C 
ATOM      7  N   UNL A   1      34.233  22.751  23.745  1.00  0.00    -0.313 N 
ATOM      8  C   UNL A   1      33.321  23.024  22.637  1.00  0.00     0.122 C 
ATOM      9  C   UNL A   1      31.973  22.336  22.763  1.00  0.00     0.022 C 
ATOM     10  C   UNL A   1      32.971  20.615  24.245  1.00  0.00     0.035 C 
ATOM     11  C   UNL A   1      32.156  20.844  22.982  1.00  0.00     0.004 C 
BRANCH   7  12
ATOM     12  C   UNL A   1      35.079  23.792  24.066  1.00  0.00     0.322 C 
ATOM     13  N   UNL A   1      34.626  25.012  24.440  1.00  0.00    -0.305 N 
ATOM     14  H   UNL A   1      35.228  25.748  24.188  1.00  0.00     0.171 HD
ATOM     15  O   UNL A   1      36.302  23.665  23.939  1.00  0.00    -0.248 OA
BRANCH  13  16
ATOM     16  C   UNL A   1      33.469  25.437  25.113  1.00  0.00     0.082 A 
ATOM     17  C   UNL A   1      31.546  25.043  26.500  1.00  0.00     0.121 A 
ATOM     18  C   UNL A   1      30.995  26.269  26.132  1.00  0.00     0.049 A 
ATOM     19  C   UNL A   1      32.825  24.679  26.083  1.00  0.00     0.075 A 
ATOM     20  C   UNL A   1      31.714  27.115  25.292  1.00  0.00     0.045 A 
ATOM     21  C   UNL A   1      32.934  26.686  24.776  1.00  0.00     0.147 A 
ATOM     22  F   UNL A   1      33.584  27.476  23.906  1.00  0.00    -0.205 F 
BRANCH  17  23
ATOM     23  O   UNL A   1      30.847  24.131  27.243  1.00  0.00    -0.497 OA
ATOM     24  C   UNL A   1      30.528  22.985  26.444  1.00  0.00     0.278 C 
ENDBRANCH  17  23
ENDBRANCH  13  16
ENDBRANCH   7  12
ENDBRANCH   3   6
ENDBRANCH   1   2
BRANCH   1  25
ATOM     25  C   UNL A   1      38.284  19.550  24.982  1.00  0.00     0.042 C 
BRANCH  25  26
ATOM     26  C   UNL A   1      39.355  19.879  26.011  1.00  0.00     0.118 C 
BRANCH  26  27
ATOM     27  N   UNL A   1      40.438  18.907  26.005  1.00  0.00    -0.352 N 
ATOM     28  C   UNL A   1      41.792  19.121  26.067  1.00  0.00     0.251 C 
ATOM     29  H   UNL A   1      40.161  17.965  25.946  1.00  0.00     0.163 HD
ATOM     30  O   UNL A   1      42.575  18.210  25.825  1.00  0.00    -0.269 OA
BRANCH  28  31
ATOM     31  C   UNL A   1      42.298  20.463  26.412  1.00  0.00     0.039 A 
ATOM     32  C   UNL A   1      42.773  21.289  25.393  1.00  0.00     0.014 A 
ATOM     33  C   UNL A   1      42.293  20.906  27.738  1.00  0.00     0.014 A 
ATOM     34  C   UNL A   1      43.192  22.583  25.697  1.00  0.00     0.010 A 
ATOM     35  C   UNL A   1      42.620  22.225  28.025  1.00  0.00     0.010 A 
ATOM     36  C   UNL A   1      43.085  23.073  27.010  1.00  0.00    -0.014 A 
BRANCH  36  37
ATOM     37  C   UNL A   1      43.459  24.469  27.342  1.00  0.00     0.031 A 
ATOM     38  C   UNL A   1      44.899  24.894  27.291  1.00  0.00     0.074 A 
ATOM     39  C   UNL A   1      42.510  25.333  27.749  1.00  0.00     0.049 A 
ATOM     40  N   UNL A   1      45.430  26.049  27.601  1.00  0.00    -0.248 NA
ATOM     41  C   UNL A   1      45.879  23.882  26.862  1.00  0.00     0.031 C 
ATOM     42  C   UNL A   1      41.087  25.021  27.887  1.00  0.00     0.029 A 
ATOM     43  N   UNL A   1      42.599  26.649  28.125  1.00  0.00    -0.354 N 
ATOM     44  C   UNL A   1      46.798  25.897  27.419  1.00  0.00     0.074 A 
ATOM     45  C   UNL A   1      47.025  24.524  27.028  1.00  0.00     0.031 C 
ATOM     46  C   UNL A   1      40.432  26.122  28.287  1.00  0.00     0.029 A 
ATOM     47  C   UNL A   1      41.392  27.204  28.477  1.00  0.00     0.049 A 
ATOM     48  H   UNL A   1      43.448  27.149  28.142  1.00  0.00     0.167 HD
ATOM     49  C   UNL A   1      47.772  26.827  27.542  1.00  0.00     0.037 A 
ATOM     50  C   UNL A   1      41.093  28.444  28.910  1.00  0.00     0.037 A 
ATOM     51  C   UNL A   1      47.534  28.199  27.901  1.00  0.00     0.049 A 
ATOM     52  C   UNL A   1      42.192  29.459  29.043  1.00  0.00     0.074 A 
ATOM     53  C   UNL A   1      48.446  29.236  27.981  1.00  0.00     0.029 A 
ATOM     54  N   UNL A   1      46.297  28.725  28.243  1.00  0.00    -0.354 N 
ATOM     55  N   UNL A   1      43.474  29.321  28.801  1.00  0.00    -0.248 NA
ATOM     56  C   UNL A   1      41.808  30.802  29.501  1.00  0.00     0.031 C 
ATOM     57  C   UNL A   1      47.772  30.375  28.430  1.00  0.00     0.029 A 
ATOM     58  C   UNL A   1      46.427  30.065  28.567  1.00  0.00     0.049 A 
ATOM     59  H   UNL A   1      45.450  28.220  28.254  1.00  0.00     0.167 HD
ATOM     60  C   UNL A   1      44.046  30.561  29.057  1.00  0.00     0.074 A 
ATOM     61  C   UNL A   1      42.970  31.441  29.460  1.00  0.00     0.031 C 
ATOM     62  C   UNL A   1      45.347  30.931  28.966  1.00  0.00     0.037 A 
BRANCH  49  63
ATOM     63  C   UNL A   1      49.188  26.400  27.280  1.00  0.00     0.057 A 
ATOM     64  C   UNL A   1      50.027  26.025  28.337  1.00  0.00     0.134 A 
ATOM     65  C   UNL A   1      49.742  26.425  25.993  1.00  0.00     0.134 A 
ATOM     66  F   UNL A   1      49.562  25.984  29.595  1.00  0.00    -0.206 F 
ATOM     67  C   UNL A   1      51.369  25.702  28.126  1.00  0.00     0.040 A 
ATOM     68  C   UNL A   1      51.075  26.076  25.766  1.00  0.00     0.040 A 
ATOM     69  F   UNL A   1      48.991  26.764  24.935  1.00  0.00    -0.206 F 
ATOM     70  C   UNL A   1      51.894  25.724  26.836  1.00  0.00     0.006 A 
ENDBRANCH  49  63
BRANCH  50  71
ATOM     71  C   UNL A   1      39.682  28.787  29.218  1.00  0.00     0.057 A 
ATOM     72  C   UNL A   1      39.156  28.636  30.507  1.00  0.00     0.134 A 
ATOM     73  C   UNL A   1      38.810  29.224  28.214  1.00  0.00     0.134 A 
ATOM     74  F   UNL A   1      39.938  28.210  31.511  1.00  0.00    -0.206 F 
ATOM     75  C   UNL A   1      37.811  28.884  30.782  1.00  0.00     0.040 A 
ATOM     76  C   UNL A   1      37.468  29.501  28.480  1.00  0.00     0.040 A 
ATOM     77  F   UNL A   1      39.258  29.403  26.963  1.00  0.00    -0.206 F 
ATOM     78  C   UNL A   1      36.963  29.320  29.767  1.00  0.00     0.006 A 
ENDBRANCH  50  71
BRANCH  62  79
ATOM     79  C   UNL A   1      45.692  32.356  29.290  1.00  0.00     0.057 A 
ATOM     80  C   UNL A   1      46.001  32.733  30.603  1.00  0.00     0.134 A 
ATOM     81  C   UNL A   1      45.625  33.368  28.325  1.00  0.00     0.134 A 
ATOM     82  F   UNL A   1      46.070  31.814  31.578  1.00  0.00    -0.206 F 
ATOM     83  C   UNL A   1      46.210  34.069  30.949  1.00  0.00     0.040 A 
ATOM     84  C   UNL A   1      45.860  34.704  28.653  1.00  0.00     0.040 A 
ATOM     85  F   UNL A   1      45.343  33.072  27.046  1.00  0.00    -0.206 F 
ATOM     86  C   UNL A   1      46.141  35.058  29.971  1.00  0.00     0.006 A 
ENDBRANCH  62  79
ENDBRANCH  36  37
ENDBRANCH  28  31
ENDBRANCH  26  27
ENDBRANCH  25  26
ENDBRANCH   1  25
TORSDOF 13
ENDMDL
