MODEL 1
REMARK VINA RESULT:     -11.2      0.000      0.000
REMARK SMILES O=C(NCCCNC(=O)c1noc(-c2ccccc2C(F)(F)F)n1)c1ccc(-c2c3nc(c(-c4c(F)cccc4F)c4ccc([nH]4)c(-c4c(F)cccc4F)c4nc(c(-c5c(F)cccc5F)c5ccc2[nH]5)C=C4)C=C3)cc1
REMARK SMILES IDX 5 1 4 2 3 3 1 4 2 5 25 7 26 8 78 9 27 10 77 11 28 12 29 13
REMARK SMILES IDX 30 14 71 15 31 16 76 17 70 18 72 19 32 20 75 21 69 22 68 23
REMARK SMILES IDX 33 25 59 26 42 27 58 28 43 29 46 30 57 31 73 32 44 33 45 34
REMARK SMILES IDX 56 36 74 37 47 38 34 39 35 40 40 41 36 42 37 43 39 44 41 45
REMARK SMILES IDX 38 46 60 47 61 48 66 49 62 50 63 51 65 52 67 53 64 54 48 55
REMARK SMILES IDX 49 56 54 57 50 58 51 59 53 60 55 61 52 62 6 63 7 64 8 65
REMARK SMILES IDX 9 67 10 68 11 69 24 70 12 71 13 72 14 73 15 74 19 75 16 76
REMARK SMILES IDX 18 77 17 78 20 79 21 80 22 81 23 82
REMARK H PARENT 3 6 72 24 46 35 7 66
REMARK Flexibility Score: inf
ROOT
ATOM      1  C   UNL A   1      34.392  34.535  28.109  1.00  0.00     0.042 C 
ENDROOT
BRANCH   1   2
ATOM      2  C   UNL A   1      35.064  33.176  28.267  1.00  0.00     0.118 C 
BRANCH   2   3
ATOM      3  N   UNL A   1      34.259  32.099  27.707  1.00  0.00    -0.352 N 
ATOM      4  O   UNL A   1      33.829  30.107  26.764  1.00  0.00    -0.269 OA
ATOM      5  C   UNL A   1      34.589  30.796  27.438  1.00  0.00     0.251 C 
ATOM      6  H   UNL A   1      33.332  32.346  27.487  1.00  0.00     0.163 HD
BRANCH   5   7
ATOM      7  C   UNL A   1      35.848  30.213  27.951  1.00  0.00     0.039 A 
ATOM      8  C   UNL A   1      37.064  30.445  27.306  1.00  0.00     0.014 A 
ATOM      9  C   UNL A   1      35.819  29.483  29.145  1.00  0.00     0.014 A 
ATOM     10  C   UNL A   1      38.232  29.868  27.793  1.00  0.00     0.010 A 
ATOM     11  C   UNL A   1      37.004  28.966  29.677  1.00  0.00     0.010 A 
ATOM     12  C   UNL A   1      38.217  29.148  28.998  1.00  0.00    -0.014 A 
BRANCH  12  13
ATOM     13  C   UNL A   1      39.501  28.691  29.583  1.00  0.00     0.031 A 
ATOM     14  C   UNL A   1      40.075  29.334  30.811  1.00  0.00     0.074 A 
ATOM     15  C   UNL A   1      40.141  27.664  28.988  1.00  0.00     0.049 A 
ATOM     16  N   UNL A   1      41.176  29.035  31.454  1.00  0.00    -0.248 NA
ATOM     17  C   UNL A   1      39.329  30.461  31.389  1.00  0.00     0.031 C 
ATOM     18  C   UNL A   1      39.689  26.982  27.771  1.00  0.00     0.029 A 
ATOM     19  N   UNL A   1      41.295  27.008  29.327  1.00  0.00    -0.354 N 
ATOM     20  C   UNL A   1      41.265  29.944  32.499  1.00  0.00     0.074 A 
ATOM     21  C   UNL A   1      40.114  30.817  32.398  1.00  0.00     0.031 C 
ATOM     22  C   UNL A   1      40.534  25.980  27.489  1.00  0.00     0.029 A 
ATOM     23  C   UNL A   1      41.611  25.981  28.472  1.00  0.00     0.049 A 
ATOM     24  H   UNL A   1      41.844  27.248  30.108  1.00  0.00     0.167 HD
ATOM     25  C   UNL A   1      42.218  30.032  33.456  1.00  0.00     0.037 A 
ATOM     26  C   UNL A   1      42.661  25.140  28.469  1.00  0.00     0.037 A 
ATOM     27  C   UNL A   1      43.345  29.143  33.568  1.00  0.00     0.049 A 
ATOM     28  C   UNL A   1      43.699  25.266  29.542  1.00  0.00     0.074 A 
ATOM     29  C   UNL A   1      44.326  29.113  34.545  1.00  0.00     0.029 A 
ATOM     30  N   UNL A   1      43.645  28.130  32.670  1.00  0.00    -0.354 N 
ATOM     31  N   UNL A   1      43.740  26.098  30.554  1.00  0.00    -0.248 NA
ATOM     32  C   UNL A   1      44.841  24.344  29.470  1.00  0.00     0.031 C 
ATOM     33  C   UNL A   1      45.240  28.106  34.218  1.00  0.00     0.029 A 
ATOM     34  C   UNL A   1      44.811  27.488  33.054  1.00  0.00     0.049 A 
ATOM     35  H   UNL A   1      43.109  27.902  31.877  1.00  0.00     0.167 HD
ATOM     36  C   UNL A   1      44.908  25.801  31.240  1.00  0.00     0.074 A 
ATOM     37  C   UNL A   1      45.534  24.694  30.544  1.00  0.00     0.031 C 
ATOM     38  C   UNL A   1      45.422  26.398  32.341  1.00  0.00     0.037 A 
BRANCH  25  39
ATOM     39  C   UNL A   1      42.096  31.133  34.466  1.00  0.00     0.057 A 
ATOM     40  C   UNL A   1      41.341  30.982  35.635  1.00  0.00     0.134 A 
ATOM     41  C   UNL A   1      42.809  32.329  34.305  1.00  0.00     0.134 A 
ATOM     42  F   UNL A   1      40.629  29.864  35.844  1.00  0.00    -0.206 F 
ATOM     43  C   UNL A   1      41.296  31.983  36.608  1.00  0.00     0.040 A 
ATOM     44  C   UNL A   1      42.785  33.329  35.276  1.00  0.00     0.040 A 
ATOM     45  F   UNL A   1      43.556  32.533  33.209  1.00  0.00    -0.206 F 
ATOM     46  C   UNL A   1      42.027  33.158  36.433  1.00  0.00     0.006 A 
ENDBRANCH  25  39
BRANCH  26  47
ATOM     47  C   UNL A   1      42.785  24.119  27.401  1.00  0.00     0.057 A 
ATOM     48  C   UNL A   1      42.295  22.821  27.579  1.00  0.00     0.134 A 
ATOM     49  C   UNL A   1      43.388  24.421  26.174  1.00  0.00     0.134 A 
ATOM     50  F   UNL A   1      41.723  22.469  28.740  1.00  0.00    -0.206 F 
ATOM     51  C   UNL A   1      42.412  21.854  26.580  1.00  0.00     0.040 A 
ATOM     52  C   UNL A   1      43.491  23.472  25.158  1.00  0.00     0.040 A 
ATOM     53  F   UNL A   1      43.870  25.651  25.943  1.00  0.00    -0.206 F 
ATOM     54  C   UNL A   1      43.006  22.182  25.362  1.00  0.00     0.006 A 
ENDBRANCH  26  47
BRANCH  38  55
ATOM     55  C   UNL A   1      46.723  25.861  32.852  1.00  0.00     0.057 A 
ATOM     56  C   UNL A   1      46.764  24.858  33.829  1.00  0.00     0.134 A 
ATOM     57  C   UNL A   1      47.941  26.338  32.356  1.00  0.00     0.134 A 
ATOM     58  F   UNL A   1      45.629  24.373  34.353  1.00  0.00    -0.206 F 
ATOM     59  C   UNL A   1      47.976  24.360  34.309  1.00  0.00     0.040 A 
ATOM     60  C   UNL A   1      49.159  25.835  32.814  1.00  0.00     0.040 A 
ATOM     61  F   UNL A   1      47.967  27.296  31.417  1.00  0.00    -0.206 F 
ATOM     62  C   UNL A   1      49.178  24.846  33.797  1.00  0.00     0.006 A 
ENDBRANCH  38  55
ENDBRANCH  12  13
ENDBRANCH   5   7
ENDBRANCH   2   3
ENDBRANCH   1   2
BRANCH   1  63
ATOM     63  C   UNL A   1      33.206  34.734  29.048  1.00  0.00     0.118 C 
BRANCH  63  64
ATOM     64  N   UNL A   1      33.148  36.095  29.558  1.00  0.00    -0.349 N 
ATOM     65  C   UNL A   1      33.176  36.528  30.871  1.00  0.00     0.292 C 
ATOM     66  H   UNL A   1      33.078  36.803  28.877  1.00  0.00     0.163 HD
ATOM     67  O   UNL A   1      32.857  37.696  31.100  1.00  0.00    -0.266 OA
BRANCH  65  68
ATOM     68  C   UNL A   1      33.561  35.577  31.921  1.00  0.00     0.260 A 
ATOM     69  N   UNL A   1      32.692  34.719  32.484  1.00  0.00    -0.051 NA
ATOM     70  N   UNL A   1      34.855  35.452  32.394  1.00  0.00    -0.182 NA
ATOM     71  O   UNL A   1      33.495  33.942  33.323  1.00  0.00    -0.333 OA
ATOM     72  C   UNL A   1      34.761  34.434  33.210  1.00  0.00     0.259 A 
BRANCH  72  73
ATOM     73  C   UNL A   1      35.823  33.733  33.907  1.00  0.00     0.052 A 
ATOM     74  C   UNL A   1      36.260  34.237  35.145  1.00  0.00     0.014 A 
ATOM     75  C   UNL A   1      36.345  32.514  33.432  1.00  0.00     0.068 A 
ATOM     76  C   UNL A   1      37.181  33.532  35.919  1.00  0.00     0.001 A 
ATOM     77  C   UNL A   1      37.273  31.814  34.230  1.00  0.00     0.014 A 
ATOM     78  C   UNL A   1      37.683  32.319  35.464  1.00  0.00     0.001 A 
BRANCH  75  79
ATOM     79  C   UNL A   1      35.919  31.911  32.112  1.00  0.00     0.417 C 
ATOM     80  F   UNL A   1      36.613  32.431  31.058  1.00  0.00    -0.166 F 
ATOM     81  F   UNL A   1      36.127  30.568  32.058  1.00  0.00    -0.166 F 
ATOM     82  F   UNL A   1      34.609  32.116  31.804  1.00  0.00    -0.166 F 
ENDBRANCH  75  79
ENDBRANCH  72  73
ENDBRANCH  65  68
ENDBRANCH  63  64
ENDBRANCH   1  63
TORSDOF 12
ENDMDL
MODEL 2
REMARK VINA RESULT:     -11.1      5.062      9.655
REMARK SMILES O=C(NCCCNC(=O)c1noc(-c2ccccc2C(F)(F)F)n1)c1ccc(-c2c3nc(c(-c4c(F)cccc4F)c4ccc([nH]4)c(-c4c(F)cccc4F)c4nc(c(-c5c(F)cccc5F)c5ccc2[nH]5)C=C4)C=C3)cc1
REMARK SMILES IDX 5 1 4 2 3 3 1 4 2 5 25 7 26 8 78 9 27 10 77 11 28 12 29 13
REMARK SMILES IDX 30 14 71 15 31 16 76 17 70 18 72 19 32 20 75 21 69 22 68 23
REMARK SMILES IDX 33 25 59 26 42 27 58 28 43 29 46 30 57 31 73 32 44 33 45 34
REMARK SMILES IDX 56 36 74 37 47 38 34 39 35 40 40 41 36 42 37 43 39 44 41 45
REMARK SMILES IDX 38 46 60 47 61 48 66 49 62 50 63 51 65 52 67 53 64 54 48 55
REMARK SMILES IDX 49 56 54 57 50 58 51 59 53 60 55 61 52 62 6 63 7 64 8 65
REMARK SMILES IDX 9 67 10 68 11 69 24 70 12 71 13 72 14 73 15 74 19 75 16 76
REMARK SMILES IDX 18 77 17 78 20 79 21 80 22 81 23 82
REMARK H PARENT 3 6 72 24 46 35 7 66
REMARK Flexibility Score: inf
ROOT
ATOM      1  C   UNL A   1      37.508  19.660  24.994  1.00  0.00     0.042 C 
ENDROOT
BRANCH   1   2
ATOM      2  C   UNL A   1      38.801  20.315  25.468  1.00  0.00     0.118 C 
BRANCH   2   3
ATOM      3  N   UNL A   1      39.861  19.339  25.685  1.00  0.00    -0.352 N 
ATOM      4  O   UNL A   1      41.954  18.584  25.987  1.00  0.00    -0.269 OA
ATOM      5  C   UNL A   1      41.163  19.519  26.072  1.00  0.00     0.251 C 
ATOM      6  H   UNL A   1      39.600  18.403  25.530  1.00  0.00     0.163 HD
BRANCH   5   7
ATOM      7  C   UNL A   1      41.626  20.825  26.590  1.00  0.00     0.039 A 
ATOM      8  C   UNL A   1      42.111  21.810  25.728  1.00  0.00     0.014 A 
ATOM      9  C   UNL A   1      41.497  21.095  27.957  1.00  0.00     0.014 A 
ATOM     10  C   UNL A   1      42.560  23.023  26.240  1.00  0.00     0.010 A 
ATOM     11  C   UNL A   1      41.878  22.342  28.462  1.00  0.00     0.010 A 
ATOM     12  C   UNL A   1      42.422  23.310  27.607  1.00  0.00    -0.014 A 
BRANCH  12  13
ATOM     13  C   UNL A   1      42.750  24.671  28.096  1.00  0.00     0.031 A 
ATOM     14  C   UNL A   1      41.682  25.702  28.317  1.00  0.00     0.074 A 
ATOM     15  C   UNL A   1      44.041  24.960  28.354  1.00  0.00     0.049 A 
ATOM     16  N   UNL A   1      41.806  26.928  28.761  1.00  0.00    -0.248 NA
ATOM     17  C   UNL A   1      40.301  25.318  27.993  1.00  0.00     0.031 C 
ATOM     18  C   UNL A   1      45.166  24.044  28.147  1.00  0.00     0.029 A 
ATOM     19  N   UNL A   1      44.625  26.095  28.854  1.00  0.00    -0.354 N 
ATOM     20  C   UNL A   1      40.527  27.467  28.752  1.00  0.00     0.074 A 
ATOM     21  C   UNL A   1      39.641  26.440  28.247  1.00  0.00     0.031 C 
ATOM     22  C   UNL A   1      46.297  24.637  28.554  1.00  0.00     0.029 A 
ATOM     23  C   UNL A   1      45.986  25.989  29.001  1.00  0.00     0.049 A 
ATOM     24  H   UNL A   1      44.118  26.905  29.087  1.00  0.00     0.167 HD
ATOM     25  C   UNL A   1      40.134  28.703  29.140  1.00  0.00     0.037 A 
ATOM     26  C   UNL A   1      46.889  26.887  29.433  1.00  0.00     0.037 A 
ATOM     27  C   UNL A   1      41.017  29.710  29.669  1.00  0.00     0.049 A 
ATOM     28  C   UNL A   1      46.420  28.248  29.853  1.00  0.00     0.074 A 
ATOM     29  C   UNL A   1      40.699  30.968  30.152  1.00  0.00     0.029 A 
ATOM     30  N   UNL A   1      42.393  29.575  29.780  1.00  0.00    -0.354 N 
ATOM     31  N   UNL A   1      45.200  28.723  29.889  1.00  0.00    -0.248 NA
ATOM     32  C   UNL A   1      47.453  29.200  30.284  1.00  0.00     0.031 C 
ATOM     33  C   UNL A   1      41.887  31.609  30.521  1.00  0.00     0.029 A 
ATOM     34  C   UNL A   1      42.941  30.738  30.297  1.00  0.00     0.049 A 
ATOM     35  H   UNL A   1      42.904  28.773  29.528  1.00  0.00     0.167 HD
ATOM     36  C   UNL A   1      45.315  30.027  30.347  1.00  0.00     0.074 A 
ATOM     37  C   UNL A   1      46.723  30.259  30.601  1.00  0.00     0.031 C 
ATOM     38  C   UNL A   1      44.344  30.953  30.531  1.00  0.00     0.037 A 
BRANCH  25  39
ATOM     39  C   UNL A   1      38.683  29.051  29.005  1.00  0.00     0.057 A 
ATOM     40  C   UNL A   1      37.801  28.971  30.089  1.00  0.00     0.134 A 
ATOM     41  C   UNL A   1      38.180  29.548  27.795  1.00  0.00     0.134 A 
ATOM     42  F   UNL A   1      38.219  28.495  31.271  1.00  0.00    -0.206 F 
ATOM     43  C   UNL A   1      36.467  29.372  29.974  1.00  0.00     0.040 A 
ATOM     44  C   UNL A   1      36.855  29.966  27.672  1.00  0.00     0.040 A 
ATOM     45  F   UNL A   1      38.976  29.654  26.720  1.00  0.00    -0.206 F 
ATOM     46  C   UNL A   1      35.993  29.879  28.765  1.00  0.00     0.006 A 
ENDBRANCH  25  39
BRANCH  26  47
ATOM     47  C   UNL A   1      48.326  26.528  29.472  1.00  0.00     0.057 A 
ATOM     48  C   UNL A   1      48.881  25.875  30.577  1.00  0.00     0.134 A 
ATOM     49  C   UNL A   1      49.177  26.823  28.399  1.00  0.00     0.134 A 
ATOM     50  F   UNL A   1      48.118  25.583  31.641  1.00  0.00    -0.206 F 
ATOM     51  C   UNL A   1      50.234  25.537  30.621  1.00  0.00     0.040 A 
ATOM     52  C   UNL A   1      50.526  26.471  28.419  1.00  0.00     0.040 A 
ATOM     53  F   UNL A   1      48.701  27.442  27.309  1.00  0.00    -0.206 F 
ATOM     54  C   UNL A   1      51.059  25.830  29.535  1.00  0.00     0.006 A 
ENDBRANCH  26  47
BRANCH  38  55
ATOM     55  C   UNL A   1      44.780  32.296  31.028  1.00  0.00     0.057 A 
ATOM     56  C   UNL A   1      44.891  32.565  32.398  1.00  0.00     0.134 A 
ATOM     57  C   UNL A   1      45.107  33.321  30.134  1.00  0.00     0.134 A 
ATOM     58  F   UNL A   1      44.576  31.626  33.303  1.00  0.00    -0.206 F 
ATOM     59  C   UNL A   1      45.293  33.818  32.862  1.00  0.00     0.040 A 
ATOM     60  C   UNL A   1      45.529  34.572  30.586  1.00  0.00     0.040 A 
ATOM     61  F   UNL A   1      45.025  33.123  28.809  1.00  0.00    -0.206 F 
ATOM     62  C   UNL A   1      45.618  34.824  31.954  1.00  0.00     0.006 A 
ENDBRANCH  38  55
ENDBRANCH  12  13
ENDBRANCH   5   7
ENDBRANCH   2   3
ENDBRANCH   1   2
BRANCH   1  63
ATOM     63  C   UNL A   1      36.314  20.610  25.006  1.00  0.00     0.118 C 
BRANCH  63  64
ATOM     64  N   UNL A   1      35.053  19.885  25.036  1.00  0.00    -0.349 N 
ATOM     65  C   UNL A   1      33.767  20.391  25.087  1.00  0.00     0.292 C 
ATOM     66  H   UNL A   1      35.125  18.903  25.018  1.00  0.00     0.163 HD
ATOM     67  O   UNL A   1      32.852  19.612  25.365  1.00  0.00    -0.266 OA
BRANCH  65  68
ATOM     68  C   UNL A   1      33.558  21.820  24.831  1.00  0.00     0.260 A 
ATOM     69  N   UNL A   1      33.286  22.312  23.608  1.00  0.00    -0.051 NA
ATOM     70  N   UNL A   1      33.583  22.782  25.825  1.00  0.00    -0.182 NA
ATOM     71  O   UNL A   1      33.049  23.669  23.845  1.00  0.00    -0.333 OA
ATOM     72  C   UNL A   1      33.239  23.866  25.180  1.00  0.00     0.259 A 
BRANCH  72  73
ATOM     73  C   UNL A   1      32.953  25.184  25.715  1.00  0.00     0.052 A 
ATOM     74  C   UNL A   1      33.982  26.143  25.724  1.00  0.00     0.014 A 
ATOM     75  C   UNL A   1      31.656  25.556  26.121  1.00  0.00     0.068 A 
ATOM     76  C   UNL A   1      33.728  27.461  26.102  1.00  0.00     0.001 A 
ATOM     77  C   UNL A   1      31.418  26.893  26.497  1.00  0.00     0.014 A 
ATOM     78  C   UNL A   1      32.445  27.837  26.483  1.00  0.00     0.001 A 
BRANCH  75  79
ATOM     79  C   UNL A   1      30.502  24.579  26.135  1.00  0.00     0.417 C 
ATOM     80  F   UNL A   1      30.677  23.584  27.053  1.00  0.00    -0.166 F 
ATOM     81  F   UNL A   1      29.320  25.169  26.459  1.00  0.00    -0.166 F 
ATOM     82  F   UNL A   1      30.305  23.934  24.953  1.00  0.00    -0.166 F 
ENDBRANCH  75  79
ENDBRANCH  72  73
ENDBRANCH  65  68
ENDBRANCH  63  64
ENDBRANCH   1  63
TORSDOF 12
ENDMDL
MODEL 3
REMARK VINA RESULT:     -11.1      5.583     10.562
REMARK SMILES O=C(NCCCNC(=O)c1noc(-c2ccccc2C(F)(F)F)n1)c1ccc(-c2c3nc(c(-c4c(F)cccc4F)c4ccc([nH]4)c(-c4c(F)cccc4F)c4nc(c(-c5c(F)cccc5F)c5ccc2[nH]5)C=C4)C=C3)cc1
REMARK SMILES IDX 5 1 4 2 3 3 1 4 2 5 25 7 26 8 78 9 27 10 77 11 28 12 29 13
REMARK SMILES IDX 30 14 71 15 31 16 76 17 70 18 72 19 32 20 75 21 69 22 68 23
REMARK SMILES IDX 33 25 59 26 42 27 58 28 43 29 46 30 57 31 73 32 44 33 45 34
REMARK SMILES IDX 56 36 74 37 47 38 34 39 35 40 40 41 36 42 37 43 39 44 41 45
REMARK SMILES IDX 38 46 60 47 61 48 66 49 62 50 63 51 65 52 67 53 64 54 48 55
REMARK SMILES IDX 49 56 54 57 50 58 51 59 53 60 55 61 52 62 6 63 7 64 8 65
REMARK SMILES IDX 9 67 10 68 11 69 24 70 12 71 13 72 14 73 15 74 19 75 16 76
REMARK SMILES IDX 18 77 17 78 20 79 21 80 22 81 23 82
REMARK H PARENT 3 6 72 24 46 35 7 66
REMARK Flexibility Score: inf
ROOT
ATOM      1  C   UNL A   1      37.730  19.598  24.987  1.00  0.00     0.042 C 
ENDROOT
BRANCH   1   2
ATOM      2  C   UNL A   1      38.935  20.145  25.744  1.00  0.00     0.118 C 
BRANCH   2   3
ATOM      3  N   UNL A   1      40.014  19.170  25.833  1.00  0.00    -0.352 N 
ATOM      4  O   UNL A   1      42.127  18.408  25.822  1.00  0.00    -0.269 OA
ATOM      5  C   UNL A   1      41.363  19.355  25.988  1.00  0.00     0.251 C 
ATOM      6  H   UNL A   1      39.728  18.230  25.772  1.00  0.00     0.163 HD
BRANCH   5   7
ATOM      7  C   UNL A   1      41.908  20.680  26.353  1.00  0.00     0.039 A 
ATOM      8  C   UNL A   1      42.178  21.642  25.377  1.00  0.00     0.014 A 
ATOM      9  C   UNL A   1      42.078  20.993  27.706  1.00  0.00     0.014 A 
ATOM     10  C   UNL A   1      42.711  22.874  25.742  1.00  0.00     0.010 A 
ATOM     11  C   UNL A   1      42.542  22.259  28.079  1.00  0.00     0.010 A 
ATOM     12  C   UNL A   1      42.871  23.204  27.097  1.00  0.00    -0.014 A 
BRANCH  12  13
ATOM     13  C   UNL A   1      43.278  24.582  27.461  1.00  0.00     0.031 A 
ATOM     14  C   UNL A   1      44.710  25.023  27.380  1.00  0.00     0.074 A 
ATOM     15  C   UNL A   1      42.320  25.444  27.857  1.00  0.00     0.049 A 
ATOM     16  N   UNL A   1      45.221  26.200  27.644  1.00  0.00    -0.248 NA
ATOM     17  C   UNL A   1      45.698  24.020  26.959  1.00  0.00     0.031 C 
ATOM     18  C   UNL A   1      40.899  25.115  28.002  1.00  0.00     0.029 A 
ATOM     19  N   UNL A   1      42.390  26.769  28.200  1.00  0.00    -0.354 N 
ATOM     20  C   UNL A   1      46.588  26.075  27.440  1.00  0.00     0.074 A 
ATOM     21  C   UNL A   1      46.832  24.704  27.043  1.00  0.00     0.031 C 
ATOM     22  C   UNL A   1      40.227  26.217  28.364  1.00  0.00     0.029 A 
ATOM     23  C   UNL A   1      41.172  27.314  28.526  1.00  0.00     0.049 A 
ATOM     24  H   UNL A   1      43.230  27.281  28.209  1.00  0.00     0.167 HD
ATOM     25  C   UNL A   1      47.546  27.023  27.566  1.00  0.00     0.037 A 
ATOM     26  C   UNL A   1      40.852  28.557  28.927  1.00  0.00     0.037 A 
ATOM     27  C   UNL A   1      47.293  28.393  27.933  1.00  0.00     0.049 A 
ATOM     28  C   UNL A   1      41.938  29.583  29.058  1.00  0.00     0.074 A 
ATOM     29  C   UNL A   1      48.192  29.442  28.020  1.00  0.00     0.029 A 
ATOM     30  N   UNL A   1      46.051  28.901  28.280  1.00  0.00    -0.354 N 
ATOM     31  N   UNL A   1      43.218  29.462  28.810  1.00  0.00    -0.248 NA
ATOM     32  C   UNL A   1      41.536  30.914  29.533  1.00  0.00     0.031 C 
ATOM     33  C   UNL A   1      47.501  30.577  28.455  1.00  0.00     0.029 A 
ATOM     34  C   UNL A   1      46.165  30.243  28.608  1.00  0.00     0.049 A 
ATOM     35  H   UNL A   1      45.213  28.386  28.291  1.00  0.00     0.167 HD
ATOM     36  C   UNL A   1      43.777  30.699  29.096  1.00  0.00     0.074 A 
ATOM     37  C   UNL A   1      42.691  31.564  29.511  1.00  0.00     0.031 C 
ATOM     38  C   UNL A   1      45.074  31.081  29.031  1.00  0.00     0.037 A 
BRANCH  25  39
ATOM     39  C   UNL A   1      48.967  26.621  27.311  1.00  0.00     0.057 A 
ATOM     40  C   UNL A   1      49.797  26.155  28.338  1.00  0.00     0.134 A 
ATOM     41  C   UNL A   1      49.485  26.623  26.009  1.00  0.00     0.134 A 
ATOM     42  F   UNL A   1      49.363  26.137  29.607  1.00  0.00    -0.206 F 
ATOM     43  C   UNL A   1      51.095  25.708  28.079  1.00  0.00     0.040 A 
ATOM     44  C   UNL A   1      50.773  26.165  25.736  1.00  0.00     0.040 A 
ATOM     45  F   UNL A   1      48.738  27.052  24.981  1.00  0.00    -0.206 F 
ATOM     46  C   UNL A   1      51.583  25.704  26.773  1.00  0.00     0.006 A 
ENDBRANCH  25  39
BRANCH  26  47
ATOM     47  C   UNL A   1      39.444  28.889  29.249  1.00  0.00     0.057 A 
ATOM     48  C   UNL A   1      38.581  29.407  28.278  1.00  0.00     0.134 A 
ATOM     49  C   UNL A   1      38.927  28.687  30.535  1.00  0.00     0.134 A 
ATOM     50  F   UNL A   1      39.026  29.637  27.034  1.00  0.00    -0.206 F 
ATOM     51  C   UNL A   1      37.256  29.724  28.576  1.00  0.00     0.040 A 
ATOM     52  C   UNL A   1      37.598  28.978  30.841  1.00  0.00     0.040 A 
ATOM     53  F   UNL A   1      39.704  28.187  31.506  1.00  0.00    -0.206 F 
ATOM     54  C   UNL A   1      36.759  29.503  29.860  1.00  0.00     0.006 A 
ENDBRANCH  26  47
BRANCH  38  55
ATOM     55  C   UNL A   1      45.380  32.494  29.420  1.00  0.00     0.057 A 
ATOM     56  C   UNL A   1      45.313  33.537  28.487  1.00  0.00     0.134 A 
ATOM     57  C   UNL A   1      45.728  32.818  30.736  1.00  0.00     0.134 A 
ATOM     58  F   UNL A   1      45.000  33.286  27.207  1.00  0.00    -0.206 F 
ATOM     59  C   UNL A   1      45.602  34.854  28.848  1.00  0.00     0.040 A 
ATOM     60  C   UNL A   1      46.000  34.133  31.112  1.00  0.00     0.040 A 
ATOM     61  F   UNL A   1      45.805  31.863  31.675  1.00  0.00    -0.206 F 
ATOM     62  C   UNL A   1      45.942  35.155  30.165  1.00  0.00     0.006 A 
ENDBRANCH  38  55
ENDBRANCH  12  13
ENDBRANCH   5   7
ENDBRANCH   2   3
ENDBRANCH   1   2
BRANCH   1  63
ATOM     63  C   UNL A   1      36.534  20.545  24.996  1.00  0.00     0.118 C 
BRANCH  63  64
ATOM     64  N   UNL A   1      35.274  19.818  25.008  1.00  0.00    -0.349 N 
ATOM     65  C   UNL A   1      33.986  20.320  25.055  1.00  0.00     0.292 C 
ATOM     66  H   UNL A   1      35.348  18.836  24.979  1.00  0.00     0.163 HD
ATOM     67  O   UNL A   1      33.072  19.536  25.317  1.00  0.00    -0.266 OA
BRANCH  65  68
ATOM     68  C   UNL A   1      33.777  21.752  24.813  1.00  0.00     0.260 A 
ATOM     69  N   UNL A   1      33.597  22.268  23.584  1.00  0.00    -0.051 NA
ATOM     70  N   UNL A   1      33.705  22.690  25.827  1.00  0.00    -0.182 NA
ATOM     71  O   UNL A   1      33.320  23.615  23.829  1.00  0.00    -0.333 OA
ATOM     72  C   UNL A   1      33.398  23.784  25.180  1.00  0.00     0.259 A 
BRANCH  72  73
ATOM     73  C   UNL A   1      33.048  25.086  25.718  1.00  0.00     0.052 A 
ATOM     74  C   UNL A   1      34.031  26.092  25.732  1.00  0.00     0.014 A 
ATOM     75  C   UNL A   1      31.735  25.394  26.122  1.00  0.00     0.068 A 
ATOM     76  C   UNL A   1      33.714  27.395  26.113  1.00  0.00     0.001 A 
ATOM     77  C   UNL A   1      31.433  26.718  26.501  1.00  0.00     0.014 A 
ATOM     78  C   UNL A   1      32.414  27.709  26.493  1.00  0.00     0.001 A 
BRANCH  75  79
ATOM     79  C   UNL A   1      30.628  24.363  26.131  1.00  0.00     0.417 C 
ATOM     80  F   UNL A   1      29.420  24.904  26.466  1.00  0.00    -0.166 F 
ATOM     81  F   UNL A   1      30.443  23.784  24.915  1.00  0.00    -0.166 F 
ATOM     82  F   UNL A   1      30.817  23.351  27.021  1.00  0.00    -0.166 F 
ENDBRANCH  75  79
ENDBRANCH  72  73
ENDBRANCH  65  68
ENDBRANCH  63  64
ENDBRANCH   1  63
TORSDOF 12
ENDMDL
