MODEL 1
REMARK VINA RESULT:     -11.8      0.000      0.000
REMARK SMILES O=C(/C=C/c1cc(F)cc(COCc2ccco2)c1)NCCCNC(=O)c1ccc(-c2c3nc(c(-c4c(F)cccc4F)c4ccc([nH]4)c(-c4c(F)cccc4F)c4nc(c(-c5c(F)cccc5F)c5ccc2[nH]5)C=C4)C=C3)cc1
REMARK SMILES IDX 1 1 2 2 20 3 3 5 4 6 5 7 6 8 19 9 7 10 10 11 8 12 9 13 11 14
REMARK SMILES IDX 12 15 13 16 14 17 15 18 18 19 16 20 17 21 21 22 22 23 23 24
REMARK SMILES IDX 24 25 25 26 26 28 27 29 28 30 80 31 29 32 79 33 30 34 31 35
REMARK SMILES IDX 32 36 73 37 33 38 78 39 72 40 74 41 34 42 77 43 71 44 70 45
REMARK SMILES IDX 35 47 61 48 44 49 60 50 45 51 48 52 59 53 75 54 46 55 47 56
REMARK SMILES IDX 58 58 76 59 49 60 36 61 37 62 42 63 38 64 39 65 41 66 43 67
REMARK SMILES IDX 40 68 62 69 63 70 68 71 64 72 65 73 67 74 69 75 66 76 50 77
REMARK SMILES IDX 51 78 56 79 52 80 53 81 55 82 57 83 54 84
REMARK H PARENT 20 4 24 27 74 46 48 57
REMARK Flexibility Score: inf
ROOT
ATOM      1  O   UNL A   1      36.027  31.388  27.814  1.00  0.00    -0.270 OA
ATOM      2  C   UNL A   1      34.809  31.512  27.699  1.00  0.00     0.244 C 
ATOM      3  N   UNL A   1      34.096  32.561  28.212  1.00  0.00    -0.352 N 
ATOM      4  H   UNL A   1      33.125  32.602  28.053  1.00  0.00     0.163 HD
ENDROOT
BRANCH   2   5
ATOM      5  C   UNL A   1      34.037  30.449  27.005  1.00  0.00     0.072 C 
ATOM      6  C   UNL A   1      32.767  30.096  27.260  1.00  0.00     0.014 C 
BRANCH   6   7
ATOM      7  C   UNL A   1      32.043  29.102  26.456  1.00  0.00    -0.022 A 
ATOM      8  C   UNL A   1      31.741  27.819  26.922  1.00  0.00     0.047 A 
ATOM      9  C   UNL A   1      31.631  29.465  25.166  1.00  0.00     0.014 A 
ATOM     10  C   UNL A   1      31.078  26.919  26.092  1.00  0.00     0.124 A 
ATOM     11  C   UNL A   1      30.980  28.551  24.319  1.00  0.00    -0.019 A 
ATOM     12  F   UNL A   1      30.804  25.689  26.545  1.00  0.00    -0.207 F 
ATOM     13  C   UNL A   1      30.706  27.266  24.797  1.00  0.00     0.045 A 
BRANCH  11  14
ATOM     14  C   UNL A   1      30.644  28.937  22.899  1.00  0.00     0.196 C 
BRANCH  14  15
ATOM     15  O   UNL A   1      29.452  28.349  22.386  1.00  0.00    -0.369 OA
BRANCH  15  16
ATOM     16  C   UNL A   1      28.211  28.964  22.745  1.00  0.00     0.235 C 
BRANCH  16  17
ATOM     17  C   UNL A   1      28.107  30.355  22.222  1.00  0.00     0.129 A 
ATOM     18  C   UNL A   1      28.094  31.618  22.784  1.00  0.00     0.048 A 
ATOM     19  O   UNL A   1      28.109  30.472  20.859  1.00  0.00    -0.467 OA
ATOM     20  C   UNL A   1      28.087  32.544  21.714  1.00  0.00     0.042 A 
ATOM     21  C   UNL A   1      28.095  31.796  20.563  1.00  0.00     0.195 A 
ENDBRANCH  16  17
ENDBRANCH  15  16
ENDBRANCH  14  15
ENDBRANCH  11  14
ENDBRANCH   6   7
ENDBRANCH   2   5
BRANCH   3  22
ATOM     22  C   UNL A   1      34.730  33.614  28.982  1.00  0.00     0.118 C 
BRANCH  22  23
ATOM     23  C   UNL A   1      34.343  33.602  30.458  1.00  0.00     0.042 C 
BRANCH  23  24
ATOM     24  C   UNL A   1      34.687  32.317  31.211  1.00  0.00     0.118 C 
BRANCH  24  25
ATOM     25  N   UNL A   1      35.182  32.549  32.561  1.00  0.00    -0.352 N 
ATOM     26  C   UNL A   1      36.386  32.246  33.144  1.00  0.00     0.251 C 
ATOM     27  H   UNL A   1      34.542  33.000  33.158  1.00  0.00     0.163 HD
ATOM     28  O   UNL A   1      36.532  32.463  34.346  1.00  0.00    -0.269 OA
BRANCH  26  29
ATOM     29  C   UNL A   1      37.500  31.641  32.376  1.00  0.00     0.039 A 
ATOM     30  C   UNL A   1      37.529  31.845  30.990  1.00  0.00     0.014 A 
ATOM     31  C   UNL A   1      38.481  30.846  32.974  1.00  0.00     0.014 A 
ATOM     32  C   UNL A   1      38.568  31.313  30.223  1.00  0.00     0.010 A 
ATOM     33  C   UNL A   1      39.552  30.366  32.217  1.00  0.00     0.010 A 
ATOM     34  C   UNL A   1      39.611  30.600  30.835  1.00  0.00    -0.014 A 
BRANCH  34  35
ATOM     35  C   UNL A   1      40.778  30.137  30.039  1.00  0.00     0.031 A 
ATOM     36  C   UNL A   1      41.936  31.051  29.750  1.00  0.00     0.074 A 
ATOM     37  C   UNL A   1      40.778  28.884  29.542  1.00  0.00     0.049 A 
ATOM     38  N   UNL A   1      43.027  30.810  29.067  1.00  0.00    -0.248 NA
ATOM     39  C   UNL A   1      41.852  32.420  30.282  1.00  0.00     0.031 C 
ATOM     40  C   UNL A   1      39.698  27.910  29.707  1.00  0.00     0.029 A 
ATOM     41  N   UNL A   1      41.720  28.213  28.800  1.00  0.00    -0.354 N 
ATOM     42  C   UNL A   1      43.754  31.993  29.081  1.00  0.00     0.074 A 
ATOM     43  C   UNL A   1      42.960  32.965  29.802  1.00  0.00     0.031 C 
ATOM     44  C   UNL A   1      40.051  26.757  29.118  1.00  0.00     0.029 A 
ATOM     45  C   UNL A   1      41.367  26.918  28.506  1.00  0.00     0.049 A 
ATOM     46  H   UNL A   1      42.566  28.622  28.507  1.00  0.00     0.167 HD
ATOM     47  C   UNL A   1      44.980  32.239  28.559  1.00  0.00     0.037 A 
ATOM     48  C   UNL A   1      42.028  25.963  27.826  1.00  0.00     0.037 A 
ATOM     49  C   UNL A   1      45.783  31.267  27.862  1.00  0.00     0.049 A 
ATOM     50  C   UNL A   1      43.389  26.259  27.264  1.00  0.00     0.074 A 
ATOM     51  C   UNL A   1      47.060  31.415  27.349  1.00  0.00     0.029 A 
ATOM     52  N   UNL A   1      45.389  29.968  27.582  1.00  0.00    -0.354 N 
ATOM     53  N   UNL A   1      44.084  27.368  27.330  1.00  0.00    -0.248 NA
ATOM     54  C   UNL A   1      44.059  25.171  26.538  1.00  0.00     0.031 C 
ATOM     55  C   UNL A   1      47.425  30.217  26.726  1.00  0.00     0.029 A 
ATOM     56  C   UNL A   1      46.391  29.310  26.886  1.00  0.00     0.049 A 
ATOM     57  H   UNL A   1      44.525  29.572  27.838  1.00  0.00     0.167 HD
ATOM     58  C   UNL A   1      45.274  27.109  26.665  1.00  0.00     0.074 A 
ATOM     59  C   UNL A   1      45.218  25.731  26.224  1.00  0.00     0.031 C 
ATOM     60  C   UNL A   1      46.320  27.942  26.440  1.00  0.00     0.037 A 
BRANCH  47  61
ATOM     61  C   UNL A   1      45.545  33.618  28.734  1.00  0.00     0.057 A 
ATOM     62  C   UNL A   1      45.343  34.605  27.761  1.00  0.00     0.134 A 
ATOM     63  C   UNL A   1      46.349  33.948  29.833  1.00  0.00     0.134 A 
ATOM     64  F   UNL A   1      44.588  34.353  26.681  1.00  0.00    -0.206 F 
ATOM     65  C   UNL A   1      45.926  35.869  27.873  1.00  0.00     0.040 A 
ATOM     66  C   UNL A   1      46.919  35.214  29.966  1.00  0.00     0.040 A 
ATOM     67  F   UNL A   1      46.574  33.049  30.803  1.00  0.00    -0.206 F 
ATOM     68  C   UNL A   1      46.715  36.177  28.980  1.00  0.00     0.006 A 
ENDBRANCH  47  61
BRANCH  48  69
ATOM     69  C   UNL A   1      41.422  24.618  27.676  1.00  0.00     0.057 A 
ATOM     70  C   UNL A   1      41.836  23.536  28.460  1.00  0.00     0.134 A 
ATOM     71  C   UNL A   1      40.424  24.384  26.723  1.00  0.00     0.134 A 
ATOM     72  F   UNL A   1      42.794  23.697  29.385  1.00  0.00    -0.206 F 
ATOM     73  C   UNL A   1      41.291  22.262  28.291  1.00  0.00     0.040 A 
ATOM     74  C   UNL A   1      39.854  23.121  26.558  1.00  0.00     0.040 A 
ATOM     75  F   UNL A   1      39.973  25.388  25.957  1.00  0.00    -0.206 F 
ATOM     76  C   UNL A   1      40.293  22.053  27.339  1.00  0.00     0.006 A 
ENDBRANCH  48  69
BRANCH  60  77
ATOM     77  C   UNL A   1      47.490  27.386  25.683  1.00  0.00     0.057 A 
ATOM     78  C   UNL A   1      48.549  26.764  26.355  1.00  0.00     0.134 A 
ATOM     79  C   UNL A   1      47.587  27.507  24.292  1.00  0.00     0.134 A 
ATOM     80  F   UNL A   1      48.522  26.624  27.689  1.00  0.00    -0.206 F 
ATOM     81  C   UNL A   1      49.665  26.283  25.670  1.00  0.00     0.040 A 
ATOM     82  C   UNL A   1      48.688  27.009  23.592  1.00  0.00     0.040 A 
ATOM     83  F   UNL A   1      46.600  28.083  23.588  1.00  0.00    -0.206 F 
ATOM     84  C   UNL A   1      49.734  26.402  24.282  1.00  0.00     0.006 A 
ENDBRANCH  60  77
ENDBRANCH  34  35
ENDBRANCH  26  29
ENDBRANCH  24  25
ENDBRANCH  23  24
ENDBRANCH  22  23
ENDBRANCH   3  22
TORSDOF 15
ENDMDL
MODEL 2
REMARK VINA RESULT:     -11.6      4.820      8.714
REMARK SMILES O=C(/C=C/c1cc(F)cc(COCc2ccco2)c1)NCCCNC(=O)c1ccc(-c2c3nc(c(-c4c(F)cccc4F)c4ccc([nH]4)c(-c4c(F)cccc4F)c4nc(c(-c5c(F)cccc5F)c5ccc2[nH]5)C=C4)C=C3)cc1
REMARK SMILES IDX 1 1 2 2 20 3 3 5 4 6 5 7 6 8 19 9 7 10 10 11 8 12 9 13 11 14
REMARK SMILES IDX 12 15 13 16 14 17 15 18 18 19 16 20 17 21 21 22 22 23 23 24
REMARK SMILES IDX 24 25 25 26 26 28 27 29 28 30 80 31 29 32 79 33 30 34 31 35
REMARK SMILES IDX 32 36 73 37 33 38 78 39 72 40 74 41 34 42 77 43 71 44 70 45
REMARK SMILES IDX 35 47 61 48 44 49 60 50 45 51 48 52 59 53 75 54 46 55 47 56
REMARK SMILES IDX 58 58 76 59 49 60 36 61 37 62 42 63 38 64 39 65 41 66 43 67
REMARK SMILES IDX 40 68 62 69 63 70 68 71 64 72 65 73 67 74 69 75 66 76 50 77
REMARK SMILES IDX 51 78 56 79 52 80 53 81 55 82 57 83 54 84
REMARK H PARENT 20 4 24 27 74 46 48 57
REMARK Flexibility Score: inf
ROOT
ATOM      1  O   UNL A   1      34.672  31.677  28.785  1.00  0.00    -0.270 OA
ATOM      2  C   UNL A   1      33.792  32.096  28.035  1.00  0.00     0.244 C 
ATOM      3  N   UNL A   1      33.418  33.410  27.955  1.00  0.00    -0.352 N 
ATOM      4  H   UNL A   1      32.722  33.670  27.308  1.00  0.00     0.163 HD
ENDROOT
BRANCH   2   5
ATOM      5  C   UNL A   1      33.045  31.131  27.187  1.00  0.00     0.072 C 
ATOM      6  C   UNL A   1      33.181  29.796  27.196  1.00  0.00     0.014 C 
BRANCH   6   7
ATOM      7  C   UNL A   1      32.328  28.906  26.397  1.00  0.00    -0.022 A 
ATOM      8  C   UNL A   1      31.932  27.638  26.831  1.00  0.00     0.047 A 
ATOM      9  C   UNL A   1      31.887  29.358  25.145  1.00  0.00     0.014 A 
ATOM     10  C   UNL A   1      31.147  26.836  26.005  1.00  0.00     0.124 A 
ATOM     11  C   UNL A   1      31.112  28.543  24.301  1.00  0.00    -0.019 A 
ATOM     12  F   UNL A   1      30.783  25.619  26.428  1.00  0.00    -0.207 F 
ATOM     13  C   UNL A   1      30.744  27.269  24.746  1.00  0.00     0.045 A 
BRANCH  11  14
ATOM     14  C   UNL A   1      30.743  29.016  22.917  1.00  0.00     0.196 C 
BRANCH  14  15
ATOM     15  O   UNL A   1      29.579  28.405  22.367  1.00  0.00    -0.369 OA
BRANCH  15  16
ATOM     16  C   UNL A   1      28.313  28.973  22.718  1.00  0.00     0.235 C 
BRANCH  16  17
ATOM     17  C   UNL A   1      28.160  30.359  22.194  1.00  0.00     0.129 A 
ATOM     18  C   UNL A   1      28.130  31.622  22.753  1.00  0.00     0.048 A 
ATOM     19  O   UNL A   1      28.121  30.471  20.831  1.00  0.00    -0.467 OA
ATOM     20  C   UNL A   1      28.071  32.545  21.680  1.00  0.00     0.042 A 
ATOM     21  C   UNL A   1      28.066  31.793  20.532  1.00  0.00     0.195 A 
ENDBRANCH  16  17
ENDBRANCH  15  16
ENDBRANCH  14  15
ENDBRANCH  11  14
ENDBRANCH   6   7
ENDBRANCH   2   5
BRANCH   3  22
ATOM     22  C   UNL A   1      34.015  34.429  28.795  1.00  0.00     0.118 C 
BRANCH  22  23
ATOM     23  C   UNL A   1      33.313  35.781  28.702  1.00  0.00     0.042 C 
BRANCH  23  24
ATOM     24  C   UNL A   1      33.398  36.647  29.958  1.00  0.00     0.118 C 
BRANCH  24  25
ATOM     25  N   UNL A   1      32.387  36.327  30.955  1.00  0.00    -0.352 N 
ATOM     26  C   UNL A   1      32.453  35.562  32.093  1.00  0.00     0.251 C 
ATOM     27  H   UNL A   1      31.505  36.728  30.784  1.00  0.00     0.163 HD
ATOM     28  O   UNL A   1      31.420  35.364  32.731  1.00  0.00    -0.269 OA
BRANCH  26  29
ATOM     29  C   UNL A   1      33.720  34.948  32.554  1.00  0.00     0.039 A 
ATOM     30  C   UNL A   1      33.661  33.669  33.121  1.00  0.00     0.014 A 
ATOM     31  C   UNL A   1      34.945  35.614  32.487  1.00  0.00     0.014 A 
ATOM     32  C   UNL A   1      34.830  33.037  33.554  1.00  0.00     0.010 A 
ATOM     33  C   UNL A   1      36.122  34.960  32.863  1.00  0.00     0.010 A 
ATOM     34  C   UNL A   1      36.077  33.663  33.394  1.00  0.00    -0.014 A 
BRANCH  34  35
ATOM     35  C   UNL A   1      37.331  32.945  33.742  1.00  0.00     0.031 A 
ATOM     36  C   UNL A   1      37.923  31.916  32.820  1.00  0.00     0.074 A 
ATOM     37  C   UNL A   1      37.928  33.201  34.923  1.00  0.00     0.049 A 
ATOM     38  N   UNL A   1      39.004  31.194  32.973  1.00  0.00    -0.248 NA
ATOM     39  C   UNL A   1      37.196  31.650  31.568  1.00  0.00     0.031 C 
ATOM     40  C   UNL A   1      37.435  34.141  35.932  1.00  0.00     0.029 A 
ATOM     41  N   UNL A   1      39.082  32.698  35.474  1.00  0.00    -0.354 N 
ATOM     42  C   UNL A   1      39.085  30.385  31.847  1.00  0.00     0.074 A 
ATOM     43  C   UNL A   1      37.920  30.673  31.039  1.00  0.00     0.031 C 
ATOM     44  C   UNL A   1      38.297  34.175  36.960  1.00  0.00     0.029 A 
ATOM     45  C   UNL A   1      39.386  33.238  36.701  1.00  0.00     0.049 A 
ATOM     46  H   UNL A   1      39.637  32.017  35.032  1.00  0.00     0.167 HD
ATOM     47  C   UNL A   1      40.054  29.500  31.509  1.00  0.00     0.037 A 
ATOM     48  C   UNL A   1      40.426  33.011  37.524  1.00  0.00     0.037 A 
ATOM     49  C   UNL A   1      41.227  29.230  32.299  1.00  0.00     0.049 A 
ATOM     50  C   UNL A   1      41.490  32.030  37.121  1.00  0.00     0.074 A 
ATOM     51  C   UNL A   1      42.287  28.389  32.005  1.00  0.00     0.029 A 
ATOM     52  N   UNL A   1      41.497  29.793  33.537  1.00  0.00    -0.354 N 
ATOM     53  N   UNL A   1      41.578  31.312  36.029  1.00  0.00    -0.248 NA
ATOM     54  C   UNL A   1      42.602  31.833  38.063  1.00  0.00     0.031 C 
ATOM     55  C   UNL A   1      43.181  28.416  33.081  1.00  0.00     0.029 A 
ATOM     56  C   UNL A   1      42.697  29.304  34.027  1.00  0.00     0.049 A 
ATOM     57  H   UNL A   1      40.920  30.444  33.999  1.00  0.00     0.167 HD
ATOM     58  C   UNL A   1      42.756  30.586  36.147  1.00  0.00     0.074 A 
ATOM     59  C   UNL A   1      43.362  30.969  37.405  1.00  0.00     0.031 C 
ATOM     60  C   UNL A   1      43.286  29.682  35.287  1.00  0.00     0.037 A 
BRANCH  47  61
ATOM     61  C   UNL A   1      39.898  28.764  30.211  1.00  0.00     0.057 A 
ATOM     62  C   UNL A   1      39.228  27.535  30.159  1.00  0.00     0.134 A 
ATOM     63  C   UNL A   1      40.474  29.237  29.025  1.00  0.00     0.134 A 
ATOM     64  F   UNL A   1      38.660  27.022  31.261  1.00  0.00    -0.206 F 
ATOM     65  C   UNL A   1      39.142  26.800  28.975  1.00  0.00     0.040 A 
ATOM     66  C   UNL A   1      40.376  28.522  27.830  1.00  0.00     0.040 A 
ATOM     67  F   UNL A   1      41.122  30.411  29.006  1.00  0.00    -0.206 F 
ATOM     68  C   UNL A   1      39.715  27.296  27.805  1.00  0.00     0.006 A 
ENDBRANCH  47  61
BRANCH  48  69
ATOM     69  C   UNL A   1      40.529  33.761  38.799  1.00  0.00     0.057 A 
ATOM     70  C   UNL A   1      41.338  34.896  38.917  1.00  0.00     0.134 A 
ATOM     71  C   UNL A   1      39.831  33.341  39.937  1.00  0.00     0.134 A 
ATOM     72  F   UNL A   1      42.037  35.343  37.864  1.00  0.00    -0.206 F 
ATOM     73  C   UNL A   1      41.463  35.579  40.128  1.00  0.00     0.040 A 
ATOM     74  C   UNL A   1      39.929  34.026  41.148  1.00  0.00     0.040 A 
ATOM     75  F   UNL A   1      39.025  32.270  39.876  1.00  0.00    -0.206 F 
ATOM     76  C   UNL A   1      40.754  35.145  41.248  1.00  0.00     0.006 A 
ENDBRANCH  48  69
BRANCH  60  77
ATOM     77  C   UNL A   1      44.585  29.044  35.677  1.00  0.00     0.057 A 
ATOM     78  C   UNL A   1      44.609  27.888  36.467  1.00  0.00     0.134 A 
ATOM     79  C   UNL A   1      45.816  29.600  35.305  1.00  0.00     0.134 A 
ATOM     80  F   UNL A   1      43.465  27.310  36.863  1.00  0.00    -0.206 F 
ATOM     81  C   UNL A   1      45.811  27.308  36.876  1.00  0.00     0.040 A 
ATOM     82  C   UNL A   1      47.025  29.017  35.689  1.00  0.00     0.040 A 
ATOM     83  F   UNL A   1      45.862  30.701  34.540  1.00  0.00    -0.206 F 
ATOM     84  C   UNL A   1      47.024  27.872  36.483  1.00  0.00     0.006 A 
ENDBRANCH  60  77
ENDBRANCH  34  35
ENDBRANCH  26  29
ENDBRANCH  24  25
ENDBRANCH  23  24
ENDBRANCH  22  23
ENDBRANCH   3  22
TORSDOF 15
ENDMDL
MODEL 3
REMARK VINA RESULT:     -11.5      4.762      7.202
REMARK SMILES O=C(/C=C/c1cc(F)cc(COCc2ccco2)c1)NCCCNC(=O)c1ccc(-c2c3nc(c(-c4c(F)cccc4F)c4ccc([nH]4)c(-c4c(F)cccc4F)c4nc(c(-c5c(F)cccc5F)c5ccc2[nH]5)C=C4)C=C3)cc1
REMARK SMILES IDX 1 1 2 2 20 3 3 5 4 6 5 7 6 8 19 9 7 10 10 11 8 12 9 13 11 14
REMARK SMILES IDX 12 15 13 16 14 17 15 18 18 19 16 20 17 21 21 22 22 23 23 24
REMARK SMILES IDX 24 25 25 26 26 28 27 29 28 30 80 31 29 32 79 33 30 34 31 35
REMARK SMILES IDX 32 36 73 37 33 38 78 39 72 40 74 41 34 42 77 43 71 44 70 45
REMARK SMILES IDX 35 47 61 48 44 49 60 50 45 51 48 52 59 53 75 54 46 55 47 56
REMARK SMILES IDX 58 58 76 59 49 60 36 61 37 62 42 63 38 64 39 65 41 66 43 67
REMARK SMILES IDX 40 68 62 69 63 70 68 71 64 72 65 73 67 74 69 75 66 76 50 77
REMARK SMILES IDX 51 78 56 79 52 80 53 81 55 82 57 83 54 84
REMARK H PARENT 20 4 24 27 74 46 48 57
REMARK Flexibility Score: inf
ROOT
ATOM      1  O   UNL A   1      34.708  31.887  28.944  1.00  0.00    -0.270 OA
ATOM      2  C   UNL A   1      33.894  32.244  28.095  1.00  0.00     0.244 C 
ATOM      3  N   UNL A   1      33.573  33.551  27.847  1.00  0.00    -0.352 N 
ATOM      4  H   UNL A   1      32.930  33.757  27.130  1.00  0.00     0.163 HD
ENDROOT
BRANCH   2   5
ATOM      5  C   UNL A   1      33.168  31.213  27.310  1.00  0.00     0.072 C 
ATOM      6  C   UNL A   1      33.682  30.067  26.838  1.00  0.00     0.014 C 
BRANCH   6   7
ATOM      7  C   UNL A   1      32.866  29.051  26.158  1.00  0.00    -0.022 A 
ATOM      8  C   UNL A   1      32.514  27.835  26.750  1.00  0.00     0.047 A 
ATOM      9  C   UNL A   1      32.417  29.324  24.857  1.00  0.00     0.014 A 
ATOM     10  C   UNL A   1      31.763  26.907  26.032  1.00  0.00     0.124 A 
ATOM     11  C   UNL A   1      31.678  28.379  24.124  1.00  0.00    -0.019 A 
ATOM     12  F   UNL A   1      31.440  25.741  26.607  1.00  0.00    -0.207 F 
ATOM     13  C   UNL A   1      31.352  27.161  24.727  1.00  0.00     0.045 A 
BRANCH  11  14
ATOM     14  C   UNL A   1      31.300  28.658  22.690  1.00  0.00     0.196 C 
BRANCH  14  15
ATOM     15  O   UNL A   1      30.007  28.194  22.311  1.00  0.00    -0.369 OA
BRANCH  15  16
ATOM     16  C   UNL A   1      28.883  28.757  22.994  1.00  0.00     0.235 C 
BRANCH  16  17
ATOM     17  C   UNL A   1      28.525  30.102  22.463  1.00  0.00     0.129 A 
ATOM     18  C   UNL A   1      28.352  31.359  23.010  1.00  0.00     0.048 A 
ATOM     19  O   UNL A   1      28.415  30.187  21.102  1.00  0.00    -0.467 OA
ATOM     20  C   UNL A   1      28.126  32.249  21.932  1.00  0.00     0.042 A 
ATOM     21  C   UNL A   1      28.172  31.485  20.792  1.00  0.00     0.195 A 
ENDBRANCH  16  17
ENDBRANCH  15  16
ENDBRANCH  14  15
ENDBRANCH  11  14
ENDBRANCH   6   7
ENDBRANCH   2   5
BRANCH   3  22
ATOM     22  C   UNL A   1      34.153  34.640  28.608  1.00  0.00     0.118 C 
BRANCH  22  23
ATOM     23  C   UNL A   1      33.244  35.862  28.707  1.00  0.00     0.042 C 
BRANCH  23  24
ATOM     24  C   UNL A   1      33.383  36.675  29.993  1.00  0.00     0.118 C 
BRANCH  24  25
ATOM     25  N   UNL A   1      32.400  36.328  31.010  1.00  0.00    -0.352 N 
ATOM     26  C   UNL A   1      32.499  35.541  32.129  1.00  0.00     0.251 C 
ATOM     27  H   UNL A   1      31.511  36.728  30.870  1.00  0.00     0.163 HD
ATOM     28  O   UNL A   1      31.484  35.323  32.790  1.00  0.00    -0.269 OA
BRANCH  26  29
ATOM     29  C   UNL A   1      33.781  34.925  32.545  1.00  0.00     0.039 A 
ATOM     30  C   UNL A   1      33.743  33.637  33.093  1.00  0.00     0.014 A 
ATOM     31  C   UNL A   1      35.001  35.597  32.454  1.00  0.00     0.014 A 
ATOM     32  C   UNL A   1      34.926  33.003  33.483  1.00  0.00     0.010 A 
ATOM     33  C   UNL A   1      36.190  34.942  32.787  1.00  0.00     0.010 A 
ATOM     34  C   UNL A   1      36.165  33.636  33.298  1.00  0.00    -0.014 A 
BRANCH  34  35
ATOM     35  C   UNL A   1      37.431  32.918  33.600  1.00  0.00     0.031 A 
ATOM     36  C   UNL A   1      38.207  33.201  34.856  1.00  0.00     0.074 A 
ATOM     37  C   UNL A   1      37.906  32.022  32.713  1.00  0.00     0.049 A 
ATOM     38  N   UNL A   1      39.331  32.671  35.269  1.00  0.00    -0.248 NA
ATOM     39  C   UNL A   1      37.659  34.225  35.760  1.00  0.00     0.031 C 
ATOM     40  C   UNL A   1      37.278  31.687  31.433  1.00  0.00     0.029 A 
ATOM     41  N   UNL A   1      39.023  31.224  32.752  1.00  0.00    -0.354 N 
ATOM     42  C   UNL A   1      39.629  33.298  36.472  1.00  0.00     0.074 A 
ATOM     43  C   UNL A   1      38.590  34.280  36.701  1.00  0.00     0.031 C 
ATOM     44  C   UNL A   1      37.997  30.729  30.827  1.00  0.00     0.029 A 
ATOM     45  C   UNL A   1      39.153  30.404  31.657  1.00  0.00     0.049 A 
ATOM     46  H   UNL A   1      39.669  31.239  33.494  1.00  0.00     0.167 HD
ATOM     47  C   UNL A   1      40.660  33.061  37.317  1.00  0.00     0.037 A 
ATOM     48  C   UNL A   1      40.091  29.487  31.355  1.00  0.00     0.037 A 
ATOM     49  C   UNL A   1      41.681  32.068  37.104  1.00  0.00     0.049 A 
ATOM     50  C   UNL A   1      41.221  29.239  32.313  1.00  0.00     0.074 A 
ATOM     51  C   UNL A   1      42.733  31.723  37.936  1.00  0.00     0.029 A 
ATOM     52  N   UNL A   1      41.780  31.261  35.981  1.00  0.00    -0.354 N 
ATOM     53  N   UNL A   1      41.459  29.805  33.471  1.00  0.00    -0.248 NA
ATOM     54  C   UNL A   1      42.208  28.221  31.926  1.00  0.00     0.031 C 
ATOM     55  C   UNL A   1      43.489  30.732  37.301  1.00  0.00     0.029 A 
ATOM     56  C   UNL A   1      42.884  30.432  36.091  1.00  0.00     0.049 A 
ATOM     57  H   UNL A   1      41.157  31.275  35.219  1.00  0.00     0.167 HD
ATOM     58  C   UNL A   1      42.615  29.207  33.954  1.00  0.00     0.074 A 
ATOM     59  C   UNL A   1      43.017  28.218  32.976  1.00  0.00     0.031 C 
ATOM     60  C   UNL A   1      43.284  29.459  35.106  1.00  0.00     0.037 A 
BRANCH  47  61
ATOM     61  C   UNL A   1      40.733  33.883  38.571  1.00  0.00     0.057 A 
ATOM     62  C   UNL A   1      39.963  33.551  39.692  1.00  0.00     0.134 A 
ATOM     63  C   UNL A   1      41.514  35.044  38.643  1.00  0.00     0.134 A 
ATOM     64  F   UNL A   1      39.188  32.456  39.687  1.00  0.00    -0.206 F 
ATOM     65  C   UNL A   1      39.961  34.350  40.838  1.00  0.00     0.040 A 
ATOM     66  C   UNL A   1      41.537  35.838  39.790  1.00  0.00     0.040 A 
ATOM     67  F   UNL A   1      42.281  35.412  37.605  1.00  0.00    -0.206 F 
ATOM     68  C   UNL A   1      40.753  35.495  40.890  1.00  0.00     0.006 A 
ENDBRANCH  47  61
BRANCH  48  69
ATOM     69  C   UNL A   1      39.976  28.707  30.100  1.00  0.00     0.057 A 
ATOM     70  C   UNL A   1      39.260  27.506  30.047  1.00  0.00     0.134 A 
ATOM     71  C   UNL A   1      40.602  29.141  28.925  1.00  0.00     0.134 A 
ATOM     72  F   UNL A   1      38.645  27.035  31.141  1.00  0.00    -0.206 F 
ATOM     73  C   UNL A   1      39.185  26.754  28.874  1.00  0.00     0.040 A 
ATOM     74  C   UNL A   1      40.516  28.411  27.740  1.00  0.00     0.040 A 
ATOM     75  F   UNL A   1      41.285  30.296  28.912  1.00  0.00    -0.206 F 
ATOM     76  C   UNL A   1      39.812  27.209  27.714  1.00  0.00     0.006 A 
ENDBRANCH  48  69
BRANCH  60  77
ATOM     77  C   UNL A   1      44.519  28.652  35.373  1.00  0.00     0.057 A 
ATOM     78  C   UNL A   1      44.447  27.441  36.074  1.00  0.00     0.134 A 
ATOM     79  C   UNL A   1      45.786  29.095  34.974  1.00  0.00     0.134 A 
ATOM     80  F   UNL A   1      43.265  26.964  36.491  1.00  0.00    -0.206 F 
ATOM     81  C   UNL A   1      45.593  26.701  36.370  1.00  0.00     0.040 A 
ATOM     82  C   UNL A   1      46.937  28.353  35.245  1.00  0.00     0.040 A 
ATOM     83  F   UNL A   1      45.921  30.241  34.291  1.00  0.00    -0.206 F 
ATOM     84  C   UNL A   1      46.843  27.156  35.951  1.00  0.00     0.006 A 
ENDBRANCH  60  77
ENDBRANCH  34  35
ENDBRANCH  26  29
ENDBRANCH  24  25
ENDBRANCH  23  24
ENDBRANCH  22  23
ENDBRANCH   3  22
TORSDOF 15
ENDMDL
