MODEL 1
REMARK VINA RESULT:     -12.3      0.000      0.000
REMARK SMILES O=C(NCCCNC(=O)[C@H](CO)NC(=O)[C@H](Cc1c[nH]c2ccccc12)NC(=O)c1ccc(F)cc1)c1ccc(-c2c3nc(c(-c4c(F)cccc4F)c4ccc([nH]4)c(-c4c(F)cccc4F)c4nc(c(-c5c(F)cccc5F)c5ccc2[nH]5)C=C4)C=C3)cc1
REMARK SMILES IDX 6 1 5 2 4 3 3 4 1 5 2 6 37 8 38 9 90 10 39 11 89 12 40 13
REMARK SMILES IDX 41 14 42 15 83 16 43 17 88 18 82 19 84 20 44 21 87 22 81 23
REMARK SMILES IDX 80 24 45 26 71 27 54 28 70 29 55 30 58 31 69 32 85 33 56 34
REMARK SMILES IDX 57 35 68 37 86 38 59 39 46 40 47 41 52 42 48 43 49 44 51 45
REMARK SMILES IDX 53 46 50 47 72 48 73 49 78 50 74 51 75 52 77 53 79 54 76 55
REMARK SMILES IDX 60 56 61 57 66 58 62 59 63 60 65 61 67 62 64 63 7 64 8 65
REMARK SMILES IDX 9 67 10 68 13 69 14 70 15 72 16 73 27 74 28 75 29 77 30 78
REMARK SMILES IDX 31 79 36 80 32 81 35 82 33 83 34 84 17 85 18 86 19 87 26 88
REMARK SMILES IDX 20 89 21 90 25 91 22 93 24 94 23 95 11 96 12 97
REMARK H PARENT 3 7 84 25 58 36 7 66 13 71 27 76 20 92 12 98
REMARK Flexibility Score: inf
ROOT
ATOM      1  C   UNL A   1      36.229  20.689  24.979  1.00  0.00     0.117 C 
ENDROOT
BRANCH   1   2
ATOM      2  C   UNL A   1      37.364  19.675  24.973  1.00  0.00     0.042 C 
BRANCH   2   3
ATOM      3  C   UNL A   1      38.696  20.301  25.359  1.00  0.00     0.118 C 
BRANCH   3   4
ATOM      4  N   UNL A   1      39.692  19.288  25.670  1.00  0.00    -0.352 N 
ATOM      5  O   UNL A   1      41.774  18.502  26.021  1.00  0.00    -0.269 OA
ATOM      6  C   UNL A   1      40.991  19.454  26.075  1.00  0.00     0.251 C 
ATOM      7  H   UNL A   1      39.392  18.356  25.575  1.00  0.00     0.163 HD
BRANCH   6   8
ATOM      8  C   UNL A   1      41.458  20.766  26.570  1.00  0.00     0.039 A 
ATOM      9  C   UNL A   1      41.901  21.744  25.676  1.00  0.00     0.014 A 
ATOM     10  C   UNL A   1      41.411  21.043  27.939  1.00  0.00     0.014 A 
ATOM     11  C   UNL A   1      42.430  22.935  26.155  1.00  0.00     0.010 A 
ATOM     12  C   UNL A   1      41.834  22.289  28.410  1.00  0.00     0.010 A 
ATOM     13  C   UNL A   1      42.361  23.240  27.523  1.00  0.00    -0.014 A 
BRANCH  13  14
ATOM     14  C   UNL A   1      42.736  24.602  27.976  1.00  0.00     0.031 A 
ATOM     15  C   UNL A   1      41.700  25.648  28.262  1.00  0.00     0.074 A 
ATOM     16  C   UNL A   1      44.046  24.877  28.144  1.00  0.00     0.049 A 
ATOM     17  N   UNL A   1      41.871  26.884  28.656  1.00  0.00    -0.248 NA
ATOM     18  C   UNL A   1      40.292  25.266  28.078  1.00  0.00     0.031 C 
ATOM     19  C   UNL A   1      45.141  23.935  27.890  1.00  0.00     0.029 A 
ATOM     20  N   UNL A   1      44.681  26.009  28.584  1.00  0.00    -0.354 N 
ATOM     21  C   UNL A   1      40.600  27.433  28.753  1.00  0.00     0.074 A 
ATOM     22  C   UNL A   1      39.665  26.403  28.350  1.00  0.00     0.031 C 
ATOM     23  C   UNL A   1      46.303  24.507  28.231  1.00  0.00     0.029 A 
ATOM     24  C   UNL A   1      46.048  25.879  28.648  1.00  0.00     0.049 A 
ATOM     25  H   UNL A   1      44.204  26.835  28.830  1.00  0.00     0.167 HD
ATOM     26  C   UNL A   1      40.250  28.679  29.152  1.00  0.00     0.037 A 
ATOM     27  C   UNL A   1      46.998  26.771  28.982  1.00  0.00     0.037 A 
ATOM     28  C   UNL A   1      41.193  29.691  29.562  1.00  0.00     0.049 A 
ATOM     29  C   UNL A   1      46.584  28.158  29.375  1.00  0.00     0.074 A 
ATOM     30  C   UNL A   1      40.933  30.974  30.010  1.00  0.00     0.029 A 
ATOM     31  N   UNL A   1      42.571  29.536  29.569  1.00  0.00    -0.354 N 
ATOM     32  N   UNL A   1      45.376  28.655  29.483  1.00  0.00    -0.248 NA
ATOM     33  C   UNL A   1      47.659  29.108  29.684  1.00  0.00     0.031 C 
ATOM     34  C   UNL A   1      42.155  31.614  30.234  1.00  0.00     0.029 A 
ATOM     35  C   UNL A   1      43.176  30.710  29.987  1.00  0.00     0.049 A 
ATOM     36  H   UNL A   1      43.049  28.714  29.315  1.00  0.00     0.167 HD
ATOM     37  C   UNL A   1      45.542  29.971  29.886  1.00  0.00     0.074 A 
ATOM     38  C   UNL A   1      46.969  30.189  30.022  1.00  0.00     0.031 C 
ATOM     39  C   UNL A   1      44.597  30.913  30.119  1.00  0.00     0.037 A 
BRANCH  26  40
ATOM     40  C   UNL A   1      38.792  29.036  29.161  1.00  0.00     0.057 A 
ATOM     41  C   UNL A   1      38.183  29.579  28.021  1.00  0.00     0.134 A 
ATOM     42  C   UNL A   1      38.010  28.928  30.318  1.00  0.00     0.134 A 
ATOM     43  F   UNL A   1      38.876  29.719  26.881  1.00  0.00    -0.206 F 
ATOM     44  C   UNL A   1      36.858  30.018  28.037  1.00  0.00     0.040 A 
ATOM     45  C   UNL A   1      36.675  29.339  30.339  1.00  0.00     0.040 A 
ATOM     46  F   UNL A   1      38.526  28.408  31.441  1.00  0.00    -0.206 F 
ATOM     47  C   UNL A   1      36.099  29.897  29.198  1.00  0.00     0.006 A 
ENDBRANCH  26  40
BRANCH  27  48
ATOM     48  C   UNL A   1      48.425  26.364  28.952  1.00  0.00     0.057 A 
ATOM     49  C   UNL A   1      49.194  26.486  27.786  1.00  0.00     0.134 A 
ATOM     50  C   UNL A   1      49.039  25.795  30.072  1.00  0.00     0.134 A 
ATOM     51  F   UNL A   1      48.660  27.014  26.674  1.00  0.00    -0.206 F 
ATOM     52  C   UNL A   1      50.512  26.033  27.728  1.00  0.00     0.040 A 
ATOM     53  C   UNL A   1      50.366  25.364  30.036  1.00  0.00     0.040 A 
ATOM     54  F   UNL A   1      48.359  25.664  31.220  1.00  0.00    -0.206 F 
ATOM     55  C   UNL A   1      51.103  25.472  28.858  1.00  0.00     0.006 A 
ENDBRANCH  27  48
BRANCH  39  56
ATOM     56  C   UNL A   1      45.066  32.266  30.568  1.00  0.00     0.057 A 
ATOM     57  C   UNL A   1      45.214  32.552  31.931  1.00  0.00     0.134 A 
ATOM     58  C   UNL A   1      45.295  33.305  29.659  1.00  0.00     0.134 A 
ATOM     59  F   UNL A   1      45.000  31.603  32.854  1.00  0.00    -0.206 F 
ATOM     60  C   UNL A   1      45.556  33.829  32.376  1.00  0.00     0.040 A 
ATOM     61  C   UNL A   1      45.667  34.580  30.089  1.00  0.00     0.040 A 
ATOM     62  F   UNL A   1      45.183  33.092  28.339  1.00  0.00    -0.206 F 
ATOM     63  C   UNL A   1      45.786  34.848  31.453  1.00  0.00     0.006 A 
ENDBRANCH  39  56
ENDBRANCH  13  14
ENDBRANCH   6   8
ENDBRANCH   3   4
ENDBRANCH   2   3
ENDBRANCH   1   2
BRANCH   1  64
ATOM     64  N   UNL A   1      34.960  20.000  24.890  1.00  0.00    -0.354 N 
ATOM     65  C   UNL A   1      33.791  20.257  25.539  1.00  0.00     0.244 C 
ATOM     66  H   UNL A   1      34.938  19.235  24.271  1.00  0.00     0.163 HD
ATOM     67  O   UNL A   1      33.042  19.281  25.670  1.00  0.00    -0.273 OA
BRANCH  65  68
ATOM     68  C   UNL A   1      33.307  21.698  25.874  1.00  0.00     0.197 C 
BRANCH  68  69
ATOM     69  N   UNL A   1      31.880  21.606  26.165  1.00  0.00    -0.340 N 
ATOM     70  C   UNL A   1      30.889  22.516  25.970  1.00  0.00     0.243 C 
ATOM     71  H   UNL A   1      31.591  20.753  26.564  1.00  0.00     0.164 HD
ATOM     72  O   UNL A   1      29.772  22.125  26.319  1.00  0.00    -0.273 OA
BRANCH  70  73
ATOM     73  C   UNL A   1      31.167  23.924  25.339  1.00  0.00     0.176 C 
BRANCH  73  74
ATOM     74  N   UNL A   1      30.062  24.431  24.493  1.00  0.00    -0.340 N 
ATOM     75  C   UNL A   1      29.903  25.604  23.788  1.00  0.00     0.251 C 
ATOM     76  H   UNL A   1      29.297  23.814  24.422  1.00  0.00     0.164 HD
ATOM     77  O   UNL A   1      28.772  26.051  23.606  1.00  0.00    -0.269 OA
BRANCH  75  78
ATOM     78  C   UNL A   1      31.041  26.319  23.150  1.00  0.00     0.040 A 
ATOM     79  C   UNL A   1      31.205  27.686  23.353  1.00  0.00     0.017 A 
ATOM     80  C   UNL A   1      32.084  25.617  22.535  1.00  0.00     0.017 A 
ATOM     81  C   UNL A   1      32.301  28.388  22.856  1.00  0.00     0.040 A 
ATOM     82  C   UNL A   1      33.214  26.305  22.061  1.00  0.00     0.040 A 
ATOM     83  C   UNL A   1      33.300  27.686  22.206  1.00  0.00     0.123 A 
ATOM     84  F   UNL A   1      34.376  28.343  21.757  1.00  0.00    -0.207 F 
ENDBRANCH  75  78
ENDBRANCH  73  74
BRANCH  73  85
ATOM     85  C   UNL A   1      31.507  24.932  26.471  1.00  0.00     0.072 C 
BRANCH  85  86
ATOM     86  C   UNL A   1      32.604  25.951  26.241  1.00  0.00    -0.020 A 
ATOM     87  C   UNL A   1      33.846  25.785  25.656  1.00  0.00     0.087 A 
ATOM     88  C   UNL A   1      32.509  27.350  26.565  1.00  0.00     0.003 A 
ATOM     89  N   UNL A   1      34.485  26.992  25.609  1.00  0.00    -0.361 N 
ATOM     90  C   UNL A   1      33.699  27.964  26.174  1.00  0.00     0.046 A 
ATOM     91  C   UNL A   1      31.509  28.154  27.152  1.00  0.00     0.010 A 
ATOM     92  H   UNL A   1      35.378  27.142  25.225  1.00  0.00     0.166 HD
ATOM     93  C   UNL A   1      33.952  29.328  26.353  1.00  0.00     0.026 A 
ATOM     94  C   UNL A   1      31.745  29.522  27.342  1.00  0.00     0.001 A 
ATOM     95  C   UNL A   1      32.953  30.096  26.953  1.00  0.00     0.002 A 
ENDBRANCH  85  86
ENDBRANCH  73  85
ENDBRANCH  70  73
ENDBRANCH  68  69
BRANCH  68  96
ATOM     96  C   UNL A   1      33.994  22.534  26.953  1.00  0.00     0.191 C 
BRANCH  96  97
ATOM     97  O   UNL A   1      34.743  21.769  27.878  1.00  0.00    -0.394 OA
ATOM     98  H   UNL A   1      35.141  21.010  27.424  1.00  0.00     0.210 HD
ENDBRANCH  96  97
ENDBRANCH  68  96
ENDBRANCH  65  68
ENDBRANCH   1  64
TORSDOF 18
ENDMDL
MODEL 2
REMARK VINA RESULT:     -12.2      1.165      2.141
REMARK SMILES O=C(NCCCNC(=O)[C@H](CO)NC(=O)[C@H](Cc1c[nH]c2ccccc12)NC(=O)c1ccc(F)cc1)c1ccc(-c2c3nc(c(-c4c(F)cccc4F)c4ccc([nH]4)c(-c4c(F)cccc4F)c4nc(c(-c5c(F)cccc5F)c5ccc2[nH]5)C=C4)C=C3)cc1
REMARK SMILES IDX 6 1 5 2 4 3 3 4 1 5 2 6 37 8 38 9 90 10 39 11 89 12 40 13
REMARK SMILES IDX 41 14 42 15 83 16 43 17 88 18 82 19 84 20 44 21 87 22 81 23
REMARK SMILES IDX 80 24 45 26 71 27 54 28 70 29 55 30 58 31 69 32 85 33 56 34
REMARK SMILES IDX 57 35 68 37 86 38 59 39 46 40 47 41 52 42 48 43 49 44 51 45
REMARK SMILES IDX 53 46 50 47 72 48 73 49 78 50 74 51 75 52 77 53 79 54 76 55
REMARK SMILES IDX 60 56 61 57 66 58 62 59 63 60 65 61 67 62 64 63 7 64 8 65
REMARK SMILES IDX 9 67 10 68 13 69 14 70 15 72 16 73 27 74 28 75 29 77 30 78
REMARK SMILES IDX 31 79 36 80 32 81 35 82 33 83 34 84 17 85 18 86 19 87 26 88
REMARK SMILES IDX 20 89 21 90 25 91 22 93 24 94 23 95 11 96 12 97
REMARK H PARENT 3 7 84 25 58 36 7 66 13 71 27 76 20 92 12 98
REMARK Flexibility Score: inf
ROOT
ATOM      1  C   UNL A   1      36.224  20.711  24.668  1.00  0.00     0.117 C 
ENDROOT
BRANCH   1   2
ATOM      2  C   UNL A   1      37.311  19.690  24.971  1.00  0.00     0.042 C 
BRANCH   2   3
ATOM      3  C   UNL A   1      38.578  20.342  25.506  1.00  0.00     0.118 C 
BRANCH   3   4
ATOM      4  N   UNL A   1      39.643  19.369  25.690  1.00  0.00    -0.352 N 
ATOM      5  O   UNL A   1      41.780  18.680  25.866  1.00  0.00    -0.269 OA
ATOM      6  C   UNL A   1      40.953  19.581  26.029  1.00  0.00     0.251 C 
ATOM      7  H   UNL A   1      39.386  18.429  25.552  1.00  0.00     0.163 HD
BRANCH   6   8
ATOM      8  C   UNL A   1      41.382  20.883  26.581  1.00  0.00     0.039 A 
ATOM      9  C   UNL A   1      41.853  21.892  25.737  1.00  0.00     0.014 A 
ATOM     10  C   UNL A   1      41.269  21.121  27.954  1.00  0.00     0.014 A 
ATOM     11  C   UNL A   1      42.345  23.074  26.273  1.00  0.00     0.010 A 
ATOM     12  C   UNL A   1      41.655  22.358  28.479  1.00  0.00     0.010 A 
ATOM     13  C   UNL A   1      42.209  23.339  27.644  1.00  0.00    -0.014 A 
BRANCH  13  14
ATOM     14  C   UNL A   1      42.547  24.692  28.152  1.00  0.00     0.031 A 
ATOM     15  C   UNL A   1      41.495  25.741  28.351  1.00  0.00     0.074 A 
ATOM     16  C   UNL A   1      43.836  24.954  28.452  1.00  0.00     0.049 A 
ATOM     17  N   UNL A   1      41.634  26.971  28.778  1.00  0.00    -0.248 NA
ATOM     18  C   UNL A   1      40.109  25.373  28.023  1.00  0.00     0.031 C 
ATOM     19  C   UNL A   1      44.945  24.008  28.293  1.00  0.00     0.029 A 
ATOM     20  N   UNL A   1      44.432  26.075  28.969  1.00  0.00    -0.354 N 
ATOM     21  C   UNL A   1      40.362  27.527  28.758  1.00  0.00     0.074 A 
ATOM     22  C   UNL A   1      39.465  26.511  28.250  1.00  0.00     0.031 C 
ATOM     23  C   UNL A   1      46.071  24.566  28.754  1.00  0.00     0.029 A 
ATOM     24  C   UNL A   1      45.785  25.933  29.165  1.00  0.00     0.049 A 
ATOM     25  H   UNL A   1      43.938  26.900  29.179  1.00  0.00     0.167 HD
ATOM     26  C   UNL A   1      39.983  28.771  29.140  1.00  0.00     0.037 A 
ATOM     27  C   UNL A   1      46.703  26.813  29.604  1.00  0.00     0.037 A 
ATOM     28  C   UNL A   1      40.888  29.769  29.654  1.00  0.00     0.049 A 
ATOM     29  C   UNL A   1      46.261  28.197  29.975  1.00  0.00     0.074 A 
ATOM     30  C   UNL A   1      40.593  31.047  30.094  1.00  0.00     0.029 A 
ATOM     31  N   UNL A   1      42.257  29.603  29.795  1.00  0.00    -0.354 N 
ATOM     32  N   UNL A   1      45.052  28.702  29.971  1.00  0.00    -0.248 NA
ATOM     33  C   UNL A   1      47.307  29.135  30.402  1.00  0.00     0.031 C 
ATOM     34  C   UNL A   1      41.791  31.675  30.447  1.00  0.00     0.029 A 
ATOM     35  C   UNL A   1      42.826  30.767  30.287  1.00  0.00     0.049 A 
ATOM     36  H   UNL A   1      42.753  28.781  29.577  1.00  0.00     0.167 HD
ATOM     37  C   UNL A   1      45.186  30.011  30.409  1.00  0.00     0.074 A 
ATOM     38  C   UNL A   1      46.594  30.216  30.687  1.00  0.00     0.031 C 
ATOM     39  C   UNL A   1      44.228  30.957  30.562  1.00  0.00     0.037 A 
BRANCH  26  40
ATOM     40  C   UNL A   1      38.533  29.138  29.011  1.00  0.00     0.057 A 
ATOM     41  C   UNL A   1      38.031  29.650  27.805  1.00  0.00     0.134 A 
ATOM     42  C   UNL A   1      37.653  29.073  30.098  1.00  0.00     0.134 A 
ATOM     43  F   UNL A   1      38.822  29.749  26.726  1.00  0.00    -0.206 F 
ATOM     44  C   UNL A   1      36.715  30.099  27.693  1.00  0.00     0.040 A 
ATOM     45  C   UNL A   1      36.325  29.494  29.990  1.00  0.00     0.040 A 
ATOM     46  F   UNL A   1      38.064  28.584  31.277  1.00  0.00    -0.206 F 
ATOM     47  C   UNL A   1      35.857  30.020  28.787  1.00  0.00     0.006 A 
ENDBRANCH  26  40
BRANCH  27  48
ATOM     48  C   UNL A   1      48.124  26.396  29.708  1.00  0.00     0.057 A 
ATOM     49  C   UNL A   1      49.012  26.555  28.635  1.00  0.00     0.134 A 
ATOM     50  C   UNL A   1      48.615  25.780  30.864  1.00  0.00     0.134 A 
ATOM     51  F   UNL A   1      48.600  27.128  27.493  1.00  0.00    -0.206 F 
ATOM     52  C   UNL A   1      50.326  26.092  28.698  1.00  0.00     0.040 A 
ATOM     53  C   UNL A   1      49.936  25.340  30.951  1.00  0.00     0.040 A 
ATOM     54  F   UNL A   1      47.817  25.612  31.928  1.00  0.00    -0.206 F 
ATOM     55  C   UNL A   1      50.793  25.485  29.861  1.00  0.00     0.006 A 
ENDBRANCH  27  48
BRANCH  39  56
ATOM     56  C   UNL A   1      44.659  32.300  31.074  1.00  0.00     0.057 A 
ATOM     57  C   UNL A   1      44.634  32.579  32.446  1.00  0.00     0.134 A 
ATOM     58  C   UNL A   1      45.023  33.337  30.208  1.00  0.00     0.134 A 
ATOM     59  F   UNL A   1      44.286  31.631  33.329  1.00  0.00    -0.206 F 
ATOM     60  C   UNL A   1      44.939  33.849  32.939  1.00  0.00     0.040 A 
ATOM     61  C   UNL A   1      45.358  34.604  30.689  1.00  0.00     0.040 A 
ATOM     62  F   UNL A   1      45.079  33.130  28.884  1.00  0.00    -0.206 F 
ATOM     63  C   UNL A   1      45.305  34.865  32.058  1.00  0.00     0.006 A 
ENDBRANCH  39  56
ENDBRANCH  13  14
ENDBRANCH   6   8
ENDBRANCH   3   4
ENDBRANCH   2   3
ENDBRANCH   1   2
BRANCH   1  64
ATOM     64  N   UNL A   1      34.940  20.048  24.597  1.00  0.00    -0.354 N 
ATOM     65  C   UNL A   1      33.896  20.091  25.470  1.00  0.00     0.244 C 
ATOM     66  H   UNL A   1      34.801  19.483  23.803  1.00  0.00     0.163 HD
ATOM     67  O   UNL A   1      33.154  19.101  25.445  1.00  0.00    -0.273 OA
BRANCH  65  68
ATOM     68  C   UNL A   1      33.508  21.373  26.263  1.00  0.00     0.197 C 
BRANCH  68  69
ATOM     69  N   UNL A   1      32.050  21.428  26.287  1.00  0.00    -0.340 N 
ATOM     70  C   UNL A   1      31.208  22.426  25.907  1.00  0.00     0.243 C 
ATOM     71  H   UNL A   1      31.608  20.617  26.630  1.00  0.00     0.164 HD
ATOM     72  O   UNL A   1      30.013  22.156  26.046  1.00  0.00    -0.273 OA
BRANCH  70  73
ATOM     73  C   UNL A   1      31.737  23.786  25.332  1.00  0.00     0.176 C 
BRANCH  73  74
ATOM     74  N   UNL A   1      33.116  24.120  25.757  1.00  0.00    -0.340 N 
ATOM     75  C   UNL A   1      33.853  25.281  25.669  1.00  0.00     0.251 C 
ATOM     76  H   UNL A   1      33.596  23.373  26.181  1.00  0.00     0.164 HD
ATOM     77  O   UNL A   1      35.077  25.215  25.583  1.00  0.00    -0.269 OA
BRANCH  75  78
ATOM     78  C   UNL A   1      33.237  26.633  25.763  1.00  0.00     0.040 A 
ATOM     79  C   UNL A   1      33.613  27.632  24.870  1.00  0.00     0.017 A 
ATOM     80  C   UNL A   1      32.124  26.867  26.578  1.00  0.00     0.017 A 
ATOM     81  C   UNL A   1      33.007  28.886  24.854  1.00  0.00     0.040 A 
ATOM     82  C   UNL A   1      31.477  28.113  26.547  1.00  0.00     0.040 A 
ATOM     83  C   UNL A   1      31.939  29.118  25.703  1.00  0.00     0.123 A 
ATOM     84  F   UNL A   1      31.322  30.305  25.671  1.00  0.00    -0.207 F 
ENDBRANCH  75  78
ENDBRANCH  73  74
BRANCH  73  85
ATOM     85  C   UNL A   1      31.622  23.764  23.784  1.00  0.00     0.072 C 
BRANCH  85  86
ATOM     86  C   UNL A   1      31.656  25.074  23.026  1.00  0.00    -0.020 A 
ATOM     87  C   UNL A   1      32.536  25.498  22.047  1.00  0.00     0.087 A 
ATOM     88  C   UNL A   1      30.692  26.135  23.170  1.00  0.00     0.003 A 
ATOM     89  N   UNL A   1      32.152  26.732  21.602  1.00  0.00    -0.361 N 
ATOM     90  C   UNL A   1      31.039  27.154  22.283  1.00  0.00     0.046 A 
ATOM     91  C   UNL A   1      29.547  26.315  23.974  1.00  0.00     0.010 A 
ATOM     92  H   UNL A   1      32.608  27.243  20.895  1.00  0.00     0.166 HD
ATOM     93  C   UNL A   1      30.318  28.347  22.169  1.00  0.00     0.026 A 
ATOM     94  C   UNL A   1      28.814  27.504  23.875  1.00  0.00     0.001 A 
ATOM     95  C   UNL A   1      29.200  28.507  22.989  1.00  0.00     0.002 A 
ENDBRANCH  85  86
ENDBRANCH  73  85
ENDBRANCH  70  73
ENDBRANCH  68  69
BRANCH  68  96
ATOM     96  C   UNL A   1      34.050  21.630  27.668  1.00  0.00     0.191 C 
BRANCH  96  97
ATOM     97  O   UNL A   1      34.835  22.804  27.772  1.00  0.00    -0.394 OA
ATOM     98  H   UNL A   1      35.485  22.824  27.052  1.00  0.00     0.210 HD
ENDBRANCH  96  97
ENDBRANCH  68  96
ENDBRANCH  65  68
ENDBRANCH   1  64
TORSDOF 18
ENDMDL
MODEL 3
REMARK VINA RESULT:     -12.2      1.309      6.235
REMARK SMILES O=C(NCCCNC(=O)[C@H](CO)NC(=O)[C@H](Cc1c[nH]c2ccccc12)NC(=O)c1ccc(F)cc1)c1ccc(-c2c3nc(c(-c4c(F)cccc4F)c4ccc([nH]4)c(-c4c(F)cccc4F)c4nc(c(-c5c(F)cccc5F)c5ccc2[nH]5)C=C4)C=C3)cc1
REMARK SMILES IDX 6 1 5 2 4 3 3 4 1 5 2 6 37 8 38 9 90 10 39 11 89 12 40 13
REMARK SMILES IDX 41 14 42 15 83 16 43 17 88 18 82 19 84 20 44 21 87 22 81 23
REMARK SMILES IDX 80 24 45 26 71 27 54 28 70 29 55 30 58 31 69 32 85 33 56 34
REMARK SMILES IDX 57 35 68 37 86 38 59 39 46 40 47 41 52 42 48 43 49 44 51 45
REMARK SMILES IDX 53 46 50 47 72 48 73 49 78 50 74 51 75 52 77 53 79 54 76 55
REMARK SMILES IDX 60 56 61 57 66 58 62 59 63 60 65 61 67 62 64 63 7 64 8 65
REMARK SMILES IDX 9 67 10 68 13 69 14 70 15 72 16 73 27 74 28 75 29 77 30 78
REMARK SMILES IDX 31 79 36 80 32 81 35 82 33 83 34 84 17 85 18 86 19 87 26 88
REMARK SMILES IDX 20 89 21 90 25 91 22 93 24 94 23 95 11 96 12 97
REMARK H PARENT 3 7 84 25 58 36 7 66 13 71 27 76 20 92 12 98
REMARK Flexibility Score: inf
ROOT
ATOM      1  C   UNL A   1      36.376  20.624  24.997  1.00  0.00     0.117 C 
ENDROOT
BRANCH   1   2
ATOM      2  C   UNL A   1      37.505  19.602  24.991  1.00  0.00     0.042 C 
BRANCH   2   3
ATOM      3  C   UNL A   1      38.831  20.210  25.423  1.00  0.00     0.118 C 
BRANCH   3   4
ATOM      4  N   UNL A   1      39.812  19.184  25.738  1.00  0.00    -0.352 N 
ATOM      5  O   UNL A   1      41.885  18.350  26.024  1.00  0.00    -0.269 OA
ATOM      6  C   UNL A   1      41.135  19.328  26.066  1.00  0.00     0.251 C 
ATOM      7  H   UNL A   1      39.480  18.258  25.712  1.00  0.00     0.163 HD
BRANCH   6   8
ATOM      8  C   UNL A   1      41.667  20.649  26.461  1.00  0.00     0.039 A 
ATOM      9  C   UNL A   1      41.981  21.606  25.493  1.00  0.00     0.014 A 
ATOM     10  C   UNL A   1      41.812  20.956  27.816  1.00  0.00     0.014 A 
ATOM     11  C   UNL A   1      42.573  22.805  25.866  1.00  0.00     0.010 A 
ATOM     12  C   UNL A   1      42.298  22.211  28.196  1.00  0.00     0.010 A 
ATOM     13  C   UNL A   1      42.695  23.140  27.224  1.00  0.00    -0.014 A 
BRANCH  13  14
ATOM     14  C   UNL A   1      43.131  24.511  27.589  1.00  0.00     0.031 A 
ATOM     15  C   UNL A   1      44.572  24.920  27.521  1.00  0.00     0.074 A 
ATOM     16  C   UNL A   1      42.188  25.397  27.969  1.00  0.00     0.049 A 
ATOM     17  N   UNL A   1      45.110  26.076  27.816  1.00  0.00    -0.248 NA
ATOM     18  C   UNL A   1      45.539  23.905  27.075  1.00  0.00     0.031 C 
ATOM     19  C   UNL A   1      40.755  25.105  28.076  1.00  0.00     0.029 A 
ATOM     20  N   UNL A   1      42.281  26.719  28.318  1.00  0.00    -0.354 N 
ATOM     21  C   UNL A   1      46.474  25.927  27.606  1.00  0.00     0.074 A 
ATOM     22  C   UNL A   1      46.688  24.559  27.184  1.00  0.00     0.031 C 
ATOM     23  C   UNL A   1      40.100  26.225  28.406  1.00  0.00     0.029 A 
ATOM     24  C   UNL A   1      41.068  27.293  28.615  1.00  0.00     0.049 A 
ATOM     25  H   UNL A   1      43.134  27.210  28.351  1.00  0.00     0.167 HD
ATOM     26  C   UNL A   1      47.452  26.855  27.744  1.00  0.00     0.037 A 
ATOM     27  C   UNL A   1      40.765  28.535  29.035  1.00  0.00     0.037 A 
ATOM     28  C   UNL A   1      47.221  28.217  28.154  1.00  0.00     0.049 A 
ATOM     29  C   UNL A   1      41.874  29.526  29.224  1.00  0.00     0.074 A 
ATOM     30  C   UNL A   1      48.145  29.238  28.295  1.00  0.00     0.029 A 
ATOM     31  N   UNL A   1      45.985  28.748  28.491  1.00  0.00    -0.354 N 
ATOM     32  N   UNL A   1      43.157  29.376  29.000  1.00  0.00    -0.248 NA
ATOM     33  C   UNL A   1      41.499  30.852  29.729  1.00  0.00     0.031 C 
ATOM     34  C   UNL A   1      47.476  30.369  28.771  1.00  0.00     0.029 A 
ATOM     35  C   UNL A   1      46.126  30.073  28.868  1.00  0.00     0.049 A 
ATOM     36  H   UNL A   1      45.133  28.255  28.467  1.00  0.00     0.167 HD
ATOM     37  C   UNL A   1      43.743  30.591  29.322  1.00  0.00     0.074 A 
ATOM     38  C   UNL A   1      42.671  31.474  29.739  1.00  0.00     0.031 C 
ATOM     39  C   UNL A   1      45.051  30.941  29.279  1.00  0.00     0.037 A 
BRANCH  26  40
ATOM     40  C   UNL A   1      48.866  26.437  27.462  1.00  0.00     0.057 A 
ATOM     41  C   UNL A   1      49.375  26.474  26.155  1.00  0.00     0.134 A 
ATOM     42  C   UNL A   1      49.697  25.915  28.461  1.00  0.00     0.134 A 
ATOM     43  F   UNL A   1      48.630  26.954  25.148  1.00  0.00    -0.206 F 
ATOM     44  C   UNL A   1      50.648  25.991  25.851  1.00  0.00     0.040 A 
ATOM     45  C   UNL A   1      50.984  25.452  28.173  1.00  0.00     0.040 A 
ATOM     46  F   UNL A   1      49.278  25.859  29.733  1.00  0.00    -0.206 F 
ATOM     47  C   UNL A   1      51.458  25.480  26.862  1.00  0.00     0.006 A 
ENDBRANCH  26  40
BRANCH  27  48
ATOM     48  C   UNL A   1      39.349  28.891  29.302  1.00  0.00     0.057 A 
ATOM     49  C   UNL A   1      38.768  28.681  30.560  1.00  0.00     0.134 A 
ATOM     50  C   UNL A   1      38.528  29.401  28.291  1.00  0.00     0.134 A 
ATOM     51  F   UNL A   1      39.499  28.183  31.570  1.00  0.00    -0.206 F 
ATOM     52  C   UNL A   1      37.418  28.938  30.795  1.00  0.00     0.040 A 
ATOM     53  C   UNL A   1      37.183  29.691  28.521  1.00  0.00     0.040 A 
ATOM     54  F   UNL A   1      39.029  29.635  27.070  1.00  0.00    -0.206 F 
ATOM     55  C   UNL A   1      36.621  29.450  29.773  1.00  0.00     0.006 A 
ENDBRANCH  27  48
BRANCH  39  56
ATOM     56  C   UNL A   1      45.404  32.345  29.671  1.00  0.00     0.057 A 
ATOM     57  C   UNL A   1      45.680  32.663  31.006  1.00  0.00     0.134 A 
ATOM     58  C   UNL A   1      45.395  33.394  28.743  1.00  0.00     0.134 A 
ATOM     59  F   UNL A   1      45.695  31.706  31.946  1.00  0.00    -0.206 F 
ATOM     60  C   UNL A   1      45.918  33.978  31.410  1.00  0.00     0.040 A 
ATOM     61  C   UNL A   1      45.659  34.709  29.129  1.00  0.00     0.040 A 
ATOM     62  F   UNL A   1      45.151  33.153  27.446  1.00  0.00    -0.206 F 
ATOM     63  C   UNL A   1      45.910  35.005  30.469  1.00  0.00     0.006 A 
ENDBRANCH  39  56
ENDBRANCH  13  14
ENDBRANCH   6   8
ENDBRANCH   3   4
ENDBRANCH   2   3
ENDBRANCH   1   2
BRANCH   1  64
ATOM     64  N   UNL A   1      35.106  19.946  24.855  1.00  0.00    -0.354 N 
ATOM     65  C   UNL A   1      33.983  20.047  25.617  1.00  0.00     0.244 C 
ATOM     66  H   UNL A   1      35.045  19.320  24.097  1.00  0.00     0.163 HD
ATOM     67  O   UNL A   1      33.248  19.052  25.599  1.00  0.00    -0.273 OA
BRANCH  65  68
ATOM     68  C   UNL A   1      33.519  21.384  26.268  1.00  0.00     0.197 C 
BRANCH  68  69
ATOM     69  N   UNL A   1      32.060  21.382  26.238  1.00  0.00    -0.340 N 
ATOM     70  C   UNL A   1      31.194  22.351  25.838  1.00  0.00     0.243 C 
ATOM     71  H   UNL A   1      31.639  20.551  26.557  1.00  0.00     0.164 HD
ATOM     72  O   UNL A   1      30.006  22.033  25.930  1.00  0.00    -0.273 OA
BRANCH  70  73
ATOM     73  C   UNL A   1      31.691  23.736  25.296  1.00  0.00     0.176 C 
BRANCH  73  74
ATOM     74  N   UNL A   1      33.072  24.079  25.704  1.00  0.00    -0.340 N 
ATOM     75  C   UNL A   1      33.794  25.251  25.625  1.00  0.00     0.251 C 
ATOM     76  H   UNL A   1      33.568  23.330  26.106  1.00  0.00     0.164 HD
ATOM     77  O   UNL A   1      35.017  25.200  25.517  1.00  0.00    -0.269 OA
BRANCH  75  78
ATOM     78  C   UNL A   1      33.164  26.593  25.754  1.00  0.00     0.040 A 
ATOM     79  C   UNL A   1      33.557  27.629  24.912  1.00  0.00     0.017 A 
ATOM     80  C   UNL A   1      32.027  26.786  26.546  1.00  0.00     0.017 A 
ATOM     81  C   UNL A   1      32.940  28.878  24.928  1.00  0.00     0.040 A 
ATOM     82  C   UNL A   1      31.370  28.027  26.545  1.00  0.00     0.040 A 
ATOM     83  C   UNL A   1      31.846  29.068  25.754  1.00  0.00     0.123 A 
ATOM     84  F   UNL A   1      31.221  30.251  25.751  1.00  0.00    -0.207 F 
ENDBRANCH  75  78
ENDBRANCH  73  74
BRANCH  73  85
ATOM     85  C   UNL A   1      31.545  23.761  23.750  1.00  0.00     0.072 C 
BRANCH  85  86
ATOM     86  C   UNL A   1      31.605  25.091  23.028  1.00  0.00    -0.020 A 
ATOM     87  C   UNL A   1      32.524  25.543  22.099  1.00  0.00     0.087 A 
ATOM     88  C   UNL A   1      30.632  26.144  23.158  1.00  0.00     0.003 A 
ATOM     89  N   UNL A   1      32.154  26.786  21.670  1.00  0.00    -0.361 N 
ATOM     90  C   UNL A   1      31.011  27.187  22.313  1.00  0.00     0.046 A 
ATOM     91  C   UNL A   1      29.453  26.300  23.916  1.00  0.00     0.010 A 
ATOM     92  H   UNL A   1      32.637  27.317  20.996  1.00  0.00     0.166 HD
ATOM     93  C   UNL A   1      30.291  28.380  22.198  1.00  0.00     0.026 A 
ATOM     94  C   UNL A   1      28.719  27.489  23.817  1.00  0.00     0.001 A 
ATOM     95  C   UNL A   1      29.138  28.515  22.974  1.00  0.00     0.002 A 
ENDBRANCH  85  86
ENDBRANCH  73  85
ENDBRANCH  70  73
ENDBRANCH  68  69
BRANCH  68  96
ATOM     96  C   UNL A   1      34.000  21.797  27.658  1.00  0.00     0.191 C 
BRANCH  96  97
ATOM     97  O   UNL A   1      35.072  22.721  27.640  1.00  0.00    -0.394 OA
ATOM     98  H   UNL A   1      35.701  22.500  28.345  1.00  0.00     0.210 HD
ENDBRANCH  96  97
ENDBRANCH  68  96
ENDBRANCH  65  68
ENDBRANCH   1  64
TORSDOF 18
ENDMDL
