MODEL 1
REMARK VINA RESULT:      -9.1      0.000      0.000
REMARK SMILES O=C(C[N@@H+](CC(F)(F)F)[C@H]1CCCC[C@H]1O)NCCCNC(=O)c1ccc(-c2c3nc(c(-c4c(F)cccc4F)c4ccc([nH]4)c(-c4c(F)cccc4F)c4nc(c(-c5c(F)cccc5F)c5ccc2[nH]5)C=C4)C=C3)cc1
REMARK SMILES IDX 18 1 17 2 1 3 2 4 3 6 4 7 5 9 6 10 7 11 8 12 9 13 10 14
REMARK SMILES IDX 11 15 15 16 12 17 14 18 13 19 16 20 19 22 20 23 21 24 22 25
REMARK SMILES IDX 23 27 24 28 25 29 77 30 26 31 76 32 27 33 28 34 29 35 70 36
REMARK SMILES IDX 30 37 75 38 69 39 71 40 31 41 74 42 68 43 67 44 32 46 58 47
REMARK SMILES IDX 41 48 57 49 42 50 45 51 56 52 72 53 43 54 44 55 55 57 73 58
REMARK SMILES IDX 46 59 33 60 34 61 39 62 35 63 36 64 38 65 40 66 37 67 59 68
REMARK SMILES IDX 60 69 65 70 61 71 62 72 64 73 66 74 63 75 47 76 48 77 53 78
REMARK SMILES IDX 49 79 50 80 52 81 54 82 51 83
REMARK H PARENT 17 5 4 8 16 21 21 26 71 45 45 56
REMARK Flexibility Score: inf
ROOT
ATOM      1  C   UNL A   1      34.313  35.589  33.450  1.00  0.00     0.118 C 
ENDROOT
BRANCH   1   2
ATOM      2  N   UNL A   1      34.939  34.297  33.652  1.00  0.00    -0.351 N 
ATOM      3  O   UNL A   1      37.076  35.104  33.901  1.00  0.00    -0.269 OA
ATOM      4  C   UNL A   1      36.285  34.165  33.923  1.00  0.00     0.275 C 
ATOM      5  H   UNL A   1      34.384  33.486  33.593  1.00  0.00     0.163 HD
BRANCH   4   6
ATOM      6  C   UNL A   1      36.740  32.729  34.216  1.00  0.00     0.364 C 
BRANCH   6   7
ATOM      7  N   UNL A   1      38.099  32.676  34.821  1.00  0.00    -0.315 N 
ATOM      8  H   UNL A   1      38.585  33.559  34.668  1.00  0.00     0.349 HD
BRANCH   7   9
ATOM      9  C   UNL A   1      37.993  32.556  36.306  1.00  0.00     0.380 C 
BRANCH   9  10
ATOM     10  C   UNL A   1      38.536  33.643  37.272  1.00  0.00     0.438 C 
ATOM     11  F   UNL A   1      37.695  33.950  38.277  1.00  0.00    -0.165 F 
ATOM     12  F   UNL A   1      39.707  33.245  37.823  1.00  0.00    -0.165 F 
ATOM     13  F   UNL A   1      38.790  34.793  36.599  1.00  0.00    -0.165 F 
ENDBRANCH   9  10
ENDBRANCH   7   9
BRANCH   7  14
ATOM     14  C   UNL A   1      38.998  31.711  34.123  1.00  0.00     0.213 C 
ATOM     15  C   UNL A   1      40.127  31.357  35.121  1.00  0.00     0.068 C 
ATOM     16  C   UNL A   1      38.437  30.401  33.482  1.00  0.00     0.172 C 
ATOM     17  C   UNL A   1      41.232  30.534  34.459  1.00  0.00     0.006 C 
ATOM     18  C   UNL A   1      39.553  29.552  32.855  1.00  0.00     0.038 C 
ATOM     19  C   UNL A   1      40.693  29.258  33.828  1.00  0.00     0.003 C 
BRANCH  16  20
ATOM     20  O   UNL A   1      37.725  29.589  34.418  1.00  0.00    -0.387 OA
ATOM     21  H   UNL A   1      37.047  29.077  33.951  1.00  0.00     0.211 HD
ENDBRANCH  16  20
ENDBRANCH   7  14
ENDBRANCH   6   7
ENDBRANCH   4   6
ENDBRANCH   1   2
BRANCH   1  22
ATOM     22  C   UNL A   1      33.134  35.541  32.485  1.00  0.00     0.042 C 
BRANCH  22  23
ATOM     23  C   UNL A   1      33.358  36.270  31.162  1.00  0.00     0.118 C 
BRANCH  23  24
ATOM     24  N   UNL A   1      32.734  35.605  30.027  1.00  0.00    -0.352 N 
ATOM     25  C   UNL A   1      33.201  34.627  29.184  1.00  0.00     0.251 C 
ATOM     26  H   UNL A   1      31.820  35.912  29.828  1.00  0.00     0.163 HD
ATOM     27  O   UNL A   1      32.527  34.315  28.206  1.00  0.00    -0.269 OA
BRANCH  25  28
ATOM     28  C   UNL A   1      34.503  33.954  29.413  1.00  0.00     0.039 A 
ATOM     29  C   UNL A   1      35.580  34.301  28.588  1.00  0.00     0.014 A 
ATOM     30  C   UNL A   1      34.668  32.953  30.373  1.00  0.00     0.014 A 
ATOM     31  C   UNL A   1      36.825  33.691  28.765  1.00  0.00     0.010 A 
ATOM     32  C   UNL A   1      35.929  32.397  30.597  1.00  0.00     0.010 A 
ATOM     33  C   UNL A   1      37.021  32.754  29.792  1.00  0.00    -0.014 A 
BRANCH  33  34
ATOM     34  C   UNL A   1      38.361  32.156  30.031  1.00  0.00     0.031 A 
ATOM     35  C   UNL A   1      39.403  32.893  30.828  1.00  0.00     0.074 A 
ATOM     36  C   UNL A   1      38.657  30.955  29.493  1.00  0.00     0.049 A 
ATOM     37  N   UNL A   1      40.627  32.531  31.124  1.00  0.00    -0.248 NA
ATOM     38  C   UNL A   1      39.031  34.221  31.340  1.00  0.00     0.031 C 
ATOM     39  C   UNL A   1      37.758  30.159  28.656  1.00  0.00     0.029 A 
ATOM     40  N   UNL A   1      39.798  30.197  29.570  1.00  0.00    -0.354 N 
ATOM     41  C   UNL A   1      41.171  33.586  31.844  1.00  0.00     0.074 A 
ATOM     42  C   UNL A   1      40.165  34.624  31.896  1.00  0.00     0.031 C 
ATOM     43  C   UNL A   1      38.370  29.012  28.321  1.00  0.00     0.029 A 
ATOM     44  C   UNL A   1      39.714  29.005  28.892  1.00  0.00     0.049 A 
ATOM     45  H   UNL A   1      40.602  30.481  30.063  1.00  0.00     0.167 HD
ATOM     46  C   UNL A   1      42.391  33.675  32.431  1.00  0.00     0.037 A 
ATOM     47  C   UNL A   1      40.615  28.015  28.747  1.00  0.00     0.037 A 
ATOM     48  C   UNL A   1      43.385  32.635  32.401  1.00  0.00     0.049 A 
ATOM     49  C   UNL A   1      41.956  28.134  29.415  1.00  0.00     0.074 A 
ATOM     50  C   UNL A   1      44.627  32.610  33.014  1.00  0.00     0.029 A 
ATOM     51  N   UNL A   1      43.255  31.435  31.719  1.00  0.00    -0.354 N 
ATOM     52  N   UNL A   1      42.429  29.107  30.154  1.00  0.00    -0.248 NA
ATOM     53  C   UNL A   1      42.885  27.008  29.237  1.00  0.00     0.031 C 
ATOM     54  C   UNL A   1      45.262  31.412  32.671  1.00  0.00     0.029 A 
ATOM     55  C   UNL A   1      44.399  30.671  31.882  1.00  0.00     0.049 A 
ATOM     56  H   UNL A   1      42.465  31.166  31.195  1.00  0.00     0.167 HD
ATOM     57  C   UNL A   1      43.697  28.702  30.551  1.00  0.00     0.074 A 
ATOM     58  C   UNL A   1      43.911  27.386  29.985  1.00  0.00     0.031 C 
ATOM     59  C   UNL A   1      44.601  29.361  31.316  1.00  0.00     0.037 A 
BRANCH  46  60
ATOM     60  C   UNL A   1      42.715  34.945  33.164  1.00  0.00     0.057 A 
ATOM     61  C   UNL A   1      43.331  36.030  32.526  1.00  0.00     0.134 A 
ATOM     62  C   UNL A   1      42.374  35.100  34.514  1.00  0.00     0.134 A 
ATOM     63  F   UNL A   1      43.694  35.942  31.237  1.00  0.00    -0.206 F 
ATOM     64  C   UNL A   1      43.620  37.212  33.209  1.00  0.00     0.040 A 
ATOM     65  C   UNL A   1      42.633  36.288  35.200  1.00  0.00     0.040 A 
ATOM     66  F   UNL A   1      41.774  34.105  35.184  1.00  0.00    -0.206 F 
ATOM     67  C   UNL A   1      43.265  37.346  34.549  1.00  0.00     0.006 A 
ENDBRANCH  46  60
BRANCH  47  68
ATOM     68  C   UNL A   1      40.267  26.804  27.962  1.00  0.00     0.057 A 
ATOM     69  C   UNL A   1      39.458  25.800  28.507  1.00  0.00     0.134 A 
ATOM     70  C   UNL A   1      40.740  26.617  26.658  1.00  0.00     0.134 A 
ATOM     71  F   UNL A   1      38.992  25.914  29.759  1.00  0.00    -0.206 F 
ATOM     72  C   UNL A   1      39.148  24.643  27.790  1.00  0.00     0.040 A 
ATOM     73  C   UNL A   1      40.417  25.476  25.922  1.00  0.00     0.040 A 
ATOM     74  F   UNL A   1      41.514  27.547  26.078  1.00  0.00    -0.206 F 
ATOM     75  C   UNL A   1      39.624  24.482  26.491  1.00  0.00     0.006 A 
ENDBRANCH  47  68
BRANCH  59  76
ATOM     76  C   UNL A   1      45.891  28.653  31.612  1.00  0.00     0.057 A 
ATOM     77  C   UNL A   1      47.019  28.798  30.794  1.00  0.00     0.134 A 
ATOM     78  C   UNL A   1      46.012  27.834  32.742  1.00  0.00     0.134 A 
ATOM     79  F   UNL A   1      46.966  29.557  29.690  1.00  0.00    -0.206 F 
ATOM     80  C   UNL A   1      48.212  28.129  31.074  1.00  0.00     0.040 A 
ATOM     81  C   UNL A   1      47.207  27.182  33.047  1.00  0.00     0.040 A 
ATOM     82  F   UNL A   1      44.972  27.660  33.572  1.00  0.00    -0.206 F 
ATOM     83  C   UNL A   1      48.310  27.323  32.207  1.00  0.00     0.006 A 
ENDBRANCH  59  76
ENDBRANCH  33  34
ENDBRANCH  25  28
ENDBRANCH  23  24
ENDBRANCH  22  23
ENDBRANCH   1  22
TORSDOF 15
ENDMDL
MODEL 2
REMARK VINA RESULT:      -8.8      2.692      4.306
REMARK SMILES O=C(C[N@@H+](CC(F)(F)F)[C@H]1CCCC[C@H]1O)NCCCNC(=O)c1ccc(-c2c3nc(c(-c4c(F)cccc4F)c4ccc([nH]4)c(-c4c(F)cccc4F)c4nc(c(-c5c(F)cccc5F)c5ccc2[nH]5)C=C4)C=C3)cc1
REMARK SMILES IDX 18 1 17 2 1 3 2 4 3 6 4 7 5 9 6 10 7 11 8 12 9 13 10 14
REMARK SMILES IDX 11 15 15 16 12 17 14 18 13 19 16 20 19 22 20 23 21 24 22 25
REMARK SMILES IDX 23 27 24 28 25 29 77 30 26 31 76 32 27 33 28 34 29 35 70 36
REMARK SMILES IDX 30 37 75 38 69 39 71 40 31 41 74 42 68 43 67 44 32 46 58 47
REMARK SMILES IDX 41 48 57 49 42 50 45 51 56 52 72 53 43 54 44 55 55 57 73 58
REMARK SMILES IDX 46 59 33 60 34 61 39 62 35 63 36 64 38 65 40 66 37 67 59 68
REMARK SMILES IDX 60 69 65 70 61 71 62 72 64 73 66 74 63 75 47 76 48 77 53 78
REMARK SMILES IDX 49 79 50 80 52 81 54 82 51 83
REMARK H PARENT 17 5 4 8 16 21 21 26 71 45 45 56
REMARK Flexibility Score: inf
ROOT
ATOM      1  C   UNL A   1      33.413  34.758  29.674  1.00  0.00     0.118 C 
ENDROOT
BRANCH   1   2
ATOM      2  N   UNL A   1      34.527  35.106  30.534  1.00  0.00    -0.351 N 
ATOM      3  O   UNL A   1      34.378  33.250  31.881  1.00  0.00    -0.269 OA
ATOM      4  C   UNL A   1      34.960  34.279  31.549  1.00  0.00     0.275 C 
ATOM      5  H   UNL A   1      34.989  35.963  30.388  1.00  0.00     0.163 HD
BRANCH   4   6
ATOM      6  C   UNL A   1      36.221  34.768  32.277  1.00  0.00     0.364 C 
BRANCH   6   7
ATOM      7  N   UNL A   1      37.371  33.838  32.107  1.00  0.00    -0.315 N 
ATOM      8  H   UNL A   1      37.059  32.972  31.668  1.00  0.00     0.349 HD
BRANCH   7   9
ATOM      9  C   UNL A   1      38.357  34.415  31.146  1.00  0.00     0.380 C 
BRANCH   9  10
ATOM     10  C   UNL A   1      38.754  33.700  29.826  1.00  0.00     0.438 C 
ATOM     11  F   UNL A   1      39.999  33.192  29.833  1.00  0.00    -0.165 F 
ATOM     12  F   UNL A   1      37.897  32.685  29.562  1.00  0.00    -0.165 F 
ATOM     13  F   UNL A   1      38.678  34.559  28.779  1.00  0.00    -0.165 F 
ENDBRANCH   9  10
ENDBRANCH   7   9
BRANCH   7  14
ATOM     14  C   UNL A   1      37.902  33.341  33.411  1.00  0.00     0.213 C 
ATOM     15  C   UNL A   1      37.888  34.546  34.382  1.00  0.00     0.068 C 
ATOM     16  C   UNL A   1      37.277  32.094  34.115  1.00  0.00     0.172 C 
ATOM     17  C   UNL A   1      38.601  34.223  35.695  1.00  0.00     0.006 C 
ATOM     18  C   UNL A   1      37.965  31.796  35.456  1.00  0.00     0.038 C 
ATOM     19  C   UNL A   1      38.001  33.007  36.386  1.00  0.00     0.003 C 
BRANCH  16  20
ATOM     20  O   UNL A   1      35.875  32.236  34.349  1.00  0.00    -0.387 OA
ATOM     21  H   UNL A   1      35.732  32.659  35.211  1.00  0.00     0.211 HD
ENDBRANCH  16  20
ENDBRANCH   7  14
ENDBRANCH   6   7
ENDBRANCH   4   6
ENDBRANCH   1   2
BRANCH   1  22
ATOM     22  C   UNL A   1      33.844  34.323  28.278  1.00  0.00     0.042 C 
BRANCH  22  23
ATOM     23  C   UNL A   1      34.738  33.086  28.240  1.00  0.00     0.118 C 
BRANCH  23  24
ATOM     24  N   UNL A   1      34.055  31.897  27.753  1.00  0.00    -0.352 N 
ATOM     25  C   UNL A   1      34.479  30.597  27.631  1.00  0.00     0.251 C 
ATOM     26  H   UNL A   1      33.128  32.052  27.459  1.00  0.00     0.163 HD
ATOM     27  O   UNL A   1      33.751  29.786  27.065  1.00  0.00    -0.269 OA
BRANCH  25  28
ATOM     28  C   UNL A   1      35.797  30.152  28.146  1.00  0.00     0.039 A 
ATOM     29  C   UNL A   1      35.853  29.604  29.433  1.00  0.00     0.014 A 
ATOM     30  C   UNL A   1      36.978  30.319  27.419  1.00  0.00     0.014 A 
ATOM     31  C   UNL A   1      37.073  29.173  29.961  1.00  0.00     0.010 A 
ATOM     32  C   UNL A   1      38.185  29.823  27.917  1.00  0.00     0.010 A 
ATOM     33  C   UNL A   1      38.248  29.249  29.196  1.00  0.00    -0.014 A 
BRANCH  33  34
ATOM     34  C   UNL A   1      39.535  28.727  29.725  1.00  0.00     0.031 A 
ATOM     35  C   UNL A   1      40.182  29.349  30.933  1.00  0.00     0.074 A 
ATOM     36  C   UNL A   1      40.150  27.708  29.090  1.00  0.00     0.049 A 
ATOM     37  N   UNL A   1      41.307  29.034  31.524  1.00  0.00    -0.248 NA
ATOM     38  C   UNL A   1      39.485  30.491  31.544  1.00  0.00     0.031 C 
ATOM     39  C   UNL A   1      39.659  27.049  27.878  1.00  0.00     0.029 A 
ATOM     40  N   UNL A   1      41.319  27.050  29.376  1.00  0.00    -0.354 N 
ATOM     41  C   UNL A   1      41.458  29.941  32.565  1.00  0.00     0.074 A 
ATOM     42  C   UNL A   1      40.336  30.852  32.494  1.00  0.00     0.031 C 
ATOM     43  C   UNL A   1      40.506  26.063  27.541  1.00  0.00     0.029 A 
ATOM     44  C   UNL A   1      41.612  26.039  28.493  1.00  0.00     0.049 A 
ATOM     45  H   UNL A   1      41.895  27.282  30.140  1.00  0.00     0.167 HD
ATOM     46  C   UNL A   1      42.428  29.997  33.510  1.00  0.00     0.037 A 
ATOM     47  C   UNL A   1      42.654  25.186  28.453  1.00  0.00     0.037 A 
ATOM     48  C   UNL A   1      43.532  29.077  33.597  1.00  0.00     0.049 A 
ATOM     49  C   UNL A   1      43.711  25.263  29.517  1.00  0.00     0.074 A 
ATOM     50  C   UNL A   1      44.533  29.018  34.552  1.00  0.00     0.029 A 
ATOM     51  N   UNL A   1      43.784  28.056  32.694  1.00  0.00    -0.354 N 
ATOM     52  N   UNL A   1      43.801  26.081  30.538  1.00  0.00    -0.248 NA
ATOM     53  C   UNL A   1      44.809  24.289  29.430  1.00  0.00     0.031 C 
ATOM     54  C   UNL A   1      45.411  27.986  34.205  1.00  0.00     0.029 A 
ATOM     55  C   UNL A   1      44.933  27.373  33.060  1.00  0.00     0.049 A 
ATOM     56  H   UNL A   1      43.229  27.846  31.908  1.00  0.00     0.167 HD
ATOM     57  C   UNL A   1      44.946  25.703  31.229  1.00  0.00     0.074 A 
ATOM     58  C   UNL A   1      45.508  24.573  30.520  1.00  0.00     0.031 C 
ATOM     59  C   UNL A   1      45.482  26.246  32.349  1.00  0.00     0.037 A 
BRANCH  46  60
ATOM     60  C   UNL A   1      42.334  31.090  34.535  1.00  0.00     0.057 A 
ATOM     61  C   UNL A   1      42.908  32.351  34.323  1.00  0.00     0.134 A 
ATOM     62  C   UNL A   1      41.631  30.894  35.730  1.00  0.00     0.134 A 
ATOM     63  F   UNL A   1      43.604  32.602  33.204  1.00  0.00    -0.206 F 
ATOM     64  C   UNL A   1      42.808  33.368  35.274  1.00  0.00     0.040 A 
ATOM     65  C   UNL A   1      41.501  31.913  36.676  1.00  0.00     0.040 A 
ATOM     66  F   UNL A   1      41.051  29.714  35.994  1.00  0.00    -0.206 F 
ATOM     67  C   UNL A   1      42.097  33.152  36.452  1.00  0.00     0.006 A 
ENDBRANCH  46  60
BRANCH  47  68
ATOM     68  C   UNL A   1      42.731  24.159  27.384  1.00  0.00     0.057 A 
ATOM     69  C   UNL A   1      42.235  22.866  27.589  1.00  0.00     0.134 A 
ATOM     70  C   UNL A   1      43.309  24.441  26.140  1.00  0.00     0.134 A 
ATOM     71  F   UNL A   1      41.689  22.533  28.767  1.00  0.00    -0.206 F 
ATOM     72  C   UNL A   1      42.329  21.883  26.603  1.00  0.00     0.040 A 
ATOM     73  C   UNL A   1      43.387  23.474  25.137  1.00  0.00     0.040 A 
ATOM     74  F   UNL A   1      43.796  25.663  25.880  1.00  0.00    -0.206 F 
ATOM     75  C   UNL A   1      42.902  22.188  25.370  1.00  0.00     0.006 A 
ENDBRANCH  47  68
BRANCH  59  76
ATOM     76  C   UNL A   1      46.722  25.601  32.894  1.00  0.00     0.057 A 
ATOM     77  C   UNL A   1      46.667  24.602  33.875  1.00  0.00     0.134 A 
ATOM     78  C   UNL A   1      47.987  25.968  32.416  1.00  0.00     0.134 A 
ATOM     79  F   UNL A   1      45.488  24.214  34.385  1.00  0.00    -0.206 F 
ATOM     80  C   UNL A   1      47.827  24.012  34.381  1.00  0.00     0.040 A 
ATOM     81  C   UNL A   1      49.152  25.367  32.895  1.00  0.00     0.040 A 
ATOM     82  F   UNL A   1      48.109  26.912  31.470  1.00  0.00    -0.206 F 
ATOM     83  C   UNL A   1      49.074  24.391  33.886  1.00  0.00     0.006 A 
ENDBRANCH  59  76
ENDBRANCH  33  34
ENDBRANCH  25  28
ENDBRANCH  23  24
ENDBRANCH  22  23
ENDBRANCH   1  22
TORSDOF 15
ENDMDL
MODEL 3
REMARK VINA RESULT:      -8.7      4.641      7.682
REMARK SMILES O=C(C[N@@H+](CC(F)(F)F)[C@H]1CCCC[C@H]1O)NCCCNC(=O)c1ccc(-c2c3nc(c(-c4c(F)cccc4F)c4ccc([nH]4)c(-c4c(F)cccc4F)c4nc(c(-c5c(F)cccc5F)c5ccc2[nH]5)C=C4)C=C3)cc1
REMARK SMILES IDX 18 1 17 2 1 3 2 4 3 6 4 7 5 9 6 10 7 11 8 12 9 13 10 14
REMARK SMILES IDX 11 15 15 16 12 17 14 18 13 19 16 20 19 22 20 23 21 24 22 25
REMARK SMILES IDX 23 27 24 28 25 29 77 30 26 31 76 32 27 33 28 34 29 35 70 36
REMARK SMILES IDX 30 37 75 38 69 39 71 40 31 41 74 42 68 43 67 44 32 46 58 47
REMARK SMILES IDX 41 48 57 49 42 50 45 51 56 52 72 53 43 54 44 55 55 57 73 58
REMARK SMILES IDX 46 59 33 60 34 61 39 62 35 63 36 64 38 65 40 66 37 67 59 68
REMARK SMILES IDX 60 69 65 70 61 71 62 72 64 73 66 74 63 75 47 76 48 77 53 78
REMARK SMILES IDX 49 79 50 80 52 81 54 82 51 83
REMARK H PARENT 17 5 4 8 16 21 21 26 71 45 45 56
REMARK Flexibility Score: inf
ROOT
ATOM      1  C   UNL A   1      31.778  30.565  26.826  1.00  0.00     0.118 C 
ENDROOT
BRANCH   1   2
ATOM      2  N   UNL A   1      31.815  30.033  25.477  1.00  0.00    -0.351 N 
ATOM      3  O   UNL A   1      33.891  29.065  25.660  1.00  0.00    -0.269 OA
ATOM      4  C   UNL A   1      32.864  29.264  25.017  1.00  0.00     0.275 C 
ATOM      5  H   UNL A   1      31.066  30.229  24.869  1.00  0.00     0.163 HD
BRANCH   4   6
ATOM      6  C   UNL A   1      32.670  28.702  23.602  1.00  0.00     0.364 C 
BRANCH   6   7
ATOM      7  N   UNL A   1      31.630  27.639  23.552  1.00  0.00    -0.315 N 
ATOM      8  H   UNL A   1      31.065  27.661  24.401  1.00  0.00     0.349 HD
BRANCH   7   9
ATOM      9  C   UNL A   1      30.663  27.921  22.449  1.00  0.00     0.380 C 
BRANCH   9  10
ATOM     10  C   UNL A   1      29.779  29.197  22.419  1.00  0.00     0.438 C 
ATOM     11  F   UNL A   1      30.252  30.171  21.622  1.00  0.00    -0.165 F 
ATOM     12  F   UNL A   1      28.527  28.895  22.001  1.00  0.00    -0.165 F 
ATOM     13  F   UNL A   1      29.660  29.722  23.665  1.00  0.00    -0.165 F 
ENDBRANCH   9  10
ENDBRANCH   7   9
BRANCH   7  14
ATOM     14  C   UNL A   1      32.211  26.265  23.611  1.00  0.00     0.213 C 
ATOM     15  C   UNL A   1      31.141  25.306  23.038  1.00  0.00     0.068 C 
ATOM     16  C   UNL A   1      33.599  25.947  22.967  1.00  0.00     0.172 C 
ATOM     17  C   UNL A   1      31.530  23.841  23.231  1.00  0.00     0.006 C 
ATOM     18  C   UNL A   1      33.971  24.465  23.123  1.00  0.00     0.038 C 
ATOM     19  C   UNL A   1      32.883  23.523  22.610  1.00  0.00     0.003 C 
BRANCH  16  20
ATOM     20  O   UNL A   1      33.653  26.281  21.579  1.00  0.00    -0.387 OA
ATOM     21  H   UNL A   1      33.581  25.472  21.048  1.00  0.00     0.211 HD
ENDBRANCH  16  20
ENDBRANCH   7  14
ENDBRANCH   6   7
ENDBRANCH   4   6
ENDBRANCH   1   2
BRANCH   1  22
ATOM     22  C   UNL A   1      31.459  32.054  26.876  1.00  0.00     0.042 C 
BRANCH  22  23
ATOM     23  C   UNL A   1      32.679  32.972  26.877  1.00  0.00     0.118 C 
BRANCH  23  24
ATOM     24  N   UNL A   1      32.472  34.202  27.627  1.00  0.00    -0.352 N 
ATOM     25  C   UNL A   1      33.106  34.700  28.738  1.00  0.00     0.251 C 
ATOM     26  H   UNL A   1      31.752  34.776  27.278  1.00  0.00     0.163 HD
ATOM     27  O   UNL A   1      32.660  35.714  29.271  1.00  0.00    -0.269 OA
BRANCH  25  28
ATOM     28  C   UNL A   1      34.299  34.039  29.321  1.00  0.00     0.039 A 
ATOM     29  C   UNL A   1      34.096  33.018  30.257  1.00  0.00     0.014 A 
ATOM     30  C   UNL A   1      35.601  34.440  29.014  1.00  0.00     0.014 A 
ATOM     31  C   UNL A   1      35.190  32.368  30.835  1.00  0.00     0.010 A 
ATOM     32  C   UNL A   1      36.692  33.742  29.535  1.00  0.00     0.010 A 
ATOM     33  C   UNL A   1      36.500  32.702  30.457  1.00  0.00    -0.014 A 
BRANCH  33  34
ATOM     34  C   UNL A   1      37.664  31.964  31.014  1.00  0.00     0.031 A 
ATOM     35  C   UNL A   1      38.172  32.259  32.400  1.00  0.00     0.074 A 
ATOM     36  C   UNL A   1      38.296  31.048  30.253  1.00  0.00     0.049 A 
ATOM     37  N   UNL A   1      39.180  31.725  33.043  1.00  0.00    -0.248 NA
ATOM     38  C   UNL A   1      37.469  33.308  33.155  1.00  0.00     0.031 C 
ATOM     39  C   UNL A   1      37.941  30.704  28.875  1.00  0.00     0.029 A 
ATOM     40  N   UNL A   1      39.370  30.240  30.531  1.00  0.00    -0.354 N 
ATOM     41  C   UNL A   1      39.239  32.377  34.267  1.00  0.00     0.074 A 
ATOM     42  C   UNL A   1      38.199  33.383  34.258  1.00  0.00     0.031 C 
ATOM     43  C   UNL A   1      38.763  29.736  28.438  1.00  0.00     0.029 A 
ATOM     44  C   UNL A   1      39.720  29.413  29.491  1.00  0.00     0.049 A 
ATOM     45  H   UNL A   1      39.846  30.253  31.393  1.00  0.00     0.167 HD
ATOM     46  C   UNL A   1      40.069  32.145  35.314  1.00  0.00     0.037 A 
ATOM     47  C   UNL A   1      40.701  28.495  29.395  1.00  0.00     0.037 A 
ATOM     48  C   UNL A   1      41.089  31.130  35.335  1.00  0.00     0.049 A 
ATOM     49  C   UNL A   1      41.601  28.250  30.573  1.00  0.00     0.074 A 
ATOM     50  C   UNL A   1      41.940  30.781  36.370  1.00  0.00     0.029 A 
ATOM     51  N   UNL A   1      41.401  30.301  34.268  1.00  0.00    -0.354 N 
ATOM     52  N   UNL A   1      41.597  28.825  31.751  1.00  0.00    -0.248 NA
ATOM     53  C   UNL A   1      42.636  27.219  30.412  1.00  0.00     0.031 C 
ATOM     54  C   UNL A   1      42.791  29.768  35.918  1.00  0.00     0.029 A 
ATOM     55  C   UNL A   1      42.441  29.454  34.615  1.00  0.00     0.049 A 
ATOM     56  H   UNL A   1      40.950  30.312  33.393  1.00  0.00     0.167 HD
ATOM     57  C   UNL A   1      42.607  28.209  32.480  1.00  0.00     0.074 A 
ATOM     58  C   UNL A   1      43.190  27.204  31.616  1.00  0.00     0.031 C 
ATOM     59  C   UNL A   1      43.012  28.454  33.749  1.00  0.00     0.037 A 
BRANCH  46  60
ATOM     60  C   UNL A   1      39.900  33.005  36.534  1.00  0.00     0.057 A 
ATOM     61  C   UNL A   1      38.956  32.703  37.525  1.00  0.00     0.134 A 
ATOM     62  C   UNL A   1      40.715  34.126  36.740  1.00  0.00     0.134 A 
ATOM     63  F   UNL A   1      38.137  31.650  37.384  1.00  0.00    -0.206 F 
ATOM     64  C   UNL A   1      38.810  33.499  38.662  1.00  0.00     0.040 A 
ATOM     65  C   UNL A   1      40.597  34.913  37.887  1.00  0.00     0.040 A 
ATOM     66  F   UNL A   1      41.644  34.468  35.836  1.00  0.00    -0.206 F 
ATOM     67  C   UNL A   1      39.637  34.604  38.849  1.00  0.00     0.006 A 
ENDBRANCH  46  60
BRANCH  47  68
ATOM     68  C   UNL A   1      40.864  27.711  28.146  1.00  0.00     0.057 A 
ATOM     69  C   UNL A   1      41.649  28.190  27.091  1.00  0.00     0.134 A 
ATOM     70  C   UNL A   1      40.234  26.472  27.972  1.00  0.00     0.134 A 
ATOM     71  F   UNL A   1      42.260  29.379  27.192  1.00  0.00    -0.206 F 
ATOM     72  C   UNL A   1      41.787  27.477  25.899  1.00  0.00     0.040 A 
ATOM     73  C   UNL A   1      40.383  25.737  26.795  1.00  0.00     0.040 A 
ATOM     74  F   UNL A   1      39.474  25.955  28.949  1.00  0.00    -0.206 F 
ATOM     75  C   UNL A   1      41.156  26.243  25.752  1.00  0.00     0.006 A 
ENDBRANCH  47  68
BRANCH  59  76
ATOM     76  C   UNL A   1      44.120  27.598  34.289  1.00  0.00     0.057 A 
ATOM     77  C   UNL A   1      45.461  27.996  34.228  1.00  0.00     0.134 A 
ATOM     78  C   UNL A   1      43.838  26.368  34.899  1.00  0.00     0.134 A 
ATOM     79  F   UNL A   1      45.801  29.156  33.646  1.00  0.00    -0.206 F 
ATOM     80  C   UNL A   1      46.485  27.189  34.728  1.00  0.00     0.040 A 
ATOM     81  C   UNL A   1      44.850  25.565  35.426  1.00  0.00     0.040 A 
ATOM     82  F   UNL A   1      42.572  25.932  34.999  1.00  0.00    -0.206 F 
ATOM     83  C   UNL A   1      46.179  25.971  35.334  1.00  0.00     0.006 A 
ENDBRANCH  59  76
ENDBRANCH  33  34
ENDBRANCH  25  28
ENDBRANCH  23  24
ENDBRANCH  22  23
ENDBRANCH   1  22
TORSDOF 15
ENDMDL
