MODEL 1
REMARK VINA RESULT:     -11.4      0.000      0.000
REMARK SMILES C[C@@H]1CCC[C@H](S[C@@H]2CCC[C@]([NH2+]C3CC3)(C(=O)NCCCNC(=O)c3ccc(-c4c5nc(c(-c6c(F)cccc6F)c6ccc([nH]6)c(-c6c(F)cccc6F)c6nc(c(-c7c(F)cccc7F)c7ccc4[nH]7)C=C6)C=C5)cc3)C2)C1
REMARK SMILES IDX 21 1 20 2 19 3 17 4 18 5 12 7 8 8 9 9 80 10 10 11 11 12 7 13
REMARK SMILES IDX 6 14 1 15 2 16 3 17 81 18 4 19 5 20 13 21 14 24 15 25 16 26
REMARK SMILES IDX 22 27 23 28 24 29 25 31 26 32 27 33 79 34 28 35 78 36 29 37
REMARK SMILES IDX 30 38 31 39 72 40 32 41 77 42 71 43 73 44 33 45 76 46 70 47
REMARK SMILES IDX 69 48 34 50 60 51 43 52 59 53 44 54 47 55 58 56 74 57 45 58
REMARK SMILES IDX 46 59 57 61 75 62 48 63 35 64 36 65 41 66 37 67 38 68 40 69
REMARK SMILES IDX 42 70 39 71 61 72 62 73 67 74 63 75 64 76 66 77 68 78 65 79
REMARK SMILES IDX 49 80 50 81 55 82 51 83 52 84 54 85 56 86 53 87
REMARK H PARENT 19 6 13 22 13 23 23 30 73 49 47 60
REMARK Flexibility Score: inf
ROOT
ATOM      1  C   UNL A   1      37.568  19.382  25.001  1.00  0.00     0.042 C 
ENDROOT
BRANCH   1   2
ATOM      2  C   UNL A   1      36.414  20.315  24.667  1.00  0.00     0.118 C 
BRANCH   2   3
ATOM      3  N   UNL A   1      35.433  20.415  25.735  1.00  0.00    -0.351 N 
ATOM      4  C   UNL A   1      34.328  21.191  25.933  1.00  0.00     0.281 C 
ATOM      5  O   UNL A   1      33.737  20.988  26.998  1.00  0.00    -0.268 OA
ATOM      6  H   UNL A   1      35.603  19.789  26.475  1.00  0.00     0.163 HD
BRANCH   4   7
ATOM      7  C   UNL A   1      33.826  22.243  24.891  1.00  0.00     0.176 C 
ATOM      8  C   UNL A   1      32.100  24.203  24.645  1.00  0.00     0.053 C 
ATOM      9  C   UNL A   1      31.341  23.469  23.544  1.00  0.00     0.015 C 
ATOM     10  C   UNL A   1      32.939  23.323  25.568  1.00  0.00     0.093 C 
ATOM     11  C   UNL A   1      32.205  22.402  22.881  1.00  0.00     0.008 C 
ATOM     12  C   UNL A   1      32.885  21.495  23.900  1.00  0.00     0.079 C 
BRANCH   8  13
ATOM     13  S   UNL A   1      31.101  25.487  25.546  1.00  0.00    -0.155 SA
BRANCH  13  14
ATOM     14  C   UNL A   1      32.171  26.867  26.187  1.00  0.00     0.047 C 
ATOM     15  C   UNL A   1      30.617  29.103  23.980  1.00  0.00     0.007 C 
ATOM     16  C   UNL A   1      31.829  29.121  24.916  1.00  0.00    -0.013 C 
ATOM     17  C   UNL A   1      33.201  28.892  24.244  1.00  0.00     0.003 C 
ATOM     18  C   UNL A   1      31.553  28.273  26.159  1.00  0.00     0.017 C 
ATOM     19  C   UNL A   1      33.981  27.611  24.556  1.00  0.00     0.001 C 
ATOM     20  C   UNL A   1      33.656  26.940  25.875  1.00  0.00     0.014 C 
ENDBRANCH  13  14
ENDBRANCH   8  13
BRANCH   7  21
ATOM     21  N   UNL A   1      34.984  22.858  24.204  1.00  0.00    -0.331 N 
ATOM     22  H   UNL A   1      34.622  23.259  23.339  1.00  0.00     0.347 HD
ATOM     23  H   UNL A   1      35.640  22.079  24.154  1.00  0.00     0.347 HD
BRANCH  21  24
ATOM     24  C   UNL A   1      35.801  23.911  24.838  1.00  0.00     0.183 C 
ATOM     25  C   UNL A   1      36.390  23.918  26.222  1.00  0.00     0.071 C 
ATOM     26  C   UNL A   1      37.286  23.729  25.044  1.00  0.00     0.071 C 
ENDBRANCH  21  24
ENDBRANCH   7  21
ENDBRANCH   4   7
ENDBRANCH   2   3
ENDBRANCH   1   2
BRANCH   1  27
ATOM     27  C   UNL A   1      38.794  20.097  25.548  1.00  0.00     0.118 C 
BRANCH  27  28
ATOM     28  N   UNL A   1      39.916  19.190  25.749  1.00  0.00    -0.352 N 
ATOM     29  C   UNL A   1      41.224  19.447  26.082  1.00  0.00     0.251 C 
ATOM     30  H   UNL A   1      39.702  18.237  25.627  1.00  0.00     0.163 HD
ATOM     31  O   UNL A   1      42.070  18.572  25.938  1.00  0.00    -0.269 OA
BRANCH  29  32
ATOM     32  C   UNL A   1      41.620  20.778  26.592  1.00  0.00     0.039 A 
ATOM     33  C   UNL A   1      42.123  21.728  25.699  1.00  0.00     0.014 A 
ATOM     34  C   UNL A   1      41.535  21.078  27.952  1.00  0.00     0.014 A 
ATOM     35  C   UNL A   1      42.469  22.999  26.163  1.00  0.00     0.010 A 
ATOM     36  C   UNL A   1      41.777  22.373  28.394  1.00  0.00     0.010 A 
ATOM     37  C   UNL A   1      42.261  23.345  27.507  1.00  0.00    -0.014 A 
BRANCH  37  38
ATOM     38  C   UNL A   1      42.559  24.708  28.015  1.00  0.00     0.031 A 
ATOM     39  C   UNL A   1      43.960  25.070  28.431  1.00  0.00     0.074 A 
ATOM     40  C   UNL A   1      41.557  25.597  28.168  1.00  0.00     0.049 A 
ATOM     41  N   UNL A   1      44.404  26.177  28.972  1.00  0.00    -0.248 NA
ATOM     42  C   UNL A   1      44.995  24.039  28.245  1.00  0.00     0.031 C 
ATOM     43  C   UNL A   1      40.150  25.350  27.852  1.00  0.00     0.029 A 
ATOM     44  N   UNL A   1      41.569  26.887  28.638  1.00  0.00    -0.354 N 
ATOM     45  C   UNL A   1      45.757  25.966  29.206  1.00  0.00     0.074 A 
ATOM     46  C   UNL A   1      46.050  24.607  28.808  1.00  0.00     0.031 C 
ATOM     47  C   UNL A   1      39.439  26.460  28.109  1.00  0.00     0.029 A 
ATOM     48  C   UNL A   1      40.331  27.481  28.648  1.00  0.00     0.049 A 
ATOM     49  H   UNL A   1      42.388  27.342  28.941  1.00  0.00     0.167 HD
ATOM     50  C   UNL A   1      46.679  26.836  29.682  1.00  0.00     0.037 A 
ATOM     51  C   UNL A   1      39.957  28.709  29.052  1.00  0.00     0.037 A 
ATOM     52  C   UNL A   1      46.390  28.196  30.050  1.00  0.00     0.049 A 
ATOM     53  C   UNL A   1      40.999  29.654  29.582  1.00  0.00     0.074 A 
ATOM     54  C   UNL A   1      47.263  29.176  30.486  1.00  0.00     0.029 A 
ATOM     55  N   UNL A   1      45.126  28.767  30.026  1.00  0.00    -0.354 N 
ATOM     56  N   UNL A   1      42.289  29.466  29.731  1.00  0.00    -0.248 NA
ATOM     57  C   UNL A   1      40.536  30.987  29.993  1.00  0.00     0.031 C 
ATOM     58  C   UNL A   1      46.521  30.327  30.771  1.00  0.00     0.029 A 
ATOM     59  C   UNL A   1      45.194  30.080  30.460  1.00  0.00     0.049 A 
ATOM     60  H   UNL A   1      44.303  28.307  29.742  1.00  0.00     0.167 HD
ATOM     61  C   UNL A   1      42.794  30.662  30.223  1.00  0.00     0.074 A 
ATOM     62  C   UNL A   1      41.675  31.575  30.332  1.00  0.00     0.031 C 
ATOM     63  C   UNL A   1      44.070  30.977  30.555  1.00  0.00     0.037 A 
BRANCH  50  64
ATOM     64  C   UNL A   1      48.092  26.341  29.825  1.00  0.00     0.057 A 
ATOM     65  C   UNL A   1      49.022  26.446  28.781  1.00  0.00     0.134 A 
ATOM     66  C   UNL A   1      48.536  25.781  31.029  1.00  0.00     0.134 A 
ATOM     67  F   UNL A   1      48.660  26.962  27.597  1.00  0.00    -0.206 F 
ATOM     68  C   UNL A   1      50.333  25.987  28.921  1.00  0.00     0.040 A 
ATOM     69  C   UNL A   1      49.852  25.346  31.191  1.00  0.00     0.040 A 
ATOM     70  F   UNL A   1      47.701  25.654  32.072  1.00  0.00    -0.206 F 
ATOM     71  C   UNL A   1      50.753  25.442  30.132  1.00  0.00     0.006 A 
ENDBRANCH  50  64
BRANCH  51  72
ATOM     72  C   UNL A   1      38.535  29.127  28.950  1.00  0.00     0.057 A 
ATOM     73  C   UNL A   1      38.008  29.607  27.746  1.00  0.00     0.134 A 
ATOM     74  C   UNL A   1      37.673  29.068  30.052  1.00  0.00     0.134 A 
ATOM     75  F   UNL A   1      38.788  29.704  26.659  1.00  0.00    -0.206 F 
ATOM     76  C   UNL A   1      36.684  30.036  27.645  1.00  0.00     0.040 A 
ATOM     77  C   UNL A   1      36.338  29.468  29.958  1.00  0.00     0.040 A 
ATOM     78  F   UNL A   1      38.112  28.608  31.233  1.00  0.00    -0.206 F 
ATOM     79  C   UNL A   1      35.843  29.963  28.754  1.00  0.00     0.006 A 
ENDBRANCH  51  72
BRANCH  63  80
ATOM     80  C   UNL A   1      44.330  32.378  31.029  1.00  0.00     0.057 A 
ATOM     81  C   UNL A   1      44.316  32.716  32.387  1.00  0.00     0.134 A 
ATOM     82  C   UNL A   1      44.637  33.392  30.112  1.00  0.00     0.134 A 
ATOM     83  F   UNL A   1      44.017  31.794  33.315  1.00  0.00    -0.206 F 
ATOM     84  C   UNL A   1      44.571  34.021  32.816  1.00  0.00     0.040 A 
ATOM     85  C   UNL A   1      44.923  34.692  30.530  1.00  0.00     0.040 A 
ATOM     86  F   UNL A   1      44.678  33.133  28.795  1.00  0.00    -0.206 F 
ATOM     87  C   UNL A   1      44.883  35.010  31.885  1.00  0.00     0.006 A 
ENDBRANCH  63  80
ENDBRANCH  37  38
ENDBRANCH  29  32
ENDBRANCH  27  28
ENDBRANCH   1  27
TORSDOF 14
ENDMDL
MODEL 2
REMARK VINA RESULT:     -11.3      4.528      8.894
REMARK SMILES C[C@@H]1CCC[C@H](S[C@@H]2CCC[C@]([NH2+]C3CC3)(C(=O)NCCCNC(=O)c3ccc(-c4c5nc(c(-c6c(F)cccc6F)c6ccc([nH]6)c(-c6c(F)cccc6F)c6nc(c(-c7c(F)cccc7F)c7ccc4[nH]7)C=C6)C=C5)cc3)C2)C1
REMARK SMILES IDX 21 1 20 2 19 3 17 4 18 5 12 7 8 8 9 9 80 10 10 11 11 12 7 13
REMARK SMILES IDX 6 14 1 15 2 16 3 17 81 18 4 19 5 20 13 21 14 24 15 25 16 26
REMARK SMILES IDX 22 27 23 28 24 29 25 31 26 32 27 33 79 34 28 35 78 36 29 37
REMARK SMILES IDX 30 38 31 39 72 40 32 41 77 42 71 43 73 44 33 45 76 46 70 47
REMARK SMILES IDX 69 48 34 50 60 51 43 52 59 53 44 54 47 55 58 56 74 57 45 58
REMARK SMILES IDX 46 59 57 61 75 62 48 63 35 64 36 65 41 66 37 67 38 68 40 69
REMARK SMILES IDX 42 70 39 71 61 72 62 73 67 74 63 75 64 76 66 77 68 78 65 79
REMARK SMILES IDX 49 80 50 81 55 82 51 83 52 84 54 85 56 86 53 87
REMARK H PARENT 19 6 13 22 13 23 23 30 73 49 47 60
REMARK Flexibility Score: inf
ROOT
ATOM      1  C   UNL A   1      31.208  32.178  26.530  1.00  0.00     0.042 C 
ENDROOT
BRANCH   1   2
ATOM      2  C   UNL A   1      31.186  30.684  26.241  1.00  0.00     0.118 C 
BRANCH   2   3
ATOM      3  N   UNL A   1      31.757  30.345  24.948  1.00  0.00    -0.351 N 
ATOM      4  C   UNL A   1      32.361  29.230  24.444  1.00  0.00     0.281 C 
ATOM      5  O   UNL A   1      32.733  29.328  23.271  1.00  0.00    -0.268 OA
ATOM      6  H   UNL A   1      31.696  31.080  24.294  1.00  0.00     0.163 HD
BRANCH   4   7
ATOM      7  C   UNL A   1      32.552  27.917  25.271  1.00  0.00     0.176 C 
ATOM      8  C   UNL A   1      33.367  25.439  24.998  1.00  0.00     0.053 C 
ATOM      9  C   UNL A   1      31.990  24.888  25.358  1.00  0.00     0.015 C 
ATOM     10  C   UNL A   1      33.390  26.874  24.482  1.00  0.00     0.093 C 
ATOM     11  C   UNL A   1      31.160  25.911  26.127  1.00  0.00     0.008 C 
ATOM     12  C   UNL A   1      31.144  27.273  25.443  1.00  0.00     0.079 C 
BRANCH   8  13
ATOM     13  S   UNL A   1      34.428  24.275  24.009  1.00  0.00    -0.155 SA
BRANCH  13  14
ATOM     14  C   UNL A   1      35.275  23.024  25.094  1.00  0.00     0.047 C 
ATOM     15  C   UNL A   1      32.911  20.608  24.162  1.00  0.00     0.007 C 
ATOM     16  C   UNL A   1      34.032  20.730  25.198  1.00  0.00    -0.013 C 
ATOM     17  C   UNL A   1      33.586  21.095  26.632  1.00  0.00     0.003 C 
ATOM     18  C   UNL A   1      35.188  21.559  24.637  1.00  0.00     0.017 C 
ATOM     19  C   UNL A   1      33.982  22.455  27.215  1.00  0.00     0.001 C 
ATOM     20  C   UNL A   1      35.210  23.105  26.610  1.00  0.00     0.014 C 
ENDBRANCH  13  14
ENDBRANCH   8  13
BRANCH   7  21
ATOM     21  N   UNL A   1      33.183  28.233  26.572  1.00  0.00    -0.331 N 
ATOM     22  H   UNL A   1      33.284  27.345  27.063  1.00  0.00     0.347 HD
ATOM     23  H   UNL A   1      32.552  28.940  26.949  1.00  0.00     0.347 HD
BRANCH  21  24
ATOM     24  C   UNL A   1      34.493  28.907  26.663  1.00  0.00     0.183 C 
ATOM     25  C   UNL A   1      34.783  30.308  27.127  1.00  0.00     0.071 C 
ATOM     26  C   UNL A   1      35.152  29.154  28.000  1.00  0.00     0.071 C 
ENDBRANCH  21  24
ENDBRANCH   7  21
ENDBRANCH   4   7
ENDBRANCH   2   3
ENDBRANCH   1   2
BRANCH   1  27
ATOM     27  C   UNL A   1      32.589  32.714  26.875  1.00  0.00     0.118 C 
BRANCH  27  28
ATOM     28  N   UNL A   1      32.529  34.025  27.507  1.00  0.00    -0.352 N 
ATOM     29  C   UNL A   1      33.199  34.523  28.598  1.00  0.00     0.251 C 
ATOM     30  H   UNL A   1      31.906  34.659  27.081  1.00  0.00     0.163 HD
ATOM     31  O   UNL A   1      32.809  35.556  29.129  1.00  0.00    -0.269 OA
BRANCH  29  32
ATOM     32  C   UNL A   1      34.374  33.811  29.145  1.00  0.00     0.039 A 
ATOM     33  C   UNL A   1      35.656  34.236  28.787  1.00  0.00     0.014 A 
ATOM     34  C   UNL A   1      34.216  32.703  29.979  1.00  0.00     0.014 A 
ATOM     35  C   UNL A   1      36.774  33.592  29.324  1.00  0.00     0.010 A 
ATOM     36  C   UNL A   1      35.323  32.134  30.596  1.00  0.00     0.010 A 
ATOM     37  C   UNL A   1      36.617  32.562  30.264  1.00  0.00    -0.014 A 
BRANCH  37  38
ATOM     38  C   UNL A   1      37.786  31.904  30.900  1.00  0.00     0.031 A 
ATOM     39  C   UNL A   1      38.552  30.844  30.157  1.00  0.00     0.074 A 
ATOM     40  C   UNL A   1      38.114  32.210  32.172  1.00  0.00     0.049 A 
ATOM     41  N   UNL A   1      39.548  30.099  30.568  1.00  0.00    -0.248 NA
ATOM     42  C   UNL A   1      38.123  30.558  28.778  1.00  0.00     0.031 C 
ATOM     43  C   UNL A   1      37.417  33.181  33.017  1.00  0.00     0.029 A 
ATOM     44  N   UNL A   1      39.113  31.727  32.979  1.00  0.00    -0.354 N 
ATOM     45  C   UNL A   1      39.847  29.250  29.510  1.00  0.00     0.074 A 
ATOM     46  C   UNL A   1      38.890  29.526  28.462  1.00  0.00     0.031 C 
ATOM     47  C   UNL A   1      38.026  33.244  34.211  1.00  0.00     0.029 A 
ATOM     48  C   UNL A   1      39.128  32.288  34.232  1.00  0.00     0.049 A 
ATOM     49  H   UNL A   1      39.758  31.043  32.687  1.00  0.00     0.167 HD
ATOM     50  C   UNL A   1      40.847  28.342  29.409  1.00  0.00     0.037 A 
ATOM     51  C   UNL A   1      39.936  32.053  35.283  1.00  0.00     0.037 A 
ATOM     52  C   UNL A   1      41.814  28.091  30.444  1.00  0.00     0.049 A 
ATOM     53  C   UNL A   1      41.036  31.036  35.147  1.00  0.00     0.074 A 
ATOM     54  C   UNL A   1      42.902  27.237  30.418  1.00  0.00     0.029 A 
ATOM     55  N   UNL A   1      41.808  28.695  31.692  1.00  0.00    -0.354 N 
ATOM     56  N   UNL A   1      41.351  30.291  34.115  1.00  0.00    -0.248 NA
ATOM     57  C   UNL A   1      41.897  30.832  36.321  1.00  0.00     0.031 C 
ATOM     58  C   UNL A   1      43.527  27.288  31.669  1.00  0.00     0.029 A 
ATOM     59  C   UNL A   1      42.860  28.215  32.453  1.00  0.00     0.049 A 
ATOM     60  H   UNL A   1      41.153  29.365  31.993  1.00  0.00     0.167 HD
ATOM     61  C   UNL A   1      42.463  29.554  34.503  1.00  0.00     0.074 A 
ATOM     62  C   UNL A   1      42.777  29.954  35.859  1.00  0.00     0.031 C 
ATOM     63  C   UNL A   1      43.163  28.630  33.800  1.00  0.00     0.037 A 
BRANCH  50  64
ATOM     64  C   UNL A   1      40.946  27.559  28.130  1.00  0.00     0.057 A 
ATOM     65  C   UNL A   1      41.711  28.008  27.044  1.00  0.00     0.134 A 
ATOM     66  C   UNL A   1      40.297  26.326  27.993  1.00  0.00     0.134 A 
ATOM     67  F   UNL A   1      42.349  29.187  27.104  1.00  0.00    -0.206 F 
ATOM     68  C   UNL A   1      41.802  27.275  25.860  1.00  0.00     0.040 A 
ATOM     69  C   UNL A   1      40.405  25.569  26.825  1.00  0.00     0.040 A 
ATOM     70  F   UNL A   1      39.553  25.831  28.994  1.00  0.00    -0.206 F 
ATOM     71  C   UNL A   1      41.153  26.047  25.751  1.00  0.00     0.006 A 
ENDBRANCH  50  64
BRANCH  51  72
ATOM     72  C   UNL A   1      39.754  32.809  36.549  1.00  0.00     0.057 A 
ATOM     73  C   UNL A   1      38.782  32.431  37.482  1.00  0.00     0.134 A 
ATOM     74  C   UNL A   1      40.536  33.930  36.852  1.00  0.00     0.134 A 
ATOM     75  F   UNL A   1      37.990  31.377  37.242  1.00  0.00    -0.206 F 
ATOM     76  C   UNL A   1      38.576  33.154  38.659  1.00  0.00     0.040 A 
ATOM     77  C   UNL A   1      40.361  34.645  38.038  1.00  0.00     0.040 A 
ATOM     78  F   UNL A   1      41.493  34.338  36.004  1.00  0.00    -0.206 F 
ATOM     79  C   UNL A   1      39.371  34.263  38.941  1.00  0.00     0.006 A 
ENDBRANCH  51  72
BRANCH  63  80
ATOM     80  C   UNL A   1      44.358  28.018  34.470  1.00  0.00     0.057 A 
ATOM     81  C   UNL A   1      44.267  26.837  35.215  1.00  0.00     0.134 A 
ATOM     82  C   UNL A   1      45.625  28.601  34.333  1.00  0.00     0.134 A 
ATOM     83  F   UNL A   1      43.081  26.235  35.395  1.00  0.00    -0.206 F 
ATOM     84  C   UNL A   1      45.389  26.271  35.824  1.00  0.00     0.040 A 
ATOM     85  C   UNL A   1      46.758  28.029  34.911  1.00  0.00     0.040 A 
ATOM     86  F   UNL A   1      45.784  29.729  33.623  1.00  0.00    -0.206 F 
ATOM     87  C   UNL A   1      46.640  26.864  35.665  1.00  0.00     0.006 A 
ENDBRANCH  63  80
ENDBRANCH  37  38
ENDBRANCH  29  32
ENDBRANCH  27  28
ENDBRANCH   1  27
TORSDOF 14
ENDMDL
MODEL 3
REMARK VINA RESULT:     -11.2      1.211      2.248
REMARK SMILES C[C@@H]1CCC[C@H](S[C@@H]2CCC[C@]([NH2+]C3CC3)(C(=O)NCCCNC(=O)c3ccc(-c4c5nc(c(-c6c(F)cccc6F)c6ccc([nH]6)c(-c6c(F)cccc6F)c6nc(c(-c7c(F)cccc7F)c7ccc4[nH]7)C=C6)C=C5)cc3)C2)C1
REMARK SMILES IDX 21 1 20 2 19 3 17 4 18 5 12 7 8 8 9 9 80 10 10 11 11 12 7 13
REMARK SMILES IDX 6 14 1 15 2 16 3 17 81 18 4 19 5 20 13 21 14 24 15 25 16 26
REMARK SMILES IDX 22 27 23 28 24 29 25 31 26 32 27 33 79 34 28 35 78 36 29 37
REMARK SMILES IDX 30 38 31 39 72 40 32 41 77 42 71 43 73 44 33 45 76 46 70 47
REMARK SMILES IDX 69 48 34 50 60 51 43 52 59 53 44 54 47 55 58 56 74 57 45 58
REMARK SMILES IDX 46 59 57 61 75 62 48 63 35 64 36 65 41 66 37 67 38 68 40 69
REMARK SMILES IDX 42 70 39 71 61 72 62 73 67 74 63 75 64 76 66 77 68 78 65 79
REMARK SMILES IDX 49 80 50 81 55 82 51 83 52 84 54 85 56 86 53 87
REMARK H PARENT 19 6 13 22 13 23 23 30 73 49 47 60
REMARK Flexibility Score: inf
ROOT
ATOM      1  C   UNL A   1      38.772  20.128  25.075  1.00  0.00     0.042 C 
ENDROOT
BRANCH   1   2
ATOM      2  C   UNL A   1      38.235  21.509  25.422  1.00  0.00     0.118 C 
BRANCH   2   3
ATOM      3  N   UNL A   1      37.505  22.128  24.328  1.00  0.00    -0.351 N 
ATOM      4  C   UNL A   1      36.182  22.356  24.084  1.00  0.00     0.281 C 
ATOM      5  O   UNL A   1      35.942  22.916  23.011  1.00  0.00    -0.268 OA
ATOM      6  H   UNL A   1      38.092  22.453  23.608  1.00  0.00     0.163 HD
BRANCH   4   7
ATOM      7  C   UNL A   1      35.049  21.963  25.089  1.00  0.00     0.176 C 
ATOM      8  C   UNL A   1      32.577  22.578  25.713  1.00  0.00     0.053 C 
ATOM      9  C   UNL A   1      32.987  23.039  27.109  1.00  0.00     0.015 C 
ATOM     10  C   UNL A   1      33.687  22.578  24.666  1.00  0.00     0.093 C 
ATOM     11  C   UNL A   1      34.327  22.443  27.526  1.00  0.00     0.008 C 
ATOM     12  C   UNL A   1      35.397  22.624  26.455  1.00  0.00     0.079 C 
BRANCH   8  13
ATOM     13  S   UNL A   1      30.977  23.302  25.101  1.00  0.00    -0.155 SA
BRANCH  13  14
ATOM     14  C   UNL A   1      31.084  25.149  24.915  1.00  0.00     0.047 C 
ATOM     15  C   UNL A   1      32.876  24.750  21.929  1.00  0.00     0.007 C 
ATOM     16  C   UNL A   1      32.517  25.905  22.868  1.00  0.00    -0.013 C 
ATOM     17  C   UNL A   1      33.620  26.331  23.862  1.00  0.00     0.003 C 
ATOM     18  C   UNL A   1      31.131  25.685  23.476  1.00  0.00     0.017 C 
ATOM     19  C   UNL A   1      33.406  26.098  25.362  1.00  0.00     0.001 C 
ATOM     20  C   UNL A   1      31.965  25.995  25.819  1.00  0.00     0.014 C 
ENDBRANCH  13  14
ENDBRANCH   8  13
BRANCH   7  21
ATOM     21  N   UNL A   1      34.961  20.489  25.189  1.00  0.00    -0.331 N 
ATOM     22  H   UNL A   1      34.901  20.274  26.184  1.00  0.00     0.347 HD
ATOM     23  H   UNL A   1      35.783  20.189  24.665  1.00  0.00     0.347 HD
BRANCH  21  24
ATOM     24  C   UNL A   1      33.881  19.724  24.536  1.00  0.00     0.183 C 
ATOM     25  C   UNL A   1      33.790  18.236  24.337  1.00  0.00     0.071 C 
ATOM     26  C   UNL A   1      32.909  18.897  25.346  1.00  0.00     0.071 C 
ENDBRANCH  21  24
ENDBRANCH   7  21
ENDBRANCH   4   7
ENDBRANCH   2   3
ENDBRANCH   1   2
BRANCH   1  27
ATOM     27  C   UNL A   1      39.465  19.432  26.236  1.00  0.00     0.118 C 
BRANCH  27  28
ATOM     28  N   UNL A   1      40.790  18.945  25.876  1.00  0.00    -0.352 N 
ATOM     29  C   UNL A   1      41.989  19.608  25.776  1.00  0.00     0.251 C 
ATOM     30  H   UNL A   1      40.832  17.983  25.669  1.00  0.00     0.163 HD
ATOM     31  O   UNL A   1      42.930  19.076  25.198  1.00  0.00    -0.269 OA
BRANCH  29  32
ATOM     32  C   UNL A   1      42.145  20.964  26.344  1.00  0.00     0.039 A 
ATOM     33  C   UNL A   1      42.062  21.137  27.729  1.00  0.00     0.014 A 
ATOM     34  C   UNL A   1      42.335  22.070  25.515  1.00  0.00     0.014 A 
ATOM     35  C   UNL A   1      42.241  22.409  28.280  1.00  0.00     0.010 A 
ATOM     36  C   UNL A   1      42.620  23.313  26.069  1.00  0.00     0.010 A 
ATOM     37  C   UNL A   1      42.561  23.500  27.457  1.00  0.00    -0.014 A 
BRANCH  37  38
ATOM     38  C   UNL A   1      42.821  24.849  28.021  1.00  0.00     0.031 A 
ATOM     39  C   UNL A   1      44.207  25.227  28.467  1.00  0.00     0.074 A 
ATOM     40  C   UNL A   1      41.796  25.707  28.195  1.00  0.00     0.049 A 
ATOM     41  N   UNL A   1      44.619  26.323  29.055  1.00  0.00    -0.248 NA
ATOM     42  C   UNL A   1      45.269  24.229  28.254  1.00  0.00     0.031 C 
ATOM     43  C   UNL A   1      40.398  25.440  27.853  1.00  0.00     0.029 A 
ATOM     44  N   UNL A   1      41.772  26.977  28.715  1.00  0.00    -0.354 N 
ATOM     45  C   UNL A   1      45.974  26.135  29.297  1.00  0.00     0.074 A 
ATOM     46  C   UNL A   1      46.304  24.800  28.851  1.00  0.00     0.031 C 
ATOM     47  C   UNL A   1      39.658  26.522  28.144  1.00  0.00     0.029 A 
ATOM     48  C   UNL A   1      40.519  27.542  28.732  1.00  0.00     0.049 A 
ATOM     49  H   UNL A   1      42.576  27.440  29.044  1.00  0.00     0.167 HD
ATOM     50  C   UNL A   1      46.869  27.007  29.818  1.00  0.00     0.037 A 
ATOM     51  C   UNL A   1      40.111  28.744  29.179  1.00  0.00     0.037 A 
ATOM     52  C   UNL A   1      46.543  28.345  30.234  1.00  0.00     0.049 A 
ATOM     53  C   UNL A   1      41.124  29.692  29.757  1.00  0.00     0.074 A 
ATOM     54  C   UNL A   1      47.388  29.328  30.717  1.00  0.00     0.029 A 
ATOM     55  N   UNL A   1      45.266  28.887  30.216  1.00  0.00    -0.354 N 
ATOM     56  N   UNL A   1      42.416  29.529  29.915  1.00  0.00    -0.248 NA
ATOM     57  C   UNL A   1      40.624  30.997  30.214  1.00  0.00     0.031 C 
ATOM     58  C   UNL A   1      46.615  30.449  31.038  1.00  0.00     0.029 A 
ATOM     59  C   UNL A   1      45.297  30.183  30.702  1.00  0.00     0.049 A 
ATOM     60  H   UNL A   1      44.458  28.419  29.905  1.00  0.00     0.167 HD
ATOM     61  C   UNL A   1      42.887  30.717  30.458  1.00  0.00     0.074 A 
ATOM     62  C   UNL A   1      41.745  31.598  30.589  1.00  0.00     0.031 C 
ATOM     63  C   UNL A   1      44.151  31.049  30.817  1.00  0.00     0.037 A 
BRANCH  50  64
ATOM     64  C   UNL A   1      48.291  26.541  29.958  1.00  0.00     0.057 A 
ATOM     65  C   UNL A   1      49.246  26.763  28.956  1.00  0.00     0.134 A 
ATOM     66  C   UNL A   1      48.720  25.890  31.122  1.00  0.00     0.134 A 
ATOM     67  F   UNL A   1      48.900  27.370  27.810  1.00  0.00    -0.206 F 
ATOM     68  C   UNL A   1      50.566  26.329  29.093  1.00  0.00     0.040 A 
ATOM     69  C   UNL A   1      50.044  25.479  31.284  1.00  0.00     0.040 A 
ATOM     70  F   UNL A   1      47.861  25.650  32.125  1.00  0.00    -0.206 F 
ATOM     71  C   UNL A   1      50.970  25.692  30.264  1.00  0.00     0.006 A 
ENDBRANCH  50  64
BRANCH  51  72
ATOM     72  C   UNL A   1      38.681  29.132  29.076  1.00  0.00     0.057 A 
ATOM     73  C   UNL A   1      38.147  29.613  27.875  1.00  0.00     0.134 A 
ATOM     74  C   UNL A   1      37.816  29.042  30.173  1.00  0.00     0.134 A 
ATOM     75  F   UNL A   1      38.929  29.738  26.792  1.00  0.00    -0.206 F 
ATOM     76  C   UNL A   1      36.815  30.014  27.773  1.00  0.00     0.040 A 
ATOM     77  C   UNL A   1      36.473  29.413  30.079  1.00  0.00     0.040 A 
ATOM     78  F   UNL A   1      38.261  28.579  31.351  1.00  0.00    -0.206 F 
ATOM     79  C   UNL A   1      35.972  29.911  28.878  1.00  0.00     0.006 A 
ENDBRANCH  51  72
BRANCH  63  80
ATOM     80  C   UNL A   1      44.372  32.436  31.347  1.00  0.00     0.057 A 
ATOM     81  C   UNL A   1      44.642  33.519  30.503  1.00  0.00     0.134 A 
ATOM     82  C   UNL A   1      44.274  32.695  32.721  1.00  0.00     0.134 A 
ATOM     83  F   UNL A   1      44.762  33.337  29.178  1.00  0.00    -0.206 F 
ATOM     84  C   UNL A   1      44.834  34.807  31.008  1.00  0.00     0.040 A 
ATOM     85  C   UNL A   1      44.433  33.982  33.234  1.00  0.00     0.040 A 
ATOM     86  F   UNL A   1      44.007  31.703  33.585  1.00  0.00    -0.206 F 
ATOM     87  C   UNL A   1      44.722  35.041  32.377  1.00  0.00     0.006 A 
ENDBRANCH  63  80
ENDBRANCH  37  38
ENDBRANCH  29  32
ENDBRANCH  27  28
ENDBRANCH   1  27
TORSDOF 14
ENDMDL
