MODEL 1
REMARK VINA RESULT:     -13.6      0.000      0.000
REMARK SMILES O=CN[C@@H](CCS[C@@H]1CCO[C@]2(CCOC2)C1)C(=O)NCCCNC(=O)c1ccc(-c2c3nc(c(-c4c(F)cccc4F)c4ccc([nH]4)c(-c4c(F)cccc4F)c4nc(c(-c5c(F)cccc5F)c5ccc2[nH]5)C=C4)C=C3)cc1
REMARK SMILES IDX 21 1 20 2 18 3 19 4 4 6 3 7 1 8 2 9 5 11 6 12 7 13 8 14 9 15
REMARK SMILES IDX 17 16 10 17 12 18 11 19 13 20 16 21 14 22 15 23 22 24 23 25
REMARK SMILES IDX 24 26 25 27 26 29 27 30 28 31 80 32 29 33 79 34 30 35 31 36
REMARK SMILES IDX 32 37 73 38 33 39 78 40 72 41 74 42 34 43 77 44 71 45 70 46
REMARK SMILES IDX 35 48 61 49 44 50 60 51 45 52 48 53 59 54 75 55 46 56 47 57
REMARK SMILES IDX 58 59 76 60 49 61 36 62 37 63 42 64 38 65 39 66 41 67 43 68
REMARK SMILES IDX 40 69 62 70 63 71 68 72 64 73 65 74 67 75 69 76 66 77 50 78
REMARK SMILES IDX 51 79 56 80 52 81 53 82 55 83 57 84 54 85
REMARK H PARENT 20 5 3 10 24 28 74 47 48 58
REMARK Flexibility Score: inf
ROOT
ATOM      1  C   UNL A   1      35.769  20.400  24.993  1.00  0.00     0.117 C 
ENDROOT
BRANCH   1   2
ATOM      2  N   UNL A   1      34.408  19.469  24.987  1.00  0.00    -0.354 N 
ATOM      3  C   UNL A   1      33.064  19.607  24.996  1.00  0.00     0.242 C 
ATOM      4  O   UNL A   1      32.359  18.603  24.892  1.00  0.00    -0.273 OA
ATOM      5  H   UNL A   1      34.650  18.515  24.976  1.00  0.00     0.163 HD
BRANCH   3   6
ATOM      6  C   UNL A   1      32.483  20.969  25.025  1.00  0.00     0.171 C 
BRANCH   6   7
ATOM      7  N   UNL A   1      32.649  21.345  26.423  1.00  0.00    -0.347 N 
ATOM      8  O   UNL A   1      32.093  22.942  27.955  1.00  0.00    -0.279 OA
ATOM      9  C   UNL A   1      32.433  22.647  26.818  1.00  0.00     0.337 C 
ATOM     10  H   UNL A   1      32.914  20.668  27.087  1.00  0.00     0.164 HD
ENDBRANCH   6   7
BRANCH   6  11
ATOM     11  C   UNL A   1      33.202  21.812  23.964  1.00  0.00     0.046 C 
BRANCH  11  12
ATOM     12  C   UNL A   1      32.387  22.835  23.048  1.00  0.00     0.072 C 
BRANCH  12  13
ATOM     13  S   UNL A   1      32.955  24.309  21.848  1.00  0.00    -0.158 SA
BRANCH  13  14
ATOM     14  C   UNL A   1      33.415  25.955  22.940  1.00  0.00     0.052 C 
ATOM     15  C   UNL A   1      34.061  25.775  24.792  1.00  0.00     0.043 C 
ATOM     16  C   UNL A   1      31.982  27.141  22.612  1.00  0.00     0.052 C 
ATOM     17  C   UNL A   1      32.787  26.280  26.226  1.00  0.00     0.162 C 
ATOM     18  C   UNL A   1      30.920  27.793  24.065  1.00  0.00     0.095 C 
ATOM     19  O   UNL A   1      31.297  27.276  25.756  1.00  0.00    -0.372 OA
ATOM     20  C   UNL A   1      29.456  27.578  23.624  1.00  0.00     0.066 C 
ATOM     21  C   UNL A   1      30.761  29.359  24.151  1.00  0.00     0.195 C 
ATOM     22  C   UNL A   1      29.284  28.679  22.561  1.00  0.00     0.163 C 
ATOM     23  O   UNL A   1      30.147  29.757  22.934  1.00  0.00    -0.378 OA
ENDBRANCH  13  14
ENDBRANCH  12  13
ENDBRANCH  11  12
ENDBRANCH   6  11
ENDBRANCH   3   6
ENDBRANCH   1   2
BRANCH   1  24
ATOM     24  C   UNL A   1      37.778  19.746  25.055  1.00  0.00     0.042 C 
BRANCH  24  25
ATOM     25  C   UNL A   1      39.121  19.864  26.013  1.00  0.00     0.118 C 
BRANCH  25  26
ATOM     26  N   UNL A   1      40.294  19.036  25.739  1.00  0.00    -0.352 N 
ATOM     27  C   UNL A   1      41.621  19.180  26.071  1.00  0.00     0.251 C 
ATOM     28  H   UNL A   1      40.099  18.224  25.218  1.00  0.00     0.163 HD
ATOM     29  O   UNL A   1      42.384  18.257  25.874  1.00  0.00    -0.269 OA
BRANCH  27  30
ATOM     30  C   UNL A   1      42.142  20.480  26.522  1.00  0.00     0.039 A 
ATOM     31  C   UNL A   1      42.497  21.383  25.514  1.00  0.00     0.014 A 
ATOM     32  C   UNL A   1      42.232  20.841  27.865  1.00  0.00     0.014 A 
ATOM     33  C   UNL A   1      42.881  22.674  25.851  1.00  0.00     0.010 A 
ATOM     34  C   UNL A   1      42.528  22.155  28.198  1.00  0.00     0.010 A 
ATOM     35  C   UNL A   1      42.861  23.074  27.192  1.00  0.00    -0.014 A 
BRANCH  35  36
ATOM     36  C   UNL A   1      43.234  24.454  27.557  1.00  0.00     0.031 A 
ATOM     37  C   UNL A   1      44.669  24.870  27.475  1.00  0.00     0.074 A 
ATOM     38  C   UNL A   1      42.279  25.304  27.974  1.00  0.00     0.049 A 
ATOM     39  N   UNL A   1      45.213  26.021  27.765  1.00  0.00    -0.248 NA
ATOM     40  C   UNL A   1      45.627  23.842  27.036  1.00  0.00     0.031 C 
ATOM     41  C   UNL A   1      40.857  24.978  28.114  1.00  0.00     0.029 A 
ATOM     42  N   UNL A   1      42.358  26.618  28.348  1.00  0.00    -0.354 N 
ATOM     43  C   UNL A   1      46.575  25.852  27.558  1.00  0.00     0.074 A 
ATOM     44  C   UNL A   1      46.782  24.472  27.180  1.00  0.00     0.031 C 
ATOM     45  C   UNL A   1      40.191  26.078  28.503  1.00  0.00     0.029 A 
ATOM     46  C   UNL A   1      41.143  27.172  28.667  1.00  0.00     0.049 A 
ATOM     47  H   UNL A   1      43.205  27.120  28.383  1.00  0.00     0.167 HD
ATOM     48  C   UNL A   1      47.560  26.775  27.648  1.00  0.00     0.037 A 
ATOM     49  C   UNL A   1      40.839  28.428  29.038  1.00  0.00     0.037 A 
ATOM     50  C   UNL A   1      47.330  28.148  28.004  1.00  0.00     0.049 A 
ATOM     51  C   UNL A   1      41.948  29.438  29.129  1.00  0.00     0.074 A 
ATOM     52  C   UNL A   1      48.240  29.184  28.098  1.00  0.00     0.029 A 
ATOM     53  N   UNL A   1      46.084  28.677  28.319  1.00  0.00    -0.354 N 
ATOM     54  N   UNL A   1      43.228  29.280  28.890  1.00  0.00    -0.248 NA
ATOM     55  C   UNL A   1      41.572  30.797  29.535  1.00  0.00     0.031 C 
ATOM     56  C   UNL A   1      47.549  30.333  28.502  1.00  0.00     0.029 A 
ATOM     57  C   UNL A   1      46.203  30.021  28.621  1.00  0.00     0.049 A 
ATOM     58  H   UNL A   1      45.241  28.168  28.327  1.00  0.00     0.167 HD
ATOM     59  C   UNL A   1      43.809  30.525  29.090  1.00  0.00     0.074 A 
ATOM     60  C   UNL A   1      42.736  31.428  29.459  1.00  0.00     0.031 C 
ATOM     61  C   UNL A   1      45.110  30.891  28.979  1.00  0.00     0.037 A 
BRANCH  48  62
ATOM     62  C   UNL A   1      48.956  26.306  27.365  1.00  0.00     0.057 A 
ATOM     63  C   UNL A   1      49.814  25.877  28.389  1.00  0.00     0.134 A 
ATOM     64  C   UNL A   1      49.467  26.322  26.062  1.00  0.00     0.134 A 
ATOM     65  F   UNL A   1      49.395  25.859  29.663  1.00  0.00    -0.206 F 
ATOM     66  C   UNL A   1      51.140  25.523  28.133  1.00  0.00     0.040 A 
ATOM     67  C   UNL A   1      50.783  25.943  25.789  1.00  0.00     0.040 A 
ATOM     68  F   UNL A   1      48.702  26.722  25.035  1.00  0.00    -0.206 F 
ATOM     69  C   UNL A   1      51.626  25.554  26.827  1.00  0.00     0.006 A 
ENDBRANCH  48  62
BRANCH  49  70
ATOM     70  C   UNL A   1      39.426  28.806  29.289  1.00  0.00     0.057 A 
ATOM     71  C   UNL A   1      38.626  29.309  28.257  1.00  0.00     0.134 A 
ATOM     72  C   UNL A   1      38.834  28.650  30.547  1.00  0.00     0.134 A 
ATOM     73  F   UNL A   1      39.140  29.491  27.032  1.00  0.00    -0.206 F 
ATOM     74  C   UNL A   1      37.291  29.655  28.469  1.00  0.00     0.040 A 
ATOM     75  C   UNL A   1      37.495  28.974  30.770  1.00  0.00     0.040 A 
ATOM     76  F   UNL A   1      39.545  28.163  31.574  1.00  0.00    -0.206 F 
ATOM     77  C   UNL A   1      36.720  29.482  29.729  1.00  0.00     0.006 A 
ENDBRANCH  49  70
BRANCH  61  78
ATOM     78  C   UNL A   1      45.429  32.333  29.234  1.00  0.00     0.057 A 
ATOM     79  C   UNL A   1      45.847  32.783  30.491  1.00  0.00     0.134 A 
ATOM     80  C   UNL A   1      45.358  33.269  28.195  1.00  0.00     0.134 A 
ATOM     81  F   UNL A   1      45.922  31.935  31.528  1.00  0.00    -0.206 F 
ATOM     82  C   UNL A   1      46.164  34.124  30.713  1.00  0.00     0.040 A 
ATOM     83  C   UNL A   1      45.696  34.607  28.400  1.00  0.00     0.040 A 
ATOM     84  F   UNL A   1      44.973  32.896  26.966  1.00  0.00    -0.206 F 
ATOM     85  C   UNL A   1      46.096  35.038  29.663  1.00  0.00     0.006 A 
ENDBRANCH  61  78
ENDBRANCH  35  36
ENDBRANCH  27  30
ENDBRANCH  25  26
ENDBRANCH  24  25
ENDBRANCH   1  24
TORSDOF 15
ENDMDL
MODEL 2
REMARK VINA RESULT:     -13.5      4.951     10.290
REMARK SMILES O=CN[C@@H](CCS[C@@H]1CCO[C@]2(CCOC2)C1)C(=O)NCCCNC(=O)c1ccc(-c2c3nc(c(-c4c(F)cccc4F)c4ccc([nH]4)c(-c4c(F)cccc4F)c4nc(c(-c5c(F)cccc5F)c5ccc2[nH]5)C=C4)C=C3)cc1
REMARK SMILES IDX 21 1 20 2 18 3 19 4 4 6 3 7 1 8 2 9 5 11 6 12 7 13 8 14 9 15
REMARK SMILES IDX 17 16 10 17 12 18 11 19 13 20 16 21 14 22 15 23 22 24 23 25
REMARK SMILES IDX 24 26 25 27 26 29 27 30 28 31 80 32 29 33 79 34 30 35 31 36
REMARK SMILES IDX 32 37 73 38 33 39 78 40 72 41 74 42 34 43 77 44 71 45 70 46
REMARK SMILES IDX 35 48 61 49 44 50 60 51 45 52 48 53 59 54 75 55 46 56 47 57
REMARK SMILES IDX 58 59 76 60 49 61 36 62 37 63 42 64 38 65 39 66 41 67 43 68
REMARK SMILES IDX 40 69 62 70 63 71 68 72 64 73 65 74 67 75 69 76 66 77 50 78
REMARK SMILES IDX 51 79 56 80 52 81 53 82 55 83 57 84 54 85
REMARK H PARENT 20 5 3 10 24 28 74 47 48 58
REMARK Flexibility Score: inf
ROOT
ATOM      1  C   UNL A   1      30.092  31.439  24.702  1.00  0.00     0.117 C 
ENDROOT
BRANCH   1   2
ATOM      2  N   UNL A   1      30.096  30.254  23.554  1.00  0.00    -0.354 N 
ATOM      3  C   UNL A   1      30.777  29.134  23.229  1.00  0.00     0.242 C 
ATOM      4  O   UNL A   1      30.383  28.447  22.287  1.00  0.00    -0.273 OA
ATOM      5  H   UNL A   1      29.377  30.414  22.901  1.00  0.00     0.163 HD
BRANCH   3   6
ATOM      6  C   UNL A   1      31.914  28.715  24.081  1.00  0.00     0.171 C 
BRANCH   6   7
ATOM      7  N   UNL A   1      31.303  27.704  24.935  1.00  0.00    -0.347 N 
ATOM      8  O   UNL A   1      31.026  27.091  27.115  1.00  0.00    -0.279 OA
ATOM      9  C   UNL A   1      31.743  27.537  26.229  1.00  0.00     0.337 C 
ATOM     10  H   UNL A   1      30.575  27.140  24.587  1.00  0.00     0.164 HD
ENDBRANCH   6   7
BRANCH   6  11
ATOM     11  C   UNL A   1      33.060  28.280  23.159  1.00  0.00     0.046 C 
BRANCH  11  12
ATOM     12  C   UNL A   1      33.427  26.735  22.990  1.00  0.00     0.072 C 
BRANCH  12  13
ATOM     13  S   UNL A   1      32.574  25.254  21.984  1.00  0.00    -0.158 SA
BRANCH  13  14
ATOM     14  C   UNL A   1      32.337  23.641  23.189  1.00  0.00     0.052 C 
ATOM     15  C   UNL A   1      31.158  23.736  24.764  1.00  0.00     0.043 C 
ATOM     16  C   UNL A   1      34.093  22.989  23.435  1.00  0.00     0.052 C 
ATOM     17  C   UNL A   1      32.049  23.807  26.534  1.00  0.00     0.162 C 
ATOM     18  C   UNL A   1      34.831  22.850  25.196  1.00  0.00     0.095 C 
ATOM     19  O   UNL A   1      33.839  23.340  26.626  1.00  0.00    -0.372 OA
ATOM     20  C   UNL A   1      36.222  23.513  25.104  1.00  0.00     0.066 C 
ATOM     21  C   UNL A   1      35.425  21.442  25.584  1.00  0.00     0.195 C 
ATOM     22  C   UNL A   1      37.021  22.456  24.321  1.00  0.00     0.163 C 
ATOM     23  O   UNL A   1      36.457  21.182  24.644  1.00  0.00    -0.378 OA
ENDBRANCH  13  14
ENDBRANCH  12  13
ENDBRANCH  11  12
ENDBRANCH   6  11
ENDBRANCH   3   6
ENDBRANCH   1   2
BRANCH   1  24
ATOM     24  C   UNL A   1      31.351  31.600  26.392  1.00  0.00     0.042 C 
BRANCH  24  25
ATOM     25  C   UNL A   1      32.603  32.522  26.957  1.00  0.00     0.118 C 
BRANCH  25  26
ATOM     26  N   UNL A   1      32.336  33.795  27.625  1.00  0.00    -0.352 N 
ATOM     27  C   UNL A   1      33.099  34.573  28.462  1.00  0.00     0.251 C 
ATOM     28  H   UNL A   1      31.442  34.163  27.442  1.00  0.00     0.163 HD
ATOM     29  O   UNL A   1      32.714  35.687  28.751  1.00  0.00    -0.269 OA
BRANCH  27  30
ATOM     30  C   UNL A   1      34.294  34.017  29.118  1.00  0.00     0.039 A 
ATOM     31  C   UNL A   1      34.066  32.986  30.037  1.00  0.00     0.014 A 
ATOM     32  C   UNL A   1      35.590  34.432  28.819  1.00  0.00     0.014 A 
ATOM     33  C   UNL A   1      35.145  32.324  30.607  1.00  0.00     0.010 A 
ATOM     34  C   UNL A   1      36.666  33.713  29.319  1.00  0.00     0.010 A 
ATOM     35  C   UNL A   1      36.447  32.661  30.221  1.00  0.00    -0.014 A 
BRANCH  35  36
ATOM     36  C   UNL A   1      37.598  31.939  30.796  1.00  0.00     0.031 A 
ATOM     37  C   UNL A   1      38.033  32.251  32.194  1.00  0.00     0.074 A 
ATOM     38  C   UNL A   1      38.246  31.030  30.045  1.00  0.00     0.049 A 
ATOM     39  N   UNL A   1      39.024  31.750  32.882  1.00  0.00    -0.248 NA
ATOM     40  C   UNL A   1      37.266  33.287  32.904  1.00  0.00     0.031 C 
ATOM     41  C   UNL A   1      37.912  30.682  28.661  1.00  0.00     0.029 A 
ATOM     42  N   UNL A   1      39.312  30.227  30.343  1.00  0.00    -0.354 N 
ATOM     43  C   UNL A   1      39.009  32.420  34.097  1.00  0.00     0.074 A 
ATOM     44  C   UNL A   1      37.952  33.405  34.030  1.00  0.00     0.031 C 
ATOM     45  C   UNL A   1      38.732  29.703  28.246  1.00  0.00     0.029 A 
ATOM     46  C   UNL A   1      39.664  29.381  29.321  1.00  0.00     0.049 A 
ATOM     47  H   UNL A   1      39.783  30.252  31.208  1.00  0.00     0.167 HD
ATOM     48  C   UNL A   1      39.790  32.210  35.182  1.00  0.00     0.037 A 
ATOM     49  C   UNL A   1      40.626  28.442  29.271  1.00  0.00     0.037 A 
ATOM     50  C   UNL A   1      40.820  31.210  35.236  1.00  0.00     0.049 A 
ATOM     51  C   UNL A   1      41.479  28.224  30.488  1.00  0.00     0.074 A 
ATOM     52  C   UNL A   1      41.655  30.881  36.287  1.00  0.00     0.029 A 
ATOM     53  N   UNL A   1      41.149  30.367  34.181  1.00  0.00    -0.354 N 
ATOM     54  N   UNL A   1      41.431  28.833  31.649  1.00  0.00    -0.248 NA
ATOM     55  C   UNL A   1      42.515  27.189  30.391  1.00  0.00     0.031 C 
ATOM     56  C   UNL A   1      42.511  29.860  35.857  1.00  0.00     0.029 A 
ATOM     57  C   UNL A   1      42.182  29.526  34.551  1.00  0.00     0.049 A 
ATOM     58  H   UNL A   1      40.710  30.369  33.300  1.00  0.00     0.167 HD
ATOM     59  C   UNL A   1      42.411  28.238  32.432  1.00  0.00     0.074 A 
ATOM     60  C   UNL A   1      43.029  27.212  31.614  1.00  0.00     0.031 C 
ATOM     61  C   UNL A   1      42.769  28.512  33.711  1.00  0.00     0.037 A 
BRANCH  48  62
ATOM     62  C   UNL A   1      39.548  33.092  36.371  1.00  0.00     0.057 A 
ATOM     63  C   UNL A   1      38.615  32.756  37.363  1.00  0.00     0.134 A 
ATOM     64  C   UNL A   1      40.223  34.311  36.508  1.00  0.00     0.134 A 
ATOM     65  F   UNL A   1      37.918  31.613  37.281  1.00  0.00    -0.206 F 
ATOM     66  C   UNL A   1      38.330  33.619  38.422  1.00  0.00     0.040 A 
ATOM     67  C   UNL A   1      39.967  35.170  37.579  1.00  0.00     0.040 A 
ATOM     68  F   UNL A   1      41.127  34.696  35.596  1.00  0.00    -0.206 F 
ATOM     69  C   UNL A   1      39.010  34.830  38.533  1.00  0.00     0.006 A 
ENDBRANCH  48  62
BRANCH  49  70
ATOM     70  C   UNL A   1      40.786  27.609  28.054  1.00  0.00     0.057 A 
ATOM     71  C   UNL A   1      41.602  28.031  26.999  1.00  0.00     0.134 A 
ATOM     72  C   UNL A   1      40.153  26.367  27.924  1.00  0.00     0.134 A 
ATOM     73  F   UNL A   1      42.225  29.217  27.061  1.00  0.00    -0.206 F 
ATOM     74  C   UNL A   1      41.776  27.254  25.853  1.00  0.00     0.040 A 
ATOM     75  C   UNL A   1      40.334  25.570  26.792  1.00  0.00     0.040 A 
ATOM     76  F   UNL A   1      39.366  25.902  28.905  1.00  0.00    -0.206 F 
ATOM     77  C   UNL A   1      41.145  26.015  25.750  1.00  0.00     0.006 A 
ENDBRANCH  49  70
BRANCH  61  78
ATOM     78  C   UNL A   1      43.858  27.669  34.303  1.00  0.00     0.057 A 
ATOM     79  C   UNL A   1      45.196  28.078  34.286  1.00  0.00     0.134 A 
ATOM     80  C   UNL A   1      43.553  26.457  34.932  1.00  0.00     0.134 A 
ATOM     81  F   UNL A   1      45.551  29.225  33.685  1.00  0.00    -0.206 F 
ATOM     82  C   UNL A   1      46.200  27.297  34.860  1.00  0.00     0.040 A 
ATOM     83  C   UNL A   1      44.545  25.680  35.530  1.00  0.00     0.040 A 
ATOM     84  F   UNL A   1      42.288  26.016  34.988  1.00  0.00    -0.206 F 
ATOM     85  C   UNL A   1      45.874  26.097  35.490  1.00  0.00     0.006 A 
ENDBRANCH  61  78
ENDBRANCH  35  36
ENDBRANCH  27  30
ENDBRANCH  25  26
ENDBRANCH  24  25
ENDBRANCH   1  24
TORSDOF 15
ENDMDL
MODEL 3
REMARK VINA RESULT:     -13.4      1.567      2.667
REMARK SMILES O=CN[C@@H](CCS[C@@H]1CCO[C@]2(CCOC2)C1)C(=O)NCCCNC(=O)c1ccc(-c2c3nc(c(-c4c(F)cccc4F)c4ccc([nH]4)c(-c4c(F)cccc4F)c4nc(c(-c5c(F)cccc5F)c5ccc2[nH]5)C=C4)C=C3)cc1
REMARK SMILES IDX 21 1 20 2 18 3 19 4 4 6 3 7 1 8 2 9 5 11 6 12 7 13 8 14 9 15
REMARK SMILES IDX 17 16 10 17 12 18 11 19 13 20 16 21 14 22 15 23 22 24 23 25
REMARK SMILES IDX 24 26 25 27 26 29 27 30 28 31 80 32 29 33 79 34 30 35 31 36
REMARK SMILES IDX 32 37 73 38 33 39 78 40 72 41 74 42 34 43 77 44 71 45 70 46
REMARK SMILES IDX 35 48 61 49 44 50 60 51 45 52 48 53 59 54 75 55 46 56 47 57
REMARK SMILES IDX 58 59 76 60 49 61 36 62 37 63 42 64 38 65 39 66 41 67 43 68
REMARK SMILES IDX 40 69 62 70 63 71 68 72 64 73 65 74 67 75 69 76 66 77 50 78
REMARK SMILES IDX 51 79 56 80 52 81 53 82 55 83 57 84 54 85
REMARK H PARENT 20 5 3 10 24 28 74 47 48 58
REMARK Flexibility Score: inf
ROOT
ATOM      1  C   UNL A   1      37.084  22.068  25.498  1.00  0.00     0.117 C 
ENDROOT
BRANCH   1   2
ATOM      2  N   UNL A   1      35.786  21.912  26.503  1.00  0.00    -0.354 N 
ATOM      3  C   UNL A   1      34.514  21.459  26.483  1.00  0.00     0.242 C 
ATOM      4  O   UNL A   1      33.868  21.442  27.531  1.00  0.00    -0.273 OA
ATOM      5  H   UNL A   1      36.007  22.259  27.397  1.00  0.00     0.163 HD
BRANCH   3   6
ATOM      6  C   UNL A   1      33.972  20.901  25.222  1.00  0.00     0.171 C 
BRANCH   6   7
ATOM      7  N   UNL A   1      34.533  19.556  25.214  1.00  0.00    -0.347 N 
ATOM      8  O   UNL A   1      34.578  17.611  24.022  1.00  0.00    -0.279 OA
ATOM      9  C   UNL A   1      33.949  18.570  24.452  1.00  0.00     0.337 C 
ATOM     10  H   UNL A   1      35.332  19.352  25.753  1.00  0.00     0.164 HD
ENDBRANCH   6   7
BRANCH   6  11
ATOM     11  C   UNL A   1      32.445  21.042  25.261  1.00  0.00     0.046 C 
BRANCH  11  12
ATOM     12  C   UNL A   1      31.757  22.478  25.135  1.00  0.00     0.072 C 
BRANCH  12  13
ATOM     13  S   UNL A   1      31.202  23.823  26.482  1.00  0.00    -0.158 SA
BRANCH  13  14
ATOM     14  C   UNL A   1      30.327  25.406  25.564  1.00  0.00     0.052 C 
ATOM     15  C   UNL A   1      30.102  25.424  23.607  1.00  0.00     0.043 C 
ATOM     16  C   UNL A   1      31.128  26.911  26.377  1.00  0.00     0.052 C 
ATOM     17  C   UNL A   1      31.296  26.637  22.590  1.00  0.00     0.162 C 
ATOM     18  C   UNL A   1      32.077  28.190  25.314  1.00  0.00     0.095 C 
ATOM     19  O   UNL A   1      32.198  27.957  23.526  1.00  0.00    -0.372 OA
ATOM     20  C   UNL A   1      33.422  28.401  26.042  1.00  0.00     0.066 C 
ATOM     21  C   UNL A   1      31.637  29.693  25.493  1.00  0.00     0.195 C 
ATOM     22  C   UNL A   1      32.990  29.233  27.263  1.00  0.00     0.163 C 
ATOM     23  O   UNL A   1      31.852  30.002  26.863  1.00  0.00    -0.378 OA
ENDBRANCH  13  14
ENDBRANCH  12  13
ENDBRANCH  11  12
ENDBRANCH   6  11
ENDBRANCH   3   6
ENDBRANCH   1   2
BRANCH   1  24
ATOM     24  C   UNL A   1      38.770  20.801  25.363  1.00  0.00     0.042 C 
BRANCH  24  25
ATOM     25  C   UNL A   1      39.403  19.452  26.081  1.00  0.00     0.118 C 
BRANCH  25  26
ATOM     26  N   UNL A   1      40.762  19.018  25.762  1.00  0.00    -0.352 N 
ATOM     27  C   UNL A   1      41.993  19.561  26.043  1.00  0.00     0.251 C 
ATOM     28  H   UNL A   1      40.803  18.179  25.248  1.00  0.00     0.163 HD
ATOM     29  O   UNL A   1      42.993  18.913  25.816  1.00  0.00    -0.269 OA
BRANCH  27  30
ATOM     30  C   UNL A   1      42.110  20.963  26.476  1.00  0.00     0.039 A 
ATOM     31  C   UNL A   1      42.077  21.183  27.858  1.00  0.00     0.014 A 
ATOM     32  C   UNL A   1      42.303  22.021  25.590  1.00  0.00     0.014 A 
ATOM     33  C   UNL A   1      42.303  22.459  28.356  1.00  0.00     0.010 A 
ATOM     34  C   UNL A   1      42.618  23.277  26.090  1.00  0.00     0.010 A 
ATOM     35  C   UNL A   1      42.612  23.502  27.474  1.00  0.00    -0.014 A 
BRANCH  35  36
ATOM     36  C   UNL A   1      42.889  24.853  27.997  1.00  0.00     0.031 A 
ATOM     37  C   UNL A   1      44.308  25.272  28.229  1.00  0.00     0.074 A 
ATOM     38  C   UNL A   1      41.861  25.674  28.273  1.00  0.00     0.049 A 
ATOM     39  N   UNL A   1      44.770  26.400  28.697  1.00  0.00    -0.248 NA
ATOM     40  C   UNL A   1      45.345  24.274  27.921  1.00  0.00     0.031 C 
ATOM     41  C   UNL A   1      40.443  25.341  28.106  1.00  0.00     0.029 A 
ATOM     42  N   UNL A   1      41.848  26.960  28.742  1.00  0.00    -0.354 N 
ATOM     43  C   UNL A   1      46.147  26.243  28.753  1.00  0.00     0.074 A 
ATOM     44  C   UNL A   1      46.441  24.892  28.332  1.00  0.00     0.031 C 
ATOM     45  C   UNL A   1      39.701  26.414  28.428  1.00  0.00     0.029 A 
ATOM     46  C   UNL A   1      40.588  27.492  28.850  1.00  0.00     0.049 A 
ATOM     47  H   UNL A   1      42.666  27.457  28.977  1.00  0.00     0.167 HD
ATOM     48  C   UNL A   1      47.084  27.156  29.098  1.00  0.00     0.037 A 
ATOM     49  C   UNL A   1      40.202  28.721  29.237  1.00  0.00     0.037 A 
ATOM     50  C   UNL A   1      46.772  28.503  29.491  1.00  0.00     0.049 A 
ATOM     51  C   UNL A   1      41.258  29.720  29.612  1.00  0.00     0.074 A 
ATOM     52  C   UNL A   1      47.633  29.528  29.833  1.00  0.00     0.029 A 
ATOM     53  N   UNL A   1      45.482  29.011  29.589  1.00  0.00    -0.354 N 
ATOM     54  N   UNL A   1      42.563  29.578  29.622  1.00  0.00    -0.248 NA
ATOM     55  C   UNL A   1      40.793  31.050  30.025  1.00  0.00     0.031 C 
ATOM     56  C   UNL A   1      46.862  30.648  30.168  1.00  0.00     0.029 A 
ATOM     57  C   UNL A   1      45.522  30.331  29.997  1.00  0.00     0.049 A 
ATOM     58  H   UNL A   1      44.660  28.503  29.396  1.00  0.00     0.167 HD
ATOM     59  C   UNL A   1      43.077  30.805  30.015  1.00  0.00     0.074 A 
ATOM     60  C   UNL A   1      41.941  31.683  30.224  1.00  0.00     0.031 C 
ATOM     61  C   UNL A   1      44.370  31.176  30.189  1.00  0.00     0.037 A 
BRANCH  48  62
ATOM     62  C   UNL A   1      48.514  26.705  29.066  1.00  0.00     0.057 A 
ATOM     63  C   UNL A   1      49.312  26.861  27.923  1.00  0.00     0.134 A 
ATOM     64  C   UNL A   1      49.090  26.071  30.173  1.00  0.00     0.134 A 
ATOM     65  F   UNL A   1      48.816  27.440  26.820  1.00  0.00    -0.206 F 
ATOM     66  C   UNL A   1      50.615  26.362  27.867  1.00  0.00     0.040 A 
ATOM     67  C   UNL A   1      50.402  25.593  30.139  1.00  0.00     0.040 A 
ATOM     68  F   UNL A   1      48.383  25.888  31.297  1.00  0.00    -0.206 F 
ATOM     69  C   UNL A   1      51.164  25.728  28.980  1.00  0.00     0.006 A 
ENDBRANCH  48  62
BRANCH  49  70
ATOM     70  C   UNL A   1      38.763  29.083  29.227  1.00  0.00     0.057 A 
ATOM     71  C   UNL A   1      37.988  28.970  30.387  1.00  0.00     0.134 A 
ATOM     72  C   UNL A   1      38.134  29.570  28.076  1.00  0.00     0.134 A 
ATOM     73  F   UNL A   1      38.533  28.499  31.519  1.00  0.00    -0.206 F 
ATOM     74  C   UNL A   1      36.637  29.320  30.402  1.00  0.00     0.040 A 
ATOM     75  C   UNL A   1      36.788  29.942  28.081  1.00  0.00     0.040 A 
ATOM     76  F   UNL A   1      38.824  29.711  26.935  1.00  0.00    -0.206 F 
ATOM     77  C   UNL A   1      36.034  29.813  29.245  1.00  0.00     0.006 A 
ENDBRANCH  49  70
BRANCH  61  78
ATOM     78  C   UNL A   1      44.615  32.597  30.597  1.00  0.00     0.057 A 
ATOM     79  C   UNL A   1      44.732  32.967  31.942  1.00  0.00     0.134 A 
ATOM     80  C   UNL A   1      44.779  33.595  29.629  1.00  0.00     0.134 A 
ATOM     81  F   UNL A   1      44.572  32.056  32.915  1.00  0.00    -0.206 F 
ATOM     82  C   UNL A   1      44.983  34.289  32.312  1.00  0.00     0.040 A 
ATOM     83  C   UNL A   1      45.054  34.915  29.987  1.00  0.00     0.040 A 
ATOM     84  F   UNL A   1      44.687  33.301  28.324  1.00  0.00    -0.206 F 
ATOM     85  C   UNL A   1      45.152  35.265  31.332  1.00  0.00     0.006 A 
ENDBRANCH  61  78
ENDBRANCH  35  36
ENDBRANCH  27  30
ENDBRANCH  25  26
ENDBRANCH  24  25
ENDBRANCH   1  24
TORSDOF 15
ENDMDL
