MODEL 1
REMARK VINA RESULT:     -12.2      0.000      0.000
REMARK SMILES C[C@H](NC(=O)N1CC[C@@H](C(=O)NCCCNC(=O)c2ccc(-c3c4nc(c(-c5c(F)cccc5F)c5ccc([nH]5)c(-c5c(F)cccc5F)c5nc(c(-c6c(F)cccc6F)c6ccc3[nH]6)C=C5)C=C4)cc2)[C@H]1C)c1ccc(Cl)cc1
REMARK SMILES IDX 13 1 12 2 10 3 11 4 9 6 6 7 7 8 73 9 8 10 74 11 4 12 3 13
REMARK SMILES IDX 5 15 2 16 1 17 75 18 76 19 81 20 77 21 80 22 78 23 79 24
REMARK SMILES IDX 14 25 15 26 16 27 17 28 18 30 19 31 20 32 72 33 21 34 71 35
REMARK SMILES IDX 22 36 23 37 24 38 65 39 25 40 70 41 64 42 66 43 26 44 69 45
REMARK SMILES IDX 63 46 62 47 27 49 53 50 36 51 52 52 37 53 40 54 51 55 67 56
REMARK SMILES IDX 38 57 39 58 50 60 68 61 41 62 28 63 29 64 34 65 30 66 31 67
REMARK SMILES IDX 33 68 35 69 32 70 54 71 55 72 60 73 56 74 57 75 59 76 61 77
REMARK SMILES IDX 58 78 42 79 43 80 48 81 44 82 45 83 47 84 49 85 46 86
REMARK H PARENT 12 5 3 14 16 29 66 48 40 59
REMARK Flexibility Score: inf
ROOT
ATOM      1  C   UNL A   1      32.251  29.335  26.859  1.00  0.00     0.117 C 
ENDROOT
BRANCH   1   2
ATOM      2  N   UNL A   1      31.808  27.977  27.119  1.00  0.00    -0.356 N 
ATOM      3  C   UNL A   1      31.371  26.973  26.319  1.00  0.00     0.225 C 
ATOM      4  O   UNL A   1      31.084  25.914  26.888  1.00  0.00    -0.275 OA
ATOM      5  H   UNL A   1      31.829  27.734  28.073  1.00  0.00     0.163 HD
BRANCH   3   6
ATOM      6  C   UNL A   1      31.192  27.079  24.813  1.00  0.00     0.102 C 
ATOM      7  N   UNL A   1      31.730  25.427  23.182  1.00  0.00    -0.321 N 
ATOM      8  C   UNL A   1      30.323  25.744  23.003  1.00  0.00     0.122 C 
ATOM      9  C   UNL A   1      32.327  26.528  23.936  1.00  0.00     0.096 C 
ATOM     10  C   UNL A   1      29.897  26.483  24.258  1.00  0.00     0.037 C 
ATOM     11  C   UNL A   1      33.635  26.185  24.633  1.00  0.00     0.032 C 
BRANCH   7  12
ATOM     12  C   UNL A   1      32.389  25.004  22.050  1.00  0.00     0.318 C 
ATOM     13  N   UNL A   1      32.932  23.764  22.077  1.00  0.00    -0.331 N 
ATOM     14  H   UNL A   1      33.434  23.506  21.271  1.00  0.00     0.165 HD
ATOM     15  O   UNL A   1      32.482  25.686  21.033  1.00  0.00    -0.249 OA
BRANCH  13  16
ATOM     16  C   UNL A   1      32.880  22.754  23.125  1.00  0.00     0.111 C 
ATOM     17  C   UNL A   1      32.150  21.497  22.640  1.00  0.00     0.036 C 
BRANCH  16  18
ATOM     18  C   UNL A   1      34.252  22.355  23.675  1.00  0.00    -0.026 A 
ATOM     19  C   UNL A   1      35.387  23.061  23.224  1.00  0.00     0.007 A 
ATOM     20  C   UNL A   1      34.446  21.371  24.660  1.00  0.00     0.007 A 
ATOM     21  C   UNL A   1      36.659  22.804  23.744  1.00  0.00     0.021 A 
ATOM     22  C   UNL A   1      35.721  21.101  25.170  1.00  0.00     0.021 A 
ATOM     23  C   UNL A   1      36.821  21.823  24.717  1.00  0.00     0.041 A 
ATOM     24  Cl  UNL A   1      38.379  21.518  25.378  1.00  0.00    -0.084 Cl
ENDBRANCH  16  18
ENDBRANCH  13  16
ENDBRANCH   7  12
ENDBRANCH   3   6
ENDBRANCH   1   2
BRANCH   1  25
ATOM     25  C   UNL A   1      33.682  29.417  26.327  1.00  0.00     0.042 C 
BRANCH  25  26
ATOM     26  C   UNL A   1      34.782  29.039  27.314  1.00  0.00     0.118 C 
BRANCH  26  27
ATOM     27  N   UNL A   1      34.828  29.905  28.479  1.00  0.00    -0.352 N 
ATOM     28  C   UNL A   1      35.878  30.247  29.300  1.00  0.00     0.251 C 
ATOM     29  H   UNL A   1      33.967  30.315  28.721  1.00  0.00     0.163 HD
ATOM     30  O   UNL A   1      35.648  30.887  30.322  1.00  0.00    -0.269 OA
BRANCH  28  31
ATOM     31  C   UNL A   1      37.273  29.837  28.999  1.00  0.00     0.039 A 
ATOM     32  C   UNL A   1      38.079  29.410  30.060  1.00  0.00     0.014 A 
ATOM     33  C   UNL A   1      37.822  29.925  27.717  1.00  0.00     0.014 A 
ATOM     34  C   UNL A   1      39.404  29.023  29.829  1.00  0.00     0.010 A 
ATOM     35  C   UNL A   1      39.121  29.471  27.474  1.00  0.00     0.010 A 
ATOM     36  C   UNL A   1      39.930  29.024  28.528  1.00  0.00    -0.014 A 
BRANCH  36  37
ATOM     37  C   UNL A   1      41.327  28.583  28.271  1.00  0.00     0.031 A 
ATOM     38  C   UNL A   1      41.628  27.149  27.923  1.00  0.00     0.074 A 
ATOM     39  C   UNL A   1      42.341  29.464  28.381  1.00  0.00     0.049 A 
ATOM     40  N   UNL A   1      42.784  26.581  27.688  1.00  0.00    -0.248 NA
ATOM     41  C   UNL A   1      40.482  26.228  27.858  1.00  0.00     0.031 C 
ATOM     42  C   UNL A   1      42.205  30.871  28.764  1.00  0.00     0.029 A 
ATOM     43  N   UNL A   1      43.689  29.302  28.181  1.00  0.00    -0.354 N 
ATOM     44  C   UNL A   1      42.510  25.236  27.475  1.00  0.00     0.074 A 
ATOM     45  C   UNL A   1      41.082  25.066  27.638  1.00  0.00     0.031 C 
ATOM     46  C   UNL A   1      43.416  31.450  28.743  1.00  0.00     0.029 A 
ATOM     47  C   UNL A   1      44.414  30.453  28.363  1.00  0.00     0.049 A 
ATOM     48  H   UNL A   1      44.097  28.442  27.931  1.00  0.00     0.167 HD
ATOM     49  C   UNL A   1      43.364  24.234  27.156  1.00  0.00     0.037 A 
ATOM     50  C   UNL A   1      45.734  30.685  28.228  1.00  0.00     0.037 A 
ATOM     51  C   UNL A   1      44.777  24.397  26.937  1.00  0.00     0.049 A 
ATOM     52  C   UNL A   1      46.650  29.573  27.810  1.00  0.00     0.074 A 
ATOM     53  C   UNL A   1      45.702  23.451  26.532  1.00  0.00     0.029 A 
ATOM     54  N   UNL A   1      45.465  25.588  27.095  1.00  0.00    -0.354 N 
ATOM     55  N   UNL A   1      46.366  28.320  27.557  1.00  0.00    -0.248 NA
ATOM     56  C   UNL A   1      48.072  29.912  27.651  1.00  0.00     0.031 C 
ATOM     57  C   UNL A   1      46.958  24.068  26.463  1.00  0.00     0.029 A 
ATOM     58  C   UNL A   1      46.806  25.401  26.804  1.00  0.00     0.049 A 
ATOM     59  H   UNL A   1      45.061  26.443  27.372  1.00  0.00     0.167 HD
ATOM     60  C   UNL A   1      47.567  27.723  27.200  1.00  0.00     0.074 A 
ATOM     61  C   UNL A   1      48.583  28.754  27.254  1.00  0.00     0.031 C 
ATOM     62  C   UNL A   1      47.806  26.433  26.863  1.00  0.00     0.037 A 
BRANCH  49  63
ATOM     63  C   UNL A   1      42.784  22.859  27.017  1.00  0.00     0.057 A 
ATOM     64  C   UNL A   1      42.403  22.105  28.134  1.00  0.00     0.134 A 
ATOM     65  C   UNL A   1      42.578  22.296  25.752  1.00  0.00     0.134 A 
ATOM     66  F   UNL A   1      42.589  22.586  29.373  1.00  0.00    -0.206 F 
ATOM     67  C   UNL A   1      41.856  20.829  27.999  1.00  0.00     0.040 A 
ATOM     68  C   UNL A   1      42.015  21.028  25.603  1.00  0.00     0.040 A 
ATOM     69  F   UNL A   1      42.919  22.969  24.642  1.00  0.00    -0.206 F 
ATOM     70  C   UNL A   1      41.657  20.288  26.730  1.00  0.00     0.006 A 
ENDBRANCH  49  63
BRANCH  50  71
ATOM     71  C   UNL A   1      46.266  32.047  28.456  1.00  0.00     0.057 A 
ATOM     72  C   UNL A   1      46.323  32.977  27.412  1.00  0.00     0.134 A 
ATOM     73  C   UNL A   1      46.732  32.448  29.713  1.00  0.00     0.134 A 
ATOM     74  F   UNL A   1      45.908  32.637  26.183  1.00  0.00    -0.206 F 
ATOM     75  C   UNL A   1      46.834  34.260  27.607  1.00  0.00     0.040 A 
ATOM     76  C   UNL A   1      47.234  33.732  29.924  1.00  0.00     0.040 A 
ATOM     77  F   UNL A   1      46.700  31.596  30.748  1.00  0.00    -0.206 F 
ATOM     78  C   UNL A   1      47.288  34.641  28.869  1.00  0.00     0.006 A 
ENDBRANCH  50  71
BRANCH  62  79
ATOM     79  C   UNL A   1      49.216  26.071  26.515  1.00  0.00     0.057 A 
ATOM     80  C   UNL A   1      49.729  26.283  25.230  1.00  0.00     0.134 A 
ATOM     81  C   UNL A   1      50.075  25.526  27.478  1.00  0.00     0.134 A 
ATOM     82  F   UNL A   1      48.950  26.789  24.263  1.00  0.00    -0.206 F 
ATOM     83  C   UNL A   1      51.046  25.951  24.909  1.00  0.00     0.040 A 
ATOM     84  C   UNL A   1      51.398  25.204  27.173  1.00  0.00     0.040 A 
ATOM     85  F   UNL A   1      49.641  25.301  28.728  1.00  0.00    -0.206 F 
ATOM     86  C   UNL A   1      51.885  25.413  25.884  1.00  0.00     0.006 A 
ENDBRANCH  62  79
ENDBRANCH  36  37
ENDBRANCH  28  31
ENDBRANCH  26  27
ENDBRANCH  25  26
ENDBRANCH   1  25
TORSDOF 13
ENDMDL
MODEL 2
REMARK VINA RESULT:     -12.1      5.650     10.342
REMARK SMILES C[C@H](NC(=O)N1CC[C@@H](C(=O)NCCCNC(=O)c2ccc(-c3c4nc(c(-c5c(F)cccc5F)c5ccc([nH]5)c(-c5c(F)cccc5F)c5nc(c(-c6c(F)cccc6F)c6ccc3[nH]6)C=C5)C=C4)cc2)[C@H]1C)c1ccc(Cl)cc1
REMARK SMILES IDX 13 1 12 2 10 3 11 4 9 6 6 7 7 8 73 9 8 10 74 11 4 12 3 13
REMARK SMILES IDX 5 15 2 16 1 17 75 18 76 19 81 20 77 21 80 22 78 23 79 24
REMARK SMILES IDX 14 25 15 26 16 27 17 28 18 30 19 31 20 32 72 33 21 34 71 35
REMARK SMILES IDX 22 36 23 37 24 38 65 39 25 40 70 41 64 42 66 43 26 44 69 45
REMARK SMILES IDX 63 46 62 47 27 49 53 50 36 51 52 52 37 53 40 54 51 55 67 56
REMARK SMILES IDX 38 57 39 58 50 60 68 61 41 62 28 63 29 64 34 65 30 66 31 67
REMARK SMILES IDX 33 68 35 69 32 70 54 71 55 72 60 73 56 74 57 75 59 76 61 77
REMARK SMILES IDX 58 78 42 79 43 80 48 81 44 82 45 83 47 84 49 85 46 86
REMARK H PARENT 12 5 3 14 16 29 66 48 40 59
REMARK Flexibility Score: inf
ROOT
ATOM      1  C   UNL A   1      37.305  22.324  24.615  1.00  0.00     0.117 C 
ENDROOT
BRANCH   1   2
ATOM      2  N   UNL A   1      36.409  23.021  23.710  1.00  0.00    -0.356 N 
ATOM      3  C   UNL A   1      35.061  23.161  23.662  1.00  0.00     0.225 C 
ATOM      4  O   UNL A   1      34.622  23.855  22.739  1.00  0.00    -0.275 OA
ATOM      5  H   UNL A   1      36.876  23.490  22.981  1.00  0.00     0.163 HD
BRANCH   3   6
ATOM      6  C   UNL A   1      34.087  22.510  24.630  1.00  0.00     0.102 C 
ATOM      7  N   UNL A   1      32.056  23.437  25.466  1.00  0.00    -0.321 N 
ATOM      8  C   UNL A   1      31.708  22.173  24.839  1.00  0.00     0.122 C 
ATOM      9  C   UNL A   1      33.494  23.405  25.730  1.00  0.00     0.096 C 
ATOM     10  C   UNL A   1      32.903  21.784  23.988  1.00  0.00     0.037 C 
ATOM     11  C   UNL A   1      34.134  24.771  25.929  1.00  0.00     0.032 C 
BRANCH   7  12
ATOM     12  C   UNL A   1      31.232  23.833  26.495  1.00  0.00     0.318 C 
ATOM     13  N   UNL A   1      30.654  25.053  26.390  1.00  0.00    -0.331 N 
ATOM     14  H   UNL A   1      30.106  25.327  27.161  1.00  0.00     0.165 HD
ATOM     15  O   UNL A   1      30.992  23.128  27.471  1.00  0.00    -0.249 OA
BRANCH  13  16
ATOM     16  C   UNL A   1      30.722  26.019  25.303  1.00  0.00     0.111 C 
ATOM     17  C   UNL A   1      29.371  26.140  24.590  1.00  0.00     0.036 C 
BRANCH  16  18
ATOM     18  C   UNL A   1      31.187  27.412  25.735  1.00  0.00    -0.026 A 
ATOM     19  C   UNL A   1      31.127  28.461  24.793  1.00  0.00     0.007 A 
ATOM     20  C   UNL A   1      31.608  27.729  27.038  1.00  0.00     0.007 A 
ATOM     21  C   UNL A   1      31.460  29.773  25.143  1.00  0.00     0.021 A 
ATOM     22  C   UNL A   1      31.957  29.040  27.385  1.00  0.00     0.021 A 
ATOM     23  C   UNL A   1      31.873  30.057  26.440  1.00  0.00     0.041 A 
ATOM     24  Cl  UNL A   1      32.262  31.673  26.883  1.00  0.00    -0.084 Cl
ENDBRANCH  16  18
ENDBRANCH  13  16
ENDBRANCH   7  12
ENDBRANCH   3   6
ENDBRANCH   1   2
BRANCH   1  25
ATOM     25  C   UNL A   1      37.279  22.873  26.041  1.00  0.00     0.042 C 
BRANCH  25  26
ATOM     26  C   UNL A   1      38.156  24.094  26.301  1.00  0.00     0.118 C 
BRANCH  26  27
ATOM     27  N   UNL A   1      39.562  23.859  26.025  1.00  0.00    -0.352 N 
ATOM     28  C   UNL A   1      40.683  24.522  26.465  1.00  0.00     0.251 C 
ATOM     29  H   UNL A   1      39.741  23.100  25.425  1.00  0.00     0.163 HD
ATOM     30  O   UNL A   1      41.773  24.233  25.978  1.00  0.00    -0.269 OA
BRANCH  28  31
ATOM     31  C   UNL A   1      40.608  25.597  27.486  1.00  0.00     0.039 A 
ATOM     32  C   UNL A   1      39.657  25.476  28.505  1.00  0.00     0.014 A 
ATOM     33  C   UNL A   1      41.403  26.746  27.427  1.00  0.00     0.014 A 
ATOM     34  C   UNL A   1      39.541  26.468  29.485  1.00  0.00     0.010 A 
ATOM     35  C   UNL A   1      41.337  27.702  28.445  1.00  0.00     0.010 A 
ATOM     36  C   UNL A   1      40.399  27.578  29.479  1.00  0.00    -0.014 A 
BRANCH  36  37
ATOM     37  C   UNL A   1      40.304  28.620  30.537  1.00  0.00     0.031 A 
ATOM     38  C   UNL A   1      39.264  29.706  30.453  1.00  0.00     0.074 A 
ATOM     39  C   UNL A   1      41.176  28.615  31.565  1.00  0.00     0.049 A 
ATOM     40  N   UNL A   1      39.047  30.707  31.270  1.00  0.00    -0.248 NA
ATOM     41  C   UNL A   1      38.368  29.679  29.286  1.00  0.00     0.031 C 
ATOM     42  C   UNL A   1      42.269  27.658  31.747  1.00  0.00     0.029 A 
ATOM     43  N   UNL A   1      41.277  29.448  32.651  1.00  0.00    -0.354 N 
ATOM     44  C   UNL A   1      38.014  31.442  30.703  1.00  0.00     0.074 A 
ATOM     45  C   UNL A   1      37.666  30.789  29.459  1.00  0.00     0.031 C 
ATOM     46  C   UNL A   1      42.913  27.941  32.891  1.00  0.00     0.029 A 
ATOM     47  C   UNL A   1      42.289  29.106  33.514  1.00  0.00     0.049 A 
ATOM     48  H   UNL A   1      40.681  30.217  32.798  1.00  0.00     0.167 HD
ATOM     49  C   UNL A   1      37.396  32.549  31.180  1.00  0.00     0.037 A 
ATOM     50  C   UNL A   1      42.667  29.660  34.681  1.00  0.00     0.037 A 
ATOM     51  C   UNL A   1      37.694  33.177  32.441  1.00  0.00     0.049 A 
ATOM     52  C   UNL A   1      41.925  30.848  35.221  1.00  0.00     0.074 A 
ATOM     53  C   UNL A   1      37.063  34.254  33.039  1.00  0.00     0.029 A 
ATOM     54  N   UNL A   1      38.701  32.775  33.301  1.00  0.00    -0.354 N 
ATOM     55  N   UNL A   1      40.913  31.495  34.700  1.00  0.00    -0.248 NA
ATOM     56  C   UNL A   1      42.376  31.376  36.517  1.00  0.00     0.031 C 
ATOM     57  C   UNL A   1      37.703  34.517  34.256  1.00  0.00     0.029 A 
ATOM     58  C   UNL A   1      38.717  33.588  34.422  1.00  0.00     0.049 A 
ATOM     59  H   UNL A   1      39.316  32.022  33.141  1.00  0.00     0.167 HD
ATOM     60  C   UNL A   1      40.598  32.498  35.605  1.00  0.00     0.074 A 
ATOM     61  C   UNL A   1      41.517  32.366  36.718  1.00  0.00     0.031 C 
ATOM     62  C   UNL A   1      39.636  33.448  35.520  1.00  0.00     0.037 A 
BRANCH  49  63
ATOM     63  C   UNL A   1      36.321  33.154  30.329  1.00  0.00     0.057 A 
ATOM     64  C   UNL A   1      36.624  33.982  29.241  1.00  0.00     0.134 A 
ATOM     65  C   UNL A   1      34.972  32.881  30.583  1.00  0.00     0.134 A 
ATOM     66  F   UNL A   1      37.898  34.290  28.957  1.00  0.00    -0.206 F 
ATOM     67  C   UNL A   1      35.620  34.536  28.447  1.00  0.00     0.040 A 
ATOM     68  C   UNL A   1      33.959  33.414  29.784  1.00  0.00     0.040 A 
ATOM     69  F   UNL A   1      34.617  32.092  31.608  1.00  0.00    -0.206 F 
ATOM     70  C   UNL A   1      34.283  34.249  28.715  1.00  0.00     0.006 A 
ENDBRANCH  49  63
BRANCH  50  71
ATOM     71  C   UNL A   1      43.790  29.070  35.444  1.00  0.00     0.057 A 
ATOM     72  C   UNL A   1      43.560  28.076  36.401  1.00  0.00     0.134 A 
ATOM     73  C   UNL A   1      45.110  29.485  35.239  1.00  0.00     0.134 A 
ATOM     74  F   UNL A   1      42.311  27.656  36.650  1.00  0.00    -0.206 F 
ATOM     75  C   UNL A   1      44.605  27.518  37.137  1.00  0.00     0.040 A 
ATOM     76  C   UNL A   1      46.166  28.928  35.961  1.00  0.00     0.040 A 
ATOM     77  F   UNL A   1      45.386  30.435  34.334  1.00  0.00    -0.206 F 
ATOM     78  C   UNL A   1      45.914  27.943  36.914  1.00  0.00     0.006 A 
ENDBRANCH  50  71
BRANCH  62  79
ATOM     79  C   UNL A   1      39.522  34.407  36.663  1.00  0.00     0.057 A 
ATOM     80  C   UNL A   1      38.804  34.083  37.820  1.00  0.00     0.134 A 
ATOM     81  C   UNL A   1      40.153  35.657  36.617  1.00  0.00     0.134 A 
ATOM     82  F   UNL A   1      38.168  32.906  37.917  1.00  0.00    -0.206 F 
ATOM     83  C   UNL A   1      38.705  34.975  38.888  1.00  0.00     0.040 A 
ATOM     84  C   UNL A   1      40.074  36.552  37.684  1.00  0.00     0.040 A 
ATOM     85  F   UNL A   1      40.857  36.024  35.535  1.00  0.00    -0.206 F 
ATOM     86  C   UNL A   1      39.344  36.212  38.823  1.00  0.00     0.006 A 
ENDBRANCH  62  79
ENDBRANCH  36  37
ENDBRANCH  28  31
ENDBRANCH  26  27
ENDBRANCH  25  26
ENDBRANCH   1  25
TORSDOF 13
ENDMDL
MODEL 3
REMARK VINA RESULT:     -12.1      3.116      7.766
REMARK SMILES C[C@H](NC(=O)N1CC[C@@H](C(=O)NCCCNC(=O)c2ccc(-c3c4nc(c(-c5c(F)cccc5F)c5ccc([nH]5)c(-c5c(F)cccc5F)c5nc(c(-c6c(F)cccc6F)c6ccc3[nH]6)C=C5)C=C4)cc2)[C@H]1C)c1ccc(Cl)cc1
REMARK SMILES IDX 13 1 12 2 10 3 11 4 9 6 6 7 7 8 73 9 8 10 74 11 4 12 3 13
REMARK SMILES IDX 5 15 2 16 1 17 75 18 76 19 81 20 77 21 80 22 78 23 79 24
REMARK SMILES IDX 14 25 15 26 16 27 17 28 18 30 19 31 20 32 72 33 21 34 71 35
REMARK SMILES IDX 22 36 23 37 24 38 65 39 25 40 70 41 64 42 66 43 26 44 69 45
REMARK SMILES IDX 63 46 62 47 27 49 53 50 36 51 52 52 37 53 40 54 51 55 67 56
REMARK SMILES IDX 38 57 39 58 50 60 68 61 41 62 28 63 29 64 34 65 30 66 31 67
REMARK SMILES IDX 33 68 35 69 32 70 54 71 55 72 60 73 56 74 57 75 59 76 61 77
REMARK SMILES IDX 58 78 42 79 43 80 48 81 44 82 45 83 47 84 49 85 46 86
REMARK H PARENT 12 5 3 14 16 29 66 48 40 59
REMARK Flexibility Score: inf
ROOT
ATOM      1  C   UNL A   1      36.139  20.260  25.013  1.00  0.00     0.117 C 
ENDROOT
BRANCH   1   2
ATOM      2  N   UNL A   1      35.966  21.499  24.275  1.00  0.00    -0.356 N 
ATOM      3  C   UNL A   1      34.902  22.309  24.057  1.00  0.00     0.225 C 
ATOM      4  O   UNL A   1      35.120  23.318  23.377  1.00  0.00    -0.275 OA
ATOM      5  H   UNL A   1      36.793  21.816  23.843  1.00  0.00     0.163 HD
BRANCH   3   6
ATOM      6  C   UNL A   1      33.492  22.045  24.562  1.00  0.00     0.102 C 
ATOM      7  N   UNL A   1      31.948  23.646  25.420  1.00  0.00    -0.321 N 
ATOM      8  C   UNL A   1      31.283  22.979  24.312  1.00  0.00     0.122 C 
ATOM      9  C   UNL A   1      33.057  22.788  25.835  1.00  0.00     0.096 C 
ATOM     10  C   UNL A   1      32.374  22.259  23.540  1.00  0.00     0.037 C 
ATOM     11  C   UNL A   1      34.145  23.495  26.629  1.00  0.00     0.032 C 
BRANCH   7  12
ATOM     12  C   UNL A   1      31.117  24.128  26.405  1.00  0.00     0.318 C 
ATOM     13  N   UNL A   1      30.739  25.425  26.316  1.00  0.00    -0.331 N 
ATOM     14  H   UNL A   1      30.181  25.753  27.057  1.00  0.00     0.165 HD
ATOM     15  O   UNL A   1      30.699  23.435  27.329  1.00  0.00    -0.249 OA
BRANCH  13  16
ATOM     16  C   UNL A   1      31.035  26.406  25.282  1.00  0.00     0.111 C 
ATOM     17  C   UNL A   1      29.817  26.642  24.383  1.00  0.00     0.036 C 
BRANCH  16  18
ATOM     18  C   UNL A   1      31.528  27.751  25.821  1.00  0.00    -0.026 A 
ATOM     19  C   UNL A   1      32.332  27.755  26.980  1.00  0.00     0.007 A 
ATOM     20  C   UNL A   1      31.285  28.985  25.192  1.00  0.00     0.007 A 
ATOM     21  C   UNL A   1      32.882  28.940  27.480  1.00  0.00     0.021 A 
ATOM     22  C   UNL A   1      31.821  30.173  25.701  1.00  0.00     0.021 A 
ATOM     23  C   UNL A   1      32.624  30.146  26.837  1.00  0.00     0.041 A 
ATOM     24  Cl  UNL A   1      33.316  31.603  27.434  1.00  0.00    -0.084 Cl
ENDBRANCH  16  18
ENDBRANCH  13  16
ENDBRANCH   7  12
ENDBRANCH   3   6
ENDBRANCH   1   2
BRANCH   1  25
ATOM     25  C   UNL A   1      37.506  19.611  24.800  1.00  0.00     0.042 C 
BRANCH  25  26
ATOM     26  C   UNL A   1      38.653  20.185  25.626  1.00  0.00     0.118 C 
BRANCH  26  27
ATOM     27  N   UNL A   1      39.793  19.291  25.721  1.00  0.00    -0.352 N 
ATOM     28  C   UNL A   1      41.093  19.535  26.100  1.00  0.00     0.251 C 
ATOM     29  H   UNL A   1      39.605  18.357  25.473  1.00  0.00     0.163 HD
ATOM     30  O   UNL A   1      41.928  18.646  25.962  1.00  0.00    -0.269 OA
BRANCH  28  31
ATOM     31  C   UNL A   1      41.518  20.851  26.641  1.00  0.00     0.039 A 
ATOM     32  C   UNL A   1      41.896  21.847  25.734  1.00  0.00     0.014 A 
ATOM     33  C   UNL A   1      41.614  21.103  28.013  1.00  0.00     0.014 A 
ATOM     34  C   UNL A   1      42.313  23.101  26.196  1.00  0.00     0.010 A 
ATOM     35  C   UNL A   1      41.961  22.376  28.472  1.00  0.00     0.010 A 
ATOM     36  C   UNL A   1      42.324  23.386  27.570  1.00  0.00    -0.014 A 
BRANCH  36  37
ATOM     37  C   UNL A   1      42.735  24.727  28.065  1.00  0.00     0.031 A 
ATOM     38  C   UNL A   1      41.707  25.789  28.351  1.00  0.00     0.074 A 
ATOM     39  C   UNL A   1      44.043  25.009  28.231  1.00  0.00     0.049 A 
ATOM     40  N   UNL A   1      41.882  27.018  28.768  1.00  0.00    -0.248 NA
ATOM     41  C   UNL A   1      40.300  25.431  28.112  1.00  0.00     0.031 C 
ATOM     42  C   UNL A   1      45.152  24.098  27.942  1.00  0.00     0.029 A 
ATOM     43  N   UNL A   1      44.658  26.150  28.683  1.00  0.00    -0.354 N 
ATOM     44  C   UNL A   1      40.616  27.587  28.813  1.00  0.00     0.074 A 
ATOM     45  C   UNL A   1      39.684  26.579  28.354  1.00  0.00     0.031 C 
ATOM     46  C   UNL A   1      46.310  24.705  28.251  1.00  0.00     0.029 A 
ATOM     47  C   UNL A   1      46.026  26.051  28.743  1.00  0.00     0.049 A 
ATOM     48  H   UNL A   1      44.165  26.962  28.941  1.00  0.00     0.167 HD
ATOM     49  C   UNL A   1      40.256  28.830  29.216  1.00  0.00     0.037 A 
ATOM     50  C   UNL A   1      46.949  26.938  29.157  1.00  0.00     0.037 A 
ATOM     51  C   UNL A   1      41.163  29.823  29.726  1.00  0.00     0.049 A 
ATOM     52  C   UNL A   1      46.520  28.286  29.661  1.00  0.00     0.074 A 
ATOM     53  C   UNL A   1      40.873  31.079  30.231  1.00  0.00     0.029 A 
ATOM     54  N   UNL A   1      42.537  29.667  29.805  1.00  0.00    -0.354 N 
ATOM     55  N   UNL A   1      45.313  28.787  29.750  1.00  0.00    -0.248 NA
ATOM     56  C   UNL A   1      47.583  29.187  30.127  1.00  0.00     0.031 C 
ATOM     57  C   UNL A   1      42.078  31.692  30.600  1.00  0.00     0.029 A 
ATOM     58  C   UNL A   1      43.111  30.807  30.342  1.00  0.00     0.049 A 
ATOM     59  H   UNL A   1      43.033  28.865  29.521  1.00  0.00     0.167 HD
ATOM     60  C   UNL A   1      45.469  30.055  30.292  1.00  0.00     0.074 A 
ATOM     61  C   UNL A   1      46.887  30.243  30.526  1.00  0.00     0.031 C 
ATOM     62  C   UNL A   1      44.521  30.983  30.567  1.00  0.00     0.037 A 
BRANCH  49  63
ATOM     63  C   UNL A   1      38.802  29.184  29.127  1.00  0.00     0.057 A 
ATOM     64  C   UNL A   1      37.958  29.108  30.242  1.00  0.00     0.134 A 
ATOM     65  C   UNL A   1      38.249  29.633  27.922  1.00  0.00     0.134 A 
ATOM     66  F   UNL A   1      38.428  28.672  31.420  1.00  0.00    -0.206 F 
ATOM     67  C   UNL A   1      36.607  29.447  30.156  1.00  0.00     0.040 A 
ATOM     68  C   UNL A   1      36.904  29.991  27.828  1.00  0.00     0.040 A 
ATOM     69  F   UNL A   1      39.006  29.730  26.819  1.00  0.00    -0.206 F 
ATOM     70  C   UNL A   1      36.078  29.893  28.947  1.00  0.00     0.006 A 
ENDBRANCH  49  63
BRANCH  50  71
ATOM     71  C   UNL A   1      48.382  26.565  29.150  1.00  0.00     0.057 A 
ATOM     72  C   UNL A   1      49.201  26.894  28.065  1.00  0.00     0.134 A 
ATOM     73  C   UNL A   1      48.960  25.871  30.217  1.00  0.00     0.134 A 
ATOM     74  F   UNL A   1      48.691  27.541  27.007  1.00  0.00    -0.206 F 
ATOM     75  C   UNL A   1      50.549  26.538  28.036  1.00  0.00     0.040 A 
ATOM     76  C   UNL A   1      50.310  25.519  30.207  1.00  0.00     0.040 A 
ATOM     77  F   UNL A   1      48.221  25.531  31.282  1.00  0.00    -0.206 F 
ATOM     78  C   UNL A   1      51.108  25.850  29.113  1.00  0.00     0.006 A 
ENDBRANCH  50  71
BRANCH  62  79
ATOM     79  C   UNL A   1      44.986  32.276  31.160  1.00  0.00     0.057 A 
ATOM     80  C   UNL A   1      45.323  33.369  30.353  1.00  0.00     0.134 A 
ATOM     81  C   UNL A   1      45.077  32.438  32.548  1.00  0.00     0.134 A 
ATOM     82  F   UNL A   1      45.268  33.270  29.017  1.00  0.00    -0.206 F 
ATOM     83  C   UNL A   1      45.750  34.577  30.907  1.00  0.00     0.040 A 
ATOM     84  C   UNL A   1      45.488  33.645  33.114  1.00  0.00     0.040 A 
ATOM     85  F   UNL A   1      44.766  31.426  33.373  1.00  0.00    -0.206 F 
ATOM     86  C   UNL A   1      45.829  34.718  32.292  1.00  0.00     0.006 A 
ENDBRANCH  62  79
ENDBRANCH  36  37
ENDBRANCH  28  31
ENDBRANCH  26  27
ENDBRANCH  25  26
ENDBRANCH   1  25
TORSDOF 13
ENDMDL
