MODEL 1
REMARK VINA RESULT:     -12.8      0.000      0.000
REMARK SMILES CCSc1ccc(-c2cc(Cl)cc3c2O[C@H](C(F)(F)F)C(C(=O)NCCCNC(=O)c2ccc(-c4c5nc(c(-c6c(F)cccc6F)c6ccc([nH]6)c(-c6c(F)cccc6F)c6nc(c(-c7c(F)cccc7F)c7ccc4[nH]7)C=C6)C=C5)cc2)=C3)cc1
REMARK SMILES IDX 25 1 24 2 22 3 23 4 21 6 8 7 9 8 14 9 10 10 13 11 15 12
REMARK SMILES IDX 11 13 12 14 85 15 16 16 7 17 4 18 5 19 87 20 6 21 86 22 3 23
REMARK SMILES IDX 2 24 1 25 17 26 18 27 19 28 20 29 26 30 27 31 28 32 29 33
REMARK SMILES IDX 30 35 31 36 32 37 84 38 33 39 83 40 34 41 35 42 36 43 77 44
REMARK SMILES IDX 37 45 82 46 76 47 78 48 38 49 81 50 75 51 74 52 39 54 65 55
REMARK SMILES IDX 48 56 64 57 49 58 52 59 63 60 79 61 50 62 51 63 62 65 80 66
REMARK SMILES IDX 53 67 40 68 41 69 46 70 42 71 43 72 45 73 47 74 44 75 66 76
REMARK SMILES IDX 67 77 72 78 68 79 69 80 71 81 73 82 70 83 54 84 55 85 60 86
REMARK SMILES IDX 56 87 57 88 59 89 61 90 58 91
REMARK H PARENT 24 5 28 34 78 53 52 64
REMARK Flexibility Score: inf
ROOT
ATOM      1  C   UNL A   1      33.173  29.275  24.811  1.00  0.00     0.118 C 
ENDROOT
BRANCH   1   2
ATOM      2  N   UNL A   1      33.598  28.092  25.530  1.00  0.00    -0.352 N 
ATOM      3  C   UNL A   1      32.910  26.930  25.643  1.00  0.00     0.251 C 
ATOM      4  O   UNL A   1      32.873  26.347  26.721  1.00  0.00    -0.270 OA
ATOM      5  H   UNL A   1      34.472  28.137  25.980  1.00  0.00     0.163 HD
BRANCH   3   6
ATOM      6  C   UNL A   1      32.359  26.352  24.383  1.00  0.00     0.067 C 
ATOM      7  C   UNL A   1      33.495  22.490  24.884  1.00  0.00     0.026 A 
ATOM      8  C   UNL A   1      34.845  22.512  25.330  1.00  0.00     0.033 A 
ATOM      9  C   UNL A   1      32.990  23.694  24.371  1.00  0.00     0.135 A 
ATOM     10  C   UNL A   1      35.688  23.598  25.117  1.00  0.00     0.042 A 
ATOM     11  C   UNL A   1      33.893  24.740  24.054  1.00  0.00     0.019 A 
ATOM     12  O   UNL A   1      31.634  23.942  24.203  1.00  0.00    -0.475 OA
ATOM     13  Cl  UNL A   1      37.300  23.559  25.710  1.00  0.00    -0.084 Cl
ATOM     14  C   UNL A   1      35.237  24.693  24.408  1.00  0.00     0.032 A 
ATOM     15  C   UNL A   1      33.327  25.997  23.516  1.00  0.00     0.025 C 
ATOM     16  C   UNL A   1      31.240  25.336  24.566  1.00  0.00     0.314 C 
BRANCH   7  17
ATOM     17  C   UNL A   1      32.892  21.132  24.802  1.00  0.00    -0.015 A 
ATOM     18  C   UNL A   1      32.930  18.377  24.125  1.00  0.00     0.007 A 
ATOM     19  C   UNL A   1      33.279  18.793  25.410  1.00  0.00     0.015 A 
ATOM     20  C   UNL A   1      32.429  19.318  23.223  1.00  0.00     0.015 A 
ATOM     21  C   UNL A   1      33.227  20.150  25.756  1.00  0.00     0.010 A 
ATOM     22  C   UNL A   1      32.398  20.682  23.563  1.00  0.00     0.010 A 
BRANCH  18  23
ATOM     23  S   UNL A   1      33.315  16.704  23.634  1.00  0.00    -0.126 SA
BRANCH  23  24
ATOM     24  C   UNL A   1      33.691  15.936  25.239  1.00  0.00     0.071 C 
ATOM     25  C   UNL A   1      32.541  15.078  25.731  1.00  0.00     0.016 C 
ENDBRANCH  23  24
ENDBRANCH  18  23
ENDBRANCH   7  17
BRANCH  16  26
ATOM     26  C   UNL A   1      30.017  25.826  23.755  1.00  0.00     0.429 C 
ATOM     27  F   UNL A   1      29.490  24.864  22.967  1.00  0.00    -0.167 F 
ATOM     28  F   UNL A   1      29.035  26.272  24.575  1.00  0.00    -0.167 F 
ATOM     29  F   UNL A   1      30.321  26.869  22.937  1.00  0.00    -0.167 F 
ENDBRANCH  16  26
ENDBRANCH   3   6
ENDBRANCH   1   2
BRANCH   1  30
ATOM     30  C   UNL A   1      31.844  29.785  25.374  1.00  0.00     0.042 C 
BRANCH  30  31
ATOM     31  C   UNL A   1      31.914  30.314  26.806  1.00  0.00     0.118 C 
BRANCH  31  32
ATOM     32  N   UNL A   1      31.922  31.766  26.880  1.00  0.00    -0.352 N 
ATOM     33  C   UNL A   1      32.833  32.606  27.463  1.00  0.00     0.251 C 
ATOM     34  H   UNL A   1      31.158  32.211  26.446  1.00  0.00     0.163 HD
ATOM     35  O   UNL A   1      32.578  33.809  27.555  1.00  0.00    -0.269 OA
BRANCH  33  36
ATOM     36  C   UNL A   1      34.102  32.082  28.010  1.00  0.00     0.039 A 
ATOM     37  C   UNL A   1      35.096  32.990  28.376  1.00  0.00     0.014 A 
ATOM     38  C   UNL A   1      34.323  30.707  28.156  1.00  0.00     0.014 A 
ATOM     39  C   UNL A   1      36.282  32.527  28.947  1.00  0.00     0.010 A 
ATOM     40  C   UNL A   1      35.471  30.253  28.805  1.00  0.00     0.010 A 
ATOM     41  C   UNL A   1      36.463  31.157  29.209  1.00  0.00    -0.014 A 
BRANCH  41  42
ATOM     42  C   UNL A   1      37.680  30.682  29.919  1.00  0.00     0.031 A 
ATOM     43  C   UNL A   1      37.958  31.100  31.339  1.00  0.00     0.074 A 
ATOM     44  C   UNL A   1      38.549  29.881  29.271  1.00  0.00     0.049 A 
ATOM     45  N   UNL A   1      38.956  30.763  32.117  1.00  0.00    -0.248 NA
ATOM     46  C   UNL A   1      37.006  32.033  31.961  1.00  0.00     0.031 C 
ATOM     47  C   UNL A   1      38.429  29.457  27.873  1.00  0.00     0.029 A 
ATOM     48  N   UNL A   1      39.702  29.273  29.700  1.00  0.00    -0.354 N 
ATOM     49  C   UNL A   1      38.748  31.434  33.315  1.00  0.00     0.074 A 
ATOM     50  C   UNL A   1      37.568  32.252  33.140  1.00  0.00     0.031 C 
ATOM     51  C   UNL A   1      39.441  28.628  27.574  1.00  0.00     0.029 A 
ATOM     52  C   UNL A   1      40.302  28.489  28.743  1.00  0.00     0.049 A 
ATOM     53  H   UNL A   1      40.066  29.387  30.608  1.00  0.00     0.167 HD
ATOM     54  C   UNL A   1      39.454  31.350  34.468  1.00  0.00     0.037 A 
ATOM     55  C   UNL A   1      41.421  27.742  28.800  1.00  0.00     0.037 A 
ATOM     56  C   UNL A   1      40.623  30.528  34.646  1.00  0.00     0.049 A 
ATOM     57  C   UNL A   1      42.188  27.677  30.092  1.00  0.00     0.074 A 
ATOM     58  C   UNL A   1      41.390  30.352  35.785  1.00  0.00     0.029 A 
ATOM     59  N   UNL A   1      41.195  29.743  33.656  1.00  0.00    -0.354 N 
ATOM     60  N   UNL A   1      41.934  28.261  31.238  1.00  0.00    -0.248 NA
ATOM     61  C   UNL A   1      43.394  26.837  30.102  1.00  0.00     0.031 C 
ATOM     62  C   UNL A   1      42.449  29.494  35.473  1.00  0.00     0.029 A 
ATOM     63  C   UNL A   1      42.314  29.093  34.155  1.00  0.00     0.049 A 
ATOM     64  H   UNL A   1      40.858  29.661  32.734  1.00  0.00     0.167 HD
ATOM     65  C   UNL A   1      42.930  27.838  32.109  1.00  0.00     0.074 A 
ATOM     66  C   UNL A   1      43.771  26.922  31.369  1.00  0.00     0.031 C 
ATOM     67  C   UNL A   1      43.138  28.182  33.404  1.00  0.00     0.037 A 
BRANCH  54  68
ATOM     68  C   UNL A   1      38.969  32.151  35.644  1.00  0.00     0.057 A 
ATOM     69  C   UNL A   1      38.184  31.572  36.651  1.00  0.00     0.134 A 
ATOM     70  C   UNL A   1      39.344  33.490  35.809  1.00  0.00     0.134 A 
ATOM     71  F   UNL A   1      37.781  30.296  36.550  1.00  0.00    -0.206 F 
ATOM     72  C   UNL A   1      37.777  32.299  37.770  1.00  0.00     0.040 A 
ATOM     73  C   UNL A   1      38.965  34.220  36.938  1.00  0.00     0.040 A 
ATOM     74  F   UNL A   1      40.099  34.105  34.887  1.00  0.00    -0.206 F 
ATOM     75  C   UNL A   1      38.178  33.626  37.921  1.00  0.00     0.006 A 
ENDBRANCH  54  68
BRANCH  55  76
ATOM     76  C   UNL A   1      41.886  26.982  27.609  1.00  0.00     0.057 A 
ATOM     77  C   UNL A   1      42.649  27.595  26.608  1.00  0.00     0.134 A 
ATOM     78  C   UNL A   1      41.536  25.641  27.419  1.00  0.00     0.134 A 
ATOM     79  F   UNL A   1      43.004  28.884  26.722  1.00  0.00    -0.206 F 
ATOM     80  C   UNL A   1      43.008  26.917  25.442  1.00  0.00     0.040 A 
ATOM     81  C   UNL A   1      41.917  24.939  26.273  1.00  0.00     0.040 A 
ATOM     82  F   UNL A   1      40.817  24.989  28.344  1.00  0.00    -0.206 F 
ATOM     83  C   UNL A   1      42.643  25.584  25.273  1.00  0.00     0.006 A 
ENDBRANCH  55  76
BRANCH  67  84
ATOM     84  C   UNL A   1      44.302  27.535  34.100  1.00  0.00     0.057 A 
ATOM     85  C   UNL A   1      45.571  28.129  34.129  1.00  0.00     0.134 A 
ATOM     86  C   UNL A   1      44.152  26.300  34.743  1.00  0.00     0.134 A 
ATOM     87  F   UNL A   1      45.786  29.306  33.522  1.00  0.00    -0.206 F 
ATOM     88  C   UNL A   1      46.659  27.495  34.733  1.00  0.00     0.040 A 
ATOM     89  C   UNL A   1      45.224  25.673  35.379  1.00  0.00     0.040 A 
ATOM     90  F   UNL A   1      42.962  25.682  34.765  1.00  0.00    -0.206 F 
ATOM     91  C   UNL A   1      46.486  26.265  35.363  1.00  0.00     0.006 A 
ENDBRANCH  67  84
ENDBRANCH  41  42
ENDBRANCH  33  36
ENDBRANCH  31  32
ENDBRANCH  30  31
ENDBRANCH   1  30
TORSDOF 14
ENDMDL
MODEL 2
REMARK VINA RESULT:     -12.5      2.050      5.948
REMARK SMILES CCSc1ccc(-c2cc(Cl)cc3c2O[C@H](C(F)(F)F)C(C(=O)NCCCNC(=O)c2ccc(-c4c5nc(c(-c6c(F)cccc6F)c6ccc([nH]6)c(-c6c(F)cccc6F)c6nc(c(-c7c(F)cccc7F)c7ccc4[nH]7)C=C6)C=C5)cc2)=C3)cc1
REMARK SMILES IDX 25 1 24 2 22 3 23 4 21 6 8 7 9 8 14 9 10 10 13 11 15 12
REMARK SMILES IDX 11 13 12 14 85 15 16 16 7 17 4 18 5 19 87 20 6 21 86 22 3 23
REMARK SMILES IDX 2 24 1 25 17 26 18 27 19 28 20 29 26 30 27 31 28 32 29 33
REMARK SMILES IDX 30 35 31 36 32 37 84 38 33 39 83 40 34 41 35 42 36 43 77 44
REMARK SMILES IDX 37 45 82 46 76 47 78 48 38 49 81 50 75 51 74 52 39 54 65 55
REMARK SMILES IDX 48 56 64 57 49 58 52 59 63 60 79 61 50 62 51 63 62 65 80 66
REMARK SMILES IDX 53 67 40 68 41 69 46 70 42 71 43 72 45 73 47 74 44 75 66 76
REMARK SMILES IDX 67 77 72 78 68 79 69 80 71 81 73 82 70 83 54 84 55 85 60 86
REMARK SMILES IDX 56 87 57 88 59 89 61 90 58 91
REMARK H PARENT 24 5 28 34 78 53 52 64
REMARK Flexibility Score: inf
ROOT
ATOM      1  C   UNL A   1      31.920  29.855  25.288  1.00  0.00     0.118 C 
ENDROOT
BRANCH   1   2
ATOM      2  N   UNL A   1      32.339  28.627  25.931  1.00  0.00    -0.352 N 
ATOM      3  C   UNL A   1      31.661  27.454  25.942  1.00  0.00     0.251 C 
ATOM      4  O   UNL A   1      31.603  26.794  26.973  1.00  0.00    -0.270 OA
ATOM      5  H   UNL A   1      33.201  28.646  26.405  1.00  0.00     0.163 HD
BRANCH   3   6
ATOM      6  C   UNL A   1      31.148  26.963  24.630  1.00  0.00     0.067 C 
ATOM      7  C   UNL A   1      32.661  23.200  24.700  1.00  0.00     0.026 A 
ATOM      8  C   UNL A   1      34.009  23.306  25.137  1.00  0.00     0.033 A 
ATOM      9  C   UNL A   1      32.033  24.397  24.323  1.00  0.00     0.135 A 
ATOM     10  C   UNL A   1      34.739  24.487  25.040  1.00  0.00     0.042 A 
ATOM     11  C   UNL A   1      32.826  25.555  24.118  1.00  0.00     0.019 A 
ATOM     12  O   UNL A   1      30.657  24.527  24.191  1.00  0.00    -0.475 OA
ATOM     13  Cl  UNL A   1      36.358  24.541  25.616  1.00  0.00    -0.084 Cl
ATOM     14  C   UNL A   1      34.174  25.602  24.456  1.00  0.00     0.032 A 
ATOM     15  C   UNL A   1      32.131  26.801  23.723  1.00  0.00     0.025 C 
ATOM     16  C   UNL A   1      30.136  25.830  24.706  1.00  0.00     0.314 C 
BRANCH   7  17
ATOM     17  C   UNL A   1      32.191  21.806  24.473  1.00  0.00    -0.015 A 
ATOM     18  C   UNL A   1      32.578  19.077  23.804  1.00  0.00     0.007 A 
ATOM     19  C   UNL A   1      32.597  19.486  25.138  1.00  0.00     0.015 A 
ATOM     20  C   UNL A   1      32.228  20.002  22.818  1.00  0.00     0.015 A 
ATOM     21  C   UNL A   1      32.371  20.828  25.472  1.00  0.00     0.010 A 
ATOM     22  C   UNL A   1      32.023  21.352  23.151  1.00  0.00     0.010 A 
BRANCH  18  23
ATOM     23  S   UNL A   1      33.182  17.446  23.402  1.00  0.00    -0.126 SA
BRANCH  23  24
ATOM     24  C   UNL A   1      34.714  17.379  24.380  1.00  0.00     0.071 C 
ATOM     25  C   UNL A   1      34.870  16.044  25.084  1.00  0.00     0.016 C 
ENDBRANCH  23  24
ENDBRANCH  18  23
ENDBRANCH   7  17
BRANCH  16  26
ATOM     26  C   UNL A   1      28.858  26.282  23.961  1.00  0.00     0.429 C 
ATOM     27  F   UNL A   1      28.554  25.488  22.911  1.00  0.00    -0.167 F 
ATOM     28  F   UNL A   1      27.788  26.295  24.791  1.00  0.00    -0.167 F 
ATOM     29  F   UNL A   1      28.964  27.546  23.469  1.00  0.00    -0.167 F 
ENDBRANCH  16  26
ENDBRANCH   3   6
ENDBRANCH   1   2
BRANCH   1  30
ATOM     30  C   UNL A   1      31.453  30.866  26.338  1.00  0.00     0.042 C 
BRANCH  30  31
ATOM     31  C   UNL A   1      32.576  31.529  27.135  1.00  0.00     0.118 C 
BRANCH  31  32
ATOM     32  N   UNL A   1      32.315  32.927  27.437  1.00  0.00    -0.352 N 
ATOM     33  C   UNL A   1      33.045  33.811  28.186  1.00  0.00     0.251 C 
ATOM     34  H   UNL A   1      31.489  33.293  27.044  1.00  0.00     0.163 HD
ATOM     35  O   UNL A   1      32.570  34.917  28.454  1.00  0.00    -0.269 OA
BRANCH  33  36
ATOM     36  C   UNL A   1      34.380  33.441  28.701  1.00  0.00     0.039 A 
ATOM     37  C   UNL A   1      34.461  32.771  29.923  1.00  0.00     0.014 A 
ATOM     38  C   UNL A   1      35.549  33.754  27.997  1.00  0.00     0.014 A 
ATOM     39  C   UNL A   1      35.703  32.360  30.407  1.00  0.00     0.010 A 
ATOM     40  C   UNL A   1      36.778  33.267  28.439  1.00  0.00     0.010 A 
ATOM     41  C   UNL A   1      36.870  32.564  29.648  1.00  0.00    -0.014 A 
BRANCH  41  42
ATOM     42  C   UNL A   1      38.174  32.023  30.116  1.00  0.00     0.031 A 
ATOM     43  C   UNL A   1      38.687  30.700  29.614  1.00  0.00     0.074 A 
ATOM     44  C   UNL A   1      38.892  32.727  31.015  1.00  0.00     0.049 A 
ATOM     45  N   UNL A   1      39.811  30.091  29.897  1.00  0.00    -0.248 NA
ATOM     46  C   UNL A   1      37.820  29.952  28.690  1.00  0.00     0.031 C 
ATOM     47  C   UNL A   1      38.475  33.991  31.629  1.00  0.00     0.029 A 
ATOM     48  N   UNL A   1      40.125  32.486  31.565  1.00  0.00    -0.354 N 
ATOM     49  C   UNL A   1      39.788  28.898  29.186  1.00  0.00     0.074 A 
ATOM     50  C   UNL A   1      38.509  28.835  28.511  1.00  0.00     0.031 C 
ATOM     51  C   UNL A   1      39.452  34.432  32.437  1.00  0.00     0.029 A 
ATOM     52  C   UNL A   1      40.547  33.469  32.429  1.00  0.00     0.049 A 
ATOM     53  H   UNL A   1      40.660  31.683  31.361  1.00  0.00     0.167 HD
ATOM     54  C   UNL A   1      40.756  27.957  29.074  1.00  0.00     0.037 A 
ATOM     55  C   UNL A   1      41.688  33.582  33.136  1.00  0.00     0.037 A 
ATOM     56  C   UNL A   1      42.032  28.024  29.737  1.00  0.00     0.049 A 
ATOM     57  C   UNL A   1      42.739  32.516  32.998  1.00  0.00     0.074 A 
ATOM     58  C   UNL A   1      43.091  27.135  29.663  1.00  0.00     0.029 A 
ATOM     59  N   UNL A   1      42.424  29.039  30.597  1.00  0.00    -0.354 N 
ATOM     60  N   UNL A   1      42.729  31.431  32.261  1.00  0.00    -0.248 NA
ATOM     61  C   UNL A   1      43.969  32.697  33.782  1.00  0.00     0.031 C 
ATOM     62  C   UNL A   1      44.106  27.590  30.511  1.00  0.00     0.029 A 
ATOM     63  C   UNL A   1      43.702  28.789  31.072  1.00  0.00     0.049 A 
ATOM     64  H   UNL A   1      41.875  29.821  30.836  1.00  0.00     0.167 HD
ATOM     65  C   UNL A   1      43.957  30.817  32.472  1.00  0.00     0.074 A 
ATOM     66  C   UNL A   1      44.699  31.668  33.378  1.00  0.00     0.031 C 
ATOM     67  C   UNL A   1      44.428  29.649  31.970  1.00  0.00     0.037 A 
BRANCH  54  68
ATOM     68  C   UNL A   1      40.485  26.779  28.181  1.00  0.00     0.057 A 
ATOM     69  C   UNL A   1      39.608  25.755  28.566  1.00  0.00     0.134 A 
ATOM     70  C   UNL A   1      41.048  26.698  26.901  1.00  0.00     0.134 A 
ATOM     71  F   UNL A   1      39.043  25.765  29.783  1.00  0.00    -0.206 F 
ATOM     72  C   UNL A   1      39.313  24.687  27.717  1.00  0.00     0.040 A 
ATOM     73  C   UNL A   1      40.739  25.649  26.033  1.00  0.00     0.040 A 
ATOM     74  F   UNL A   1      41.891  27.646  26.467  1.00  0.00    -0.206 F 
ATOM     75  C   UNL A   1      39.872  24.639  26.441  1.00  0.00     0.006 A 
ENDBRANCH  54  68
BRANCH  55  76
ATOM     76  C   UNL A   1      41.912  34.749  34.031  1.00  0.00     0.057 A 
ATOM     77  C   UNL A   1      42.555  35.905  33.573  1.00  0.00     0.134 A 
ATOM     78  C   UNL A   1      41.535  34.715  35.378  1.00  0.00     0.134 A 
ATOM     79  F   UNL A   1      42.956  35.994  32.295  1.00  0.00    -0.206 F 
ATOM     80  C   UNL A   1      42.855  36.966  34.430  1.00  0.00     0.040 A 
ATOM     81  C   UNL A   1      41.798  35.782  36.240  1.00  0.00     0.040 A 
ATOM     82  F   UNL A   1      40.904  33.643  35.881  1.00  0.00    -0.206 F 
ATOM     83  C   UNL A   1      42.474  36.906  35.768  1.00  0.00     0.006 A 
ENDBRANCH  55  76
BRANCH  67  84
ATOM     84  C   UNL A   1      45.820  29.250  32.370  1.00  0.00     0.057 A 
ATOM     85  C   UNL A   1      46.946  29.651  31.637  1.00  0.00     0.134 A 
ATOM     86  C   UNL A   1      46.037  28.449  33.498  1.00  0.00     0.134 A 
ATOM     87  F   UNL A   1      46.807  30.409  30.538  1.00  0.00    -0.206 F 
ATOM     88  C   UNL A   1      48.231  29.232  31.986  1.00  0.00     0.040 A 
ATOM     89  C   UNL A   1      47.320  28.052  33.877  1.00  0.00     0.040 A 
ATOM     90  F   UNL A   1      45.006  28.041  34.253  1.00  0.00    -0.206 F 
ATOM     91  C   UNL A   1      48.420  28.433  33.111  1.00  0.00     0.006 A 
ENDBRANCH  67  84
ENDBRANCH  41  42
ENDBRANCH  33  36
ENDBRANCH  31  32
ENDBRANCH  30  31
ENDBRANCH   1  30
TORSDOF 14
ENDMDL
MODEL 3
REMARK VINA RESULT:     -12.5      1.629      2.478
REMARK SMILES CCSc1ccc(-c2cc(Cl)cc3c2O[C@H](C(F)(F)F)C(C(=O)NCCCNC(=O)c2ccc(-c4c5nc(c(-c6c(F)cccc6F)c6ccc([nH]6)c(-c6c(F)cccc6F)c6nc(c(-c7c(F)cccc7F)c7ccc4[nH]7)C=C6)C=C5)cc2)=C3)cc1
REMARK SMILES IDX 25 1 24 2 22 3 23 4 21 6 8 7 9 8 14 9 10 10 13 11 15 12
REMARK SMILES IDX 11 13 12 14 85 15 16 16 7 17 4 18 5 19 87 20 6 21 86 22 3 23
REMARK SMILES IDX 2 24 1 25 17 26 18 27 19 28 20 29 26 30 27 31 28 32 29 33
REMARK SMILES IDX 30 35 31 36 32 37 84 38 33 39 83 40 34 41 35 42 36 43 77 44
REMARK SMILES IDX 37 45 82 46 76 47 78 48 38 49 81 50 75 51 74 52 39 54 65 55
REMARK SMILES IDX 48 56 64 57 49 58 52 59 63 60 79 61 50 62 51 63 62 65 80 66
REMARK SMILES IDX 53 67 40 68 41 69 46 70 42 71 43 72 45 73 47 74 44 75 66 76
REMARK SMILES IDX 67 77 72 78 68 79 69 80 71 81 73 82 70 83 54 84 55 85 60 86
REMARK SMILES IDX 56 87 57 88 59 89 61 90 58 91
REMARK H PARENT 24 5 28 34 78 53 52 64
REMARK Flexibility Score: inf
ROOT
ATOM      1  C   UNL A   1      31.855  29.841  25.270  1.00  0.00     0.118 C 
ENDROOT
BRANCH   1   2
ATOM      2  N   UNL A   1      32.387  28.650  25.898  1.00  0.00    -0.352 N 
ATOM      3  C   UNL A   1      31.806  27.426  25.920  1.00  0.00     0.251 C 
ATOM      4  O   UNL A   1      31.826  26.761  26.950  1.00  0.00    -0.270 OA
ATOM      5  H   UNL A   1      33.256  28.738  26.352  1.00  0.00     0.163 HD
BRANCH   3   6
ATOM      6  C   UNL A   1      31.304  26.898  24.618  1.00  0.00     0.067 C 
ATOM      7  C   UNL A   1      32.765  23.119  24.836  1.00  0.00     0.026 A 
ATOM      8  C   UNL A   1      34.108  23.222  25.289  1.00  0.00     0.033 A 
ATOM      9  C   UNL A   1      32.159  24.311  24.411  1.00  0.00     0.135 A 
ATOM     10  C   UNL A   1      34.856  24.389  25.161  1.00  0.00     0.042 A 
ATOM     11  C   UNL A   1      32.969  25.451  24.178  1.00  0.00     0.019 A 
ATOM     12  O   UNL A   1      30.786  24.455  24.256  1.00  0.00    -0.475 OA
ATOM     13  Cl  UNL A   1      36.467  24.443  25.758  1.00  0.00    -0.084 Cl
ATOM     14  C   UNL A   1      34.313  25.491  24.533  1.00  0.00     0.032 A 
ATOM     15  C   UNL A   1      32.298  26.692  23.732  1.00  0.00     0.025 C 
ATOM     16  C   UNL A   1      30.276  25.781  24.720  1.00  0.00     0.314 C 
BRANCH   7  17
ATOM     17  C   UNL A   1      32.279  21.725  24.650  1.00  0.00    -0.015 A 
ATOM     18  C   UNL A   1      32.635  18.973  24.063  1.00  0.00     0.007 A 
ATOM     19  C   UNL A   1      32.657  19.421  25.384  1.00  0.00     0.015 A 
ATOM     20  C   UNL A   1      32.297  19.872  23.049  1.00  0.00     0.015 A 
ATOM     21  C   UNL A   1      32.447  20.775  25.678  1.00  0.00     0.010 A 
ATOM     22  C   UNL A   1      32.107  21.234  23.342  1.00  0.00     0.010 A 
BRANCH  18  23
ATOM     23  S   UNL A   1      33.221  17.324  23.710  1.00  0.00    -0.126 SA
BRANCH  23  24
ATOM     24  C   UNL A   1      33.284  16.600  25.377  1.00  0.00     0.071 C 
ATOM     25  C   UNL A   1      32.767  15.174  25.387  1.00  0.00     0.016 C 
ENDBRANCH  23  24
ENDBRANCH  18  23
ENDBRANCH   7  17
BRANCH  16  26
ATOM     26  C   UNL A   1      29.015  26.224  23.942  1.00  0.00     0.429 C 
ATOM     27  F   UNL A   1      29.128  27.466  23.422  1.00  0.00    -0.167 F 
ATOM     28  F   UNL A   1      28.745  25.374  22.922  1.00  0.00    -0.167 F 
ATOM     29  F   UNL A   1      27.901  26.235  24.722  1.00  0.00    -0.167 F 
ENDBRANCH  16  26
ENDBRANCH   3   6
ENDBRANCH   1   2
BRANCH   1  30
ATOM     30  C   UNL A   1      31.433  30.855  26.336  1.00  0.00     0.042 C 
BRANCH  30  31
ATOM     31  C   UNL A   1      32.589  31.521  27.082  1.00  0.00     0.118 C 
BRANCH  31  32
ATOM     32  N   UNL A   1      32.344  32.922  27.383  1.00  0.00    -0.352 N 
ATOM     33  C   UNL A   1      33.076  33.793  28.146  1.00  0.00     0.251 C 
ATOM     34  H   UNL A   1      31.530  33.300  26.980  1.00  0.00     0.163 HD
ATOM     35  O   UNL A   1      32.614  34.905  28.410  1.00  0.00    -0.269 OA
BRANCH  33  36
ATOM     36  C   UNL A   1      34.397  33.402  28.679  1.00  0.00     0.039 A 
ATOM     37  C   UNL A   1      34.445  32.618  29.833  1.00  0.00     0.014 A 
ATOM     38  C   UNL A   1      35.586  33.806  28.061  1.00  0.00     0.014 A 
ATOM     39  C   UNL A   1      35.676  32.187  30.329  1.00  0.00     0.010 A 
ATOM     40  C   UNL A   1      36.808  33.303  28.506  1.00  0.00     0.010 A 
ATOM     41  C   UNL A   1      36.868  32.488  29.645  1.00  0.00    -0.014 A 
BRANCH  41  42
ATOM     42  C   UNL A   1      38.164  31.931  30.114  1.00  0.00     0.031 A 
ATOM     43  C   UNL A   1      38.944  32.609  31.209  1.00  0.00     0.074 A 
ATOM     44  C   UNL A   1      38.647  30.813  29.536  1.00  0.00     0.049 A 
ATOM     45  N   UNL A   1      40.079  32.250  31.757  1.00  0.00    -0.248 NA
ATOM     46  C   UNL A   1      38.395  33.864  31.746  1.00  0.00     0.031 C 
ATOM     47  C   UNL A   1      38.020  30.098  28.421  1.00  0.00     0.029 A 
ATOM     48  N   UNL A   1      39.773  30.077  29.806  1.00  0.00    -0.354 N 
ATOM     49  C   UNL A   1      40.372  33.225  32.701  1.00  0.00     0.074 A 
ATOM     50  C   UNL A   1      39.334  34.229  32.605  1.00  0.00     0.031 C 
ATOM     51  C   UNL A   1      38.746  29.007  28.132  1.00  0.00     0.029 A 
ATOM     52  C   UNL A   1      39.908  28.963  29.012  1.00  0.00     0.049 A 
ATOM     53  H   UNL A   1      40.424  30.323  30.504  1.00  0.00     0.167 HD
ATOM     54  C   UNL A   1      41.392  33.265  33.591  1.00  0.00     0.037 A 
ATOM     55  C   UNL A   1      40.861  28.011  28.995  1.00  0.00     0.037 A 
ATOM     56  C   UNL A   1      42.419  32.262  33.693  1.00  0.00     0.049 A 
ATOM     57  C   UNL A   1      41.987  28.089  29.990  1.00  0.00     0.074 A 
ATOM     58  C   UNL A   1      43.478  32.198  34.583  1.00  0.00     0.029 A 
ATOM     59  N   UNL A   1      42.517  31.145  32.877  1.00  0.00    -0.354 N 
ATOM     60  N   UNL A   1      42.206  28.981  30.926  1.00  0.00    -0.248 NA
ATOM     61  C   UNL A   1      42.991  27.018  29.934  1.00  0.00     0.031 C 
ATOM     62  C   UNL A   1      44.240  31.066  34.278  1.00  0.00     0.029 A 
ATOM     63  C   UNL A   1      43.627  30.395  33.233  1.00  0.00     0.049 A 
ATOM     64  H   UNL A   1      41.892  30.919  32.150  1.00  0.00     0.167 HD
ATOM     65  C   UNL A   1      43.355  28.565  31.585  1.00  0.00     0.074 A 
ATOM     66  C   UNL A   1      43.766  27.323  30.965  1.00  0.00     0.031 C 
ATOM     67  C   UNL A   1      44.019  29.159  32.607  1.00  0.00     0.037 A 
BRANCH  54  68
ATOM     68  C   UNL A   1      41.438  34.423  34.549  1.00  0.00     0.057 A 
ATOM     69  C   UNL A   1      42.037  35.641  34.197  1.00  0.00     0.134 A 
ATOM     70  C   UNL A   1      40.821  34.347  35.804  1.00  0.00     0.134 A 
ATOM     71  F   UNL A   1      42.655  35.778  33.014  1.00  0.00    -0.206 F 
ATOM     72  C   UNL A   1      42.034  36.735  35.064  1.00  0.00     0.040 A 
ATOM     73  C   UNL A   1      40.788  35.443  36.668  1.00  0.00     0.040 A 
ATOM     74  F   UNL A   1      40.224  33.214  36.202  1.00  0.00    -0.206 F 
ATOM     75  C   UNL A   1      41.397  36.640  36.301  1.00  0.00     0.006 A 
ENDBRANCH  54  68
BRANCH  55  76
ATOM     76  C   UNL A   1      40.799  26.894  28.016  1.00  0.00     0.057 A 
ATOM     77  C   UNL A   1      40.022  25.755  28.259  1.00  0.00     0.134 A 
ATOM     78  C   UNL A   1      41.554  26.915  26.838  1.00  0.00     0.134 A 
ATOM     79  F   UNL A   1      39.288  25.665  29.379  1.00  0.00    -0.206 F 
ATOM     80  C   UNL A   1      40.033  24.661  27.392  1.00  0.00     0.040 A 
ATOM     81  C   UNL A   1      41.548  25.843  25.943  1.00  0.00     0.040 A 
ATOM     82  F   UNL A   1      42.311  27.981  26.535  1.00  0.00    -0.206 F 
ATOM     83  C   UNL A   1      40.797  24.705  26.229  1.00  0.00     0.006 A 
ENDBRANCH  55  76
BRANCH  67  84
ATOM     84  C   UNL A   1      45.236  28.450  33.130  1.00  0.00     0.057 A 
ATOM     85  C   UNL A   1      45.156  27.496  34.154  1.00  0.00     0.134 A 
ATOM     86  C   UNL A   1      46.505  28.730  32.607  1.00  0.00     0.134 A 
ATOM     87  F   UNL A   1      43.973  27.190  34.708  1.00  0.00    -0.206 F 
ATOM     88  C   UNL A   1      46.298  26.881  34.669  1.00  0.00     0.040 A 
ATOM     89  C   UNL A   1      47.651  28.096  33.091  1.00  0.00     0.040 A 
ATOM     90  F   UNL A   1      46.653  29.622  31.616  1.00  0.00    -0.206 F 
ATOM     91  C   UNL A   1      47.550  27.179  34.135  1.00  0.00     0.006 A 
ENDBRANCH  67  84
ENDBRANCH  41  42
ENDBRANCH  33  36
ENDBRANCH  31  32
ENDBRANCH  30  31
ENDBRANCH   1  30
TORSDOF 14
ENDMDL
