MODEL 1
REMARK VINA RESULT:     -11.4      0.000      0.000
REMARK SMILES Cn1cncc1COc1c(F)cc(C(=O)NCCCNC(=O)c2ccc(-c3c4nc(c(-c5c(F)cccc5F)c5ccc([nH]5)c(-c5c(F)cccc5F)c5nc(c(-c6c(F)cccc6F)c6ccc3[nH]6)C=C5)C=C4)cc2)cc1F
REMARK SMILES IDX 17 1 16 2 14 3 15 4 13 6 9 7 10 8 78 9 11 10 12 11 77 12
REMARK SMILES IDX 79 13 8 14 7 15 6 16 1 17 2 18 3 19 4 20 5 21 18 22 19 23
REMARK SMILES IDX 20 24 21 25 22 27 23 28 24 29 76 30 25 31 75 32 26 33 27 34
REMARK SMILES IDX 28 35 69 36 29 37 74 38 68 39 70 40 30 41 73 42 67 43 66 44
REMARK SMILES IDX 31 46 57 47 40 48 56 49 41 50 44 51 55 52 71 53 42 54 43 55
REMARK SMILES IDX 54 57 72 58 45 59 32 60 33 61 38 62 34 63 35 64 37 65 39 66
REMARK SMILES IDX 36 67 58 68 59 69 64 70 60 71 61 72 63 73 65 74 62 75 46 76
REMARK SMILES IDX 47 77 52 78 48 79 49 80 51 81 53 82 50 83
REMARK H PARENT 16 5 20 26 70 45 44 56
REMARK Flexibility Score: inf
ROOT
ATOM      1  C   UNL A   1      36.207  20.417  24.980  1.00  0.00     0.118 C 
ENDROOT
BRANCH   1   2
ATOM      2  N   UNL A   1      35.057  19.528  24.989  1.00  0.00    -0.352 N 
ATOM      3  C   UNL A   1      33.709  19.782  24.892  1.00  0.00     0.251 C 
ATOM      4  O   UNL A   1      32.945  18.833  24.732  1.00  0.00    -0.269 OA
ATOM      5  H   UNL A   1      35.283  18.574  25.081  1.00  0.00     0.163 HD
BRANCH   3   6
ATOM      6  C   UNL A   1      33.140  21.155  24.954  1.00  0.00     0.045 A 
ATOM      7  C   UNL A   1      31.991  23.730  24.983  1.00  0.00     0.191 A 
ATOM      8  C   UNL A   1      32.309  23.072  26.164  1.00  0.00     0.168 A 
ATOM      9  C   UNL A   1      32.185  23.054  23.781  1.00  0.00     0.168 A 
ATOM     10  F   UNL A   1      32.049  23.621  27.356  1.00  0.00    -0.203 F 
ATOM     11  C   UNL A   1      32.880  21.807  26.155  1.00  0.00     0.057 A 
ATOM     12  C   UNL A   1      32.753  21.777  23.757  1.00  0.00     0.057 A 
ATOM     13  F   UNL A   1      31.820  23.624  22.624  1.00  0.00    -0.203 F 
BRANCH   7  14
ATOM     14  O   UNL A   1      31.391  24.959  25.009  1.00  0.00    -0.481 OA
BRANCH  14  15
ATOM     15  C   UNL A   1      32.296  26.021  24.656  1.00  0.00     0.285 C 
BRANCH  15  16
ATOM     16  C   UNL A   1      31.581  27.013  23.807  1.00  0.00     0.075 A 
ATOM     17  C   UNL A   1      31.689  28.991  25.371  1.00  0.00     0.151 C 
ATOM     18  N   UNL A   1      31.292  28.309  24.166  1.00  0.00    -0.335 N 
ATOM     19  C   UNL A   1      30.549  28.866  23.164  1.00  0.00     0.199 A 
ATOM     20  N   UNL A   1      30.393  28.034  22.159  1.00  0.00    -0.245 NA
ATOM     21  C   UNL A   1      31.030  26.884  22.545  1.00  0.00     0.138 A 
ENDBRANCH  15  16
ENDBRANCH  14  15
ENDBRANCH   7  14
ENDBRANCH   3   6
ENDBRANCH   1   2
BRANCH   1  22
ATOM     22  C   UNL A   1      37.530  19.661  24.845  1.00  0.00     0.042 C 
BRANCH  22  23
ATOM     23  C   UNL A   1      38.682  20.258  25.642  1.00  0.00     0.118 C 
BRANCH  23  24
ATOM     24  N   UNL A   1      39.819  19.356  25.729  1.00  0.00    -0.352 N 
ATOM     25  C   UNL A   1      41.128  19.607  26.058  1.00  0.00     0.251 C 
ATOM     26  H   UNL A   1      39.618  18.416  25.519  1.00  0.00     0.163 HD
ATOM     27  O   UNL A   1      41.968  18.732  25.866  1.00  0.00    -0.269 OA
BRANCH  25  28
ATOM     28  C   UNL A   1      41.544  20.911  26.625  1.00  0.00     0.039 A 
ATOM     29  C   UNL A   1      41.988  21.909  25.750  1.00  0.00     0.014 A 
ATOM     30  C   UNL A   1      41.561  21.142  28.003  1.00  0.00     0.014 A 
ATOM     31  C   UNL A   1      42.399  23.147  26.251  1.00  0.00     0.010 A 
ATOM     32  C   UNL A   1      41.902  22.401  28.497  1.00  0.00     0.010 A 
ATOM     33  C   UNL A   1      42.332  23.412  27.627  1.00  0.00    -0.014 A 
BRANCH  33  34
ATOM     34  C   UNL A   1      42.713  24.740  28.173  1.00  0.00     0.031 A 
ATOM     35  C   UNL A   1      41.671  25.802  28.386  1.00  0.00     0.074 A 
ATOM     36  C   UNL A   1      44.010  25.006  28.424  1.00  0.00     0.049 A 
ATOM     37  N   UNL A   1      41.822  27.039  28.787  1.00  0.00    -0.248 NA
ATOM     38  C   UNL A   1      40.278  25.434  28.088  1.00  0.00     0.031 C 
ATOM     39  C   UNL A   1      45.118  24.072  28.222  1.00  0.00     0.029 A 
ATOM     40  N   UNL A   1      44.615  26.143  28.897  1.00  0.00    -0.354 N 
ATOM     41  C   UNL A   1      40.550  27.599  28.774  1.00  0.00     0.074 A 
ATOM     42  C   UNL A   1      39.647  26.583  28.281  1.00  0.00     0.031 C 
ATOM     43  C   UNL A   1      46.264  24.662  28.594  1.00  0.00     0.029 A 
ATOM     44  C   UNL A   1      45.979  26.029  29.022  1.00  0.00     0.049 A 
ATOM     45  H   UNL A   1      44.119  26.964  29.123  1.00  0.00     0.167 HD
ATOM     46  C   UNL A   1      40.169  28.839  29.161  1.00  0.00     0.037 A 
ATOM     47  C   UNL A   1      46.896  26.924  29.432  1.00  0.00     0.037 A 
ATOM     48  C   UNL A   1      41.068  29.839  29.677  1.00  0.00     0.049 A 
ATOM     49  C   UNL A   1      46.450  28.297  29.848  1.00  0.00     0.074 A 
ATOM     50  C   UNL A   1      40.769  31.105  30.147  1.00  0.00     0.029 A 
ATOM     51  N   UNL A   1      42.441  29.682  29.791  1.00  0.00    -0.354 N 
ATOM     52  N   UNL A   1      45.239  28.797  29.877  1.00  0.00    -0.248 NA
ATOM     53  C   UNL A   1      47.497  29.231  30.288  1.00  0.00     0.031 C 
ATOM     54  C   UNL A   1      41.967  31.731  30.507  1.00  0.00     0.029 A 
ATOM     55  C   UNL A   1      43.007  30.837  30.305  1.00  0.00     0.049 A 
ATOM     56  H   UNL A   1      42.940  28.870  29.543  1.00  0.00     0.167 HD
ATOM     57  C   UNL A   1      45.372  30.093  30.356  1.00  0.00     0.074 A 
ATOM     58  C   UNL A   1      46.783  30.299  30.616  1.00  0.00     0.031 C 
ATOM     59  C   UNL A   1      44.412  31.028  30.558  1.00  0.00     0.037 A 
BRANCH  46  60
ATOM     60  C   UNL A   1      38.712  29.185  29.050  1.00  0.00     0.057 A 
ATOM     61  C   UNL A   1      38.164  29.600  27.829  1.00  0.00     0.134 A 
ATOM     62  C   UNL A   1      37.859  29.152  30.161  1.00  0.00     0.134 A 
ATOM     63  F   UNL A   1      38.925  29.661  26.727  1.00  0.00    -0.206 F 
ATOM     64  C   UNL A   1      36.823  29.975  27.719  1.00  0.00     0.040 A 
ATOM     65  C   UNL A   1      36.511  29.498  30.059  1.00  0.00     0.040 A 
ATOM     66  F   UNL A   1      38.317  28.754  31.358  1.00  0.00    -0.206 F 
ATOM     67  C   UNL A   1      35.991  29.919  28.836  1.00  0.00     0.006 A 
ENDBRANCH  46  60
BRANCH  47  68
ATOM     68  C   UNL A   1      48.325  26.528  29.499  1.00  0.00     0.057 A 
ATOM     69  C   UNL A   1      48.859  25.894  30.627  1.00  0.00     0.134 A 
ATOM     70  C   UNL A   1      49.199  26.813  28.444  1.00  0.00     0.134 A 
ATOM     71  F   UNL A   1      48.074  25.600  31.674  1.00  0.00    -0.206 F 
ATOM     72  C   UNL A   1      50.216  25.574  30.712  1.00  0.00     0.040 A 
ATOM     73  C   UNL A   1      50.552  26.481  28.506  1.00  0.00     0.040 A 
ATOM     74  F   UNL A   1      48.740  27.405  27.330  1.00  0.00    -0.206 F 
ATOM     75  C   UNL A   1      51.066  25.867  29.647  1.00  0.00     0.006 A 
ENDBRANCH  47  68
BRANCH  59  76
ATOM     76  C   UNL A   1      44.845  32.356  31.103  1.00  0.00     0.057 A 
ATOM     77  C   UNL A   1      44.876  32.587  32.484  1.00  0.00     0.134 A 
ATOM     78  C   UNL A   1      45.162  33.429  30.259  1.00  0.00     0.134 A 
ATOM     79  F   UNL A   1      44.572  31.604  33.345  1.00  0.00    -0.206 F 
ATOM     80  C   UNL A   1      45.194  33.841  33.007  1.00  0.00     0.040 A 
ATOM     81  C   UNL A   1      45.506  34.680  30.772  1.00  0.00     0.040 A 
ATOM     82  F   UNL A   1      45.162  33.269  28.927  1.00  0.00    -0.206 F 
ATOM     83  C   UNL A   1      45.513  34.891  32.149  1.00  0.00     0.006 A 
ENDBRANCH  59  76
ENDBRANCH  33  34
ENDBRANCH  25  28
ENDBRANCH  23  24
ENDBRANCH  22  23
ENDBRANCH   1  22
TORSDOF 13
ENDMDL
MODEL 2
REMARK VINA RESULT:     -11.4      1.891      2.833
REMARK SMILES Cn1cncc1COc1c(F)cc(C(=O)NCCCNC(=O)c2ccc(-c3c4nc(c(-c5c(F)cccc5F)c5ccc([nH]5)c(-c5c(F)cccc5F)c5nc(c(-c6c(F)cccc6F)c6ccc3[nH]6)C=C5)C=C4)cc2)cc1F
REMARK SMILES IDX 17 1 16 2 14 3 15 4 13 6 9 7 10 8 78 9 11 10 12 11 77 12
REMARK SMILES IDX 79 13 8 14 7 15 6 16 1 17 2 18 3 19 4 20 5 21 18 22 19 23
REMARK SMILES IDX 20 24 21 25 22 27 23 28 24 29 76 30 25 31 75 32 26 33 27 34
REMARK SMILES IDX 28 35 69 36 29 37 74 38 68 39 70 40 30 41 73 42 67 43 66 44
REMARK SMILES IDX 31 46 57 47 40 48 56 49 41 50 44 51 55 52 71 53 42 54 43 55
REMARK SMILES IDX 54 57 72 58 45 59 32 60 33 61 38 62 34 63 35 64 37 65 39 66
REMARK SMILES IDX 36 67 58 68 59 69 64 70 60 71 61 72 63 73 65 74 62 75 46 76
REMARK SMILES IDX 47 77 52 78 48 79 49 80 51 81 53 82 50 83
REMARK H PARENT 16 5 20 26 70 45 44 56
REMARK Flexibility Score: inf
ROOT
ATOM      1  C   UNL A   1      37.334  21.043  24.542  1.00  0.00     0.118 C 
ENDROOT
BRANCH   1   2
ATOM      2  N   UNL A   1      37.896  22.212  25.199  1.00  0.00    -0.352 N 
ATOM      3  C   UNL A   1      37.300  23.319  25.754  1.00  0.00     0.251 C 
ATOM      4  O   UNL A   1      37.993  24.083  26.424  1.00  0.00    -0.269 OA
ATOM      5  H   UNL A   1      38.879  22.210  25.257  1.00  0.00     0.163 HD
BRANCH   3   6
ATOM      6  C   UNL A   1      35.853  23.623  25.594  1.00  0.00     0.045 A 
ATOM      7  C   UNL A   1      33.101  24.206  25.405  1.00  0.00     0.191 A 
ATOM      8  C   UNL A   1      34.011  24.739  24.502  1.00  0.00     0.168 A 
ATOM      9  C   UNL A   1      33.591  23.434  26.455  1.00  0.00     0.168 A 
ATOM     10  F   UNL A   1      33.619  25.575  23.534  1.00  0.00    -0.203 F 
ATOM     11  C   UNL A   1      35.366  24.451  24.587  1.00  0.00     0.057 A 
ATOM     12  C   UNL A   1      34.954  23.141  26.557  1.00  0.00     0.057 A 
ATOM     13  F   UNL A   1      32.754  22.965  27.391  1.00  0.00    -0.203 F 
BRANCH   7  14
ATOM     14  O   UNL A   1      31.773  24.532  25.333  1.00  0.00    -0.481 OA
BRANCH  14  15
ATOM     15  C   UNL A   1      31.422  25.606  26.224  1.00  0.00     0.285 C 
BRANCH  15  16
ATOM     16  C   UNL A   1      31.297  26.868  25.445  1.00  0.00     0.075 A 
ATOM     17  C   UNL A   1      32.626  28.381  26.969  1.00  0.00     0.151 C 
ATOM     18  N   UNL A   1      31.806  28.090  25.820  1.00  0.00    -0.335 N 
ATOM     19  C   UNL A   1      31.403  29.014  24.897  1.00  0.00     0.199 A 
ATOM     20  N   UNL A   1      30.721  28.456  23.923  1.00  0.00    -0.245 NA
ATOM     21  C   UNL A   1      30.650  27.127  24.251  1.00  0.00     0.138 A 
ENDBRANCH  15  16
ENDBRANCH  14  15
ENDBRANCH   7  14
ENDBRANCH   3   6
ENDBRANCH   1   2
BRANCH   1  22
ATOM     22  C   UNL A   1      38.111  19.764  24.856  1.00  0.00     0.042 C 
BRANCH  22  23
ATOM     23  C   UNL A   1      39.005  19.855  26.086  1.00  0.00     0.118 C 
BRANCH  23  24
ATOM     24  N   UNL A   1      40.143  18.955  26.008  1.00  0.00    -0.352 N 
ATOM     25  C   UNL A   1      41.489  19.221  26.042  1.00  0.00     0.251 C 
ATOM     26  H   UNL A   1      39.912  18.003  25.918  1.00  0.00     0.163 HD
ATOM     27  O   UNL A   1      42.280  18.328  25.751  1.00  0.00    -0.269 OA
BRANCH  25  28
ATOM     28  C   UNL A   1      42.001  20.562  26.409  1.00  0.00     0.039 A 
ATOM     29  C   UNL A   1      42.283  21.473  25.385  1.00  0.00     0.014 A 
ATOM     30  C   UNL A   1      42.264  20.911  27.736  1.00  0.00     0.014 A 
ATOM     31  C   UNL A   1      42.778  22.742  25.693  1.00  0.00     0.010 A 
ATOM     32  C   UNL A   1      42.688  22.203  28.049  1.00  0.00     0.010 A 
ATOM     33  C   UNL A   1      42.958  23.128  27.030  1.00  0.00    -0.014 A 
BRANCH  33  34
ATOM     34  C   UNL A   1      43.431  24.491  27.381  1.00  0.00     0.031 A 
ATOM     35  C   UNL A   1      42.455  25.545  27.824  1.00  0.00     0.074 A 
ATOM     36  C   UNL A   1      44.736  24.795  27.243  1.00  0.00     0.049 A 
ATOM     37  N   UNL A   1      42.670  26.805  28.104  1.00  0.00    -0.248 NA
ATOM     38  C   UNL A   1      41.047  25.134  27.948  1.00  0.00     0.031 C 
ATOM     39  C   UNL A   1      45.775  23.871  26.786  1.00  0.00     0.029 A 
ATOM     40  N   UNL A   1      45.411  25.968  27.470  1.00  0.00    -0.354 N 
ATOM     41  C   UNL A   1      41.427  27.339  28.421  1.00  0.00     0.074 A 
ATOM     42  C   UNL A   1      40.457  26.281  28.252  1.00  0.00     0.031 C 
ATOM     43  C   UNL A   1      46.959  24.502  26.791  1.00  0.00     0.029 A 
ATOM     44  C   UNL A   1      46.759  25.886  27.214  1.00  0.00     0.049 A 
ATOM     45  H   UNL A   1      44.971  26.791  27.786  1.00  0.00     0.167 HD
ATOM     46  C   UNL A   1      41.128  28.593  28.837  1.00  0.00     0.037 A 
ATOM     47  C   UNL A   1      47.723  26.820  27.305  1.00  0.00     0.037 A 
ATOM     48  C   UNL A   1      42.101  29.636  29.030  1.00  0.00     0.049 A 
ATOM     49  C   UNL A   1      47.365  28.206  27.760  1.00  0.00     0.074 A 
ATOM     50  C   UNL A   1      41.903  30.922  29.501  1.00  0.00     0.029 A 
ATOM     51  N   UNL A   1      43.456  29.512  28.761  1.00  0.00    -0.354 N 
ATOM     52  N   UNL A   1      46.195  28.684  28.103  1.00  0.00    -0.248 NA
ATOM     53  C   UNL A   1      48.462  29.183  27.841  1.00  0.00     0.031 C 
ATOM     54  C   UNL A   1      43.131  31.590  29.478  1.00  0.00     0.029 A 
ATOM     55  C   UNL A   1      44.103  30.704  29.037  1.00  0.00     0.049 A 
ATOM     56  H   UNL A   1      43.893  28.696  28.424  1.00  0.00     0.167 HD
ATOM     57  C   UNL A   1      46.412  30.008  28.459  1.00  0.00     0.074 A 
ATOM     58  C   UNL A   1      47.832  30.255  28.303  1.00  0.00     0.031 C 
ATOM     59  C   UNL A   1      45.517  30.935  28.877  1.00  0.00     0.037 A 
BRANCH  46  60
ATOM     60  C   UNL A   1      39.687  28.905  29.122  1.00  0.00     0.057 A 
ATOM     61  C   UNL A   1      39.154  28.722  30.405  1.00  0.00     0.134 A 
ATOM     62  C   UNL A   1      38.813  29.341  28.117  1.00  0.00     0.134 A 
ATOM     63  F   UNL A   1      39.932  28.300  31.412  1.00  0.00    -0.206 F 
ATOM     64  C   UNL A   1      37.805  28.958  30.676  1.00  0.00     0.040 A 
ATOM     65  C   UNL A   1      37.469  29.605  28.381  1.00  0.00     0.040 A 
ATOM     66  F   UNL A   1      39.261  29.545  26.869  1.00  0.00    -0.206 F 
ATOM     67  C   UNL A   1      36.959  29.406  29.663  1.00  0.00     0.006 A 
ENDBRANCH  46  60
BRANCH  47  68
ATOM     68  C   UNL A   1      49.127  26.455  26.988  1.00  0.00     0.057 A 
ATOM     69  C   UNL A   1      49.628  26.529  25.682  1.00  0.00     0.134 A 
ATOM     70  C   UNL A   1      49.989  25.984  27.984  1.00  0.00     0.134 A 
ATOM     71  F   UNL A   1      48.849  26.965  24.681  1.00  0.00    -0.206 F 
ATOM     72  C   UNL A   1      50.931  26.130  25.376  1.00  0.00     0.040 A 
ATOM     73  C   UNL A   1      51.299  25.602  27.697  1.00  0.00     0.040 A 
ATOM     74  F   UNL A   1      49.569  25.907  29.257  1.00  0.00    -0.206 F 
ATOM     75  C   UNL A   1      51.771  25.667  26.387  1.00  0.00     0.006 A 
ENDBRANCH  47  68
BRANCH  59  76
ATOM     76  C   UNL A   1      46.039  32.300  29.211  1.00  0.00     0.057 A 
ATOM     77  C   UNL A   1      46.119  33.296  28.228  1.00  0.00     0.134 A 
ATOM     78  C   UNL A   1      46.528  32.608  30.487  1.00  0.00     0.134 A 
ATOM     79  F   UNL A   1      45.677  33.059  26.983  1.00  0.00    -0.206 F 
ATOM     80  C   UNL A   1      46.679  34.544  28.499  1.00  0.00     0.040 A 
ATOM     81  C   UNL A   1      47.068  33.863  30.775  1.00  0.00     0.040 A 
ATOM     82  F   UNL A   1      46.469  31.703  31.474  1.00  0.00    -0.206 F 
ATOM     83  C   UNL A   1      47.153  34.831  29.777  1.00  0.00     0.006 A 
ENDBRANCH  59  76
ENDBRANCH  33  34
ENDBRANCH  25  28
ENDBRANCH  23  24
ENDBRANCH  22  23
ENDBRANCH   1  22
TORSDOF 13
ENDMDL
MODEL 3
REMARK VINA RESULT:     -11.4      4.169      9.335
REMARK SMILES Cn1cncc1COc1c(F)cc(C(=O)NCCCNC(=O)c2ccc(-c3c4nc(c(-c5c(F)cccc5F)c5ccc([nH]5)c(-c5c(F)cccc5F)c5nc(c(-c6c(F)cccc6F)c6ccc3[nH]6)C=C5)C=C4)cc2)cc1F
REMARK SMILES IDX 17 1 16 2 14 3 15 4 13 6 9 7 10 8 78 9 11 10 12 11 77 12
REMARK SMILES IDX 79 13 8 14 7 15 6 16 1 17 2 18 3 19 4 20 5 21 18 22 19 23
REMARK SMILES IDX 20 24 21 25 22 27 23 28 24 29 76 30 25 31 75 32 26 33 27 34
REMARK SMILES IDX 28 35 69 36 29 37 74 38 68 39 70 40 30 41 73 42 67 43 66 44
REMARK SMILES IDX 31 46 57 47 40 48 56 49 41 50 44 51 55 52 71 53 42 54 43 55
REMARK SMILES IDX 54 57 72 58 45 59 32 60 33 61 38 62 34 63 35 64 37 65 39 66
REMARK SMILES IDX 36 67 58 68 59 69 64 70 60 71 61 72 63 73 65 74 62 75 46 76
REMARK SMILES IDX 47 77 52 78 48 79 49 80 51 81 53 82 50 83
REMARK H PARENT 16 5 20 26 70 45 44 56
REMARK Flexibility Score: inf
ROOT
ATOM      1  C   UNL A   1      31.464  30.425  26.328  1.00  0.00     0.118 C 
ENDROOT
BRANCH   1   2
ATOM      2  N   UNL A   1      31.874  30.083  24.975  1.00  0.00    -0.352 N 
ATOM      3  C   UNL A   1      31.929  28.877  24.318  1.00  0.00     0.251 C 
ATOM      4  O   UNL A   1      32.132  28.880  23.105  1.00  0.00    -0.269 OA
ATOM      5  H   UNL A   1      32.164  30.852  24.433  1.00  0.00     0.163 HD
BRANCH   3   6
ATOM      6  C   UNL A   1      31.736  27.573  25.006  1.00  0.00     0.045 A 
ATOM      7  C   UNL A   1      31.463  25.123  26.375  1.00  0.00     0.191 A 
ATOM      8  C   UNL A   1      30.353  25.888  26.046  1.00  0.00     0.168 A 
ATOM      9  C   UNL A   1      32.725  25.632  26.079  1.00  0.00     0.168 A 
ATOM     10  F   UNL A   1      29.119  25.508  26.396  1.00  0.00    -0.203 F 
ATOM     11  C   UNL A   1      30.481  27.092  25.367  1.00  0.00     0.057 A 
ATOM     12  C   UNL A   1      32.869  26.846  25.402  1.00  0.00     0.057 A 
ATOM     13  F   UNL A   1      33.824  24.960  26.449  1.00  0.00    -0.203 F 
BRANCH   7  14
ATOM     14  O   UNL A   1      31.324  23.958  27.080  1.00  0.00    -0.481 OA
BRANCH  14  15
ATOM     15  C   UNL A   1      30.820  22.881  26.270  1.00  0.00     0.285 C 
BRANCH  15  16
ATOM     16  C   UNL A   1      31.943  22.283  25.496  1.00  0.00     0.075 A 
ATOM     17  C   UNL A   1      31.386  23.240  23.227  1.00  0.00     0.151 C 
ATOM     18  N   UNL A   1      32.145  22.427  24.143  1.00  0.00    -0.335 N 
ATOM     19  C   UNL A   1      33.218  21.656  23.795  1.00  0.00     0.199 A 
ATOM     20  N   UNL A   1      33.755  21.075  24.843  1.00  0.00    -0.245 NA
ATOM     21  C   UNL A   1      32.975  21.457  25.903  1.00  0.00     0.138 A 
ENDBRANCH  15  16
ENDBRANCH  14  15
ENDBRANCH   7  14
ENDBRANCH   3   6
ENDBRANCH   1   2
BRANCH   1  22
ATOM     22  C   UNL A   1      31.380  31.936  26.549  1.00  0.00     0.042 C 
BRANCH  22  23
ATOM     23  C   UNL A   1      32.708  32.598  26.892  1.00  0.00     0.118 C 
BRANCH  23  24
ATOM     24  N   UNL A   1      32.532  33.915  27.481  1.00  0.00    -0.352 N 
ATOM     25  C   UNL A   1      33.158  34.498  28.554  1.00  0.00     0.251 C 
ATOM     26  H   UNL A   1      31.857  34.479  27.039  1.00  0.00     0.163 HD
ATOM     27  O   UNL A   1      32.707  35.546  29.010  1.00  0.00    -0.269 OA
BRANCH  25  28
ATOM     28  C   UNL A   1      34.353  33.884  29.177  1.00  0.00     0.039 A 
ATOM     29  C   UNL A   1      34.167  32.870  30.124  1.00  0.00     0.014 A 
ATOM     30  C   UNL A   1      35.645  34.331  28.889  1.00  0.00     0.014 A 
ATOM     31  C   UNL A   1      35.271  32.275  30.740  1.00  0.00     0.010 A 
ATOM     32  C   UNL A   1      36.750  33.688  29.449  1.00  0.00     0.010 A 
ATOM     33  C   UNL A   1      36.573  32.661  30.386  1.00  0.00    -0.014 A 
BRANCH  33  34
ATOM     34  C   UNL A   1      37.761  32.003  30.990  1.00  0.00     0.031 A 
ATOM     35  C   UNL A   1      38.494  30.924  30.243  1.00  0.00     0.074 A 
ATOM     36  C   UNL A   1      38.143  32.341  32.236  1.00  0.00     0.049 A 
ATOM     37  N   UNL A   1      39.505  30.190  30.633  1.00  0.00    -0.248 NA
ATOM     38  C   UNL A   1      38.014  30.612  28.887  1.00  0.00     0.031 C 
ATOM     39  C   UNL A   1      37.490  33.346  33.077  1.00  0.00     0.029 A 
ATOM     40  N   UNL A   1      39.170  31.871  33.016  1.00  0.00    -0.354 N 
ATOM     41  C   UNL A   1      39.771  29.322  29.581  1.00  0.00     0.074 A 
ATOM     42  C   UNL A   1      38.786  29.588  28.556  1.00  0.00     0.031 C 
ATOM     43  C   UNL A   1      38.146  33.437  34.243  1.00  0.00     0.029 A 
ATOM     44  C   UNL A   1      39.242  32.471  34.250  1.00  0.00     0.049 A 
ATOM     45  H   UNL A   1      39.795  31.171  32.719  1.00  0.00     0.167 HD
ATOM     46  C   UNL A   1      40.761  28.405  29.472  1.00  0.00     0.037 A 
ATOM     47  C   UNL A   1      40.092  32.265  35.273  1.00  0.00     0.037 A 
ATOM     48  C   UNL A   1      41.756  28.163  30.484  1.00  0.00     0.049 A 
ATOM     49  C   UNL A   1      41.176  31.235  35.132  1.00  0.00     0.074 A 
ATOM     50  C   UNL A   1      42.831  27.294  30.444  1.00  0.00     0.029 A 
ATOM     51  N   UNL A   1      41.795  28.794  31.719  1.00  0.00    -0.354 N 
ATOM     52  N   UNL A   1      41.446  30.456  34.114  1.00  0.00    -0.248 NA
ATOM     53  C   UNL A   1      42.075  31.055  36.282  1.00  0.00     0.031 C 
ATOM     54  C   UNL A   1      43.498  27.367  31.671  1.00  0.00     0.029 A 
ATOM     55  C   UNL A   1      42.866  28.318  32.458  1.00  0.00     0.049 A 
ATOM     56  H   UNL A   1      41.157  29.478  32.025  1.00  0.00     0.167 HD
ATOM     57  C   UNL A   1      42.554  29.709  34.488  1.00  0.00     0.074 A 
ATOM     58  C   UNL A   1      42.915  30.137  35.825  1.00  0.00     0.031 C 
ATOM     59  C   UNL A   1      43.212  28.753  33.787  1.00  0.00     0.037 A 
BRANCH  46  60
ATOM     60  C   UNL A   1      40.824  27.598  28.208  1.00  0.00     0.057 A 
ATOM     61  C   UNL A   1      40.167  26.364  28.110  1.00  0.00     0.134 A 
ATOM     62  C   UNL A   1      41.575  28.017  27.101  1.00  0.00     0.134 A 
ATOM     63  F   UNL A   1      39.437  25.899  29.134  1.00  0.00    -0.206 F 
ATOM     64  C   UNL A   1      40.257  25.576  26.961  1.00  0.00     0.040 A 
ATOM     65  C   UNL A   1      41.651  27.252  25.937  1.00  0.00     0.040 A 
ATOM     66  F   UNL A   1      42.221  29.193  27.125  1.00  0.00    -0.206 F 
ATOM     67  C   UNL A   1      40.997  26.022  25.868  1.00  0.00     0.006 A 
ENDBRANCH  46  60
BRANCH  47  68
ATOM     68  C   UNL A   1      39.963  33.081  36.506  1.00  0.00     0.057 A 
ATOM     69  C   UNL A   1      39.062  32.739  37.522  1.00  0.00     0.134 A 
ATOM     70  C   UNL A   1      40.717  34.247  36.677  1.00  0.00     0.134 A 
ATOM     71  F   UNL A   1      38.306  31.637  37.415  1.00  0.00    -0.206 F 
ATOM     72  C   UNL A   1      38.901  33.540  38.655  1.00  0.00     0.040 A 
ATOM     73  C   UNL A   1      40.582  35.045  37.813  1.00  0.00     0.040 A 
ATOM     74  F   UNL A   1      41.609  34.616  35.744  1.00  0.00    -0.206 F 
ATOM     75  C   UNL A   1      39.665  34.696  38.803  1.00  0.00     0.006 A 
ENDBRANCH  47  68
BRANCH  59  76
ATOM     76  C   UNL A   1      44.399  28.111  34.440  1.00  0.00     0.057 A 
ATOM     77  C   UNL A   1      45.682  28.651  34.282  1.00  0.00     0.134 A 
ATOM     78  C   UNL A   1      44.284  26.918  35.166  1.00  0.00     0.134 A 
ATOM     79  F   UNL A   1      45.861  29.786  33.588  1.00  0.00    -0.206 F 
ATOM     80  C   UNL A   1      46.809  28.022  34.811  1.00  0.00     0.040 A 
ATOM     81  C   UNL A   1      45.402  26.293  35.721  1.00  0.00     0.040 A 
ATOM     82  F   UNL A   1      43.082  26.356  35.363  1.00  0.00    -0.206 F 
ATOM     83  C   UNL A   1      46.670  26.840  35.535  1.00  0.00     0.006 A 
ENDBRANCH  59  76
ENDBRANCH  33  34
ENDBRANCH  25  28
ENDBRANCH  23  24
ENDBRANCH  22  23
ENDBRANCH   1  22
TORSDOF 13
ENDMDL
