MODEL 1
REMARK VINA RESULT:     -10.2      0.000      0.000
REMARK SMILES [N-]=[N+]=NC[C@@H](Nc1ccccc1Br)C(=O)NCCCNC(=O)c1ccc(-c2c3nc(c(-c4c(F)cccc4F)c4ccc([nH]4)c(-c4c(F)cccc4F)c4nc(c(-c5c(F)cccc5F)c5ccc2[nH]5)C=C4)C=C3)cc1
REMARK SMILES IDX 18 1 17 2 16 3 14 4 15 5 5 7 4 8 3 9 1 10 2 11 6 12 7 14
REMARK SMILES IDX 8 15 12 16 9 17 11 18 13 19 10 20 19 21 20 22 21 23 22 25
REMARK SMILES IDX 23 26 24 27 76 28 25 29 75 30 26 31 27 32 28 33 69 34 29 35
REMARK SMILES IDX 74 36 68 37 70 38 30 39 73 40 67 41 66 42 31 44 57 45 40 46
REMARK SMILES IDX 56 47 41 48 44 49 55 50 71 51 42 52 43 53 54 55 72 56 45 57
REMARK SMILES IDX 32 58 33 59 38 60 34 61 35 62 37 63 39 64 36 65 58 66 59 67
REMARK SMILES IDX 64 68 60 69 61 70 63 71 65 72 62 73 46 74 47 75 52 76 48 77
REMARK SMILES IDX 49 78 51 79 53 80 50 81
REMARK H PARENT 16 6 6 13 20 24 70 43 44 54
REMARK Flexibility Score: inf
ROOT
ATOM      1  C   UNL A   1      41.314  19.967  27.248  1.00  0.00     0.042 C 
ENDROOT
BRANCH   1   2
ATOM      2  C   UNL A   1      42.574  19.832  26.416  1.00  0.00     0.117 C 
BRANCH   2   3
ATOM      3  N   UNL A   1      42.633  20.851  25.386  1.00  0.00    -0.354 N 
ATOM      4  C   UNL A   1      43.615  21.750  25.097  1.00  0.00     0.242 C 
ATOM      5  O   UNL A   1      43.346  22.606  24.246  1.00  0.00    -0.273 OA
ATOM      6  H   UNL A   1      41.840  20.900  24.805  1.00  0.00     0.163 HD
BRANCH   4   7
ATOM      7  C   UNL A   1      44.959  21.777  25.849  1.00  0.00     0.174 C 
BRANCH   7   8
ATOM      8  C   UNL A   1      46.017  21.181  24.890  1.00  0.00     0.125 C 
BRANCH   8   9
ATOM      9  N   UNL A   1      45.529  19.950  24.235  1.00  0.00    -0.091 NA
ATOM     10  N   UNL A   1      46.042  17.922  25.377  1.00  0.00    -0.003 NA
ATOM     11  N   UNL A   1      45.806  18.886  24.814  1.00  0.00     0.001 N 
ENDBRANCH   8   9
ENDBRANCH   7   8
BRANCH   7  12
ATOM     12  N   UNL A   1      45.394  23.095  26.373  1.00  0.00    -0.373 N 
ATOM     13  H   UNL A   1      46.058  23.572  25.826  1.00  0.00     0.161 HD
BRANCH  12  14
ATOM     14  C   UNL A   1      44.990  23.741  27.527  1.00  0.00     0.049 A 
ATOM     15  C   UNL A   1      43.639  23.561  27.892  1.00  0.00     0.027 A 
ATOM     16  C   UNL A   1      45.801  24.458  28.422  1.00  0.00     0.041 A 
ATOM     17  C   UNL A   1      43.146  23.969  29.133  1.00  0.00     0.002 A 
ATOM     18  C   UNL A   1      45.310  24.861  29.674  1.00  0.00     0.018 A 
ATOM     19  Br  UNL A   1      47.540  25.077  27.967  1.00  0.00    -0.049 Br
ATOM     20  C   UNL A   1      43.991  24.596  30.037  1.00  0.00     0.001 A 
ENDBRANCH  12  14
ENDBRANCH   7  12
ENDBRANCH   4   7
ENDBRANCH   2   3
ENDBRANCH   1   2
BRANCH   1  21
ATOM     21  C   UNL A   1      40.816  21.399  27.327  1.00  0.00     0.118 C 
BRANCH  21  22
ATOM     22  N   UNL A   1      39.601  21.613  26.551  1.00  0.00    -0.352 N 
ATOM     23  C   UNL A   1      38.896  22.777  26.360  1.00  0.00     0.251 C 
ATOM     24  H   UNL A   1      39.236  20.816  26.103  1.00  0.00     0.163 HD
ATOM     25  O   UNL A   1      37.789  22.761  25.833  1.00  0.00    -0.269 OA
BRANCH  23  26
ATOM     26  C   UNL A   1      39.483  24.048  26.827  1.00  0.00     0.039 A 
ATOM     27  C   UNL A   1      40.151  24.869  25.917  1.00  0.00     0.014 A 
ATOM     28  C   UNL A   1      39.318  24.446  28.155  1.00  0.00     0.014 A 
ATOM     29  C   UNL A   1      40.589  26.129  26.326  1.00  0.00     0.010 A 
ATOM     30  C   UNL A   1      39.661  25.736  28.531  1.00  0.00     0.010 A 
ATOM     31  C   UNL A   1      40.310  26.588  27.623  1.00  0.00    -0.014 A 
BRANCH  31  32
ATOM     32  C   UNL A   1      40.713  27.940  28.084  1.00  0.00     0.031 A 
ATOM     33  C   UNL A   1      42.174  28.291  28.145  1.00  0.00     0.074 A 
ATOM     34  C   UNL A   1      39.784  28.813  28.520  1.00  0.00     0.049 A 
ATOM     35  N   UNL A   1      42.751  29.352  28.646  1.00  0.00    -0.248 NA
ATOM     36  C   UNL A   1      43.115  27.296  27.601  1.00  0.00     0.031 C 
ATOM     37  C   UNL A   1      38.338  28.579  28.537  1.00  0.00     0.029 A 
ATOM     38  N   UNL A   1      39.922  30.072  29.047  1.00  0.00    -0.354 N 
ATOM     39  C   UNL A   1      44.116  29.146  28.489  1.00  0.00     0.074 A 
ATOM     40  C   UNL A   1      44.285  27.831  27.913  1.00  0.00     0.031 C 
ATOM     41  C   UNL A   1      37.723  29.668  29.028  1.00  0.00     0.029 A 
ATOM     42  C   UNL A   1      38.730  30.654  29.407  1.00  0.00     0.049 A 
ATOM     43  H   UNL A   1      40.793  30.516  29.158  1.00  0.00     0.167 HD
ATOM     44  C   UNL A   1      45.137  29.989  28.770  1.00  0.00     0.037 A 
ATOM     45  C   UNL A   1      38.483  31.842  29.992  1.00  0.00     0.037 A 
ATOM     46  C   UNL A   1      44.963  31.304  29.324  1.00  0.00     0.049 A 
ATOM     47  C   UNL A   1      39.640  32.742  30.336  1.00  0.00     0.074 A 
ATOM     48  C   UNL A   1      45.929  32.248  29.622  1.00  0.00     0.029 A 
ATOM     49  N   UNL A   1      43.739  31.861  29.662  1.00  0.00    -0.354 N 
ATOM     50  N   UNL A   1      40.923  32.554  30.142  1.00  0.00    -0.248 NA
ATOM     51  C   UNL A   1      39.314  34.022  30.979  1.00  0.00     0.031 C 
ATOM     52  C   UNL A   1      45.292  33.361  30.180  1.00  0.00     0.029 A 
ATOM     53  C   UNL A   1      43.925  33.132  30.176  1.00  0.00     0.049 A 
ATOM     54  H   UNL A   1      42.866  31.418  29.551  1.00  0.00     0.167 HD
ATOM     55  C   UNL A   1      41.550  33.708  30.594  1.00  0.00     0.074 A 
ATOM     56  C   UNL A   1      40.507  34.591  31.070  1.00  0.00     0.031 C 
ATOM     57  C   UNL A   1      42.871  34.010  30.614  1.00  0.00     0.037 A 
BRANCH  44  58
ATOM     58  C   UNL A   1      46.529  29.515  28.468  1.00  0.00     0.057 A 
ATOM     59  C   UNL A   1      47.314  28.873  29.436  1.00  0.00     0.134 A 
ATOM     60  C   UNL A   1      47.080  29.672  27.191  1.00  0.00     0.134 A 
ATOM     61  F   UNL A   1      46.851  28.704  30.684  1.00  0.00    -0.206 F 
ATOM     62  C   UNL A   1      48.607  28.432  29.153  1.00  0.00     0.040 A 
ATOM     63  C   UNL A   1      48.361  29.207  26.887  1.00  0.00     0.040 A 
ATOM     64  F   UNL A   1      46.382  30.273  26.215  1.00  0.00    -0.206 F 
ATOM     65  C   UNL A   1      49.131  28.591  27.871  1.00  0.00     0.006 A 
ENDBRANCH  44  58
BRANCH  45  66
ATOM     66  C   UNL A   1      37.088  32.267  30.278  1.00  0.00     0.057 A 
ATOM     67  C   UNL A   1      36.379  33.065  29.372  1.00  0.00     0.134 A 
ATOM     68  C   UNL A   1      36.444  31.923  31.473  1.00  0.00     0.134 A 
ATOM     69  F   UNL A   1      36.947  33.443  28.217  1.00  0.00    -0.206 F 
ATOM     70  C   UNL A   1      35.095  33.535  29.657  1.00  0.00     0.040 A 
ATOM     71  C   UNL A   1      35.149  32.361  31.757  1.00  0.00     0.040 A 
ATOM     72  F   UNL A   1      37.062  31.152  32.379  1.00  0.00    -0.206 F 
ATOM     73  C   UNL A   1      34.476  33.180  30.853  1.00  0.00     0.006 A 
ENDBRANCH  45  66
BRANCH  57  74
ATOM     74  C   UNL A   1      43.263  35.377  31.095  1.00  0.00     0.057 A 
ATOM     75  C   UNL A   1      43.462  35.661  32.452  1.00  0.00     0.134 A 
ATOM     76  C   UNL A   1      43.503  36.407  30.176  1.00  0.00     0.134 A 
ATOM     77  F   UNL A   1      43.238  34.721  33.383  1.00  0.00    -0.206 F 
ATOM     78  C   UNL A   1      43.868  36.926  32.878  1.00  0.00     0.040 A 
ATOM     79  C   UNL A   1      43.938  37.666  30.588  1.00  0.00     0.040 A 
ATOM     80  F   UNL A   1      43.341  36.198  28.861  1.00  0.00    -0.206 F 
ATOM     81  C   UNL A   1      44.116  37.930  31.944  1.00  0.00     0.006 A 
ENDBRANCH  57  74
ENDBRANCH  31  32
ENDBRANCH  23  26
ENDBRANCH  21  22
ENDBRANCH   1  21
TORSDOF 14
ENDMDL
MODEL 2
REMARK VINA RESULT:      -9.9      4.012      6.473
REMARK SMILES [N-]=[N+]=NC[C@@H](Nc1ccccc1Br)C(=O)NCCCNC(=O)c1ccc(-c2c3nc(c(-c4c(F)cccc4F)c4ccc([nH]4)c(-c4c(F)cccc4F)c4nc(c(-c5c(F)cccc5F)c5ccc2[nH]5)C=C4)C=C3)cc1
REMARK SMILES IDX 18 1 17 2 16 3 14 4 15 5 5 7 4 8 3 9 1 10 2 11 6 12 7 14
REMARK SMILES IDX 8 15 12 16 9 17 11 18 13 19 10 20 19 21 20 22 21 23 22 25
REMARK SMILES IDX 23 26 24 27 76 28 25 29 75 30 26 31 27 32 28 33 69 34 29 35
REMARK SMILES IDX 74 36 68 37 70 38 30 39 73 40 67 41 66 42 31 44 57 45 40 46
REMARK SMILES IDX 56 47 41 48 44 49 55 50 71 51 42 52 43 53 54 55 72 56 45 57
REMARK SMILES IDX 32 58 33 59 38 60 34 61 35 62 37 63 39 64 36 65 58 66 59 67
REMARK SMILES IDX 64 68 60 69 61 70 63 71 65 72 62 73 46 74 47 75 52 76 48 77
REMARK SMILES IDX 49 78 51 79 53 80 50 81
REMARK H PARENT 16 6 6 13 20 24 70 43 44 54
REMARK Flexibility Score: inf
ROOT
ATOM      1  C   UNL A   1      37.753  19.801  24.959  1.00  0.00     0.042 C 
ENDROOT
BRANCH   1   2
ATOM      2  C   UNL A   1      36.711  20.889  24.786  1.00  0.00     0.117 C 
BRANCH   2   3
ATOM      3  N   UNL A   1      35.683  20.795  25.804  1.00  0.00    -0.354 N 
ATOM      4  C   UNL A   1      34.330  20.923  25.701  1.00  0.00     0.242 C 
ATOM      5  O   UNL A   1      33.694  20.935  26.761  1.00  0.00    -0.273 OA
ATOM      6  H   UNL A   1      36.014  20.609  26.712  1.00  0.00     0.163 HD
BRANCH   4   7
ATOM      7  C   UNL A   1      33.622  21.144  24.351  1.00  0.00     0.174 C 
BRANCH   7   8
ATOM      8  C   UNL A   1      32.755  19.889  24.093  1.00  0.00     0.125 C 
BRANCH   8   9
ATOM      9  N   UNL A   1      33.467  18.648  24.463  1.00  0.00    -0.091 NA
ATOM     10  N   UNL A   1      33.636  17.021  22.730  1.00  0.00    -0.003 NA
ATOM     11  N   UNL A   1      33.545  17.786  23.571  1.00  0.00     0.001 N 
ENDBRANCH   8   9
ENDBRANCH   7   8
BRANCH   7  12
ATOM     12  N   UNL A   1      32.819  22.385  24.224  1.00  0.00    -0.373 N 
ATOM     13  H   UNL A   1      32.104  22.362  23.548  1.00  0.00     0.161 HD
BRANCH  12  14
ATOM     14  C   UNL A   1      32.940  23.568  24.929  1.00  0.00     0.049 A 
ATOM     15  C   UNL A   1      34.047  24.374  24.591  1.00  0.00     0.027 A 
ATOM     16  C   UNL A   1      32.026  24.097  25.856  1.00  0.00     0.041 A 
ATOM     17  C   UNL A   1      34.180  25.683  25.059  1.00  0.00     0.002 A 
ATOM     18  C   UNL A   1      32.154  25.415  26.321  1.00  0.00     0.018 A 
ATOM     19  Br  UNL A   1      30.665  23.050  26.673  1.00  0.00    -0.049 Br
ATOM     20  C   UNL A   1      33.217  26.214  25.905  1.00  0.00     0.001 A 
ENDBRANCH  12  14
ENDBRANCH   7  12
ENDBRANCH   4   7
ENDBRANCH   2   3
ENDBRANCH   1   2
BRANCH   1  21
ATOM     21  C   UNL A   1      38.942  20.257  25.786  1.00  0.00     0.118 C 
BRANCH  21  22
ATOM     22  N   UNL A   1      39.986  19.243  25.872  1.00  0.00    -0.352 N 
ATOM     23  C   UNL A   1      41.320  19.403  26.156  1.00  0.00     0.251 C 
ATOM     24  H   UNL A   1      39.694  18.317  25.706  1.00  0.00     0.163 HD
ATOM     25  O   UNL A   1      42.108  18.476  26.010  1.00  0.00    -0.269 OA
BRANCH  23  26
ATOM     26  C   UNL A   1      41.795  20.724  26.614  1.00  0.00     0.039 A 
ATOM     27  C   UNL A   1      42.308  21.628  25.683  1.00  0.00     0.014 A 
ATOM     28  C   UNL A   1      41.676  21.079  27.959  1.00  0.00     0.014 A 
ATOM     29  C   UNL A   1      42.632  22.922  26.093  1.00  0.00     0.010 A 
ATOM     30  C   UNL A   1      41.900  22.393  28.342  1.00  0.00     0.010 A 
ATOM     31  C   UNL A   1      42.391  23.326  27.416  1.00  0.00    -0.014 A 
BRANCH  31  32
ATOM     32  C   UNL A   1      42.674  24.706  27.880  1.00  0.00     0.031 A 
ATOM     33  C   UNL A   1      44.083  25.086  28.244  1.00  0.00     0.074 A 
ATOM     34  C   UNL A   1      41.666  25.583  28.053  1.00  0.00     0.049 A 
ATOM     35  N   UNL A   1      44.528  26.181  28.803  1.00  0.00    -0.248 NA
ATOM     36  C   UNL A   1      45.127  24.082  27.975  1.00  0.00     0.031 C 
ATOM     37  C   UNL A   1      40.254  25.326  27.763  1.00  0.00     0.029 A 
ATOM     38  N   UNL A   1      41.676  26.870  28.530  1.00  0.00    -0.354 N 
ATOM     39  C   UNL A   1      45.895  25.992  28.963  1.00  0.00     0.074 A 
ATOM     40  C   UNL A   1      46.196  24.652  28.509  1.00  0.00     0.031 C 
ATOM     41  C   UNL A   1      39.538  26.427  28.048  1.00  0.00     0.029 A 
ATOM     42  C   UNL A   1      40.431  27.448  28.587  1.00  0.00     0.049 A 
ATOM     43  H   UNL A   1      42.499  27.335  28.808  1.00  0.00     0.167 HD
ATOM     44  C   UNL A   1      46.824  26.866  29.417  1.00  0.00     0.037 A 
ATOM     45  C   UNL A   1      40.054  28.660  29.038  1.00  0.00     0.037 A 
ATOM     46  C   UNL A   1      46.523  28.204  29.848  1.00  0.00     0.049 A 
ATOM     47  C   UNL A   1      41.100  29.597  29.581  1.00  0.00     0.074 A 
ATOM     48  C   UNL A   1      47.394  29.178  30.301  1.00  0.00     0.029 A 
ATOM     49  N   UNL A   1      45.252  28.756  29.877  1.00  0.00    -0.354 N 
ATOM     50  N   UNL A   1      42.396  29.422  29.685  1.00  0.00    -0.248 NA
ATOM     51  C   UNL A   1      40.632  30.902  30.067  1.00  0.00     0.031 C 
ATOM     52  C   UNL A   1      46.643  30.307  30.644  1.00  0.00     0.029 A 
ATOM     53  C   UNL A   1      45.312  30.054  30.351  1.00  0.00     0.049 A 
ATOM     54  H   UNL A   1      44.428  28.292  29.600  1.00  0.00     0.167 HD
ATOM     55  C   UNL A   1      42.900  30.608  30.203  1.00  0.00     0.074 A 
ATOM     56  C   UNL A   1      41.772  31.496  30.389  1.00  0.00     0.031 C 
ATOM     57  C   UNL A   1      44.181  30.934  30.498  1.00  0.00     0.037 A 
BRANCH  44  58
ATOM     58  C   UNL A   1      48.251  26.401  29.455  1.00  0.00     0.057 A 
ATOM     59  C   UNL A   1      48.783  25.749  30.577  1.00  0.00     0.134 A 
ATOM     60  C   UNL A   1      49.094  26.579  28.353  1.00  0.00     0.134 A 
ATOM     61  F   UNL A   1      48.032  25.559  31.673  1.00  0.00    -0.206 F 
ATOM     62  C   UNL A   1      50.109  25.317  30.610  1.00  0.00     0.040 A 
ATOM     63  C   UNL A   1      50.414  26.123  28.363  1.00  0.00     0.040 A 
ATOM     64  F   UNL A   1      48.650  27.192  27.244  1.00  0.00    -0.206 F 
ATOM     65  C   UNL A   1      50.927  25.496  29.496  1.00  0.00     0.006 A 
ENDBRANCH  44  58
BRANCH  45  66
ATOM     66  C   UNL A   1      38.628  29.074  28.986  1.00  0.00     0.057 A 
ATOM     67  C   UNL A   1      38.082  29.633  27.824  1.00  0.00     0.134 A 
ATOM     68  C   UNL A   1      37.786  28.960  30.100  1.00  0.00     0.134 A 
ATOM     69  F   UNL A   1      38.841  29.786  26.728  1.00  0.00    -0.206 F 
ATOM     70  C   UNL A   1      36.766  30.096  27.780  1.00  0.00     0.040 A 
ATOM     71  C   UNL A   1      36.459  29.391  30.060  1.00  0.00     0.040 A 
ATOM     72  F   UNL A   1      38.242  28.424  31.242  1.00  0.00    -0.206 F 
ATOM     73  C   UNL A   1      35.949  29.973  28.901  1.00  0.00     0.006 A 
ENDBRANCH  45  66
BRANCH  57  74
ATOM     74  C   UNL A   1      44.449  32.330  30.980  1.00  0.00     0.057 A 
ATOM     75  C   UNL A   1      44.493  32.653  32.342  1.00  0.00     0.134 A 
ATOM     76  C   UNL A   1      44.727  33.353  30.063  1.00  0.00     0.134 A 
ATOM     77  F   UNL A   1      44.225  31.722  33.270  1.00  0.00    -0.206 F 
ATOM     78  C   UNL A   1      44.785  33.947  32.774  1.00  0.00     0.040 A 
ATOM     79  C   UNL A   1      45.049  34.643  30.484  1.00  0.00     0.040 A 
ATOM     80  F   UNL A   1      44.711  33.108  28.744  1.00  0.00    -0.206 F 
ATOM     81  C   UNL A   1      45.073  34.944  31.843  1.00  0.00     0.006 A 
ENDBRANCH  57  74
ENDBRANCH  31  32
ENDBRANCH  23  26
ENDBRANCH  21  22
ENDBRANCH   1  21
TORSDOF 14
ENDMDL
MODEL 3
REMARK VINA RESULT:      -9.8      4.077      6.834
REMARK SMILES [N-]=[N+]=NC[C@@H](Nc1ccccc1Br)C(=O)NCCCNC(=O)c1ccc(-c2c3nc(c(-c4c(F)cccc4F)c4ccc([nH]4)c(-c4c(F)cccc4F)c4nc(c(-c5c(F)cccc5F)c5ccc2[nH]5)C=C4)C=C3)cc1
REMARK SMILES IDX 18 1 17 2 16 3 14 4 15 5 5 7 4 8 3 9 1 10 2 11 6 12 7 14
REMARK SMILES IDX 8 15 12 16 9 17 11 18 13 19 10 20 19 21 20 22 21 23 22 25
REMARK SMILES IDX 23 26 24 27 76 28 25 29 75 30 26 31 27 32 28 33 69 34 29 35
REMARK SMILES IDX 74 36 68 37 70 38 30 39 73 40 67 41 66 42 31 44 57 45 40 46
REMARK SMILES IDX 56 47 41 48 44 49 55 50 71 51 42 52 43 53 54 55 72 56 45 57
REMARK SMILES IDX 32 58 33 59 38 60 34 61 35 62 37 63 39 64 36 65 58 66 59 67
REMARK SMILES IDX 64 68 60 69 61 70 63 71 65 72 62 73 46 74 47 75 52 76 48 77
REMARK SMILES IDX 49 78 51 79 53 80 50 81
REMARK H PARENT 16 6 6 13 20 24 70 43 44 54
REMARK Flexibility Score: inf
ROOT
ATOM      1  C   UNL A   1      37.820  19.815  24.912  1.00  0.00     0.042 C 
ENDROOT
BRANCH   1   2
ATOM      2  C   UNL A   1      36.627  20.742  25.034  1.00  0.00     0.117 C 
BRANCH   2   3
ATOM      3  N   UNL A   1      35.381  20.002  24.989  1.00  0.00    -0.354 N 
ATOM      4  C   UNL A   1      34.099  20.448  24.871  1.00  0.00     0.242 C 
ATOM      5  O   UNL A   1      33.206  19.601  24.999  1.00  0.00    -0.273 OA
ATOM      6  H   UNL A   1      35.477  19.024  25.051  1.00  0.00     0.163 HD
BRANCH   4   7
ATOM      7  C   UNL A   1      33.755  21.937  24.689  1.00  0.00     0.174 C 
BRANCH   7   8
ATOM      8  C   UNL A   1      32.544  22.001  23.727  1.00  0.00     0.125 C 
BRANCH   8   9
ATOM      9  N   UNL A   1      32.933  22.502  22.392  1.00  0.00    -0.091 NA
ATOM     10  N   UNL A   1      33.869  24.694  22.366  1.00  0.00    -0.003 NA
ATOM     11  N   UNL A   1      33.406  23.651  22.366  1.00  0.00     0.001 N 
ENDBRANCH   8   9
ENDBRANCH   7   8
BRANCH   7  12
ATOM     12  N   UNL A   1      33.495  22.710  25.928  1.00  0.00    -0.373 N 
ATOM     13  H   UNL A   1      33.671  22.235  26.771  1.00  0.00     0.161 HD
BRANCH  12  14
ATOM     14  C   UNL A   1      33.038  24.009  26.055  1.00  0.00     0.049 A 
ATOM     15  C   UNL A   1      34.005  25.021  25.883  1.00  0.00     0.027 A 
ATOM     16  C   UNL A   1      31.706  24.424  26.224  1.00  0.00     0.041 A 
ATOM     17  C   UNL A   1      33.656  26.368  25.769  1.00  0.00     0.002 A 
ATOM     18  C   UNL A   1      31.352  25.777  26.101  1.00  0.00     0.018 A 
ATOM     19  Br  UNL A   1      30.323  23.245  26.786  1.00  0.00    -0.049 Br
ATOM     20  C   UNL A   1      32.323  26.744  25.851  1.00  0.00     0.001 A 
ENDBRANCH  12  14
ENDBRANCH   7  12
ENDBRANCH   4   7
ENDBRANCH   2   3
ENDBRANCH   1   2
BRANCH   1  21
ATOM     21  C   UNL A   1      38.998  20.263  25.759  1.00  0.00     0.118 C 
BRANCH  21  22
ATOM     22  N   UNL A   1      40.042  19.249  25.847  1.00  0.00    -0.352 N 
ATOM     23  C   UNL A   1      41.374  19.410  26.140  1.00  0.00     0.251 C 
ATOM     24  H   UNL A   1      39.753  18.325  25.674  1.00  0.00     0.163 HD
ATOM     25  O   UNL A   1      42.165  18.485  25.994  1.00  0.00    -0.269 OA
BRANCH  23  26
ATOM     26  C   UNL A   1      41.845  20.729  26.608  1.00  0.00     0.039 A 
ATOM     27  C   UNL A   1      42.375  21.634  25.686  1.00  0.00     0.014 A 
ATOM     28  C   UNL A   1      41.704  21.082  27.951  1.00  0.00     0.014 A 
ATOM     29  C   UNL A   1      42.695  22.927  26.104  1.00  0.00     0.010 A 
ATOM     30  C   UNL A   1      41.925  22.395  28.340  1.00  0.00     0.010 A 
ATOM     31  C   UNL A   1      42.433  23.328  27.423  1.00  0.00    -0.014 A 
BRANCH  31  32
ATOM     32  C   UNL A   1      42.711  24.708  27.895  1.00  0.00     0.031 A 
ATOM     33  C   UNL A   1      44.114  25.083  28.287  1.00  0.00     0.074 A 
ATOM     34  C   UNL A   1      41.703  25.588  28.049  1.00  0.00     0.049 A 
ATOM     35  N   UNL A   1      44.552  26.176  28.855  1.00  0.00    -0.248 NA
ATOM     36  C   UNL A   1      45.160  24.075  28.037  1.00  0.00     0.031 C 
ATOM     37  C   UNL A   1      40.297  25.335  27.730  1.00  0.00     0.029 A 
ATOM     38  N   UNL A   1      41.708  26.874  28.527  1.00  0.00    -0.354 N 
ATOM     39  C   UNL A   1      45.915  25.981  29.042  1.00  0.00     0.074 A 
ATOM     40  C   UNL A   1      46.220  24.641  28.593  1.00  0.00     0.031 C 
ATOM     41  C   UNL A   1      39.579  26.439  28.002  1.00  0.00     0.029 A 
ATOM     42  C   UNL A   1      40.465  27.456  28.559  1.00  0.00     0.049 A 
ATOM     43  H   UNL A   1      42.527  27.336  28.821  1.00  0.00     0.167 HD
ATOM     44  C   UNL A   1      46.837  26.852  29.515  1.00  0.00     0.037 A 
ATOM     45  C   UNL A   1      40.082  28.669  29.005  1.00  0.00     0.037 A 
ATOM     46  C   UNL A   1      46.533  28.191  29.941  1.00  0.00     0.049 A 
ATOM     47  C   UNL A   1      41.121  29.602  29.569  1.00  0.00     0.074 A 
ATOM     48  C   UNL A   1      47.397  29.162  30.412  1.00  0.00     0.029 A 
ATOM     49  N   UNL A   1      45.263  28.747  29.946  1.00  0.00    -0.354 N 
ATOM     50  N   UNL A   1      42.413  29.423  29.698  1.00  0.00    -0.248 NA
ATOM     51  C   UNL A   1      40.647  30.908  30.047  1.00  0.00     0.031 C 
ATOM     52  C   UNL A   1      46.644  30.293  30.742  1.00  0.00     0.029 A 
ATOM     53  C   UNL A   1      45.318  30.045  30.422  1.00  0.00     0.049 A 
ATOM     54  H   UNL A   1      44.443  28.286  29.652  1.00  0.00     0.167 HD
ATOM     55  C   UNL A   1      42.911  30.606  30.227  1.00  0.00     0.074 A 
ATOM     56  C   UNL A   1      41.782  31.498  30.391  1.00  0.00     0.031 C 
ATOM     57  C   UNL A   1      44.187  30.928  30.547  1.00  0.00     0.037 A 
BRANCH  44  58
ATOM     58  C   UNL A   1      48.262  26.383  29.581  1.00  0.00     0.057 A 
ATOM     59  C   UNL A   1      49.150  26.572  28.512  1.00  0.00     0.134 A 
ATOM     60  C   UNL A   1      48.761  25.762  30.731  1.00  0.00     0.134 A 
ATOM     61  F   UNL A   1      48.731  27.146  27.374  1.00  0.00    -0.206 F 
ATOM     62  C   UNL A   1      50.473  26.135  28.576  1.00  0.00     0.040 A 
ATOM     63  C   UNL A   1      50.092  25.350  30.819  1.00  0.00     0.040 A 
ATOM     64  F   UNL A   1      47.968  25.553  31.794  1.00  0.00    -0.206 F 
ATOM     65  C   UNL A   1      50.951  25.530  29.736  1.00  0.00     0.006 A 
ENDBRANCH  44  58
BRANCH  45  66
ATOM     66  C   UNL A   1      38.659  29.088  28.925  1.00  0.00     0.057 A 
ATOM     67  C   UNL A   1      37.812  28.979  30.036  1.00  0.00     0.134 A 
ATOM     68  C   UNL A   1      38.097  29.568  27.735  1.00  0.00     0.134 A 
ATOM     69  F   UNL A   1      38.285  28.509  31.200  1.00  0.00    -0.206 F 
ATOM     70  C   UNL A   1      36.456  29.298  29.960  1.00  0.00     0.040 A 
ATOM     71  C   UNL A   1      36.749  29.919  27.653  1.00  0.00     0.040 A 
ATOM     72  F   UNL A   1      38.853  29.707  26.636  1.00  0.00    -0.206 F 
ATOM     73  C   UNL A   1      35.920  29.773  28.764  1.00  0.00     0.006 A 
ENDBRANCH  45  66
BRANCH  57  74
ATOM     74  C   UNL A   1      44.450  32.323  31.037  1.00  0.00     0.057 A 
ATOM     75  C   UNL A   1      44.704  33.385  30.161  1.00  0.00     0.134 A 
ATOM     76  C   UNL A   1      44.384  32.614  32.406  1.00  0.00     0.134 A 
ATOM     77  F   UNL A   1      44.791  33.171  28.839  1.00  0.00    -0.206 F 
ATOM     78  C   UNL A   1      44.904  34.684  30.631  1.00  0.00     0.040 A 
ATOM     79  C   UNL A   1      44.552  33.913  32.885  1.00  0.00     0.040 A 
ATOM     80  F   UNL A   1      44.134  31.644  33.298  1.00  0.00    -0.206 F 
ATOM     81  C   UNL A   1      44.818  34.952  31.996  1.00  0.00     0.006 A 
ENDBRANCH  57  74
ENDBRANCH  31  32
ENDBRANCH  23  26
ENDBRANCH  21  22
ENDBRANCH   1  21
TORSDOF 14
ENDMDL
