MODEL 1
REMARK VINA RESULT:     -11.5      0.000      0.000
REMARK SMILES Cc1cn(C)c(CC(=O)NCC[NH+]2CCC(C)CC2)c1C(=O)NCCCNC(=O)c1ccc(-c2c3nc(c(-c4c(F)cccc4F)c4ccc([nH]4)c(-c4c(F)cccc4F)c4nc(c(-c5c(F)cccc5F)c5ccc2[nH]5)C=C4)C=C3)cc1
REMARK SMILES IDX 21 1 22 2 23 3 20 5 1 6 2 7 3 8 4 9 6 10 5 11 7 12 8 13 9 14
REMARK SMILES IDX 10 15 11 17 12 18 13 19 14 20 19 21 15 23 18 24 16 25 17 26
REMARK SMILES IDX 24 27 25 28 26 29 27 30 28 31 29 33 30 34 31 35 83 36 32 37
REMARK SMILES IDX 82 38 33 39 34 40 35 41 76 42 36 43 81 44 75 45 77 46 37 47
REMARK SMILES IDX 80 48 74 49 73 50 38 52 64 53 47 54 63 55 48 56 51 57 62 58
REMARK SMILES IDX 78 59 49 60 50 61 61 63 79 64 52 65 39 66 40 67 45 68 41 69
REMARK SMILES IDX 42 70 44 71 46 72 43 73 65 74 66 75 71 76 67 77 68 78 70 79
REMARK SMILES IDX 72 80 69 81 53 82 54 83 59 84 55 85 56 86 58 87 60 88 57 89
REMARK H PARENT 23 4 10 16 13 22 27 32 77 51 51 62
REMARK Flexibility Score: inf
ROOT
ATOM      1  C   UNL A   1      31.931  28.127  27.073  1.00  0.00     0.253 C 
ATOM      2  O   UNL A   1      31.078  27.701  27.859  1.00  0.00    -0.269 OA
ATOM      3  N   UNL A   1      32.837  28.933  27.701  1.00  0.00    -0.352 N 
ATOM      4  H   UNL A   1      32.564  29.178  28.614  1.00  0.00     0.163 HD
ENDROOT
BRANCH   1   5
ATOM      5  C   UNL A   1      31.905  27.774  25.625  1.00  0.00     0.064 A 
ATOM      6  C   UNL A   1      30.477  29.568  24.188  1.00  0.00     0.047 C 
ATOM      7  C   UNL A   1      31.343  28.387  24.430  1.00  0.00    -0.020 A 
ATOM      8  C   UNL A   1      31.706  27.605  23.353  1.00  0.00     0.089 A 
ATOM      9  N   UNL A   1      32.362  26.506  23.794  1.00  0.00    -0.353 N 
ATOM     10  C   UNL A   1      32.434  26.535  25.168  1.00  0.00     0.040 A 
ATOM     11  C   UNL A   1      32.825  25.460  22.906  1.00  0.00     0.149 C 
BRANCH  10  12
ATOM     12  C   UNL A   1      33.009  25.351  25.923  1.00  0.00     0.154 C 
BRANCH  12  13
ATOM     13  C   UNL A   1      31.937  24.334  26.319  1.00  0.00     0.226 C 
ATOM     14  O   UNL A   1      31.115  24.595  27.202  1.00  0.00    -0.275 OA
ATOM     15  N   UNL A   1      31.853  23.126  25.693  1.00  0.00    -0.350 N 
ATOM     16  H   UNL A   1      31.105  22.550  25.976  1.00  0.00     0.163 HD
BRANCH  15  17
ATOM     17  C   UNL A   1      32.714  22.577  24.666  1.00  0.00     0.177 C 
BRANCH  17  18
ATOM     18  C   UNL A   1      33.965  21.896  25.257  1.00  0.00     0.283 C 
BRANCH  18  19
ATOM     19  N   UNL A   1      35.045  21.654  24.272  1.00  0.00    -0.333 N 
ATOM     20  C   UNL A   1      36.181  20.942  24.885  1.00  0.00     0.262 C 
ATOM     21  C   UNL A   1      35.531  22.878  23.616  1.00  0.00     0.262 C 
ATOM     22  H   UNL A   1      34.622  21.071  23.551  1.00  0.00     0.348 HD
ATOM     23  C   UNL A   1      36.998  21.793  25.867  1.00  0.00     0.065 C 
ATOM     24  C   UNL A   1      36.262  23.831  24.564  1.00  0.00     0.065 C 
ATOM     25  C   UNL A   1      37.439  23.126  25.247  1.00  0.00    -0.003 C 
ATOM     26  C   UNL A   1      38.076  24.033  26.298  1.00  0.00     0.008 C 
ENDBRANCH  18  19
ENDBRANCH  17  18
ENDBRANCH  15  17
ENDBRANCH  12  13
ENDBRANCH  10  12
ENDBRANCH   1   5
BRANCH   3  27
ATOM     27  C   UNL A   1      34.105  29.501  27.324  1.00  0.00     0.118 C 
BRANCH  27  28
ATOM     28  C   UNL A   1      34.036  31.026  27.213  1.00  0.00     0.042 C 
BRANCH  28  29
ATOM     29  C   UNL A   1      35.195  31.723  27.897  1.00  0.00     0.118 C 
BRANCH  29  30
ATOM     30  N   UNL A   1      34.795  32.359  29.149  1.00  0.00    -0.352 N 
ATOM     31  C   UNL A   1      35.203  32.058  30.434  1.00  0.00     0.251 C 
ATOM     32  H   UNL A   1      34.151  33.100  29.067  1.00  0.00     0.163 HD
ATOM     33  O   UNL A   1      34.556  32.426  31.399  1.00  0.00    -0.269 OA
BRANCH  31  34
ATOM     34  C   UNL A   1      36.430  31.260  30.610  1.00  0.00     0.039 A 
ATOM     35  C   UNL A   1      36.379  29.866  30.614  1.00  0.00     0.014 A 
ATOM     36  C   UNL A   1      37.643  31.931  30.718  1.00  0.00     0.014 A 
ATOM     37  C   UNL A   1      37.576  29.157  30.634  1.00  0.00     0.010 A 
ATOM     38  C   UNL A   1      38.816  31.241  30.553  1.00  0.00     0.010 A 
ATOM     39  C   UNL A   1      38.796  29.854  30.568  1.00  0.00    -0.014 A 
BRANCH  39  40
ATOM     40  C   UNL A   1      40.050  29.131  30.388  1.00  0.00     0.031 A 
ATOM     41  C   UNL A   1      40.814  28.913  31.648  1.00  0.00     0.074 A 
ATOM     42  C   UNL A   1      40.414  28.531  29.233  1.00  0.00     0.049 A 
ATOM     43  N   UNL A   1      41.948  29.434  31.976  1.00  0.00    -0.248 NA
ATOM     44  C   UNL A   1      40.175  28.147  32.733  1.00  0.00     0.031 C 
ATOM     45  C   UNL A   1      39.649  28.374  27.991  1.00  0.00     0.029 A 
ATOM     46  N   UNL A   1      41.552  27.836  28.963  1.00  0.00    -0.354 N 
ATOM     47  C   UNL A   1      42.273  28.899  33.219  1.00  0.00     0.074 A 
ATOM     48  C   UNL A   1      41.079  28.264  33.709  1.00  0.00     0.031 C 
ATOM     49  C   UNL A   1      40.234  27.437  27.211  1.00  0.00     0.029 A 
ATOM     50  C   UNL A   1      41.503  27.064  27.807  1.00  0.00     0.049 A 
ATOM     51  H   UNL A   1      42.348  27.876  29.540  1.00  0.00     0.167 HD
ATOM     52  C   UNL A   1      43.571  28.815  33.625  1.00  0.00     0.037 A 
ATOM     53  C   UNL A   1      42.434  26.169  27.395  1.00  0.00     0.037 A 
ATOM     54  C   UNL A   1      44.415  29.694  32.851  1.00  0.00     0.049 A 
ATOM     55  C   UNL A   1      43.696  26.494  28.107  1.00  0.00     0.074 A 
ATOM     56  C   UNL A   1      44.415  31.052  32.592  1.00  0.00     0.029 A 
ATOM     57  N   UNL A   1      45.207  29.137  31.875  1.00  0.00    -0.354 N 
ATOM     58  N   UNL A   1      44.399  27.569  27.882  1.00  0.00    -0.248 NA
ATOM     59  C   UNL A   1      43.918  25.857  29.396  1.00  0.00     0.031 C 
ATOM     60  C   UNL A   1      44.744  31.160  31.208  1.00  0.00     0.029 A 
ATOM     61  C   UNL A   1      45.012  29.875  30.735  1.00  0.00     0.049 A 
ATOM     62  H   UNL A   1      45.799  28.357  31.974  1.00  0.00     0.167 HD
ATOM     63  C   UNL A   1      44.802  27.991  29.138  1.00  0.00     0.074 A 
ATOM     64  C   UNL A   1      44.543  26.857  30.025  1.00  0.00     0.031 C 
ATOM     65  C   UNL A   1      45.029  29.311  29.405  1.00  0.00     0.037 A 
BRANCH  52  66
ATOM     66  C   UNL A   1      44.127  27.673  34.440  1.00  0.00     0.057 A 
ATOM     67  C   UNL A   1      44.884  27.957  35.593  1.00  0.00     0.134 A 
ATOM     68  C   UNL A   1      44.210  26.340  33.987  1.00  0.00     0.134 A 
ATOM     69  F   UNL A   1      44.903  29.192  36.116  1.00  0.00    -0.206 F 
ATOM     70  C   UNL A   1      45.716  27.008  36.197  1.00  0.00     0.040 A 
ATOM     71  C   UNL A   1      44.998  25.372  34.613  1.00  0.00     0.040 A 
ATOM     72  F   UNL A   1      43.621  25.925  32.860  1.00  0.00    -0.206 F 
ATOM     73  C   UNL A   1      45.783  25.711  35.702  1.00  0.00     0.006 A 
ENDBRANCH  52  66
BRANCH  53  74
ATOM     74  C   UNL A   1      42.257  24.891  26.665  1.00  0.00     0.057 A 
ATOM     75  C   UNL A   1      43.008  24.615  25.512  1.00  0.00     0.134 A 
ATOM     76  C   UNL A   1      41.585  23.797  27.236  1.00  0.00     0.134 A 
ATOM     77  F   UNL A   1      43.710  25.585  24.907  1.00  0.00    -0.206 F 
ATOM     78  C   UNL A   1      43.124  23.322  24.986  1.00  0.00     0.040 A 
ATOM     79  C   UNL A   1      41.686  22.501  26.716  1.00  0.00     0.040 A 
ATOM     80  F   UNL A   1      40.883  23.929  28.371  1.00  0.00    -0.206 F 
ATOM     81  C   UNL A   1      42.475  22.256  25.599  1.00  0.00     0.006 A 
ENDBRANCH  53  74
BRANCH  65  82
ATOM     82  C   UNL A   1      45.064  30.279  28.254  1.00  0.00     0.057 A 
ATOM     83  C   UNL A   1      43.941  30.951  27.743  1.00  0.00     0.134 A 
ATOM     84  C   UNL A   1      46.309  30.662  27.741  1.00  0.00     0.134 A 
ATOM     85  F   UNL A   1      42.716  30.734  28.236  1.00  0.00    -0.206 F 
ATOM     86  C   UNL A   1      44.052  31.921  26.741  1.00  0.00     0.040 A 
ATOM     87  C   UNL A   1      46.437  31.653  26.766  1.00  0.00     0.040 A 
ATOM     88  F   UNL A   1      47.435  30.105  28.216  1.00  0.00    -0.206 F 
ATOM     89  C   UNL A   1      45.304  32.280  26.254  1.00  0.00     0.006 A 
ENDBRANCH  65  82
ENDBRANCH  39  40
ENDBRANCH  31  34
ENDBRANCH  29  30
ENDBRANCH  28  29
ENDBRANCH  27  28
ENDBRANCH   3  27
TORSDOF 15
ENDMDL
MODEL 2
REMARK VINA RESULT:     -11.3      2.734      7.880
REMARK SMILES Cc1cn(C)c(CC(=O)NCC[NH+]2CCC(C)CC2)c1C(=O)NCCCNC(=O)c1ccc(-c2c3nc(c(-c4c(F)cccc4F)c4ccc([nH]4)c(-c4c(F)cccc4F)c4nc(c(-c5c(F)cccc5F)c5ccc2[nH]5)C=C4)C=C3)cc1
REMARK SMILES IDX 21 1 22 2 23 3 20 5 1 6 2 7 3 8 4 9 6 10 5 11 7 12 8 13 9 14
REMARK SMILES IDX 10 15 11 17 12 18 13 19 14 20 19 21 15 23 18 24 16 25 17 26
REMARK SMILES IDX 24 27 25 28 26 29 27 30 28 31 29 33 30 34 31 35 83 36 32 37
REMARK SMILES IDX 82 38 33 39 34 40 35 41 76 42 36 43 81 44 75 45 77 46 37 47
REMARK SMILES IDX 80 48 74 49 73 50 38 52 64 53 47 54 63 55 48 56 51 57 62 58
REMARK SMILES IDX 78 59 49 60 50 61 61 63 79 64 52 65 39 66 40 67 45 68 41 69
REMARK SMILES IDX 42 70 44 71 46 72 43 73 65 74 66 75 71 76 67 77 68 78 70 79
REMARK SMILES IDX 72 80 69 81 53 82 54 83 59 84 55 85 56 86 58 87 60 88 57 89
REMARK H PARENT 23 4 10 16 13 22 27 32 77 51 51 62
REMARK Flexibility Score: inf
ROOT
ATOM      1  C   UNL A   1      35.905  22.903  23.650  1.00  0.00     0.253 C 
ATOM      2  O   UNL A   1      35.983  22.998  22.420  1.00  0.00    -0.269 OA
ATOM      3  N   UNL A   1      37.133  22.998  24.241  1.00  0.00    -0.352 N 
ATOM      4  H   UNL A   1      37.873  22.948  23.596  1.00  0.00     0.163 HD
ENDROOT
BRANCH   1   5
ATOM      5  C   UNL A   1      34.599  22.697  24.336  1.00  0.00     0.064 A 
ATOM      6  C   UNL A   1      34.062  20.068  24.691  1.00  0.00     0.047 C 
ATOM      7  C   UNL A   1      33.857  21.534  24.803  1.00  0.00    -0.020 A 
ATOM      8  C   UNL A   1      32.714  21.993  25.425  1.00  0.00     0.089 A 
ATOM      9  N   UNL A   1      32.639  23.338  25.294  1.00  0.00    -0.353 N 
ATOM     10  C   UNL A   1      33.721  23.791  24.575  1.00  0.00     0.040 A 
ATOM     11  C   UNL A   1      31.522  24.113  25.794  1.00  0.00     0.149 C 
BRANCH  10  12
ATOM     12  C   UNL A   1      33.809  25.253  24.176  1.00  0.00     0.154 C 
BRANCH  12  13
ATOM     13  C   UNL A   1      33.254  25.510  22.774  1.00  0.00     0.226 C 
ATOM     14  O   UNL A   1      33.827  25.062  21.776  1.00  0.00    -0.275 OA
ATOM     15  N   UNL A   1      32.105  26.222  22.595  1.00  0.00    -0.350 N 
ATOM     16  H   UNL A   1      31.793  26.301  21.665  1.00  0.00     0.163 HD
BRANCH  15  17
ATOM     17  C   UNL A   1      31.282  26.876  23.592  1.00  0.00     0.177 C 
BRANCH  17  18
ATOM     18  C   UNL A   1      31.934  28.164  24.134  1.00  0.00     0.283 C 
BRANCH  18  19
ATOM     19  N   UNL A   1      31.354  28.646  25.408  1.00  0.00    -0.333 N 
ATOM     20  C   UNL A   1      31.763  30.033  25.694  1.00  0.00     0.262 C 
ATOM     21  C   UNL A   1      31.676  27.794  26.564  1.00  0.00     0.262 C 
ATOM     22  H   UNL A   1      30.344  28.606  25.274  1.00  0.00     0.348 HD
ATOM     23  C   UNL A   1      33.240  30.185  26.081  1.00  0.00     0.065 C 
ATOM     24  C   UNL A   1      33.159  27.808  26.940  1.00  0.00     0.065 C 
ATOM     25  C   UNL A   1      33.638  29.236  27.221  1.00  0.00    -0.003 C 
ATOM     26  C   UNL A   1      35.147  29.264  27.453  1.00  0.00     0.008 C 
ENDBRANCH  18  19
ENDBRANCH  17  18
ENDBRANCH  15  17
ENDBRANCH  12  13
ENDBRANCH  10  12
ENDBRANCH   1   5
BRANCH   3  27
ATOM     27  C   UNL A   1      37.582  23.158  25.599  1.00  0.00     0.118 C 
BRANCH  27  28
ATOM     28  C   UNL A   1      38.617  22.099  25.986  1.00  0.00     0.042 C 
BRANCH  28  29
ATOM     29  C   UNL A   1      39.808  22.677  26.724  1.00  0.00     0.118 C 
BRANCH  29  30
ATOM     30  N   UNL A   1      41.074  22.340  26.080  1.00  0.00    -0.352 N 
ATOM     31  C   UNL A   1      42.096  23.187  25.699  1.00  0.00     0.251 C 
ATOM     32  H   UNL A   1      41.218  21.383  25.893  1.00  0.00     0.163 HD
ATOM     33  O   UNL A   1      42.931  22.835  24.884  1.00  0.00    -0.269 OA
BRANCH  31  34
ATOM     34  C   UNL A   1      42.141  24.538  26.286  1.00  0.00     0.039 A 
ATOM     35  C   UNL A   1      41.461  25.599  25.687  1.00  0.00     0.014 A 
ATOM     36  C   UNL A   1      42.831  24.716  27.481  1.00  0.00     0.014 A 
ATOM     37  C   UNL A   1      41.410  26.818  26.355  1.00  0.00     0.010 A 
ATOM     38  C   UNL A   1      42.627  25.853  28.219  1.00  0.00     0.010 A 
ATOM     39  C   UNL A   1      41.968  26.929  27.641  1.00  0.00    -0.014 A 
BRANCH  39  40
ATOM     40  C   UNL A   1      41.753  28.132  28.438  1.00  0.00     0.031 A 
ATOM     41  C   UNL A   1      42.794  29.180  28.250  1.00  0.00     0.074 A 
ATOM     42  C   UNL A   1      40.623  28.379  29.137  1.00  0.00     0.049 A 
ATOM     43  N   UNL A   1      43.664  29.583  29.114  1.00  0.00    -0.248 NA
ATOM     44  C   UNL A   1      42.991  29.740  26.902  1.00  0.00     0.031 C 
ATOM     45  C   UNL A   1      39.375  27.611  29.181  1.00  0.00     0.029 A 
ATOM     46  N   UNL A   1      40.325  29.462  29.904  1.00  0.00    -0.354 N 
ATOM     47  C   UNL A   1      44.384  30.598  28.492  1.00  0.00     0.074 A 
ATOM     48  C   UNL A   1      44.052  30.528  27.094  1.00  0.00     0.031 C 
ATOM     49  C   UNL A   1      38.393  28.365  29.724  1.00  0.00     0.029 A 
ATOM     50  C   UNL A   1      38.979  29.593  30.230  1.00  0.00     0.049 A 
ATOM     51  H   UNL A   1      41.007  30.103  30.206  1.00  0.00     0.167 HD
ATOM     52  C   UNL A   1      45.002  31.565  29.225  1.00  0.00     0.037 A 
ATOM     53  C   UNL A   1      38.397  30.650  30.848  1.00  0.00     0.037 A 
ATOM     54  C   UNL A   1      45.165  31.153  30.599  1.00  0.00     0.049 A 
ATOM     55  C   UNL A   1      39.479  31.405  31.530  1.00  0.00     0.074 A 
ATOM     56  C   UNL A   1      45.766  30.072  31.218  1.00  0.00     0.029 A 
ATOM     57  N   UNL A   1      44.315  31.683  31.540  1.00  0.00    -0.354 N 
ATOM     58  N   UNL A   1      40.134  30.957  32.564  1.00  0.00    -0.248 NA
ATOM     59  C   UNL A   1      40.146  32.450  30.768  1.00  0.00     0.031 C 
ATOM     60  C   UNL A   1      44.869  29.704  32.264  1.00  0.00     0.029 A 
ATOM     61  C   UNL A   1      43.828  30.634  32.276  1.00  0.00     0.049 A 
ATOM     62  H   UNL A   1      44.096  32.636  31.661  1.00  0.00     0.167 HD
ATOM     63  C   UNL A   1      41.449  31.326  32.330  1.00  0.00     0.074 A 
ATOM     64  C   UNL A   1      41.384  32.309  31.248  1.00  0.00     0.031 C 
ATOM     65  C   UNL A   1      42.491  30.590  32.819  1.00  0.00     0.037 A 
BRANCH  52  66
ATOM     66  C   UNL A   1      45.105  33.010  28.800  1.00  0.00     0.057 A 
ATOM     67  C   UNL A   1      46.365  33.638  28.798  1.00  0.00     0.134 A 
ATOM     68  C   UNL A   1      44.004  33.884  28.685  1.00  0.00     0.134 A 
ATOM     69  F   UNL A   1      47.492  32.919  28.917  1.00  0.00    -0.206 F 
ATOM     70  C   UNL A   1      46.511  35.029  28.764  1.00  0.00     0.040 A 
ATOM     71  C   UNL A   1      44.141  35.271  28.599  1.00  0.00     0.040 A 
ATOM     72  F   UNL A   1      42.737  33.459  28.754  1.00  0.00    -0.206 F 
ATOM     73  C   UNL A   1      45.395  35.853  28.673  1.00  0.00     0.006 A 
ENDBRANCH  52  66
BRANCH  53  74
ATOM     74  C   UNL A   1      37.042  31.223  30.665  1.00  0.00     0.057 A 
ATOM     75  C   UNL A   1      36.182  31.393  31.762  1.00  0.00     0.134 A 
ATOM     76  C   UNL A   1      36.671  31.889  29.485  1.00  0.00     0.134 A 
ATOM     77  F   UNL A   1      36.463  30.821  32.943  1.00  0.00    -0.206 F 
ATOM     78  C   UNL A   1      35.050  32.215  31.704  1.00  0.00     0.040 A 
ATOM     79  C   UNL A   1      35.538  32.707  29.411  1.00  0.00     0.040 A 
ATOM     80  F   UNL A   1      37.445  31.846  28.391  1.00  0.00    -0.206 F 
ATOM     81  C   UNL A   1      34.734  32.890  30.529  1.00  0.00     0.006 A 
ENDBRANCH  53  74
BRANCH  65  82
ATOM     82  C   UNL A   1      42.194  29.503  33.817  1.00  0.00     0.057 A 
ATOM     83  C   UNL A   1      41.886  28.175  33.481  1.00  0.00     0.134 A 
ATOM     84  C   UNL A   1      42.378  29.778  35.177  1.00  0.00     0.134 A 
ATOM     85  F   UNL A   1      41.791  27.785  32.204  1.00  0.00    -0.206 F 
ATOM     86  C   UNL A   1      41.726  27.183  34.454  1.00  0.00     0.040 A 
ATOM     87  C   UNL A   1      42.255  28.790  36.156  1.00  0.00     0.040 A 
ATOM     88  F   UNL A   1      42.727  31.012  35.576  1.00  0.00    -0.206 F 
ATOM     89  C   UNL A   1      41.918  27.489  35.797  1.00  0.00     0.006 A 
ENDBRANCH  65  82
ENDBRANCH  39  40
ENDBRANCH  31  34
ENDBRANCH  29  30
ENDBRANCH  28  29
ENDBRANCH  27  28
ENDBRANCH   3  27
TORSDOF 15
ENDMDL
MODEL 3
REMARK VINA RESULT:     -11.3      1.616      4.204
REMARK SMILES Cc1cn(C)c(CC(=O)NCC[NH+]2CCC(C)CC2)c1C(=O)NCCCNC(=O)c1ccc(-c2c3nc(c(-c4c(F)cccc4F)c4ccc([nH]4)c(-c4c(F)cccc4F)c4nc(c(-c5c(F)cccc5F)c5ccc2[nH]5)C=C4)C=C3)cc1
REMARK SMILES IDX 21 1 22 2 23 3 20 5 1 6 2 7 3 8 4 9 6 10 5 11 7 12 8 13 9 14
REMARK SMILES IDX 10 15 11 17 12 18 13 19 14 20 19 21 15 23 18 24 16 25 17 26
REMARK SMILES IDX 24 27 25 28 26 29 27 30 28 31 29 33 30 34 31 35 83 36 32 37
REMARK SMILES IDX 82 38 33 39 34 40 35 41 76 42 36 43 81 44 75 45 77 46 37 47
REMARK SMILES IDX 80 48 74 49 73 50 38 52 64 53 47 54 63 55 48 56 51 57 62 58
REMARK SMILES IDX 78 59 49 60 50 61 61 63 79 64 52 65 39 66 40 67 45 68 41 69
REMARK SMILES IDX 42 70 44 71 46 72 43 73 65 74 66 75 71 76 67 77 68 78 70 79
REMARK SMILES IDX 72 80 69 81 53 82 54 83 59 84 55 85 56 86 58 87 60 88 57 89
REMARK H PARENT 23 4 10 16 13 22 27 32 77 51 51 62
REMARK Flexibility Score: inf
ROOT
ATOM      1  C   UNL A   1      33.483  27.110  24.753  1.00  0.00     0.253 C 
ATOM      2  O   UNL A   1      33.754  27.222  23.551  1.00  0.00    -0.269 OA
ATOM      3  N   UNL A   1      33.430  28.326  25.371  1.00  0.00    -0.352 N 
ATOM      4  H   UNL A   1      33.783  29.056  24.813  1.00  0.00     0.163 HD
ENDROOT
BRANCH   1   5
ATOM      5  C   UNL A   1      33.267  25.778  25.384  1.00  0.00     0.064 A 
ATOM      6  C   UNL A   1      35.575  24.378  25.573  1.00  0.00     0.047 C 
ATOM      7  C   UNL A   1      34.132  24.668  25.761  1.00  0.00    -0.020 A 
ATOM      8  C   UNL A   1      33.343  23.715  26.370  1.00  0.00     0.089 A 
ATOM      9  N   UNL A   1      32.047  24.100  26.313  1.00  0.00    -0.353 N 
ATOM     10  C   UNL A   1      31.953  25.306  25.656  1.00  0.00     0.040 A 
ATOM     11  C   UNL A   1      30.963  23.283  26.821  1.00  0.00     0.149 C 
BRANCH  10  12
ATOM     12  C   UNL A   1      30.590  25.896  25.343  1.00  0.00     0.154 C 
BRANCH  12  13
ATOM     13  C   UNL A   1      30.202  25.723  23.874  1.00  0.00     0.226 C 
ATOM     14  O   UNL A   1      30.153  24.602  23.361  1.00  0.00    -0.275 OA
ATOM     15  N   UNL A   1      29.883  26.802  23.103  1.00  0.00    -0.350 N 
ATOM     16  H   UNL A   1      29.600  26.599  22.182  1.00  0.00     0.163 HD
BRANCH  15  17
ATOM     17  C   UNL A   1      29.904  28.206  23.459  1.00  0.00     0.177 C 
BRANCH  17  18
ATOM     18  C   UNL A   1      29.653  29.121  22.243  1.00  0.00     0.283 C 
BRANCH  18  19
ATOM     19  N   UNL A   1      28.252  29.584  22.113  1.00  0.00    -0.333 N 
ATOM     20  C   UNL A   1      28.121  30.608  21.060  1.00  0.00     0.262 C 
ATOM     21  C   UNL A   1      27.682  30.098  23.368  1.00  0.00     0.262 C 
ATOM     22  H   UNL A   1      27.719  28.754  21.855  1.00  0.00     0.348 HD
ATOM     23  C   UNL A   1      28.744  31.963  21.421  1.00  0.00     0.065 C 
ATOM     24  C   UNL A   1      28.334  31.395  23.851  1.00  0.00     0.065 C 
ATOM     25  C   UNL A   1      28.245  32.485  22.777  1.00  0.00    -0.003 C 
ATOM     26  C   UNL A   1      29.022  33.729  23.203  1.00  0.00     0.008 C 
ENDBRANCH  18  19
ENDBRANCH  17  18
ENDBRANCH  15  17
ENDBRANCH  12  13
ENDBRANCH  10  12
ENDBRANCH   1   5
BRANCH   3  27
ATOM     27  C   UNL A   1      32.971  28.777  26.659  1.00  0.00     0.118 C 
BRANCH  27  28
ATOM     28  C   UNL A   1      34.134  29.094  27.601  1.00  0.00     0.042 C 
BRANCH  28  29
ATOM     29  C   UNL A   1      34.803  30.418  27.292  1.00  0.00     0.118 C 
BRANCH  29  30
ATOM     30  N   UNL A   1      34.472  31.447  28.274  1.00  0.00    -0.352 N 
ATOM     31  C   UNL A   1      35.020  31.646  29.527  1.00  0.00     0.251 C 
ATOM     32  H   UNL A   1      33.767  32.081  28.009  1.00  0.00     0.163 HD
ATOM     33  O   UNL A   1      34.438  32.311  30.366  1.00  0.00    -0.269 OA
BRANCH  31  34
ATOM     34  C   UNL A   1      36.316  31.016  29.833  1.00  0.00     0.039 A 
ATOM     35  C   UNL A   1      36.375  29.733  30.379  1.00  0.00     0.014 A 
ATOM     36  C   UNL A   1      37.479  31.708  29.512  1.00  0.00     0.014 A 
ATOM     37  C   UNL A   1      37.617  29.122  30.511  1.00  0.00     0.010 A 
ATOM     38  C   UNL A   1      38.676  31.042  29.472  1.00  0.00     0.010 A 
ATOM     39  C   UNL A   1      38.765  29.772  30.022  1.00  0.00    -0.014 A 
BRANCH  39  40
ATOM     40  C   UNL A   1      40.043  29.071  29.970  1.00  0.00     0.031 A 
ATOM     41  C   UNL A   1      40.692  28.888  31.299  1.00  0.00     0.074 A 
ATOM     42  C   UNL A   1      40.523  28.461  28.864  1.00  0.00     0.049 A 
ATOM     43  N   UNL A   1      41.781  29.437  31.720  1.00  0.00    -0.248 NA
ATOM     44  C   UNL A   1      39.971  28.127  32.333  1.00  0.00     0.031 C 
ATOM     45  C   UNL A   1      39.878  28.268  27.560  1.00  0.00     0.029 A 
ATOM     46  N   UNL A   1      41.694  27.785  28.712  1.00  0.00    -0.354 N 
ATOM     47  C   UNL A   1      42.001  28.928  32.996  1.00  0.00     0.074 A 
ATOM     48  C   UNL A   1      40.779  28.277  33.386  1.00  0.00     0.031 C 
ATOM     49  C   UNL A   1      40.550  27.331  26.854  1.00  0.00     0.029 A 
ATOM     50  C   UNL A   1      41.765  26.993  27.570  1.00  0.00     0.049 A 
ATOM     51  H   UNL A   1      42.432  27.850  29.358  1.00  0.00     0.167 HD
ATOM     52  C   UNL A   1      43.257  28.877  33.521  1.00  0.00     0.037 A 
ATOM     53  C   UNL A   1      42.746  26.111  27.260  1.00  0.00     0.037 A 
ATOM     54  C   UNL A   1      44.153  29.760  32.813  1.00  0.00     0.049 A 
ATOM     55  C   UNL A   1      43.932  26.473  28.079  1.00  0.00     0.074 A 
ATOM     56  C   UNL A   1      44.151  31.114  32.530  1.00  0.00     0.029 A 
ATOM     57  N   UNL A   1      45.041  29.205  31.922  1.00  0.00    -0.354 N 
ATOM     58  N   UNL A   1      44.632  27.558  27.900  1.00  0.00    -0.248 NA
ATOM     59  C   UNL A   1      44.046  25.860  29.394  1.00  0.00     0.031 C 
ATOM     60  C   UNL A   1      44.604  31.206  31.180  1.00  0.00     0.029 A 
ATOM     61  C   UNL A   1      44.938  29.920  30.756  1.00  0.00     0.049 A 
ATOM     62  H   UNL A   1      45.636  28.438  32.089  1.00  0.00     0.167 HD
ATOM     63  C   UNL A   1      44.911  28.007  29.181  1.00  0.00     0.074 A 
ATOM     64  C   UNL A   1      44.592  26.882  30.060  1.00  0.00     0.031 C 
ATOM     65  C   UNL A   1      45.087  29.336  29.444  1.00  0.00     0.037 A 
BRANCH  52  66
ATOM     66  C   UNL A   1      43.758  27.760  34.403  1.00  0.00     0.057 A 
ATOM     67  C   UNL A   1      44.336  28.073  35.647  1.00  0.00     0.134 A 
ATOM     68  C   UNL A   1      43.970  26.436  33.965  1.00  0.00     0.134 A 
ATOM     69  F   UNL A   1      44.221  29.304  36.169  1.00  0.00    -0.206 F 
ATOM     70  C   UNL A   1      45.128  27.165  36.358  1.00  0.00     0.040 A 
ATOM     71  C   UNL A   1      44.716  25.506  34.692  1.00  0.00     0.040 A 
ATOM     72  F   UNL A   1      43.560  25.999  32.769  1.00  0.00    -0.206 F 
ATOM     73  C   UNL A   1      45.328  25.877  35.877  1.00  0.00     0.006 A 
ENDBRANCH  52  66
BRANCH  53  74
ATOM     74  C   UNL A   1      42.661  24.818  26.540  1.00  0.00     0.057 A 
ATOM     75  C   UNL A   1      43.419  24.593  25.380  1.00  0.00     0.134 A 
ATOM     76  C   UNL A   1      42.081  23.680  27.124  1.00  0.00     0.134 A 
ATOM     77  F   UNL A   1      44.038  25.611  24.762  1.00  0.00    -0.206 F 
ATOM     78  C   UNL A   1      43.629  23.309  24.860  1.00  0.00     0.040 A 
ATOM     79  C   UNL A   1      42.276  22.392  26.611  1.00  0.00     0.040 A 
ATOM     80  F   UNL A   1      41.384  23.764  28.267  1.00  0.00    -0.206 F 
ATOM     81  C   UNL A   1      43.070  22.201  25.487  1.00  0.00     0.006 A 
ENDBRANCH  53  74
BRANCH  65  82
ATOM     82  C   UNL A   1      45.210  30.286  28.284  1.00  0.00     0.057 A 
ATOM     83  C   UNL A   1      44.127  30.929  27.662  1.00  0.00     0.134 A 
ATOM     84  C   UNL A   1      46.490  30.683  27.879  1.00  0.00     0.134 A 
ATOM     85  F   UNL A   1      42.866  30.697  28.047  1.00  0.00    -0.206 F 
ATOM     86  C   UNL A   1      44.311  31.886  26.658  1.00  0.00     0.040 A 
ATOM     87  C   UNL A   1      46.688  31.661  26.902  1.00  0.00     0.040 A 
ATOM     88  F   UNL A   1      47.577  30.155  28.463  1.00  0.00    -0.206 F 
ATOM     89  C   UNL A   1      45.596  32.259  26.280  1.00  0.00     0.006 A 
ENDBRANCH  65  82
ENDBRANCH  39  40
ENDBRANCH  31  34
ENDBRANCH  29  30
ENDBRANCH  28  29
ENDBRANCH  27  28
ENDBRANCH   3  27
TORSDOF 15
ENDMDL
