MODEL 1
REMARK VINA RESULT:     -10.4      0.000      0.000
REMARK SMILES Cc1cc2c(cc1C)O[C@@H](C(=O)NCCCNC(=O)c1ccc(-c3c4nc(c(-c5c(F)cccc5F)c5ccc([nH]5)c(-c5c(F)cccc5F)c5nc(c(-c6c(F)cccc6F)c6ccc3[nH]6)C=C5)C=C4)cc1)C2
REMARK SMILES IDX 16 1 15 2 14 3 13 4 11 5 12 6 10 8 1 9 2 10 3 11 7 12 4 13
REMARK SMILES IDX 6 14 8 15 5 16 74 17 9 18 17 19 18 20 19 22 20 23 21 24
REMARK SMILES IDX 73 25 22 26 72 27 23 28 24 29 25 30 66 31 26 32 71 33 65 34
REMARK SMILES IDX 67 35 27 36 70 37 64 38 63 39 28 41 54 42 37 43 53 44 38 45
REMARK SMILES IDX 41 46 52 47 68 48 39 49 40 50 51 52 69 53 42 54 29 55 30 56
REMARK SMILES IDX 35 57 31 58 32 59 34 60 36 61 33 62 55 63 56 64 61 65 57 66
REMARK SMILES IDX 58 67 60 68 62 69 59 70 43 71 44 72 49 73 45 74 46 75 48 76
REMARK SMILES IDX 50 77 47 78
REMARK H PARENT 13 7 17 21 67 40 41 51
REMARK Flexibility Score: inf
ROOT
ATOM      1  C   UNL A   1      44.119  19.197  25.728  1.00  0.00     0.118 C 
ENDROOT
BRANCH   1   2
ATOM      2  C   UNL A   1      44.747  20.121  24.694  1.00  0.00     0.042 C 
BRANCH   2   3
ATOM      3  C   UNL A   1      45.255  21.429  25.283  1.00  0.00     0.118 C 
BRANCH   3   4
ATOM      4  N   UNL A   1      46.255  22.070  24.445  1.00  0.00    -0.353 N 
ATOM      5  C   UNL A   1      46.539  23.401  24.288  1.00  0.00     0.261 C 
ATOM      6  O   UNL A   1      47.427  23.713  23.496  1.00  0.00    -0.271 OA
ATOM      7  H   UNL A   1      46.812  21.457  23.912  1.00  0.00     0.163 HD
BRANCH   5   8
ATOM      8  C   UNL A   1      45.726  24.415  25.091  1.00  0.00     0.266 C 
ATOM      9  C   UNL A   1      44.001  29.712  27.163  1.00  0.00     0.044 C 
ATOM     10  C   UNL A   1      44.057  28.440  26.362  1.00  0.00    -0.048 A 
ATOM     11  C   UNL A   1      45.307  27.810  26.217  1.00  0.00     0.011 A 
ATOM     12  C   UNL A   1      42.892  27.834  25.817  1.00  0.00    -0.045 A 
ATOM     13  C   UNL A   1      45.365  26.600  25.559  1.00  0.00    -0.001 A 
ATOM     14  C   UNL A   1      42.996  26.615  25.118  1.00  0.00     0.050 A 
ATOM     15  C   UNL A   1      41.513  28.419  25.963  1.00  0.00     0.045 C 
ATOM     16  C   UNL A   1      44.229  26.013  25.032  1.00  0.00     0.124 A 
ATOM     17  C   UNL A   1      46.519  25.715  25.290  1.00  0.00     0.095 C 
ATOM     18  O   UNL A   1      44.465  24.776  24.484  1.00  0.00    -0.480 OA
ENDBRANCH   5   8
ENDBRANCH   3   4
ENDBRANCH   2   3
ENDBRANCH   1   2
BRANCH   1  19
ATOM     19  N   UNL A   1      42.704  18.943  25.474  1.00  0.00    -0.352 N 
ATOM     20  C   UNL A   1      41.572  19.601  25.892  1.00  0.00     0.251 C 
ATOM     21  H   UNL A   1      42.530  18.161  24.902  1.00  0.00     0.163 HD
ATOM     22  O   UNL A   1      40.475  19.065  25.751  1.00  0.00    -0.269 OA
BRANCH  20  23
ATOM     23  C   UNL A   1      41.665  20.925  26.543  1.00  0.00     0.039 A 
ATOM     24  C   UNL A   1      41.722  22.087  25.781  1.00  0.00     0.014 A 
ATOM     25  C   UNL A   1      41.678  21.009  27.939  1.00  0.00     0.014 A 
ATOM     26  C   UNL A   1      42.019  23.298  26.392  1.00  0.00     0.010 A 
ATOM     27  C   UNL A   1      41.852  22.251  28.560  1.00  0.00     0.010 A 
ATOM     28  C   UNL A   1      42.086  23.400  27.789  1.00  0.00    -0.014 A 
BRANCH  28  29
ATOM     29  C   UNL A   1      42.410  24.715  28.403  1.00  0.00     0.031 A 
ATOM     30  C   UNL A   1      43.836  25.084  28.723  1.00  0.00     0.074 A 
ATOM     31  C   UNL A   1      41.424  25.616  28.588  1.00  0.00     0.049 A 
ATOM     32  N   UNL A   1      44.302  26.192  29.242  1.00  0.00    -0.248 NA
ATOM     33  C   UNL A   1      44.874  24.084  28.428  1.00  0.00     0.031 C 
ATOM     34  C   UNL A   1      40.007  25.386  28.297  1.00  0.00     0.029 A 
ATOM     35  N   UNL A   1      41.463  26.916  29.022  1.00  0.00    -0.354 N 
ATOM     36  C   UNL A   1      45.675  26.015  29.355  1.00  0.00     0.074 A 
ATOM     37  C   UNL A   1      45.970  24.683  28.876  1.00  0.00     0.031 C 
ATOM     38  C   UNL A   1      39.327  26.527  28.481  1.00  0.00     0.029 A 
ATOM     39  C   UNL A   1      40.241  27.545  28.985  1.00  0.00     0.049 A 
ATOM     40  H   UNL A   1      42.287  27.357  29.331  1.00  0.00     0.167 HD
ATOM     41  C   UNL A   1      46.608  26.889  29.801  1.00  0.00     0.037 A 
ATOM     42  C   UNL A   1      39.888  28.797  29.331  1.00  0.00     0.037 A 
ATOM     43  C   UNL A   1      46.318  28.228  30.242  1.00  0.00     0.049 A 
ATOM     44  C   UNL A   1      40.937  29.726  29.867  1.00  0.00     0.074 A 
ATOM     45  C   UNL A   1      47.198  29.190  30.710  1.00  0.00     0.029 A 
ATOM     46  N   UNL A   1      45.056  28.800  30.256  1.00  0.00    -0.354 N 
ATOM     47  N   UNL A   1      42.227  29.531  29.991  1.00  0.00    -0.248 NA
ATOM     48  C   UNL A   1      40.478  31.043  30.332  1.00  0.00     0.031 C 
ATOM     49  C   UNL A   1      46.463  30.331  31.039  1.00  0.00     0.029 A 
ATOM     50  C   UNL A   1      45.132  30.096  30.739  1.00  0.00     0.049 A 
ATOM     51  H   UNL A   1      44.228  28.352  29.967  1.00  0.00     0.167 HD
ATOM     52  C   UNL A   1      42.735  30.700  30.540  1.00  0.00     0.074 A 
ATOM     53  C   UNL A   1      41.620  31.608  30.702  1.00  0.00     0.031 C 
ATOM     54  C   UNL A   1      44.012  30.989  30.887  1.00  0.00     0.037 A 
BRANCH  41  55
ATOM     55  C   UNL A   1      48.037  26.437  29.840  1.00  0.00     0.057 A 
ATOM     56  C   UNL A   1      48.573  25.784  30.957  1.00  0.00     0.134 A 
ATOM     57  C   UNL A   1      48.861  26.576  28.715  1.00  0.00     0.134 A 
ATOM     58  F   UNL A   1      47.841  25.630  32.070  1.00  0.00    -0.206 F 
ATOM     59  C   UNL A   1      49.878  25.285  30.953  1.00  0.00     0.040 A 
ATOM     60  C   UNL A   1      50.160  26.065  28.693  1.00  0.00     0.040 A 
ATOM     61  F   UNL A   1      48.407  27.188  27.610  1.00  0.00    -0.206 F 
ATOM     62  C   UNL A   1      50.671  25.416  29.815  1.00  0.00     0.006 A 
ENDBRANCH  41  55
BRANCH  42  63
ATOM     63  C   UNL A   1      38.476  29.234  29.195  1.00  0.00     0.057 A 
ATOM     64  C   UNL A   1      37.601  29.200  30.286  1.00  0.00     0.134 A 
ATOM     65  C   UNL A   1      37.969  29.702  27.976  1.00  0.00     0.134 A 
ATOM     66  F   UNL A   1      38.021  28.743  31.474  1.00  0.00    -0.206 F 
ATOM     67  C   UNL A   1      36.271  29.609  30.168  1.00  0.00     0.040 A 
ATOM     68  C   UNL A   1      36.651  30.140  27.851  1.00  0.00     0.040 A 
ATOM     69  F   UNL A   1      38.759  29.762  26.893  1.00  0.00    -0.206 F 
ATOM     70  C   UNL A   1      35.796  30.088  28.949  1.00  0.00     0.006 A 
ENDBRANCH  42  63
BRANCH  54  71
ATOM     71  C   UNL A   1      44.276  32.346  31.464  1.00  0.00     0.057 A 
ATOM     72  C   UNL A   1      44.562  33.445  30.645  1.00  0.00     0.134 A 
ATOM     73  C   UNL A   1      44.185  32.567  32.843  1.00  0.00     0.134 A 
ATOM     74  F   UNL A   1      44.674  33.294  29.317  1.00  0.00    -0.206 F 
ATOM     75  C   UNL A   1      44.760  34.718  31.182  1.00  0.00     0.040 A 
ATOM     76  C   UNL A   1      44.359  33.839  33.389  1.00  0.00     0.040 A 
ATOM     77  F   UNL A   1      43.906  31.555  33.679  1.00  0.00    -0.206 F 
ATOM     78  C   UNL A   1      44.650  34.919  32.557  1.00  0.00     0.006 A 
ENDBRANCH  54  71
ENDBRANCH  28  29
ENDBRANCH  20  23
ENDBRANCH   1  19
TORSDOF 10
ENDMDL
MODEL 2
REMARK VINA RESULT:     -10.0      0.441      6.462
REMARK SMILES Cc1cc2c(cc1C)O[C@@H](C(=O)NCCCNC(=O)c1ccc(-c3c4nc(c(-c5c(F)cccc5F)c5ccc([nH]5)c(-c5c(F)cccc5F)c5nc(c(-c6c(F)cccc6F)c6ccc3[nH]6)C=C5)C=C4)cc1)C2
REMARK SMILES IDX 16 1 15 2 14 3 13 4 11 5 12 6 10 8 1 9 2 10 3 11 7 12 4 13
REMARK SMILES IDX 6 14 8 15 5 16 74 17 9 18 17 19 18 20 19 22 20 23 21 24
REMARK SMILES IDX 73 25 22 26 72 27 23 28 24 29 25 30 66 31 26 32 71 33 65 34
REMARK SMILES IDX 67 35 27 36 70 37 64 38 63 39 28 41 54 42 37 43 53 44 38 45
REMARK SMILES IDX 41 46 52 47 68 48 39 49 40 50 51 52 69 53 42 54 29 55 30 56
REMARK SMILES IDX 35 57 31 58 32 59 34 60 36 61 33 62 55 63 56 64 61 65 57 66
REMARK SMILES IDX 58 67 60 68 62 69 59 70 43 71 44 72 49 73 45 74 46 75 48 76
REMARK SMILES IDX 50 77 47 78
REMARK H PARENT 13 7 17 21 67 40 41 51
REMARK Flexibility Score: inf
ROOT
ATOM      1  C   UNL A   1      44.176  19.287  25.588  1.00  0.00     0.118 C 
ENDROOT
BRANCH   1   2
ATOM      2  C   UNL A   1      44.706  20.351  24.638  1.00  0.00     0.042 C 
BRANCH   2   3
ATOM      3  C   UNL A   1      45.428  21.487  25.347  1.00  0.00     0.118 C 
BRANCH   3   4
ATOM      4  N   UNL A   1      46.376  22.174  24.485  1.00  0.00    -0.353 N 
ATOM      5  C   UNL A   1      46.584  23.517  24.312  1.00  0.00     0.261 C 
ATOM      6  O   UNL A   1      47.440  23.869  23.501  1.00  0.00    -0.271 OA
ATOM      7  H   UNL A   1      46.956  21.587  23.948  1.00  0.00     0.163 HD
BRANCH   5   8
ATOM      8  C   UNL A   1      45.732  24.493  25.121  1.00  0.00     0.266 C 
ATOM      9  C   UNL A   1      43.971  29.670  27.449  1.00  0.00     0.044 C 
ATOM     10  C   UNL A   1      44.062  28.461  26.558  1.00  0.00    -0.048 A 
ATOM     11  C   UNL A   1      45.304  27.805  26.469  1.00  0.00     0.011 A 
ATOM     12  C   UNL A   1      42.933  27.935  25.872  1.00  0.00    -0.045 A 
ATOM     13  C   UNL A   1      45.387  26.646  25.725  1.00  0.00    -0.001 A 
ATOM     14  C   UNL A   1      43.065  26.770  25.092  1.00  0.00     0.050 A 
ATOM     15  C   UNL A   1      41.562  28.551  25.948  1.00  0.00     0.045 C 
ATOM     16  C   UNL A   1      44.285  26.137  25.062  1.00  0.00     0.124 A 
ATOM     17  C   UNL A   1      46.537  25.748  25.485  1.00  0.00     0.095 C 
ATOM     18  O   UNL A   1      44.537  24.938  24.442  1.00  0.00    -0.480 OA
ENDBRANCH   5   8
ENDBRANCH   3   4
ENDBRANCH   2   3
ENDBRANCH   1   2
BRANCH   1  19
ATOM     19  N   UNL A   1      42.751  19.026  25.407  1.00  0.00    -0.352 N 
ATOM     20  C   UNL A   1      41.639  19.687  25.873  1.00  0.00     0.251 C 
ATOM     21  H   UNL A   1      42.551  18.238  24.852  1.00  0.00     0.163 HD
ATOM     22  O   UNL A   1      40.538  19.147  25.792  1.00  0.00    -0.269 OA
BRANCH  20  23
ATOM     23  C   UNL A   1      41.760  21.017  26.504  1.00  0.00     0.039 A 
ATOM     24  C   UNL A   1      41.801  22.170  25.727  1.00  0.00     0.014 A 
ATOM     25  C   UNL A   1      41.817  21.118  27.898  1.00  0.00     0.014 A 
ATOM     26  C   UNL A   1      42.125  23.386  26.313  1.00  0.00     0.010 A 
ATOM     27  C   UNL A   1      42.017  22.366  28.499  1.00  0.00     0.010 A 
ATOM     28  C   UNL A   1      42.235  23.504  27.707  1.00  0.00    -0.014 A 
BRANCH  28  29
ATOM     29  C   UNL A   1      42.587  24.825  28.294  1.00  0.00     0.031 A 
ATOM     30  C   UNL A   1      41.523  25.859  28.556  1.00  0.00     0.074 A 
ATOM     31  C   UNL A   1      43.859  25.055  28.679  1.00  0.00     0.049 A 
ATOM     32  N   UNL A   1      41.647  27.053  29.079  1.00  0.00    -0.248 NA
ATOM     33  C   UNL A   1      40.141  25.515  28.183  1.00  0.00     0.031 C 
ATOM     34  C   UNL A   1      44.975  24.124  28.500  1.00  0.00     0.029 A 
ATOM     35  N   UNL A   1      44.421  26.120  29.335  1.00  0.00    -0.354 N 
ATOM     36  C   UNL A   1      40.373  27.607  29.076  1.00  0.00     0.074 A 
ATOM     37  C   UNL A   1      39.490  26.632  28.476  1.00  0.00     0.031 C 
ATOM     38  C   UNL A   1      46.065  24.620  29.103  1.00  0.00     0.029 A 
ATOM     39  C   UNL A   1      45.750  25.940  29.637  1.00  0.00     0.049 A 
ATOM     40  H   UNL A   1      43.921  26.936  29.568  1.00  0.00     0.167 HD
ATOM     41  C   UNL A   1      39.974  28.813  29.547  1.00  0.00     0.037 A 
ATOM     42  C   UNL A   1      46.626  26.750  30.260  1.00  0.00     0.037 A 
ATOM     43  C   UNL A   1      40.847  29.766  30.178  1.00  0.00     0.049 A 
ATOM     44  C   UNL A   1      46.163  28.099  30.726  1.00  0.00     0.074 A 
ATOM     45  C   UNL A   1      40.532  31.014  30.690  1.00  0.00     0.029 A 
ATOM     46  N   UNL A   1      42.202  29.573  30.398  1.00  0.00    -0.354 N 
ATOM     47  N   UNL A   1      44.959  28.616  30.691  1.00  0.00    -0.248 NA
ATOM     48  C   UNL A   1      47.184  28.986  31.301  1.00  0.00     0.031 C 
ATOM     49  C   UNL A   1      41.704  31.590  31.188  1.00  0.00     0.029 A 
ATOM     50  C   UNL A   1      42.740  30.685  31.024  1.00  0.00     0.049 A 
ATOM     51  H   UNL A   1      42.707  28.766  30.146  1.00  0.00     0.167 HD
ATOM     52  C   UNL A   1      45.076  29.883  31.244  1.00  0.00     0.074 A 
ATOM     53  C   UNL A   1      46.461  30.049  31.629  1.00  0.00     0.031 C 
ATOM     54  C   UNL A   1      44.120  30.829  31.407  1.00  0.00     0.037 A 
BRANCH  41  55
ATOM     55  C   UNL A   1      38.527  29.182  29.403  1.00  0.00     0.057 A 
ATOM     56  C   UNL A   1      37.648  29.152  30.493  1.00  0.00     0.134 A 
ATOM     57  C   UNL A   1      38.029  29.658  28.183  1.00  0.00     0.134 A 
ATOM     58  F   UNL A   1      38.058  28.695  31.685  1.00  0.00    -0.206 F 
ATOM     59  C   UNL A   1      36.324  29.583  30.373  1.00  0.00     0.040 A 
ATOM     60  C   UNL A   1      36.714  30.109  28.056  1.00  0.00     0.040 A 
ATOM     61  F   UNL A   1      38.821  29.716  27.101  1.00  0.00    -0.206 F 
ATOM     62  C   UNL A   1      35.857  30.073  29.155  1.00  0.00     0.006 A 
ENDBRANCH  41  55
BRANCH  42  63
ATOM     63  C   UNL A   1      48.029  26.312  30.461  1.00  0.00     0.057 A 
ATOM     64  C   UNL A   1      48.989  26.477  29.457  1.00  0.00     0.134 A 
ATOM     65  C   UNL A   1      48.447  25.723  31.661  1.00  0.00     0.134 A 
ATOM     66  F   UNL A   1      48.646  27.015  28.277  1.00  0.00    -0.206 F 
ATOM     67  C   UNL A   1      50.312  26.068  29.636  1.00  0.00     0.040 A 
ATOM     68  C   UNL A   1      49.772  25.335  31.865  1.00  0.00     0.040 A 
ATOM     69  F   UNL A   1      47.576  25.540  32.664  1.00  0.00    -0.206 F 
ATOM     70  C   UNL A   1      50.707  25.502  30.846  1.00  0.00     0.006 A 
ENDBRANCH  42  63
BRANCH  54  71
ATOM     71  C   UNL A   1      44.534  32.121  32.042  1.00  0.00     0.057 A 
ATOM     72  C   UNL A   1      44.955  33.213  31.273  1.00  0.00     0.134 A 
ATOM     73  C   UNL A   1      44.453  32.295  33.429  1.00  0.00     0.134 A 
ATOM     74  F   UNL A   1      45.064  33.105  29.940  1.00  0.00    -0.206 F 
ATOM     75  C   UNL A   1      45.293  34.430  31.864  1.00  0.00     0.040 A 
ATOM     76  C   UNL A   1      44.767  33.514  34.030  1.00  0.00     0.040 A 
ATOM     77  F   UNL A   1      44.049  31.288  34.219  1.00  0.00    -0.206 F 
ATOM     78  C   UNL A   1      45.192  34.586  33.246  1.00  0.00     0.006 A 
ENDBRANCH  54  71
ENDBRANCH  28  29
ENDBRANCH  20  23
ENDBRANCH   1  19
TORSDOF 10
ENDMDL
MODEL 3
REMARK VINA RESULT:      -8.9      3.334      5.489
REMARK SMILES Cc1cc2c(cc1C)O[C@@H](C(=O)NCCCNC(=O)c1ccc(-c3c4nc(c(-c5c(F)cccc5F)c5ccc([nH]5)c(-c5c(F)cccc5F)c5nc(c(-c6c(F)cccc6F)c6ccc3[nH]6)C=C5)C=C4)cc1)C2
REMARK SMILES IDX 16 1 15 2 14 3 13 4 11 5 12 6 10 8 1 9 2 10 3 11 7 12 4 13
REMARK SMILES IDX 6 14 8 15 5 16 74 17 9 18 17 19 18 20 19 22 20 23 21 24
REMARK SMILES IDX 73 25 22 26 72 27 23 28 24 29 25 30 66 31 26 32 71 33 65 34
REMARK SMILES IDX 67 35 27 36 70 37 64 38 63 39 28 41 54 42 37 43 53 44 38 45
REMARK SMILES IDX 41 46 52 47 68 48 39 49 40 50 51 52 69 53 42 54 29 55 30 56
REMARK SMILES IDX 35 57 31 58 32 59 34 60 36 61 33 62 55 63 56 64 61 65 57 66
REMARK SMILES IDX 58 67 60 68 62 69 59 70 43 71 44 72 49 73 45 74 46 75 48 76
REMARK SMILES IDX 50 77 47 78
REMARK H PARENT 13 7 17 21 67 40 41 51
REMARK Flexibility Score: inf
ROOT
ATOM      1  C   UNL A   1      38.900  20.204  25.959  1.00  0.00     0.118 C 
ENDROOT
BRANCH   1   2
ATOM      2  C   UNL A   1      37.932  20.054  24.794  1.00  0.00     0.042 C 
BRANCH   2   3
ATOM      3  C   UNL A   1      37.313  21.372  24.351  1.00  0.00     0.118 C 
BRANCH   3   4
ATOM      4  N   UNL A   1      37.781  22.503  25.136  1.00  0.00    -0.353 N 
ATOM      5  C   UNL A   1      37.066  23.519  25.715  1.00  0.00     0.261 C 
ATOM      6  O   UNL A   1      37.688  24.390  26.321  1.00  0.00    -0.271 OA
ATOM      7  H   UNL A   1      38.755  22.546  25.272  1.00  0.00     0.163 HD
BRANCH   5   8
ATOM      8  C   UNL A   1      35.547  23.516  25.559  1.00  0.00     0.266 C 
ATOM      9  C   UNL A   1      29.834  23.019  27.123  1.00  0.00     0.044 C 
ATOM     10  C   UNL A   1      31.172  23.607  26.766  1.00  0.00    -0.048 A 
ATOM     11  C   UNL A   1      32.316  22.818  26.988  1.00  0.00     0.011 A 
ATOM     12  C   UNL A   1      31.302  24.886  26.158  1.00  0.00    -0.045 A 
ATOM     13  C   UNL A   1      33.543  23.305  26.589  1.00  0.00    -0.001 A 
ATOM     14  C   UNL A   1      32.577  25.365  25.797  1.00  0.00     0.050 A 
ATOM     15  C   UNL A   1      30.128  25.774  25.847  1.00  0.00     0.045 C 
ATOM     16  C   UNL A   1      33.664  24.548  25.996  1.00  0.00     0.124 A 
ATOM     17  C   UNL A   1      34.885  22.689  26.670  1.00  0.00     0.095 C 
ATOM     18  O   UNL A   1      34.946  24.830  25.593  1.00  0.00    -0.480 OA
ENDBRANCH   5   8
ENDBRANCH   3   4
ENDBRANCH   2   3
ENDBRANCH   1   2
BRANCH   1  19
ATOM     19  N   UNL A   1      39.993  19.238  25.913  1.00  0.00    -0.352 N 
ATOM     20  C   UNL A   1      41.353  19.397  26.043  1.00  0.00     0.251 C 
ATOM     21  H   UNL A   1      39.706  18.309  25.764  1.00  0.00     0.163 HD
ATOM     22  O   UNL A   1      42.100  18.473  25.729  1.00  0.00    -0.269 OA
BRANCH  20  23
ATOM     23  C   UNL A   1      41.923  20.675  26.515  1.00  0.00     0.039 A 
ATOM     24  C   UNL A   1      42.056  20.933  27.876  1.00  0.00     0.014 A 
ATOM     25  C   UNL A   1      42.349  21.628  25.584  1.00  0.00     0.014 A 
ATOM     26  C   UNL A   1      42.392  22.209  28.306  1.00  0.00     0.010 A 
ATOM     27  C   UNL A   1      42.810  22.874  26.024  1.00  0.00     0.010 A 
ATOM     28  C   UNL A   1      42.778  23.197  27.389  1.00  0.00    -0.014 A 
BRANCH  28  29
ATOM     29  C   UNL A   1      43.128  24.553  27.892  1.00  0.00     0.031 A 
ATOM     30  C   UNL A   1      44.562  25.014  27.928  1.00  0.00     0.074 A 
ATOM     31  C   UNL A   1      42.138  25.405  28.230  1.00  0.00     0.049 A 
ATOM     32  N   UNL A   1      45.046  26.167  28.317  1.00  0.00    -0.248 NA
ATOM     33  C   UNL A   1      45.588  24.062  27.475  1.00  0.00     0.031 C 
ATOM     34  C   UNL A   1      40.709  25.084  28.215  1.00  0.00     0.029 A 
ATOM     35  N   UNL A   1      42.176  26.722  28.609  1.00  0.00    -0.354 N 
ATOM     36  C   UNL A   1      46.425  26.071  28.176  1.00  0.00     0.074 A 
ATOM     37  C   UNL A   1      46.708  24.738  27.692  1.00  0.00     0.031 C 
ATOM     38  C   UNL A   1      40.005  26.192  28.488  1.00  0.00     0.029 A 
ATOM     39  C   UNL A   1      40.931  27.280  28.782  1.00  0.00     0.049 A 
ATOM     40  H   UNL A   1      43.014  27.221  28.746  1.00  0.00     0.167 HD
ATOM     41  C   UNL A   1      47.367  27.013  28.415  1.00  0.00     0.037 A 
ATOM     42  C   UNL A   1      40.571  28.524  29.149  1.00  0.00     0.037 A 
ATOM     43  C   UNL A   1      47.081  28.351  28.861  1.00  0.00     0.049 A 
ATOM     44  C   UNL A   1      41.640  29.531  29.452  1.00  0.00     0.074 A 
ATOM     45  C   UNL A   1      47.971  29.379  29.126  1.00  0.00     0.029 A 
ATOM     46  N   UNL A   1      45.810  28.852  29.093  1.00  0.00    -0.354 N 
ATOM     47  N   UNL A   1      42.941  29.413  29.338  1.00  0.00    -0.248 NA
ATOM     48  C   UNL A   1      41.195  30.838  29.954  1.00  0.00     0.031 C 
ATOM     49  C   UNL A   1      47.240  30.490  29.553  1.00  0.00     0.029 A 
ATOM     50  C   UNL A   1      45.893  30.169  29.513  1.00  0.00     0.049 A 
ATOM     51  H   UNL A   1      44.972  28.347  28.977  1.00  0.00     0.167 HD
ATOM     52  C   UNL A   1      43.468  30.630  29.747  1.00  0.00     0.074 A 
ATOM     53  C   UNL A   1      42.347  31.481  30.087  1.00  0.00     0.031 C 
ATOM     54  C   UNL A   1      44.766  31.003  29.841  1.00  0.00     0.037 A 
BRANCH  41  55
ATOM     55  C   UNL A   1      48.805  26.643  28.199  1.00  0.00     0.057 A 
ATOM     56  C   UNL A   1      49.574  26.059  29.213  1.00  0.00     0.134 A 
ATOM     57  C   UNL A   1      49.399  26.790  26.939  1.00  0.00     0.134 A 
ATOM     58  F   UNL A   1      49.070  25.903  30.446  1.00  0.00    -0.206 F 
ATOM     59  C   UNL A   1      50.885  25.634  28.980  1.00  0.00     0.040 A 
ATOM     60  C   UNL A   1      50.700  26.351  26.689  1.00  0.00     0.040 A 
ATOM     61  F   UNL A   1      48.714  27.338  25.923  1.00  0.00    -0.206 F 
ATOM     62  C   UNL A   1      51.447  25.770  27.713  1.00  0.00     0.006 A 
ENDBRANCH  41  55
BRANCH  42  63
ATOM     63  C   UNL A   1      39.134  28.876  29.266  1.00  0.00     0.057 A 
ATOM     64  C   UNL A   1      38.440  28.690  30.467  1.00  0.00     0.134 A 
ATOM     65  C   UNL A   1      38.422  29.411  28.185  1.00  0.00     0.134 A 
ATOM     66  F   UNL A   1      39.061  28.162  31.531  1.00  0.00    -0.206 F 
ATOM     67  C   UNL A   1      37.088  29.018  30.587  1.00  0.00     0.040 A 
ATOM     68  C   UNL A   1      37.078  29.770  28.300  1.00  0.00     0.040 A 
ATOM     69  F   UNL A   1      39.031  29.617  27.008  1.00  0.00    -0.206 F 
ATOM     70  C   UNL A   1      36.406  29.566  29.502  1.00  0.00     0.006 A 
ENDBRANCH  42  63
BRANCH  54  71
ATOM     71  C   UNL A   1      45.047  32.396  30.316  1.00  0.00     0.057 A 
ATOM     72  C   UNL A   1      45.311  32.670  31.664  1.00  0.00     0.134 A 
ATOM     73  C   UNL A   1      45.115  33.461  29.410  1.00  0.00     0.134 A 
ATOM     74  F   UNL A   1      45.250  31.693  32.581  1.00  0.00    -0.206 F 
ATOM     75  C   UNL A   1      45.620  33.960  32.095  1.00  0.00     0.040 A 
ATOM     76  C   UNL A   1      45.445  34.751  29.826  1.00  0.00     0.040 A 
ATOM     77  F   UNL A   1      44.881  33.260  28.104  1.00  0.00    -0.206 F 
ATOM     78  C   UNL A   1      45.696  35.004  31.174  1.00  0.00     0.006 A 
ENDBRANCH  54  71
ENDBRANCH  28  29
ENDBRANCH  20  23
ENDBRANCH   1  19
TORSDOF 10
ENDMDL
