MODEL 1
REMARK VINA RESULT:     -12.2      0.000      0.000
REMARK SMILES O=C(NCCCNC(=O)[C@@H]1CCC[N@@H+](Cc2cccc3ccccc23)C1)c1ccc(-c2c3nc(c(-c4c(F)cccc4F)c4ccc([nH]4)c(-c4c(F)cccc4F)c4nc(c(-c5c(F)cccc5F)c5ccc2[nH]5)C=C4)C=C3)cc1
REMARK SMILES IDX 5 1 4 2 3 3 1 4 2 5 27 7 28 8 80 9 29 10 79 11 30 12 31 13
REMARK SMILES IDX 32 14 73 15 33 16 78 17 72 18 74 19 34 20 77 21 71 22 70 23
REMARK SMILES IDX 35 25 61 26 44 27 60 28 45 29 48 30 59 31 75 32 46 33 47 34
REMARK SMILES IDX 58 36 76 37 49 38 36 39 37 40 42 41 38 42 39 43 41 44 43 45
REMARK SMILES IDX 40 46 62 47 63 48 68 49 64 50 65 51 67 52 69 53 66 54 50 55
REMARK SMILES IDX 51 56 56 57 52 58 53 59 55 60 57 61 54 62 6 63 7 64 8 65
REMARK SMILES IDX 9 67 10 68 11 69 26 70 12 71 14 72 13 73 15 75 16 76 17 77
REMARK SMILES IDX 25 78 18 79 20 80 24 81 19 82 21 83 23 84 22 85
REMARK H PARENT 3 6 74 24 48 35 7 66 14 74
REMARK Flexibility Score: inf
ROOT
ATOM      1  C   UNL A   1      37.732  19.820  24.653  1.00  0.00     0.042 C 
ENDROOT
BRANCH   1   2
ATOM      2  C   UNL A   1      38.749  20.179  25.722  1.00  0.00     0.118 C 
BRANCH   2   3
ATOM      3  N   UNL A   1      39.889  19.273  25.745  1.00  0.00    -0.352 N 
ATOM      4  O   UNL A   1      42.062  18.679  25.838  1.00  0.00    -0.269 OA
ATOM      5  C   UNL A   1      41.205  19.536  26.034  1.00  0.00     0.251 C 
ATOM      6  H   UNL A   1      39.687  18.337  25.520  1.00  0.00     0.163 HD
BRANCH   5   7
ATOM      7  C   UNL A   1      41.590  20.860  26.565  1.00  0.00     0.039 A 
ATOM      8  C   UNL A   1      41.933  21.898  25.698  1.00  0.00     0.014 A 
ATOM      9  C   UNL A   1      41.589  21.071  27.947  1.00  0.00     0.014 A 
ATOM     10  C   UNL A   1      42.416  23.094  26.208  1.00  0.00     0.010 A 
ATOM     11  C   UNL A   1      41.973  22.312  28.458  1.00  0.00     0.010 A 
ATOM     12  C   UNL A   1      42.405  23.328  27.593  1.00  0.00    -0.014 A 
BRANCH  12  13
ATOM     13  C   UNL A   1      42.728  24.688  28.089  1.00  0.00     0.031 A 
ATOM     14  C   UNL A   1      41.660  25.717  28.318  1.00  0.00     0.074 A 
ATOM     15  C   UNL A   1      44.020  24.972  28.348  1.00  0.00     0.049 A 
ATOM     16  N   UNL A   1      41.787  26.945  28.752  1.00  0.00    -0.248 NA
ATOM     17  C   UNL A   1      40.273  25.328  28.018  1.00  0.00     0.031 C 
ATOM     18  C   UNL A   1      45.142  24.050  28.142  1.00  0.00     0.029 A 
ATOM     19  N   UNL A   1      44.610  26.102  28.848  1.00  0.00    -0.354 N 
ATOM     20  C   UNL A   1      40.507  27.482  28.759  1.00  0.00     0.074 A 
ATOM     21  C   UNL A   1      39.616  26.452  28.271  1.00  0.00     0.031 C 
ATOM     22  C   UNL A   1      46.276  24.636  28.549  1.00  0.00     0.029 A 
ATOM     23  C   UNL A   1      45.974  25.996  28.975  1.00  0.00     0.049 A 
ATOM     24  H   UNL A   1      44.107  26.911  29.093  1.00  0.00     0.167 HD
ATOM     25  C   UNL A   1      40.120  28.721  29.142  1.00  0.00     0.037 A 
ATOM     26  C   UNL A   1      46.888  26.902  29.364  1.00  0.00     0.037 A 
ATOM     27  C   UNL A   1      41.016  29.733  29.645  1.00  0.00     0.049 A 
ATOM     28  C   UNL A   1      46.425  28.274  29.756  1.00  0.00     0.074 A 
ATOM     29  C   UNL A   1      40.708  30.997  30.118  1.00  0.00     0.029 A 
ATOM     30  N   UNL A   1      42.393  29.598  29.734  1.00  0.00    -0.354 N 
ATOM     31  N   UNL A   1      45.204  28.746  29.811  1.00  0.00    -0.248 NA
ATOM     32  C   UNL A   1      47.465  29.239  30.130  1.00  0.00     0.031 C 
ATOM     33  C   UNL A   1      41.903  31.648  30.441  1.00  0.00     0.029 A 
ATOM     34  C   UNL A   1      42.952  30.771  30.218  1.00  0.00     0.049 A 
ATOM     35  H   UNL A   1      42.900  28.790  29.489  1.00  0.00     0.167 HD
ATOM     36  C   UNL A   1      45.329  30.060  30.238  1.00  0.00     0.074 A 
ATOM     37  C   UNL A   1      46.740  30.298  30.455  1.00  0.00     0.031 C 
ATOM     38  C   UNL A   1      44.361  30.990  30.424  1.00  0.00     0.037 A 
BRANCH  25  39
ATOM     39  C   UNL A   1      38.667  29.079  29.026  1.00  0.00     0.057 A 
ATOM     40  C   UNL A   1      37.799  29.022  30.124  1.00  0.00     0.134 A 
ATOM     41  C   UNL A   1      38.154  29.581  27.823  1.00  0.00     0.134 A 
ATOM     42  F   UNL A   1      38.225  28.544  31.303  1.00  0.00    -0.206 F 
ATOM     43  C   UNL A   1      36.473  29.449  30.027  1.00  0.00     0.040 A 
ATOM     44  C   UNL A   1      36.836  30.030  27.719  1.00  0.00     0.040 A 
ATOM     45  F   UNL A   1      38.934  29.668  26.734  1.00  0.00    -0.206 F 
ATOM     46  C   UNL A   1      35.992  29.966  28.825  1.00  0.00     0.006 A 
ENDBRANCH  25  39
BRANCH  26  47
ATOM     47  C   UNL A   1      48.331  26.552  29.361  1.00  0.00     0.057 A 
ATOM     48  C   UNL A   1      48.933  25.938  30.466  1.00  0.00     0.134 A 
ATOM     49  C   UNL A   1      49.145  26.836  28.258  1.00  0.00     0.134 A 
ATOM     50  F   UNL A   1      48.208  25.655  31.558  1.00  0.00    -0.206 F 
ATOM     51  C   UNL A   1      50.296  25.644  30.484  1.00  0.00     0.040 A 
ATOM     52  C   UNL A   1      50.503  26.519  28.249  1.00  0.00     0.040 A 
ATOM     53  F   UNL A   1      48.627  27.416  27.164  1.00  0.00    -0.206 F 
ATOM     54  C   UNL A   1      51.085  25.931  29.370  1.00  0.00     0.006 A 
ENDBRANCH  26  47
BRANCH  38  55
ATOM     55  C   UNL A   1      44.804  32.341  30.900  1.00  0.00     0.057 A 
ATOM     56  C   UNL A   1      45.099  33.376  30.003  1.00  0.00     0.134 A 
ATOM     57  C   UNL A   1      44.922  32.614  32.268  1.00  0.00     0.134 A 
ATOM     58  F   UNL A   1      45.021  33.170  28.680  1.00  0.00    -0.206 F 
ATOM     59  C   UNL A   1      45.520  34.628  30.451  1.00  0.00     0.040 A 
ATOM     60  C   UNL A   1      45.317  33.870  32.728  1.00  0.00     0.040 A 
ATOM     61  F   UNL A   1      44.649  31.667  33.179  1.00  0.00    -0.206 F 
ATOM     62  C   UNL A   1      45.623  34.879  31.817  1.00  0.00     0.006 A 
ENDBRANCH  38  55
ENDBRANCH  12  13
ENDBRANCH   5   7
ENDBRANCH   2   3
ENDBRANCH   1   2
BRANCH   1  63
ATOM     63  C   UNL A   1      36.303  20.176  25.025  1.00  0.00     0.117 C 
BRANCH  63  64
ATOM     64  N   UNL A   1      36.234  21.383  25.827  1.00  0.00    -0.356 N 
ATOM     65  C   UNL A   1      35.321  22.397  25.822  1.00  0.00     0.228 C 
ATOM     66  H   UNL A   1      36.962  21.487  26.480  1.00  0.00     0.163 HD
ATOM     67  O   UNL A   1      35.606  23.411  26.459  1.00  0.00    -0.275 OA
BRANCH  65  68
ATOM     68  C   UNL A   1      34.046  22.261  24.995  1.00  0.00     0.133 C 
ATOM     69  C   UNL A   1      34.269  22.587  23.511  1.00  0.00     0.025 C 
ATOM     70  C   UNL A   1      32.906  23.133  25.534  1.00  0.00     0.276 C 
ATOM     71  C   UNL A   1      34.385  24.094  23.260  1.00  0.00     0.062 C 
ATOM     72  N   UNL A   1      33.126  24.562  25.329  1.00  0.00    -0.331 N 
ATOM     73  C   UNL A   1      33.247  24.891  23.909  1.00  0.00     0.262 C 
ATOM     74  H   UNL A   1      34.030  24.787  25.745  1.00  0.00     0.348 HD
BRANCH  72  75
ATOM     75  C   UNL A   1      32.182  25.415  26.076  1.00  0.00     0.299 C 
BRANCH  75  76
ATOM     76  C   UNL A   1      32.240  26.913  25.811  1.00  0.00     0.014 A 
ATOM     77  C   UNL A   1      33.291  27.648  26.398  1.00  0.00     0.010 A 
ATOM     78  C   UNL A   1      31.298  27.596  24.985  1.00  0.00    -0.010 A 
ATOM     79  C   UNL A   1      33.366  29.030  26.281  1.00  0.00     0.001 A 
ATOM     80  C   UNL A   1      31.408  29.006  24.852  1.00  0.00    -0.018 A 
ATOM     81  C   UNL A   1      30.260  26.962  24.259  1.00  0.00     0.009 A 
ATOM     82  C   UNL A   1      32.420  29.704  25.523  1.00  0.00     0.009 A 
ATOM     83  C   UNL A   1      30.514  29.714  24.033  1.00  0.00     0.009 A 
ATOM     84  C   UNL A   1      29.394  27.678  23.427  1.00  0.00     0.001 A 
ATOM     85  C   UNL A   1      29.520  29.055  23.316  1.00  0.00     0.001 A 
ENDBRANCH  75  76
ENDBRANCH  72  75
ENDBRANCH  65  68
ENDBRANCH  63  64
ENDBRANCH   1  63
TORSDOF 12
ENDMDL
MODEL 2
REMARK VINA RESULT:     -12.1      0.296      6.212
REMARK SMILES O=C(NCCCNC(=O)[C@@H]1CCC[N@@H+](Cc2cccc3ccccc23)C1)c1ccc(-c2c3nc(c(-c4c(F)cccc4F)c4ccc([nH]4)c(-c4c(F)cccc4F)c4nc(c(-c5c(F)cccc5F)c5ccc2[nH]5)C=C4)C=C3)cc1
REMARK SMILES IDX 5 1 4 2 3 3 1 4 2 5 27 7 28 8 80 9 29 10 79 11 30 12 31 13
REMARK SMILES IDX 32 14 73 15 33 16 78 17 72 18 74 19 34 20 77 21 71 22 70 23
REMARK SMILES IDX 35 25 61 26 44 27 60 28 45 29 48 30 59 31 75 32 46 33 47 34
REMARK SMILES IDX 58 36 76 37 49 38 36 39 37 40 42 41 38 42 39 43 41 44 43 45
REMARK SMILES IDX 40 46 62 47 63 48 68 49 64 50 65 51 67 52 69 53 66 54 50 55
REMARK SMILES IDX 51 56 56 57 52 58 53 59 55 60 57 61 54 62 6 63 7 64 8 65
REMARK SMILES IDX 9 67 10 68 11 69 26 70 12 71 14 72 13 73 15 75 16 76 17 77
REMARK SMILES IDX 25 78 18 79 20 80 24 81 19 82 21 83 23 84 22 85
REMARK H PARENT 3 6 74 24 48 35 7 66 14 74
REMARK Flexibility Score: inf
ROOT
ATOM      1  C   UNL A   1      37.761  19.896  24.709  1.00  0.00     0.042 C 
ENDROOT
BRANCH   1   2
ATOM      2  C   UNL A   1      38.790  20.273  25.761  1.00  0.00     0.118 C 
BRANCH   2   3
ATOM      3  N   UNL A   1      39.926  19.363  25.792  1.00  0.00    -0.352 N 
ATOM      4  O   UNL A   1      42.096  18.760  25.904  1.00  0.00    -0.269 OA
ATOM      5  C   UNL A   1      41.241  19.620  26.094  1.00  0.00     0.251 C 
ATOM      6  H   UNL A   1      39.722  18.428  25.565  1.00  0.00     0.163 HD
BRANCH   5   7
ATOM      7  C   UNL A   1      41.626  20.942  26.631  1.00  0.00     0.039 A 
ATOM      8  C   UNL A   1      42.069  21.952  25.775  1.00  0.00     0.014 A 
ATOM      9  C   UNL A   1      41.524  21.180  28.005  1.00  0.00     0.014 A 
ATOM     10  C   UNL A   1      42.549  23.142  26.301  1.00  0.00     0.010 A 
ATOM     11  C   UNL A   1      41.907  22.419  28.523  1.00  0.00     0.010 A 
ATOM     12  C   UNL A   1      42.439  23.403  27.676  1.00  0.00    -0.014 A 
BRANCH  12  13
ATOM     13  C   UNL A   1      42.766  24.762  28.173  1.00  0.00     0.031 A 
ATOM     14  C   UNL A   1      44.173  25.156  28.518  1.00  0.00     0.074 A 
ATOM     15  C   UNL A   1      41.758  25.648  28.292  1.00  0.00     0.049 A 
ATOM     16  N   UNL A   1      44.614  26.305  28.960  1.00  0.00    -0.248 NA
ATOM     17  C   UNL A   1      45.219  24.134  28.355  1.00  0.00     0.031 C 
ATOM     18  C   UNL A   1      40.349  25.363  28.002  1.00  0.00     0.029 A 
ATOM     19  N   UNL A   1      41.756  26.963  28.673  1.00  0.00    -0.354 N 
ATOM     20  C   UNL A   1      45.981  26.143  29.147  1.00  0.00     0.074 A 
ATOM     21  C   UNL A   1      46.296  24.778  28.786  1.00  0.00     0.031 C 
ATOM     22  C   UNL A   1      39.627  26.478  28.177  1.00  0.00     0.029 A 
ATOM     23  C   UNL A   1      40.506  27.534  28.659  1.00  0.00     0.049 A 
ATOM     24  H   UNL A   1      42.570  27.452  28.931  1.00  0.00     0.167 HD
ATOM     25  C   UNL A   1      46.882  27.056  29.579  1.00  0.00     0.037 A 
ATOM     26  C   UNL A   1      40.104  28.765  29.023  1.00  0.00     0.037 A 
ATOM     27  C   UNL A   1      46.558  28.420  29.917  1.00  0.00     0.049 A 
ATOM     28  C   UNL A   1      41.127  29.741  29.522  1.00  0.00     0.074 A 
ATOM     29  C   UNL A   1      47.415  29.437  30.304  1.00  0.00     0.029 A 
ATOM     30  N   UNL A   1      45.279  28.954  29.917  1.00  0.00    -0.354 N 
ATOM     31  N   UNL A   1      42.424  29.589  29.638  1.00  0.00    -0.248 NA
ATOM     32  C   UNL A   1      40.632  31.055  29.947  1.00  0.00     0.031 C 
ATOM     33  C   UNL A   1      46.647  30.571  30.591  1.00  0.00     0.029 A 
ATOM     34  C   UNL A   1      45.319  30.276  30.333  1.00  0.00     0.049 A 
ATOM     35  H   UNL A   1      44.463  28.467  29.660  1.00  0.00     0.167 HD
ATOM     36  C   UNL A   1      42.900  30.792  30.139  1.00  0.00     0.074 A 
ATOM     37  C   UNL A   1      41.758  31.671  30.275  1.00  0.00     0.031 C 
ATOM     38  C   UNL A   1      44.170  31.134  30.466  1.00  0.00     0.037 A 
BRANCH  25  39
ATOM     39  C   UNL A   1      48.312  26.625  29.730  1.00  0.00     0.057 A 
ATOM     40  C   UNL A   1      48.779  26.005  30.896  1.00  0.00     0.134 A 
ATOM     41  C   UNL A   1      49.206  26.744  28.659  1.00  0.00     0.134 A 
ATOM     42  F   UNL A   1      47.976  25.866  31.961  1.00  0.00    -0.206 F 
ATOM     43  C   UNL A   1      50.086  25.520  30.990  1.00  0.00     0.040 A 
ATOM     44  C   UNL A   1      50.508  26.245  28.733  1.00  0.00     0.040 A 
ATOM     45  F   UNL A   1      48.820  27.322  27.511  1.00  0.00    -0.206 F 
ATOM     46  C   UNL A   1      50.950  25.629  29.901  1.00  0.00     0.006 A 
ENDBRANCH  25  39
BRANCH  26  47
ATOM     47  C   UNL A   1      38.665  29.124  28.967  1.00  0.00     0.057 A 
ATOM     48  C   UNL A   1      38.075  29.581  27.783  1.00  0.00     0.134 A 
ATOM     49  C   UNL A   1      37.849  29.032  30.101  1.00  0.00     0.134 A 
ATOM     50  F   UNL A   1      38.809  29.704  26.668  1.00  0.00    -0.206 F 
ATOM     51  C   UNL A   1      36.733  29.958  27.735  1.00  0.00     0.040 A 
ATOM     52  C   UNL A   1      36.498  29.376  30.060  1.00  0.00     0.040 A 
ATOM     53  F   UNL A   1      38.352  28.593  31.265  1.00  0.00    -0.206 F 
ATOM     54  C   UNL A   1      35.939  29.852  28.876  1.00  0.00     0.006 A 
ENDBRANCH  26  47
BRANCH  38  55
ATOM     55  C   UNL A   1      44.382  32.524  30.987  1.00  0.00     0.057 A 
ATOM     56  C   UNL A   1      44.598  33.607  30.125  1.00  0.00     0.134 A 
ATOM     57  C   UNL A   1      44.355  32.784  32.362  1.00  0.00     0.134 A 
ATOM     58  F   UNL A   1      44.652  33.419  28.798  1.00  0.00    -0.206 F 
ATOM     59  C   UNL A   1      44.805  34.896  30.615  1.00  0.00     0.040 A 
ATOM     60  C   UNL A   1      44.533  34.074  32.863  1.00  0.00     0.040 A 
ATOM     61  F   UNL A   1      44.146  31.790  33.240  1.00  0.00    -0.206 F 
ATOM     62  C   UNL A   1      44.765  35.133  31.988  1.00  0.00     0.006 A 
ENDBRANCH  38  55
ENDBRANCH  12  13
ENDBRANCH   5   7
ENDBRANCH   2   3
ENDBRANCH   1   2
BRANCH   1  63
ATOM     63  C   UNL A   1      36.337  20.265  25.088  1.00  0.00     0.117 C 
BRANCH  63  64
ATOM     64  N   UNL A   1      36.281  21.482  25.874  1.00  0.00    -0.356 N 
ATOM     65  C   UNL A   1      35.372  22.499  25.866  1.00  0.00     0.228 C 
ATOM     66  H   UNL A   1      37.017  21.592  26.519  1.00  0.00     0.163 HD
ATOM     67  O   UNL A   1      35.667  23.521  26.487  1.00  0.00    -0.275 OA
BRANCH  65  68
ATOM     68  C   UNL A   1      34.088  22.357  25.054  1.00  0.00     0.133 C 
ATOM     69  C   UNL A   1      34.293  22.680  23.567  1.00  0.00     0.025 C 
ATOM     70  C   UNL A   1      32.952  23.229  25.603  1.00  0.00     0.276 C 
ATOM     71  C   UNL A   1      34.402  24.186  23.310  1.00  0.00     0.062 C 
ATOM     72  N   UNL A   1      33.166  24.658  25.392  1.00  0.00    -0.331 N 
ATOM     73  C   UNL A   1      33.270  24.982  23.969  1.00  0.00     0.262 C 
ATOM     74  H   UNL A   1      34.074  24.886  25.797  1.00  0.00     0.348 HD
BRANCH  72  75
ATOM     75  C   UNL A   1      32.229  25.511  26.147  1.00  0.00     0.299 C 
BRANCH  75  76
ATOM     76  C   UNL A   1      32.245  27.002  25.840  1.00  0.00     0.014 A 
ATOM     77  C   UNL A   1      33.269  27.784  26.413  1.00  0.00     0.010 A 
ATOM     78  C   UNL A   1      31.289  27.632  24.988  1.00  0.00    -0.010 A 
ATOM     79  C   UNL A   1      33.305  29.163  26.257  1.00  0.00     0.001 A 
ATOM     80  C   UNL A   1      31.359  29.041  24.816  1.00  0.00    -0.018 A 
ATOM     81  C   UNL A   1      30.275  26.948  24.273  1.00  0.00     0.009 A 
ATOM     82  C   UNL A   1      32.344  29.787  25.474  1.00  0.00     0.009 A 
ATOM     83  C   UNL A   1      30.450  29.699  23.972  1.00  0.00     0.009 A 
ATOM     84  C   UNL A   1      29.395  27.615  23.416  1.00  0.00     0.001 A 
ATOM     85  C   UNL A   1      29.481  28.991  23.267  1.00  0.00     0.001 A 
ENDBRANCH  75  76
ENDBRANCH  72  75
ENDBRANCH  65  68
ENDBRANCH  63  64
ENDBRANCH   1  63
TORSDOF 12
ENDMDL
MODEL 3
REMARK VINA RESULT:     -12.0      4.375      9.463
REMARK SMILES O=C(NCCCNC(=O)[C@@H]1CCC[N@@H+](Cc2cccc3ccccc23)C1)c1ccc(-c2c3nc(c(-c4c(F)cccc4F)c4ccc([nH]4)c(-c4c(F)cccc4F)c4nc(c(-c5c(F)cccc5F)c5ccc2[nH]5)C=C4)C=C3)cc1
REMARK SMILES IDX 5 1 4 2 3 3 1 4 2 5 27 7 28 8 80 9 29 10 79 11 30 12 31 13
REMARK SMILES IDX 32 14 73 15 33 16 78 17 72 18 74 19 34 20 77 21 71 22 70 23
REMARK SMILES IDX 35 25 61 26 44 27 60 28 45 29 48 30 59 31 75 32 46 33 47 34
REMARK SMILES IDX 58 36 76 37 49 38 36 39 37 40 42 41 38 42 39 43 41 44 43 45
REMARK SMILES IDX 40 46 62 47 63 48 68 49 64 50 65 51 67 52 69 53 66 54 50 55
REMARK SMILES IDX 51 56 56 57 52 58 53 59 55 60 57 61 54 62 6 63 7 64 8 65
REMARK SMILES IDX 9 67 10 68 11 69 26 70 12 71 14 72 13 73 15 75 16 76 17 77
REMARK SMILES IDX 25 78 18 79 20 80 24 81 19 82 21 83 23 84 22 85
REMARK H PARENT 3 6 74 24 48 35 7 66 14 74
REMARK Flexibility Score: inf
ROOT
ATOM      1  C   UNL A   1      31.120  31.828  26.505  1.00  0.00     0.042 C 
ENDROOT
BRANCH   1   2
ATOM      2  C   UNL A   1      32.461  32.434  26.878  1.00  0.00     0.118 C 
BRANCH   2   3
ATOM      3  N   UNL A   1      32.352  33.816  27.326  1.00  0.00    -0.352 N 
ATOM      4  O   UNL A   1      32.708  35.593  28.667  1.00  0.00    -0.269 OA
ATOM      5  C   UNL A   1      33.052  34.470  28.310  1.00  0.00     0.251 C 
ATOM      6  H   UNL A   1      31.680  34.359  26.856  1.00  0.00     0.163 HD
BRANCH   5   7
ATOM      7  C   UNL A   1      34.210  33.812  28.950  1.00  0.00     0.039 A 
ATOM      8  C   UNL A   1      34.026  32.696  29.767  1.00  0.00     0.014 A 
ATOM      9  C   UNL A   1      35.496  34.307  28.714  1.00  0.00     0.014 A 
ATOM     10  C   UNL A   1      35.102  32.165  30.463  1.00  0.00     0.010 A 
ATOM     11  C   UNL A   1      36.593  33.704  29.333  1.00  0.00     0.010 A 
ATOM     12  C   UNL A   1      36.402  32.639  30.226  1.00  0.00    -0.014 A 
BRANCH  12  13
ATOM     13  C   UNL A   1      37.547  31.913  30.826  1.00  0.00     0.031 A 
ATOM     14  C   UNL A   1      38.314  30.878  30.057  1.00  0.00     0.074 A 
ATOM     15  C   UNL A   1      37.896  32.224  32.091  1.00  0.00     0.049 A 
ATOM     16  N   UNL A   1      39.339  30.163  30.445  1.00  0.00    -0.248 NA
ATOM     17  C   UNL A   1      37.876  30.599  28.680  1.00  0.00     0.031 C 
ATOM     18  C   UNL A   1      37.205  33.203  32.937  1.00  0.00     0.029 A 
ATOM     19  N   UNL A   1      38.916  31.766  32.882  1.00  0.00    -0.354 N 
ATOM     20  C   UNL A   1      39.658  29.338  29.374  1.00  0.00     0.074 A 
ATOM     21  C   UNL A   1      38.707  29.628  28.323  1.00  0.00     0.031 C 
ATOM     22  C   UNL A   1      37.844  33.301  34.111  1.00  0.00     0.029 A 
ATOM     23  C   UNL A   1      38.941  32.343  34.129  1.00  0.00     0.049 A 
ATOM     24  H   UNL A   1      39.567  31.091  32.586  1.00  0.00     0.167 HD
ATOM     25  C   UNL A   1      40.655  28.427  29.286  1.00  0.00     0.037 A 
ATOM     26  C   UNL A   1      39.740  32.107  35.184  1.00  0.00     0.037 A 
ATOM     27  C   UNL A   1      41.608  28.161  30.335  1.00  0.00     0.049 A 
ATOM     28  C   UNL A   1      40.817  31.072  35.058  1.00  0.00     0.074 A 
ATOM     29  C   UNL A   1      42.693  27.301  30.314  1.00  0.00     0.029 A 
ATOM     30  N   UNL A   1      41.585  28.745  31.592  1.00  0.00    -0.354 N 
ATOM     31  N   UNL A   1      41.141  30.342  34.018  1.00  0.00    -0.248 NA
ATOM     32  C   UNL A   1      41.634  30.822  36.250  1.00  0.00     0.031 C 
ATOM     33  C   UNL A   1      43.294  27.323  31.577  1.00  0.00     0.029 A 
ATOM     34  C   UNL A   1      42.615  28.235  32.368  1.00  0.00     0.049 A 
ATOM     35  H   UNL A   1      40.934  29.420  31.891  1.00  0.00     0.167 HD
ATOM     36  C   UNL A   1      42.206  29.555  34.428  1.00  0.00     0.074 A 
ATOM     37  C   UNL A   1      42.492  29.918  35.801  1.00  0.00     0.031 C 
ATOM     38  C   UNL A   1      42.882  28.608  33.734  1.00  0.00     0.037 A 
BRANCH  25  39
ATOM     39  C   UNL A   1      40.776  27.628  28.021  1.00  0.00     0.057 A 
ATOM     40  C   UNL A   1      41.569  28.054  26.948  1.00  0.00     0.134 A 
ATOM     41  C   UNL A   1      40.169  26.370  27.917  1.00  0.00     0.134 A 
ATOM     42  F   UNL A   1      42.172  29.252  26.981  1.00  0.00    -0.206 F 
ATOM     43  C   UNL A   1      41.752  27.257  25.816  1.00  0.00     0.040 A 
ATOM     44  C   UNL A   1      40.360  25.555  26.799  1.00  0.00     0.040 A 
ATOM     45  F   UNL A   1      39.402  25.899  28.911  1.00  0.00    -0.206 F 
ATOM     46  C   UNL A   1      41.156  25.998  25.745  1.00  0.00     0.006 A 
ENDBRANCH  25  39
BRANCH  26  47
ATOM     47  C   UNL A   1      39.523  32.836  36.459  1.00  0.00     0.057 A 
ATOM     48  C   UNL A   1      38.574  32.405  37.391  1.00  0.00     0.134 A 
ATOM     49  C   UNL A   1      40.252  33.991  36.767  1.00  0.00     0.134 A 
ATOM     50  F   UNL A   1      37.834  31.314  37.145  1.00  0.00    -0.206 F 
ATOM     51  C   UNL A   1      38.338  33.110  38.572  1.00  0.00     0.040 A 
ATOM     52  C   UNL A   1      40.050  34.688  37.958  1.00  0.00     0.040 A 
ATOM     53  F   UNL A   1      41.184  34.452  35.919  1.00  0.00    -0.206 F 
ATOM     54  C   UNL A   1      39.081  34.253  38.860  1.00  0.00     0.006 A 
ENDBRANCH  26  47
BRANCH  38  55
ATOM     55  C   UNL A   1      44.003  27.915  34.449  1.00  0.00     0.057 A 
ATOM     56  C   UNL A   1      43.804  26.710  35.135  1.00  0.00     0.134 A 
ATOM     57  C   UNL A   1      45.296  28.451  34.440  1.00  0.00     0.134 A 
ATOM     58  F   UNL A   1      42.583  26.156  35.194  1.00  0.00    -0.206 F 
ATOM     59  C   UNL A   1      44.848  26.075  35.807  1.00  0.00     0.040 A 
ATOM     60  C   UNL A   1      46.354  27.811  35.086  1.00  0.00     0.040 A 
ATOM     61  F   UNL A   1      45.553  29.600  33.797  1.00  0.00    -0.206 F 
ATOM     62  C   UNL A   1      46.129  26.623  35.778  1.00  0.00     0.006 A 
ENDBRANCH  38  55
ENDBRANCH  12  13
ENDBRANCH   5   7
ENDBRANCH   2   3
ENDBRANCH   1   2
BRANCH   1  63
ATOM     63  C   UNL A   1      31.213  30.750  25.438  1.00  0.00     0.117 C 
BRANCH  63  64
ATOM     64  N   UNL A   1      32.510  30.101  25.432  1.00  0.00    -0.356 N 
ATOM     65  C   UNL A   1      32.848  28.803  25.182  1.00  0.00     0.228 C 
ATOM     66  H   UNL A   1      33.269  30.693  25.641  1.00  0.00     0.163 HD
ATOM     67  O   UNL A   1      34.002  28.464  25.446  1.00  0.00    -0.275 OA
BRANCH  65  68
ATOM     68  C   UNL A   1      31.792  27.835  24.659  1.00  0.00     0.133 C 
ATOM     69  C   UNL A   1      30.981  27.183  25.788  1.00  0.00     0.025 C 
ATOM     70  C   UNL A   1      32.394  26.736  23.776  1.00  0.00     0.276 C 
ATOM     71  C   UNL A   1      31.769  26.084  26.508  1.00  0.00     0.062 C 
ATOM     72  N   UNL A   1      33.199  25.772  24.521  1.00  0.00    -0.331 N 
ATOM     73  C   UNL A   1      32.405  25.081  25.538  1.00  0.00     0.262 C 
ATOM     74  H   UNL A   1      33.903  26.304  25.032  1.00  0.00     0.348 HD
BRANCH  72  75
ATOM     75  C   UNL A   1      33.997  24.881  23.659  1.00  0.00     0.299 C 
BRANCH  75  76
ATOM     76  C   UNL A   1      34.752  23.748  24.340  1.00  0.00     0.014 A 
ATOM     77  C   UNL A   1      35.950  24.062  25.015  1.00  0.00     0.010 A 
ATOM     78  C   UNL A   1      34.293  22.396  24.343  1.00  0.00    -0.010 A 
ATOM     79  C   UNL A   1      36.744  23.077  25.584  1.00  0.00     0.001 A 
ATOM     80  C   UNL A   1      35.104  21.405  24.958  1.00  0.00    -0.018 A 
ATOM     81  C   UNL A   1      33.061  21.966  23.792  1.00  0.00     0.009 A 
ATOM     82  C   UNL A   1      36.328  21.754  25.542  1.00  0.00     0.009 A 
ATOM     83  C   UNL A   1      34.681  20.067  25.000  1.00  0.00     0.009 A 
ATOM     84  C   UNL A   1      32.641  20.634  23.866  1.00  0.00     0.001 A 
ATOM     85  C   UNL A   1      33.453  19.685  24.468  1.00  0.00     0.001 A 
ENDBRANCH  75  76
ENDBRANCH  72  75
ENDBRANCH  65  68
ENDBRANCH  63  64
ENDBRANCH   1  63
TORSDOF 12
ENDMDL
