MODEL 1
REMARK VINA RESULT:     -11.0      0.000      0.000
REMARK SMILES CC[NH2+][C@]1(C(=O)NCCCNC(=O)c2ccc(-c3c4nc(c(-c5c(F)cccc5F)c5ccc([nH]5)c(-c5c(F)cccc5F)c5nc(c(-c6c(F)cccc6F)c6ccc3[nH]6)C=C5)C=C4)cc2)CCC[C@H]1CCSc1ccc(Cl)cc1
REMARK SMILES IDX 8 1 7 2 5 3 6 4 4 6 68 7 71 8 69 9 70 10 3 11 2 14 1 15
REMARK SMILES IDX 72 16 73 17 74 18 75 19 76 20 81 21 77 22 80 23 78 24 79 25
REMARK SMILES IDX 9 26 10 27 11 28 12 29 13 31 14 32 15 33 67 34 16 35 66 36
REMARK SMILES IDX 17 37 18 38 19 39 60 40 20 41 65 42 59 43 61 44 21 45 64 46
REMARK SMILES IDX 58 47 57 48 22 50 48 51 31 52 47 53 32 54 35 55 46 56 62 57
REMARK SMILES IDX 33 58 34 59 45 61 63 62 36 63 23 64 24 65 29 66 25 67 26 68
REMARK SMILES IDX 28 69 30 70 27 71 49 72 50 73 55 74 51 75 52 76 54 77 56 78
REMARK SMILES IDX 53 79 37 80 38 81 43 82 39 83 40 84 42 85 44 86 41 87
REMARK H PARENT 7 5 3 12 3 13 11 30 61 49 35 60
REMARK Flexibility Score: inf
ROOT
ATOM      1  C   UNL A   1      36.246  20.922  25.394  1.00  0.00     0.118 C 
ENDROOT
BRANCH   1   2
ATOM      2  N   UNL A   1      35.697  21.853  26.353  1.00  0.00    -0.351 N 
ATOM      3  C   UNL A   1      34.446  22.203  26.721  1.00  0.00     0.281 C 
ATOM      4  O   UNL A   1      34.455  22.877  27.757  1.00  0.00    -0.268 OA
ATOM      5  H   UNL A   1      36.391  22.341  26.851  1.00  0.00     0.163 HD
BRANCH   3   6
ATOM      6  C   UNL A   1      33.153  21.838  25.914  1.00  0.00     0.178 C 
ATOM      7  C   UNL A   1      31.942  22.432  26.697  1.00  0.00     0.079 C 
ATOM      8  C   UNL A   1      32.956  22.400  24.449  1.00  0.00     0.061 C 
ATOM      9  C   UNL A   1      30.885  22.737  25.651  1.00  0.00     0.008 C 
ATOM     10  C   UNL A   1      31.705  23.304  24.508  1.00  0.00     0.011 C 
BRANCH   6  11
ATOM     11  N   UNL A   1      32.825  20.368  25.891  1.00  0.00    -0.334 N 
ATOM     12  H   UNL A   1      33.614  19.886  26.321  1.00  0.00     0.347 HD
ATOM     13  H   UNL A   1      31.924  20.329  26.367  1.00  0.00     0.347 HD
BRANCH  11  14
ATOM     14  C   UNL A   1      32.559  19.688  24.633  1.00  0.00     0.257 C 
ATOM     15  C   UNL A   1      33.613  18.624  24.356  1.00  0.00     0.071 C 
ENDBRANCH  11  14
ENDBRANCH   6  11
BRANCH   8  16
ATOM     16  C   UNL A   1      34.071  23.040  23.588  1.00  0.00     0.022 C 
BRANCH  16  17
ATOM     17  C   UNL A   1      34.538  24.455  23.952  1.00  0.00     0.075 C 
BRANCH  17  18
ATOM     18  S   UNL A   1      33.743  25.776  22.964  1.00  0.00    -0.126 SA
BRANCH  18  19
ATOM     19  C   UNL A   1      33.513  27.104  24.136  1.00  0.00     0.007 A 
ATOM     20  C   UNL A   1      33.201  28.417  23.784  1.00  0.00     0.016 A 
ATOM     21  C   UNL A   1      33.634  26.799  25.497  1.00  0.00     0.016 A 
ATOM     22  C   UNL A   1      32.938  29.388  24.751  1.00  0.00     0.021 A 
ATOM     23  C   UNL A   1      33.410  27.776  26.474  1.00  0.00     0.021 A 
ATOM     24  C   UNL A   1      33.046  29.064  26.095  1.00  0.00     0.041 A 
ATOM     25  Cl  UNL A   1      32.729  30.264  27.283  1.00  0.00    -0.084 Cl
ENDBRANCH  18  19
ENDBRANCH  17  18
ENDBRANCH  16  17
ENDBRANCH   8  16
ENDBRANCH   3   6
ENDBRANCH   1   2
BRANCH   1  26
ATOM     26  C   UNL A   1      37.551  21.415  24.798  1.00  0.00     0.042 C 
BRANCH  26  27
ATOM     27  C   UNL A   1      38.738  21.344  25.755  1.00  0.00     0.118 C 
BRANCH  27  28
ATOM     28  N   UNL A   1      39.521  20.114  25.676  1.00  0.00    -0.352 N 
ATOM     29  C   UNL A   1      40.839  19.876  26.018  1.00  0.00     0.251 C 
ATOM     30  H   UNL A   1      39.034  19.333  25.325  1.00  0.00     0.163 HD
ATOM     31  O   UNL A   1      41.350  18.787  25.829  1.00  0.00    -0.269 OA
BRANCH  29  32
ATOM     32  C   UNL A   1      41.640  20.995  26.555  1.00  0.00     0.039 A 
ATOM     33  C   UNL A   1      42.250  21.880  25.664  1.00  0.00     0.014 A 
ATOM     34  C   UNL A   1      41.646  21.251  27.923  1.00  0.00     0.014 A 
ATOM     35  C   UNL A   1      42.721  23.106  26.138  1.00  0.00     0.010 A 
ATOM     36  C   UNL A   1      41.974  22.524  28.363  1.00  0.00     0.010 A 
ATOM     37  C   UNL A   1      42.494  23.477  27.473  1.00  0.00    -0.014 A 
BRANCH  37  38
ATOM     38  C   UNL A   1      42.749  24.857  27.972  1.00  0.00     0.031 A 
ATOM     39  C   UNL A   1      44.134  25.242  28.420  1.00  0.00     0.074 A 
ATOM     40  C   UNL A   1      41.723  25.714  28.156  1.00  0.00     0.049 A 
ATOM     41  N   UNL A   1      44.525  26.294  29.093  1.00  0.00    -0.248 NA
ATOM     42  C   UNL A   1      45.211  24.282  28.130  1.00  0.00     0.031 C 
ATOM     43  C   UNL A   1      40.316  25.449  27.841  1.00  0.00     0.029 A 
ATOM     44  N   UNL A   1      41.704  26.986  28.675  1.00  0.00    -0.354 N 
ATOM     45  C   UNL A   1      45.872  26.088  29.359  1.00  0.00     0.074 A 
ATOM     46  C   UNL A   1      46.218  24.790  28.823  1.00  0.00     0.031 C 
ATOM     47  C   UNL A   1      39.583  26.535  28.131  1.00  0.00     0.029 A 
ATOM     48  C   UNL A   1      40.453  27.555  28.704  1.00  0.00     0.049 A 
ATOM     49  H   UNL A   1      42.513  27.448  28.997  1.00  0.00     0.167 HD
ATOM     50  C   UNL A   1      46.753  26.915  29.969  1.00  0.00     0.037 A 
ATOM     51  C   UNL A   1      40.051  28.760  29.151  1.00  0.00     0.037 A 
ATOM     52  C   UNL A   1      46.430  28.242  30.418  1.00  0.00     0.049 A 
ATOM     53  C   UNL A   1      41.063  29.699  29.743  1.00  0.00     0.074 A 
ATOM     54  C   UNL A   1      47.271  29.195  30.965  1.00  0.00     0.029 A 
ATOM     55  N   UNL A   1      45.169  28.811  30.346  1.00  0.00    -0.354 N 
ATOM     56  N   UNL A   1      42.344  29.507  29.947  1.00  0.00    -0.248 NA
ATOM     57  C   UNL A   1      40.578  31.020  30.167  1.00  0.00     0.031 C 
ATOM     58  C   UNL A   1      46.513  30.338  31.237  1.00  0.00     0.029 A 
ATOM     59  C   UNL A   1      45.207  30.106  30.833  1.00  0.00     0.049 A 
ATOM     60  H   UNL A   1      44.364  28.361  30.000  1.00  0.00     0.167 HD
ATOM     61  C   UNL A   1      42.822  30.691  30.492  1.00  0.00     0.074 A 
ATOM     62  C   UNL A   1      41.696  31.597  30.583  1.00  0.00     0.031 C 
ATOM     63  C   UNL A   1      44.081  30.999  30.886  1.00  0.00     0.037 A 
BRANCH  50  64
ATOM     64  C   UNL A   1      48.154  26.411  30.160  1.00  0.00     0.057 A 
ATOM     65  C   UNL A   1      49.141  26.582  29.181  1.00  0.00     0.134 A 
ATOM     66  C   UNL A   1      48.521  25.756  31.341  1.00  0.00     0.134 A 
ATOM     67  F   UNL A   1      48.848  27.189  28.020  1.00  0.00    -0.206 F 
ATOM     68  C   UNL A   1      50.433  26.086  29.352  1.00  0.00     0.040 A 
ATOM     69  C   UNL A   1      49.820  25.281  31.537  1.00  0.00     0.040 A 
ATOM     70  F   UNL A   1      47.628  25.564  32.323  1.00  0.00    -0.206 F 
ATOM     71  C   UNL A   1      50.777  25.438  30.537  1.00  0.00     0.006 A 
ENDBRANCH  50  64
BRANCH  51  72
ATOM     72  C   UNL A   1      38.629  29.169  29.018  1.00  0.00     0.057 A 
ATOM     73  C   UNL A   1      37.763  29.105  30.116  1.00  0.00     0.134 A 
ATOM     74  C   UNL A   1      38.101  29.626  27.806  1.00  0.00     0.134 A 
ATOM     75  F   UNL A   1      38.208  28.658  31.300  1.00  0.00    -0.206 F 
ATOM     76  C   UNL A   1      36.418  29.459  30.009  1.00  0.00     0.040 A 
ATOM     77  C   UNL A   1      36.762  30.005  27.689  1.00  0.00     0.040 A 
ATOM     78  F   UNL A   1      38.883  29.721  26.720  1.00  0.00    -0.206 F 
ATOM     79  C   UNL A   1      35.915  29.915  28.792  1.00  0.00     0.006 A 
ENDBRANCH  51  72
BRANCH  63  80
ATOM     80  C   UNL A   1      44.322  32.387  31.397  1.00  0.00     0.057 A 
ATOM     81  C   UNL A   1      44.636  33.445  30.538  1.00  0.00     0.134 A 
ATOM     82  C   UNL A   1      44.179  32.673  32.761  1.00  0.00     0.134 A 
ATOM     83  F   UNL A   1      44.798  33.230  29.224  1.00  0.00    -0.206 F 
ATOM     84  C   UNL A   1      44.813  34.742  31.020  1.00  0.00     0.040 A 
ATOM     85  C   UNL A   1      44.332  33.970  33.251  1.00  0.00     0.040 A 
ATOM     86  F   UNL A   1      43.872  31.701  33.633  1.00  0.00    -0.206 F 
ATOM     87  C   UNL A   1      44.653  35.009  32.379  1.00  0.00     0.006 A 
ENDBRANCH  63  80
ENDBRANCH  37  38
ENDBRANCH  29  32
ENDBRANCH  27  28
ENDBRANCH  26  27
ENDBRANCH   1  26
TORSDOF 16
ENDMDL
MODEL 2
REMARK VINA RESULT:     -10.8      1.438      6.369
REMARK SMILES CC[NH2+][C@]1(C(=O)NCCCNC(=O)c2ccc(-c3c4nc(c(-c5c(F)cccc5F)c5ccc([nH]5)c(-c5c(F)cccc5F)c5nc(c(-c6c(F)cccc6F)c6ccc3[nH]6)C=C5)C=C4)cc2)CCC[C@H]1CCSc1ccc(Cl)cc1
REMARK SMILES IDX 8 1 7 2 5 3 6 4 4 6 68 7 71 8 69 9 70 10 3 11 2 14 1 15
REMARK SMILES IDX 72 16 73 17 74 18 75 19 76 20 81 21 77 22 80 23 78 24 79 25
REMARK SMILES IDX 9 26 10 27 11 28 12 29 13 31 14 32 15 33 67 34 16 35 66 36
REMARK SMILES IDX 17 37 18 38 19 39 60 40 20 41 65 42 59 43 61 44 21 45 64 46
REMARK SMILES IDX 58 47 57 48 22 50 48 51 31 52 47 53 32 54 35 55 46 56 62 57
REMARK SMILES IDX 33 58 34 59 45 61 63 62 36 63 23 64 24 65 29 66 25 67 26 68
REMARK SMILES IDX 28 69 30 70 27 71 49 72 50 73 55 74 51 75 52 76 54 77 56 78
REMARK SMILES IDX 53 79 37 80 38 81 43 82 39 83 40 84 42 85 44 86 41 87
REMARK H PARENT 7 5 3 12 3 13 11 30 61 49 35 60
REMARK Flexibility Score: inf
ROOT
ATOM      1  C   UNL A   1      36.247  23.272  25.192  1.00  0.00     0.118 C 
ENDROOT
BRANCH   1   2
ATOM      2  N   UNL A   1      35.644  23.007  26.478  1.00  0.00    -0.351 N 
ATOM      3  C   UNL A   1      34.375  22.852  26.913  1.00  0.00     0.281 C 
ATOM      4  O   UNL A   1      34.347  22.403  28.065  1.00  0.00    -0.268 OA
ATOM      5  H   UNL A   1      36.308  22.921  27.200  1.00  0.00     0.163 HD
BRANCH   3   6
ATOM      6  C   UNL A   1      33.103  23.232  26.080  1.00  0.00     0.178 C 
ATOM      7  C   UNL A   1      31.864  22.962  26.989  1.00  0.00     0.079 C 
ATOM      8  C   UNL A   1      32.893  24.725  25.603  1.00  0.00     0.061 C 
ATOM      9  C   UNL A   1      30.803  23.951  26.541  1.00  0.00     0.008 C 
ATOM     10  C   UNL A   1      31.607  25.215  26.304  1.00  0.00     0.011 C 
BRANCH   6  11
ATOM     11  N   UNL A   1      32.834  22.331  24.904  1.00  0.00    -0.334 N 
ATOM     12  H   UNL A   1      31.989  22.683  24.454  1.00  0.00     0.347 HD
ATOM     13  H   UNL A   1      33.708  22.377  24.379  1.00  0.00     0.347 HD
BRANCH  11  14
ATOM     14  C   UNL A   1      32.642  20.902  25.093  1.00  0.00     0.257 C 
ATOM     15  C   UNL A   1      33.892  20.127  24.695  1.00  0.00     0.071 C 
ENDBRANCH  11  14
ENDBRANCH   6  11
BRANCH   8  16
ATOM     16  C   UNL A   1      33.987  25.820  25.609  1.00  0.00     0.022 C 
BRANCH  16  17
ATOM     17  C   UNL A   1      33.725  27.102  24.809  1.00  0.00     0.075 C 
BRANCH  17  18
ATOM     18  S   UNL A   1      33.106  26.806  23.112  1.00  0.00    -0.126 SA
BRANCH  18  19
ATOM     19  C   UNL A   1      31.515  27.616  23.091  1.00  0.00     0.007 A 
ATOM     20  C   UNL A   1      31.314  28.943  22.713  1.00  0.00     0.016 A 
ATOM     21  C   UNL A   1      30.396  26.860  23.459  1.00  0.00     0.016 A 
ATOM     22  C   UNL A   1      30.034  29.490  22.624  1.00  0.00     0.021 A 
ATOM     23  C   UNL A   1      29.110  27.413  23.411  1.00  0.00     0.021 A 
ATOM     24  C   UNL A   1      28.934  28.722  22.976  1.00  0.00     0.041 A 
ATOM     25  Cl  UNL A   1      27.360  29.401  22.873  1.00  0.00    -0.084 Cl
ENDBRANCH  18  19
ENDBRANCH  17  18
ENDBRANCH  16  17
ENDBRANCH   8  16
ENDBRANCH   3   6
ENDBRANCH   1   2
BRANCH   1  26
ATOM     26  C   UNL A   1      37.175  22.155  24.753  1.00  0.00     0.042 C 
BRANCH  26  27
ATOM     27  C   UNL A   1      38.314  21.872  25.728  1.00  0.00     0.118 C 
BRANCH  27  28
ATOM     28  N   UNL A   1      38.941  20.561  25.582  1.00  0.00    -0.352 N 
ATOM     29  C   UNL A   1      40.207  20.137  25.936  1.00  0.00     0.251 C 
ATOM     30  H   UNL A   1      38.372  19.873  25.168  1.00  0.00     0.163 HD
ATOM     31  O   UNL A   1      40.586  19.007  25.684  1.00  0.00    -0.269 OA
BRANCH  29  32
ATOM     32  C   UNL A   1      41.125  21.109  26.567  1.00  0.00     0.039 A 
ATOM     33  C   UNL A   1      41.834  21.996  25.755  1.00  0.00     0.014 A 
ATOM     34  C   UNL A   1      41.151  21.241  27.952  1.00  0.00     0.014 A 
ATOM     35  C   UNL A   1      42.434  23.116  26.333  1.00  0.00     0.010 A 
ATOM     36  C   UNL A   1      41.615  22.426  28.501  1.00  0.00     0.010 A 
ATOM     37  C   UNL A   1      42.243  23.391  27.697  1.00  0.00    -0.014 A 
BRANCH  37  38
ATOM     38  C   UNL A   1      42.645  24.684  28.315  1.00  0.00     0.031 A 
ATOM     39  C   UNL A   1      41.608  25.750  28.553  1.00  0.00     0.074 A 
ATOM     40  C   UNL A   1      43.949  24.958  28.532  1.00  0.00     0.049 A 
ATOM     41  N   UNL A   1      41.771  27.011  28.858  1.00  0.00    -0.248 NA
ATOM     42  C   UNL A   1      40.204  25.358  28.355  1.00  0.00     0.031 C 
ATOM     43  C   UNL A   1      45.071  24.050  28.274  1.00  0.00     0.029 A 
ATOM     44  N   UNL A   1      44.556  26.097  29.004  1.00  0.00    -0.354 N 
ATOM     45  C   UNL A   1      40.501  27.571  28.824  1.00  0.00     0.074 A 
ATOM     46  C   UNL A   1      39.587  26.527  28.417  1.00  0.00     0.031 C 
ATOM     47  C   UNL A   1      46.218  24.649  28.630  1.00  0.00     0.029 A 
ATOM     48  C   UNL A   1      45.925  26.002  29.090  1.00  0.00     0.049 A 
ATOM     49  H   UNL A   1      44.056  26.907  29.257  1.00  0.00     0.167 HD
ATOM     50  C   UNL A   1      40.122  28.834  29.131  1.00  0.00     0.037 A 
ATOM     51  C   UNL A   1      46.841  26.905  29.486  1.00  0.00     0.037 A 
ATOM     52  C   UNL A   1      41.018  29.845  29.624  1.00  0.00     0.049 A 
ATOM     53  C   UNL A   1      46.387  28.274  29.908  1.00  0.00     0.074 A 
ATOM     54  C   UNL A   1      40.720  31.126  30.051  1.00  0.00     0.029 A 
ATOM     55  N   UNL A   1      42.384  29.675  29.780  1.00  0.00    -0.354 N 
ATOM     56  N   UNL A   1      45.176  28.775  29.913  1.00  0.00    -0.248 NA
ATOM     57  C   UNL A   1      47.424  29.202  30.380  1.00  0.00     0.031 C 
ATOM     58  C   UNL A   1      41.911  31.739  30.452  1.00  0.00     0.029 A 
ATOM     59  C   UNL A   1      42.945  30.827  30.302  1.00  0.00     0.049 A 
ATOM     60  H   UNL A   1      42.882  28.857  29.551  1.00  0.00     0.167 HD
ATOM     61  C   UNL A   1      45.301  30.063  30.416  1.00  0.00     0.074 A 
ATOM     62  C   UNL A   1      46.704  30.265  30.710  1.00  0.00     0.031 C 
ATOM     63  C   UNL A   1      44.339  30.996  30.614  1.00  0.00     0.037 A 
BRANCH  50  64
ATOM     64  C   UNL A   1      38.671  29.178  28.963  1.00  0.00     0.057 A 
ATOM     65  C   UNL A   1      38.146  29.590  27.732  1.00  0.00     0.134 A 
ATOM     66  C   UNL A   1      37.786  29.088  30.045  1.00  0.00     0.134 A 
ATOM     67  F   UNL A   1      38.945  29.712  26.659  1.00  0.00    -0.206 F 
ATOM     68  C   UNL A   1      36.802  29.936  27.589  1.00  0.00     0.040 A 
ATOM     69  C   UNL A   1      36.432  29.402  29.907  1.00  0.00     0.040 A 
ATOM     70  F   UNL A   1      38.220  28.694  31.251  1.00  0.00    -0.206 F 
ATOM     71  C   UNL A   1      35.940  29.837  28.679  1.00  0.00     0.006 A 
ENDBRANCH  50  64
BRANCH  51  72
ATOM     72  C   UNL A   1      48.278  26.535  29.544  1.00  0.00     0.057 A 
ATOM     73  C   UNL A   1      49.115  26.754  28.443  1.00  0.00     0.134 A 
ATOM     74  C   UNL A   1      48.847  25.957  30.683  1.00  0.00     0.134 A 
ATOM     75  F   UNL A   1      48.623  27.289  27.317  1.00  0.00    -0.206 F 
ATOM     76  C   UNL A   1      50.463  26.391  28.466  1.00  0.00     0.040 A 
ATOM     77  C   UNL A   1      50.199  25.609  30.727  1.00  0.00     0.040 A 
ATOM     78  F   UNL A   1      48.100  25.732  31.774  1.00  0.00    -0.206 F 
ATOM     79  C   UNL A   1      51.009  25.819  29.613  1.00  0.00     0.006 A 
ENDBRANCH  51  72
BRANCH  63  80
ATOM     80  C   UNL A   1      44.759  32.298  31.226  1.00  0.00     0.057 A 
ATOM     81  C   UNL A   1      45.132  33.394  30.442  1.00  0.00     0.134 A 
ATOM     82  C   UNL A   1      44.734  32.467  32.616  1.00  0.00     0.134 A 
ATOM     83  F   UNL A   1      45.189  33.288  29.106  1.00  0.00    -0.206 F 
ATOM     84  C   UNL A   1      45.477  34.616  31.021  1.00  0.00     0.040 A 
ATOM     85  C   UNL A   1      45.055  33.690  33.205  1.00  0.00     0.040 A 
ATOM     86  F   UNL A   1      44.378  31.454  33.420  1.00  0.00    -0.206 F 
ATOM     87  C   UNL A   1      45.432  34.768  32.407  1.00  0.00     0.006 A 
ENDBRANCH  63  80
ENDBRANCH  37  38
ENDBRANCH  29  32
ENDBRANCH  27  28
ENDBRANCH  26  27
ENDBRANCH   1  26
TORSDOF 16
ENDMDL
MODEL 3
REMARK VINA RESULT:     -10.8      4.400      8.950
REMARK SMILES CC[NH2+][C@]1(C(=O)NCCCNC(=O)c2ccc(-c3c4nc(c(-c5c(F)cccc5F)c5ccc([nH]5)c(-c5c(F)cccc5F)c5nc(c(-c6c(F)cccc6F)c6ccc3[nH]6)C=C5)C=C4)cc2)CCC[C@H]1CCSc1ccc(Cl)cc1
REMARK SMILES IDX 8 1 7 2 5 3 6 4 4 6 68 7 71 8 69 9 70 10 3 11 2 14 1 15
REMARK SMILES IDX 72 16 73 17 74 18 75 19 76 20 81 21 77 22 80 23 78 24 79 25
REMARK SMILES IDX 9 26 10 27 11 28 12 29 13 31 14 32 15 33 67 34 16 35 66 36
REMARK SMILES IDX 17 37 18 38 19 39 60 40 20 41 65 42 59 43 61 44 21 45 64 46
REMARK SMILES IDX 58 47 57 48 22 50 48 51 31 52 47 53 32 54 35 55 46 56 62 57
REMARK SMILES IDX 33 58 34 59 45 61 63 62 36 63 23 64 24 65 29 66 25 67 26 68
REMARK SMILES IDX 28 69 30 70 27 71 49 72 50 73 55 74 51 75 52 76 54 77 56 78
REMARK SMILES IDX 53 79 37 80 38 81 43 82 39 83 40 84 42 85 44 86 41 87
REMARK H PARENT 7 5 3 12 3 13 11 30 61 49 35 60
REMARK Flexibility Score: inf
ROOT
ATOM      1  C   UNL A   1      31.035  30.242  25.281  1.00  0.00     0.118 C 
ENDROOT
BRANCH   1   2
ATOM      2  N   UNL A   1      32.350  29.684  25.062  1.00  0.00    -0.351 N 
ATOM      3  C   UNL A   1      32.897  28.903  24.105  1.00  0.00     0.281 C 
ATOM      4  O   UNL A   1      34.129  28.867  24.205  1.00  0.00    -0.268 OA
ATOM      5  H   UNL A   1      32.990  29.927  25.768  1.00  0.00     0.163 HD
BRANCH   3   6
ATOM      6  C   UNL A   1      32.073  28.110  23.033  1.00  0.00     0.178 C 
ATOM      7  C   UNL A   1      33.101  27.458  22.058  1.00  0.00     0.079 C 
ATOM      8  C   UNL A   1      31.166  26.895  23.480  1.00  0.00     0.061 C 
ATOM      9  C   UNL A   1      32.435  26.193  21.546  1.00  0.00     0.008 C 
ATOM     10  C   UNL A   1      31.760  25.648  22.790  1.00  0.00     0.011 C 
BRANCH   6  11
ATOM     11  N   UNL A   1      31.260  28.974  22.105  1.00  0.00    -0.334 N 
ATOM     12  H   UNL A   1      31.532  29.939  22.292  1.00  0.00     0.347 HD
ATOM     13  H   UNL A   1      31.476  28.586  21.186  1.00  0.00     0.347 HD
BRANCH  11  14
ATOM     14  C   UNL A   1      29.806  28.936  22.142  1.00  0.00     0.257 C 
ATOM     15  C   UNL A   1      29.225  30.344  22.090  1.00  0.00     0.071 C 
ENDBRANCH  11  14
ENDBRANCH   6  11
BRANCH   8  16
ATOM     16  C   UNL A   1      30.754  26.585  24.940  1.00  0.00     0.022 C 
BRANCH  16  17
ATOM     17  C   UNL A   1      30.345  25.147  25.282  1.00  0.00     0.075 C 
BRANCH  17  18
ATOM     18  S   UNL A   1      31.459  24.324  26.479  1.00  0.00    -0.126 SA
BRANCH  18  19
ATOM     19  C   UNL A   1      32.932  23.985  25.528  1.00  0.00     0.007 A 
ATOM     20  C   UNL A   1      34.064  24.799  25.515  1.00  0.00     0.016 A 
ATOM     21  C   UNL A   1      32.955  22.815  24.760  1.00  0.00     0.016 A 
ATOM     22  C   UNL A   1      35.220  24.430  24.827  1.00  0.00     0.021 A 
ATOM     23  C   UNL A   1      34.098  22.456  24.034  1.00  0.00     0.021 A 
ATOM     24  C   UNL A   1      35.232  23.259  24.085  1.00  0.00     0.041 A 
ATOM     25  Cl  UNL A   1      36.655  22.811  23.233  1.00  0.00    -0.084 Cl
ENDBRANCH  18  19
ENDBRANCH  17  18
ENDBRANCH  16  17
ENDBRANCH   8  16
ENDBRANCH   3   6
ENDBRANCH   1   2
BRANCH   1  26
ATOM     26  C   UNL A   1      31.097  31.637  25.874  1.00  0.00     0.042 C 
BRANCH  26  27
ATOM     27  C   UNL A   1      32.118  31.790  26.998  1.00  0.00     0.118 C 
BRANCH  27  28
ATOM     28  N   UNL A   1      32.332  33.161  27.455  1.00  0.00    -0.352 N 
ATOM     29  C   UNL A   1      33.463  33.758  27.978  1.00  0.00     0.251 C 
ATOM     30  H   UNL A   1      31.548  33.752  27.377  1.00  0.00     0.163 HD
ATOM     31  O   UNL A   1      33.443  34.912  28.365  1.00  0.00    -0.269 OA
BRANCH  29  32
ATOM     32  C   UNL A   1      34.685  32.940  28.127  1.00  0.00     0.039 A 
ATOM     33  C   UNL A   1      35.916  33.582  28.263  1.00  0.00     0.014 A 
ATOM     34  C   UNL A   1      34.582  31.562  28.291  1.00  0.00     0.014 A 
ATOM     35  C   UNL A   1      37.015  32.857  28.730  1.00  0.00     0.010 A 
ATOM     36  C   UNL A   1      35.628  30.882  28.896  1.00  0.00     0.010 A 
ATOM     37  C   UNL A   1      36.852  31.525  29.144  1.00  0.00    -0.014 A 
BRANCH  37  38
ATOM     38  C   UNL A   1      37.915  30.781  29.874  1.00  0.00     0.031 A 
ATOM     39  C   UNL A   1      38.144  31.054  31.337  1.00  0.00     0.074 A 
ATOM     40  C   UNL A   1      38.762  29.971  29.204  1.00  0.00     0.049 A 
ATOM     41  N   UNL A   1      39.146  30.699  32.100  1.00  0.00    -0.248 NA
ATOM     42  C   UNL A   1      37.144  31.895  32.014  1.00  0.00     0.031 C 
ATOM     43  C   UNL A   1      38.709  29.675  27.769  1.00  0.00     0.029 A 
ATOM     44  N   UNL A   1      39.852  29.260  29.642  1.00  0.00    -0.354 N 
ATOM     45  C   UNL A   1      38.928  31.326  33.320  1.00  0.00     0.074 A 
ATOM     46  C   UNL A   1      37.730  32.123  33.179  1.00  0.00     0.031 C 
ATOM     47  C   UNL A   1      39.691  28.814  27.457  1.00  0.00     0.029 A 
ATOM     48  C   UNL A   1      40.478  28.538  28.653  1.00  0.00     0.049 A 
ATOM     49  H   UNL A   1      40.158  29.267  30.578  1.00  0.00     0.167 HD
ATOM     50  C   UNL A   1      39.642  31.225  34.466  1.00  0.00     0.037 A 
ATOM     51  C   UNL A   1      41.568  27.749  28.703  1.00  0.00     0.037 A 
ATOM     52  C   UNL A   1      40.778  30.360  34.630  1.00  0.00     0.049 A 
ATOM     53  C   UNL A   1      42.293  27.582  30.008  1.00  0.00     0.074 A 
ATOM     54  C   UNL A   1      41.516  30.115  35.775  1.00  0.00     0.029 A 
ATOM     55  N   UNL A   1      41.323  29.577  33.624  1.00  0.00    -0.354 N 
ATOM     56  N   UNL A   1      42.048  28.146  31.166  1.00  0.00    -0.248 NA
ATOM     57  C   UNL A   1      43.446  26.669  30.016  1.00  0.00     0.031 C 
ATOM     58  C   UNL A   1      42.518  29.193  35.457  1.00  0.00     0.029 A 
ATOM     59  C   UNL A   1      42.385  28.844  34.122  1.00  0.00     0.049 A 
ATOM     60  H   UNL A   1      41.002  29.549  32.694  1.00  0.00     0.167 HD
ATOM     61  C   UNL A   1      42.993  27.634  32.044  1.00  0.00     0.074 A 
ATOM     62  C   UNL A   1      43.813  26.710  31.289  1.00  0.00     0.031 C 
ATOM     63  C   UNL A   1      43.168  27.908  33.359  1.00  0.00     0.037 A 
BRANCH  50  64
ATOM     64  C   UNL A   1      39.195  32.056  35.632  1.00  0.00     0.057 A 
ATOM     65  C   UNL A   1      39.609  33.384  35.795  1.00  0.00     0.134 A 
ATOM     66  C   UNL A   1      38.332  31.525  36.598  1.00  0.00     0.134 A 
ATOM     67  F   UNL A   1      40.449  33.948  34.912  1.00  0.00    -0.206 F 
ATOM     68  C   UNL A   1      39.213  34.143  36.897  1.00  0.00     0.040 A 
ATOM     69  C   UNL A   1      37.904  32.284  37.689  1.00  0.00     0.040 A 
ATOM     70  F   UNL A   1      37.891  30.262  36.500  1.00  0.00    -0.206 F 
ATOM     71  C   UNL A   1      38.353  33.594  37.846  1.00  0.00     0.006 A 
ENDBRANCH  50  64
BRANCH  51  72
ATOM     72  C   UNL A   1      42.019  27.021  27.490  1.00  0.00     0.057 A 
ATOM     73  C   UNL A   1      41.594  25.710  27.245  1.00  0.00     0.134 A 
ATOM     74  C   UNL A   1      42.880  27.605  26.555  1.00  0.00     0.134 A 
ATOM     75  F   UNL A   1      40.781  25.092  28.115  1.00  0.00    -0.206 F 
ATOM     76  C   UNL A   1      42.025  24.997  26.125  1.00  0.00     0.040 A 
ATOM     77  C   UNL A   1      43.303  26.912  25.419  1.00  0.00     0.040 A 
ATOM     78  F   UNL A   1      43.315  28.862  26.727  1.00  0.00    -0.206 F 
ATOM     79  C   UNL A   1      42.880  25.601  25.206  1.00  0.00     0.006 A 
ENDBRANCH  51  72
BRANCH  63  80
ATOM     80  C   UNL A   1      44.249  27.161  34.079  1.00  0.00     0.057 A 
ATOM     81  C   UNL A   1      44.022  25.905  34.651  1.00  0.00     0.134 A 
ATOM     82  C   UNL A   1      45.546  27.686  34.149  1.00  0.00     0.134 A 
ATOM     83  F   UNL A   1      42.798  25.357  34.627  1.00  0.00    -0.206 F 
ATOM     84  C   UNL A   1      45.048  25.198  35.279  1.00  0.00     0.040 A 
ATOM     85  C   UNL A   1      46.584  26.979  34.755  1.00  0.00     0.040 A 
ATOM     86  F   UNL A   1      45.827  28.883  33.613  1.00  0.00    -0.206 F 
ATOM     87  C   UNL A   1      46.336  25.732  35.325  1.00  0.00     0.006 A 
ENDBRANCH  63  80
ENDBRANCH  37  38
ENDBRANCH  29  32
ENDBRANCH  27  28
ENDBRANCH  26  27
ENDBRANCH   1  26
TORSDOF 16
ENDMDL
