MODEL 1
REMARK VINA RESULT:     -13.6      0.000      0.000
REMARK SMILES COc1ccc(N2C(=O)/C(=C/c3c(C(=O)NCCCNC(=O)c4ccc(-c5c6nc(c(-c7c(F)cccc7F)c7ccc([nH]7)c(-c7c(F)cccc7F)c7nc(c(-c8c(F)cccc8F)c8ccc5[nH]8)C=C7)C=C6)cc4)[nH]c4cc(OC)ccc34)SC2=S)cc1
REMARK SMILES IDX 17 1 16 2 14 3 15 4 13 6 12 7 85 8 77 9 78 10 84 11 79 13
REMARK SMILES IDX 83 14 80 15 11 16 7 17 8 18 87 19 9 20 10 21 86 22 88 23
REMARK SMILES IDX 6 24 3 25 4 26 90 27 5 28 89 29 2 30 1 31 81 32 82 33 18 34
REMARK SMILES IDX 19 35 20 36 21 37 22 39 23 40 24 41 76 42 25 43 75 44 26 45
REMARK SMILES IDX 27 46 28 47 69 48 29 49 74 50 68 51 70 52 30 53 73 54 67 55
REMARK SMILES IDX 66 56 31 58 57 59 40 60 56 61 41 62 44 63 55 64 71 65 42 66
REMARK SMILES IDX 43 67 54 69 72 70 45 71 32 72 33 73 38 74 34 75 35 76 37 77
REMARK SMILES IDX 39 78 36 79 58 80 59 81 64 82 60 83 61 84 63 85 65 86 62 87
REMARK SMILES IDX 46 88 47 89 52 90 48 91 49 92 51 93 53 94 50 95
REMARK H PARENT 16 5 77 12 20 38 70 57 44 68
REMARK Flexibility Score: inf
ROOT
ATOM      1  C   UNL A   1      33.976  28.593  25.741  1.00  0.00     0.118 C 
ENDROOT
BRANCH   1   2
ATOM      2  N   UNL A   1      34.394  28.636  24.350  1.00  0.00    -0.351 N 
ATOM      3  C   UNL A   1      33.591  28.585  23.234  1.00  0.00     0.268 C 
ATOM      4  O   UNL A   1      34.120  28.405  22.143  1.00  0.00    -0.268 OA
ATOM      5  H   UNL A   1      35.363  28.709  24.189  1.00  0.00     0.163 HD
BRANCH   3   6
ATOM      6  C   UNL A   1      32.159  28.634  23.403  1.00  0.00     0.112 A 
ATOM      7  C   UNL A   1      31.095  27.793  23.057  1.00  0.00     0.014 A 
ATOM      8  C   UNL A   1      29.923  28.660  23.043  1.00  0.00     0.008 A 
ATOM      9  N   UNL A   1      31.609  29.702  24.057  1.00  0.00    -0.350 N 
ATOM     10  C   UNL A   1      30.320  29.862  23.638  1.00  0.00     0.050 A 
ATOM     11  C   UNL A   1      28.587  28.628  22.559  1.00  0.00     0.015 A 
ATOM     12  H   UNL A   1      32.069  30.265  24.720  1.00  0.00     0.167 HD
ATOM     13  C   UNL A   1      29.528  31.008  23.730  1.00  0.00     0.073 A 
ATOM     14  C   UNL A   1      27.770  29.797  22.625  1.00  0.00     0.047 A 
ATOM     15  C   UNL A   1      28.250  30.977  23.189  1.00  0.00     0.120 A 
BRANCH   7  16
ATOM     16  C   UNL A   1      31.317  26.441  22.554  1.00  0.00     0.032 C 
ATOM     17  N   UNL A   1      31.868  23.283  24.273  1.00  0.00    -0.261 N 
ATOM     18  C   UNL A   1      31.902  24.026  23.081  1.00  0.00     0.270 C 
ATOM     19  C   UNL A   1      31.074  23.792  25.289  1.00  0.00     0.152 C 
ATOM     20  O   UNL A   1      32.603  23.829  22.098  1.00  0.00    -0.268 OA
ATOM     21  C   UNL A   1      31.088  25.296  23.249  1.00  0.00     0.081 C 
ATOM     22  S   UNL A   1      30.120  25.131  24.667  1.00  0.00    -0.054 SA
ATOM     23  S   UNL A   1      30.919  23.290  26.876  1.00  0.00    -0.051 S 
BRANCH  17  24
ATOM     24  C   UNL A   1      32.684  22.121  24.470  1.00  0.00     0.051 A 
ATOM     25  C   UNL A   1      34.348  19.829  24.627  1.00  0.00     0.119 A 
ATOM     26  C   UNL A   1      32.998  19.706  24.315  1.00  0.00     0.048 A 
ATOM     27  C   UNL A   1      34.884  21.105  24.798  1.00  0.00     0.048 A 
ATOM     28  C   UNL A   1      32.173  20.838  24.235  1.00  0.00     0.030 A 
ATOM     29  C   UNL A   1      34.054  22.245  24.734  1.00  0.00     0.030 A 
BRANCH  25  30
ATOM     30  O   UNL A   1      35.038  18.649  24.690  1.00  0.00    -0.497 OA
ATOM     31  C   UNL A   1      34.398  17.515  24.112  1.00  0.00     0.278 C 
ENDBRANCH  25  30
ENDBRANCH  17  24
ENDBRANCH   7  16
BRANCH  15  32
ATOM     32  O   UNL A   1      27.639  32.199  23.188  1.00  0.00    -0.497 OA
ATOM     33  C   UNL A   1      28.403  33.313  22.755  1.00  0.00     0.278 C 
ENDBRANCH  15  32
ENDBRANCH   3   6
ENDBRANCH   1   2
BRANCH   1  34
ATOM     34  C   UNL A   1      34.253  29.865  26.518  1.00  0.00     0.042 C 
BRANCH  34  35
ATOM     35  C   UNL A   1      33.115  30.266  27.446  1.00  0.00     0.118 C 
BRANCH  35  36
ATOM     36  N   UNL A   1      32.513  31.566  27.178  1.00  0.00    -0.352 N 
ATOM     37  C   UNL A   1      32.903  32.827  27.577  1.00  0.00     0.251 C 
ATOM     38  H   UNL A   1      31.700  31.540  26.623  1.00  0.00     0.163 HD
ATOM     39  O   UNL A   1      32.198  33.788  27.275  1.00  0.00    -0.269 OA
BRANCH  37  40
ATOM     40  C   UNL A   1      34.106  33.051  28.423  1.00  0.00     0.039 A 
ATOM     41  C   UNL A   1      34.028  32.688  29.774  1.00  0.00     0.014 A 
ATOM     42  C   UNL A   1      35.314  33.542  27.922  1.00  0.00     0.014 A 
ATOM     43  C   UNL A   1      35.186  32.619  30.545  1.00  0.00     0.010 A 
ATOM     44  C   UNL A   1      36.481  33.390  28.649  1.00  0.00     0.010 A 
ATOM     45  C   UNL A   1      36.426  32.849  29.934  1.00  0.00    -0.014 A 
BRANCH  45  46
ATOM     46  C   UNL A   1      37.667  32.281  30.496  1.00  0.00     0.031 A 
ATOM     47  C   UNL A   1      38.282  31.050  29.914  1.00  0.00     0.074 A 
ATOM     48  C   UNL A   1      38.103  32.817  31.654  1.00  0.00     0.049 A 
ATOM     49  N   UNL A   1      39.321  30.380  30.335  1.00  0.00    -0.248 NA
ATOM     50  C   UNL A   1      37.624  30.470  28.733  1.00  0.00     0.031 C 
ATOM     51  C   UNL A   1      37.464  33.940  32.358  1.00  0.00     0.029 A 
ATOM     52  N   UNL A   1      39.159  32.491  32.460  1.00  0.00    -0.354 N 
ATOM     53  C   UNL A   1      39.454  29.309  29.462  1.00  0.00     0.074 A 
ATOM     54  C   UNL A   1      38.347  29.376  28.534  1.00  0.00     0.031 C 
ATOM     55  C   UNL A   1      38.162  34.230  33.463  1.00  0.00     0.029 A 
ATOM     56  C   UNL A   1      39.271  33.296  33.571  1.00  0.00     0.049 A 
ATOM     57  H   UNL A   1      39.779  31.753  32.265  1.00  0.00     0.167 HD
ATOM     58  C   UNL A   1      40.435  28.377  29.434  1.00  0.00     0.037 A 
ATOM     59  C   UNL A   1      40.174  33.277  34.565  1.00  0.00     0.037 A 
ATOM     60  C   UNL A   1      41.509  28.335  30.393  1.00  0.00     0.049 A 
ATOM     61  C   UNL A   1      41.261  32.246  34.493  1.00  0.00     0.074 A 
ATOM     62  C   UNL A   1      42.586  27.471  30.452  1.00  0.00     0.029 A 
ATOM     63  N   UNL A   1      41.632  29.202  31.473  1.00  0.00    -0.354 N 
ATOM     64  N   UNL A   1      41.442  31.302  33.598  1.00  0.00    -0.248 NA
ATOM     65  C   UNL A   1      42.277  32.281  35.551  1.00  0.00     0.031 C 
ATOM     66  C   UNL A   1      43.340  27.791  31.587  1.00  0.00     0.029 A 
ATOM     67  C   UNL A   1      42.761  28.888  32.209  1.00  0.00     0.049 A 
ATOM     68  H   UNL A   1      41.006  29.934  31.684  1.00  0.00     0.167 HD
ATOM     69  C   UNL A   1      42.609  30.651  33.966  1.00  0.00     0.074 A 
ATOM     70  C   UNL A   1      43.101  31.323  35.153  1.00  0.00     0.031 C 
ATOM     71  C   UNL A   1      43.219  29.590  33.381  1.00  0.00     0.037 A 
BRANCH  58  72
ATOM     72  C   UNL A   1      40.403  27.362  28.327  1.00  0.00     0.057 A 
ATOM     73  C   UNL A   1      41.142  27.542  27.149  1.00  0.00     0.134 A 
ATOM     74  C   UNL A   1      39.667  26.177  28.447  1.00  0.00     0.134 A 
ATOM     75  F   UNL A   1      41.863  28.660  26.963  1.00  0.00    -0.206 F 
ATOM     76  C   UNL A   1      41.132  26.595  26.123  1.00  0.00     0.040 A 
ATOM     77  C   UNL A   1      39.671  25.208  27.439  1.00  0.00     0.040 A 
ATOM     78  F   UNL A   1      38.939  25.933  29.547  1.00  0.00    -0.206 F 
ATOM     79  C   UNL A   1      40.400  25.419  26.271  1.00  0.00     0.006 A 
ENDBRANCH  58  72
BRANCH  59  80
ATOM     80  C   UNL A   1      40.123  34.286  35.655  1.00  0.00     0.057 A 
ATOM     81  C   UNL A   1      39.397  34.042  36.827  1.00  0.00     0.134 A 
ATOM     82  C   UNL A   1      40.800  35.509  35.563  1.00  0.00     0.134 A 
ATOM     83  F   UNL A   1      38.727  32.889  36.977  1.00  0.00    -0.206 F 
ATOM     84  C   UNL A   1      39.315  34.986  37.851  1.00  0.00     0.040 A 
ATOM     85  C   UNL A   1      40.751  36.452  36.592  1.00  0.00     0.040 A 
ATOM     86  F   UNL A   1      41.535  35.798  34.480  1.00  0.00    -0.206 F 
ATOM     87  C   UNL A   1      39.997  36.197  37.736  1.00  0.00     0.006 A 
ENDBRANCH  59  80
BRANCH  71  88
ATOM     88  C   UNL A   1      44.502  29.133  34.007  1.00  0.00     0.057 A 
ATOM     89  C   UNL A   1      44.529  28.144  34.996  1.00  0.00     0.134 A 
ATOM     90  C   UNL A   1      45.723  29.678  33.594  1.00  0.00     0.134 A 
ATOM     91  F   UNL A   1      43.389  27.597  35.445  1.00  0.00    -0.206 F 
ATOM     92  C   UNL A   1      45.729  27.732  35.576  1.00  0.00     0.040 A 
ATOM     93  C   UNL A   1      46.931  29.253  34.143  1.00  0.00     0.040 A 
ATOM     94  F   UNL A   1      45.761  30.626  32.644  1.00  0.00    -0.206 F 
ATOM     95  C   UNL A   1      46.934  28.282  35.144  1.00  0.00     0.006 A 
ENDBRANCH  71  88
ENDBRANCH  45  46
ENDBRANCH  37  40
ENDBRANCH  35  36
ENDBRANCH  34  35
ENDBRANCH   1  34
TORSDOF 14
ENDMDL
MODEL 2
REMARK VINA RESULT:     -13.5      1.352      6.065
REMARK SMILES COc1ccc(N2C(=O)/C(=C/c3c(C(=O)NCCCNC(=O)c4ccc(-c5c6nc(c(-c7c(F)cccc7F)c7ccc([nH]7)c(-c7c(F)cccc7F)c7nc(c(-c8c(F)cccc8F)c8ccc5[nH]8)C=C7)C=C6)cc4)[nH]c4cc(OC)ccc34)SC2=S)cc1
REMARK SMILES IDX 17 1 16 2 14 3 15 4 13 6 12 7 85 8 77 9 78 10 84 11 79 13
REMARK SMILES IDX 83 14 80 15 11 16 7 17 8 18 87 19 9 20 10 21 86 22 88 23
REMARK SMILES IDX 6 24 3 25 4 26 90 27 5 28 89 29 2 30 1 31 81 32 82 33 18 34
REMARK SMILES IDX 19 35 20 36 21 37 22 39 23 40 24 41 76 42 25 43 75 44 26 45
REMARK SMILES IDX 27 46 28 47 69 48 29 49 74 50 68 51 70 52 30 53 73 54 67 55
REMARK SMILES IDX 66 56 31 58 57 59 40 60 56 61 41 62 44 63 55 64 71 65 42 66
REMARK SMILES IDX 43 67 54 69 72 70 45 71 32 72 33 73 38 74 34 75 35 76 37 77
REMARK SMILES IDX 39 78 36 79 58 80 59 81 64 82 60 83 61 84 63 85 65 86 62 87
REMARK SMILES IDX 46 88 47 89 52 90 48 91 49 92 51 93 53 94 50 95
REMARK H PARENT 16 5 77 12 20 38 70 57 44 68
REMARK Flexibility Score: inf
ROOT
ATOM      1  C   UNL A   1      33.332  27.960  26.403  1.00  0.00     0.118 C 
ENDROOT
BRANCH   1   2
ATOM      2  N   UNL A   1      34.002  28.376  25.182  1.00  0.00    -0.351 N 
ATOM      3  C   UNL A   1      33.421  28.669  23.969  1.00  0.00     0.268 C 
ATOM      4  O   UNL A   1      34.148  28.782  22.988  1.00  0.00    -0.268 OA
ATOM      5  H   UNL A   1      34.982  28.457  25.229  1.00  0.00     0.163 HD
BRANCH   3   6
ATOM      6  C   UNL A   1      31.982  28.718  23.879  1.00  0.00     0.112 A 
ATOM      7  C   UNL A   1      31.001  27.906  23.300  1.00  0.00     0.014 A 
ATOM      8  C   UNL A   1      29.848  28.782  23.122  1.00  0.00     0.008 A 
ATOM      9  N   UNL A   1      31.320  29.753  24.480  1.00  0.00    -0.350 N 
ATOM     10  C   UNL A   1      30.129  29.946  23.845  1.00  0.00     0.050 A 
ATOM     11  C   UNL A   1      28.622  28.787  22.403  1.00  0.00     0.015 A 
ATOM     12  H   UNL A   1      31.652  30.275  25.247  1.00  0.00     0.167 HD
ATOM     13  C   UNL A   1      29.330  31.091  23.856  1.00  0.00     0.073 A 
ATOM     14  C   UNL A   1      27.804  29.957  22.385  1.00  0.00     0.047 A 
ATOM     15  C   UNL A   1      28.171  31.100  23.092  1.00  0.00     0.120 A 
BRANCH   7  16
ATOM     16  C   UNL A   1      31.314  26.583  22.770  1.00  0.00     0.032 C 
ATOM     17  N   UNL A   1      32.541  23.562  24.385  1.00  0.00    -0.261 N 
ATOM     18  C   UNL A   1      32.285  24.276  23.201  1.00  0.00     0.270 C 
ATOM     19  C   UNL A   1      31.860  23.989  25.515  1.00  0.00     0.152 C 
ATOM     20  O   UNL A   1      32.839  24.148  22.117  1.00  0.00    -0.268 OA
ATOM     21  C   UNL A   1      31.351  25.434  23.495  1.00  0.00     0.081 C 
ATOM     22  S   UNL A   1      30.653  25.180  25.052  1.00  0.00    -0.054 SA
ATOM     23  S   UNL A   1      32.029  23.508  27.107  1.00  0.00    -0.051 S 
BRANCH  17  24
ATOM     24  C   UNL A   1      33.523  22.520  24.449  1.00  0.00     0.051 A 
ATOM     25  C   UNL A   1      35.445  20.466  24.814  1.00  0.00     0.119 A 
ATOM     26  C   UNL A   1      35.824  21.804  24.832  1.00  0.00     0.048 A 
ATOM     27  C   UNL A   1      34.093  20.154  24.676  1.00  0.00     0.048 A 
ATOM     28  C   UNL A   1      34.876  22.823  24.655  1.00  0.00     0.030 A 
ATOM     29  C   UNL A   1      33.138  21.175  24.481  1.00  0.00     0.030 A 
BRANCH  25  30
ATOM     30  O   UNL A   1      36.466  19.571  24.982  1.00  0.00    -0.497 OA
ATOM     31  C   UNL A   1      37.785  20.107  24.928  1.00  0.00     0.278 C 
ENDBRANCH  25  30
ENDBRANCH  17  24
ENDBRANCH   7  16
BRANCH  15  32
ATOM     32  O   UNL A   1      27.568  32.325  23.048  1.00  0.00    -0.497 OA
ATOM     33  C   UNL A   1      28.390  33.451  22.790  1.00  0.00     0.278 C 
ENDBRANCH  15  32
ENDBRANCH   3   6
ENDBRANCH   1   2
BRANCH   1  34
ATOM     34  C   UNL A   1      32.907  29.102  27.305  1.00  0.00     0.042 C 
BRANCH  34  35
ATOM     35  C   UNL A   1      33.727  30.369  27.103  1.00  0.00     0.118 C 
BRANCH  35  36
ATOM     36  N   UNL A   1      32.985  31.619  27.194  1.00  0.00    -0.352 N 
ATOM     37  C   UNL A   1      33.306  32.801  27.828  1.00  0.00     0.251 C 
ATOM     38  H   UNL A   1      32.117  31.620  26.729  1.00  0.00     0.163 HD
ATOM     39  O   UNL A   1      32.487  33.718  27.820  1.00  0.00    -0.269 OA
BRANCH  37  40
ATOM     40  C   UNL A   1      34.576  32.972  28.584  1.00  0.00     0.039 A 
ATOM     41  C   UNL A   1      34.600  32.550  29.920  1.00  0.00     0.014 A 
ATOM     42  C   UNL A   1      35.747  33.470  28.008  1.00  0.00     0.014 A 
ATOM     43  C   UNL A   1      35.815  32.434  30.591  1.00  0.00     0.010 A 
ATOM     44  C   UNL A   1      36.966  33.272  28.632  1.00  0.00     0.010 A 
ATOM     45  C   UNL A   1      37.005  32.675  29.892  1.00  0.00    -0.014 A 
BRANCH  45  46
ATOM     46  C   UNL A   1      38.278  32.067  30.328  1.00  0.00     0.031 A 
ATOM     47  C   UNL A   1      39.229  32.815  31.203  1.00  0.00     0.074 A 
ATOM     48  C   UNL A   1      38.611  30.893  29.752  1.00  0.00     0.049 A 
ATOM     49  N   UNL A   1      40.418  32.458  31.609  1.00  0.00    -0.248 NA
ATOM     50  C   UNL A   1      38.813  34.155  31.647  1.00  0.00     0.031 C 
ATOM     51  C   UNL A   1      37.786  30.169  28.773  1.00  0.00     0.029 A 
ATOM     52  N   UNL A   1      39.725  30.109  29.876  1.00  0.00    -0.354 N 
ATOM     53  C   UNL A   1      40.887  33.519  32.371  1.00  0.00     0.074 A 
ATOM     54  C   UNL A   1      39.887  34.563  32.309  1.00  0.00     0.031 C 
ATOM     55  C   UNL A   1      38.404  29.034  28.419  1.00  0.00     0.029 A 
ATOM     56  C   UNL A   1      39.681  28.967  29.111  1.00  0.00     0.049 A 
ATOM     57  H   UNL A   1      40.485  30.339  30.457  1.00  0.00     0.167 HD
ATOM     58  C   UNL A   1      42.041  33.590  33.077  1.00  0.00     0.037 A 
ATOM     59  C   UNL A   1      40.578  27.974  28.986  1.00  0.00     0.037 A 
ATOM     60  C   UNL A   1      43.019  32.533  33.093  1.00  0.00     0.049 A 
ATOM     61  C   UNL A   1      41.836  28.071  29.797  1.00  0.00     0.074 A 
ATOM     62  C   UNL A   1      44.206  32.461  33.797  1.00  0.00     0.029 A 
ATOM     63  N   UNL A   1      42.919  31.358  32.355  1.00  0.00    -0.354 N 
ATOM     64  N   UNL A   1      42.222  29.033  30.604  1.00  0.00    -0.248 NA
ATOM     65  C   UNL A   1      42.774  26.949  29.699  1.00  0.00     0.031 C 
ATOM     66  C   UNL A   1      44.842  31.262  33.458  1.00  0.00     0.029 A 
ATOM     67  C   UNL A   1      44.027  30.561  32.581  1.00  0.00     0.049 A 
ATOM     68  H   UNL A   1      42.169  31.127  31.759  1.00  0.00     0.167 HD
ATOM     69  C   UNL A   1      43.433  28.618  31.135  1.00  0.00     0.074 A 
ATOM     70  C   UNL A   1      43.703  27.308  30.572  1.00  0.00     0.031 C 
ATOM     71  C   UNL A   1      44.252  29.258  32.005  1.00  0.00     0.037 A 
BRANCH  58  72
ATOM     72  C   UNL A   1      42.282  34.824  33.898  1.00  0.00     0.057 A 
ATOM     73  C   UNL A   1      42.937  35.942  33.361  1.00  0.00     0.134 A 
ATOM     74  C   UNL A   1      41.823  34.922  35.217  1.00  0.00     0.134 A 
ATOM     75  F   UNL A   1      43.412  35.914  32.106  1.00  0.00    -0.206 F 
ATOM     76  C   UNL A   1      43.148  37.100  34.113  1.00  0.00     0.040 A 
ATOM     77  C   UNL A   1      42.003  36.085  35.970  1.00  0.00     0.040 A 
ATOM     78  F   UNL A   1      41.183  33.895  35.796  1.00  0.00    -0.206 F 
ATOM     79  C   UNL A   1      42.674  37.177  35.419  1.00  0.00     0.006 A 
ENDBRANCH  58  72
BRANCH  59  80
ATOM     80  C   UNL A   1      40.294  26.801  28.120  1.00  0.00     0.057 A 
ATOM     81  C   UNL A   1      40.861  26.693  26.845  1.00  0.00     0.134 A 
ATOM     82  C   UNL A   1      39.461  25.756  28.542  1.00  0.00     0.134 A 
ATOM     83  F   UNL A   1      41.667  27.660  26.383  1.00  0.00    -0.206 F 
ATOM     84  C   UNL A   1      40.586  25.611  26.007  1.00  0.00     0.040 A 
ATOM     85  C   UNL A   1      39.200  24.652  27.725  1.00  0.00     0.040 A 
ATOM     86  F   UNL A   1      38.905  25.781  29.761  1.00  0.00    -0.206 F 
ATOM     87  C   UNL A   1      39.754  24.584  26.448  1.00  0.00     0.006 A 
ENDBRANCH  59  80
BRANCH  71  88
ATOM     88  C   UNL A   1      45.490  28.521  32.419  1.00  0.00     0.057 A 
ATOM     89  C   UNL A   1      46.700  28.666  31.730  1.00  0.00     0.134 A 
ATOM     90  C   UNL A   1      45.469  27.676  33.533  1.00  0.00     0.134 A 
ATOM     91  F   UNL A   1      46.776  29.449  30.644  1.00  0.00    -0.206 F 
ATOM     92  C   UNL A   1      47.843  27.969  32.121  1.00  0.00     0.040 A 
ATOM     93  C   UNL A   1      46.613  26.998  33.952  1.00  0.00     0.040 A 
ATOM     94  F   UNL A   1      44.340  27.501  34.237  1.00  0.00    -0.206 F 
ATOM     95  C   UNL A   1      47.803  27.138  33.239  1.00  0.00     0.006 A 
ENDBRANCH  71  88
ENDBRANCH  45  46
ENDBRANCH  37  40
ENDBRANCH  35  36
ENDBRANCH  34  35
ENDBRANCH   1  34
TORSDOF 14
ENDMDL
MODEL 3
REMARK VINA RESULT:     -13.5      3.025      7.116
REMARK SMILES COc1ccc(N2C(=O)/C(=C/c3c(C(=O)NCCCNC(=O)c4ccc(-c5c6nc(c(-c7c(F)cccc7F)c7ccc([nH]7)c(-c7c(F)cccc7F)c7nc(c(-c8c(F)cccc8F)c8ccc5[nH]8)C=C7)C=C6)cc4)[nH]c4cc(OC)ccc34)SC2=S)cc1
REMARK SMILES IDX 17 1 16 2 14 3 15 4 13 6 12 7 85 8 77 9 78 10 84 11 79 13
REMARK SMILES IDX 83 14 80 15 11 16 7 17 8 18 87 19 9 20 10 21 86 22 88 23
REMARK SMILES IDX 6 24 3 25 4 26 90 27 5 28 89 29 2 30 1 31 81 32 82 33 18 34
REMARK SMILES IDX 19 35 20 36 21 37 22 39 23 40 24 41 76 42 25 43 75 44 26 45
REMARK SMILES IDX 27 46 28 47 69 48 29 49 74 50 68 51 70 52 30 53 73 54 67 55
REMARK SMILES IDX 66 56 31 58 57 59 40 60 56 61 41 62 44 63 55 64 71 65 42 66
REMARK SMILES IDX 43 67 54 69 72 70 45 71 32 72 33 73 38 74 34 75 35 76 37 77
REMARK SMILES IDX 39 78 36 79 58 80 59 81 64 82 60 83 61 84 63 85 65 86 62 87
REMARK SMILES IDX 46 88 47 89 52 90 48 91 49 92 51 93 53 94 50 95
REMARK H PARENT 16 5 77 12 20 38 70 57 44 68
REMARK Flexibility Score: inf
ROOT
ATOM      1  C   UNL A   1      33.398  27.901  26.362  1.00  0.00     0.118 C 
ENDROOT
BRANCH   1   2
ATOM      2  N   UNL A   1      34.053  28.359  25.148  1.00  0.00    -0.351 N 
ATOM      3  C   UNL A   1      33.459  28.685  23.950  1.00  0.00     0.268 C 
ATOM      4  O   UNL A   1      34.175  28.834  22.966  1.00  0.00    -0.268 OA
ATOM      5  H   UNL A   1      35.033  28.446  25.188  1.00  0.00     0.163 HD
BRANCH   3   6
ATOM      6  C   UNL A   1      32.019  28.727  23.875  1.00  0.00     0.112 A 
ATOM      7  C   UNL A   1      31.037  27.911  23.302  1.00  0.00     0.014 A 
ATOM      8  C   UNL A   1      29.877  28.781  23.140  1.00  0.00     0.008 A 
ATOM      9  N   UNL A   1      31.358  29.754  24.489  1.00  0.00    -0.350 N 
ATOM     10  C   UNL A   1      30.158  29.943  23.867  1.00  0.00     0.050 A 
ATOM     11  C   UNL A   1      28.644  28.782  22.434  1.00  0.00     0.015 A 
ATOM     12  H   UNL A   1      31.694  30.274  25.254  1.00  0.00     0.167 HD
ATOM     13  C   UNL A   1      29.353  31.083  23.892  1.00  0.00     0.073 A 
ATOM     14  C   UNL A   1      27.818  29.947  22.431  1.00  0.00     0.047 A 
ATOM     15  C   UNL A   1      28.186  31.089  23.140  1.00  0.00     0.120 A 
BRANCH   7  16
ATOM     16  C   UNL A   1      31.352  26.593  22.762  1.00  0.00     0.032 C 
ATOM     17  N   UNL A   1      32.531  23.545  24.363  1.00  0.00    -0.261 N 
ATOM     18  C   UNL A   1      32.302  24.275  23.183  1.00  0.00     0.270 C 
ATOM     19  C   UNL A   1      31.831  23.963  25.485  1.00  0.00     0.152 C 
ATOM     20  O   UNL A   1      32.875  24.156  22.109  1.00  0.00    -0.268 OA
ATOM     21  C   UNL A   1      31.368  25.435  23.474  1.00  0.00     0.081 C 
ATOM     22  S   UNL A   1      30.639  25.166  25.014  1.00  0.00    -0.054 SA
ATOM     23  S   UNL A   1      31.966  23.462  27.074  1.00  0.00    -0.051 S 
BRANCH  17  24
ATOM     24  C   UNL A   1      33.505  22.497  24.433  1.00  0.00     0.051 A 
ATOM     25  C   UNL A   1      35.427  20.445  24.810  1.00  0.00     0.119 A 
ATOM     26  C   UNL A   1      35.819  21.777  24.716  1.00  0.00     0.048 A 
ATOM     27  C   UNL A   1      34.066  20.143  24.779  1.00  0.00     0.048 A 
ATOM     28  C   UNL A   1      34.871  22.794  24.533  1.00  0.00     0.030 A 
ATOM     29  C   UNL A   1      33.111  21.162  24.578  1.00  0.00     0.030 A 
BRANCH  25  30
ATOM     30  O   UNL A   1      36.450  19.550  24.971  1.00  0.00    -0.497 OA
ATOM     31  C   UNL A   1      37.768  20.087  24.927  1.00  0.00     0.278 C 
ENDBRANCH  25  30
ENDBRANCH  17  24
ENDBRANCH   7  16
BRANCH  15  32
ATOM     32  O   UNL A   1      27.575  32.311  23.108  1.00  0.00    -0.497 OA
ATOM     33  C   UNL A   1      28.374  33.434  22.776  1.00  0.00     0.278 C 
ENDBRANCH  15  32
ENDBRANCH   3   6
ENDBRANCH   1   2
BRANCH   1  34
ATOM     34  C   UNL A   1      33.253  28.962  27.434  1.00  0.00     0.042 C 
BRANCH  34  35
ATOM     35  C   UNL A   1      33.824  30.314  27.028  1.00  0.00     0.118 C 
BRANCH  35  36
ATOM     36  N   UNL A   1      34.111  31.229  28.124  1.00  0.00    -0.352 N 
ATOM     37  C   UNL A   1      35.169  31.255  29.010  1.00  0.00     0.251 C 
ATOM     38  H   UNL A   1      33.445  31.942  28.254  1.00  0.00     0.163 HD
ATOM     39  O   UNL A   1      35.171  32.099  29.903  1.00  0.00    -0.269 OA
BRANCH  37  40
ATOM     40  C   UNL A   1      36.264  30.249  28.962  1.00  0.00     0.039 A 
ATOM     41  C   UNL A   1      37.039  30.187  27.797  1.00  0.00     0.014 A 
ATOM     42  C   UNL A   1      36.588  29.421  30.038  1.00  0.00     0.014 A 
ATOM     43  C   UNL A   1      38.231  29.468  27.792  1.00  0.00     0.010 A 
ATOM     44  C   UNL A   1      37.814  28.779  30.076  1.00  0.00     0.010 A 
ATOM     45  C   UNL A   1      38.673  28.872  28.981  1.00  0.00    -0.014 A 
BRANCH  45  46
ATOM     46  C   UNL A   1      40.105  28.591  29.204  1.00  0.00     0.031 A 
ATOM     47  C   UNL A   1      41.023  29.642  29.738  1.00  0.00     0.074 A 
ATOM     48  C   UNL A   1      40.567  27.413  28.733  1.00  0.00     0.049 A 
ATOM     49  N   UNL A   1      42.315  29.583  29.917  1.00  0.00    -0.248 NA
ATOM     50  C   UNL A   1      40.422  30.942  30.077  1.00  0.00     0.031 C 
ATOM     51  C   UNL A   1      39.745  26.390  28.069  1.00  0.00     0.029 A 
ATOM     52  N   UNL A   1      41.825  26.878  28.715  1.00  0.00    -0.354 N 
ATOM     53  C   UNL A   1      42.682  30.829  30.405  1.00  0.00     0.074 A 
ATOM     54  C   UNL A   1      41.489  31.647  30.424  1.00  0.00     0.031 C 
ATOM     55  C   UNL A   1      40.513  25.342  27.745  1.00  0.00     0.029 A 
ATOM     56  C   UNL A   1      41.883  25.629  28.140  1.00  0.00     0.049 A 
ATOM     57  H   UNL A   1      42.614  27.341  29.077  1.00  0.00     0.167 HD
ATOM     58  C   UNL A   1      43.906  31.230  30.823  1.00  0.00     0.037 A 
ATOM     59  C   UNL A   1      42.930  24.809  27.956  1.00  0.00     0.037 A 
ATOM     60  C   UNL A   1      45.072  30.388  30.766  1.00  0.00     0.049 A 
ATOM     61  C   UNL A   1      44.268  25.274  28.450  1.00  0.00     0.074 A 
ATOM     62  C   UNL A   1      46.358  30.657  31.195  1.00  0.00     0.029 A 
ATOM     63  N   UNL A   1      45.088  29.103  30.236  1.00  0.00    -0.354 N 
ATOM     64  N   UNL A   1      44.585  26.416  29.013  1.00  0.00    -0.248 NA
ATOM     65  C   UNL A   1      45.389  24.340  28.300  1.00  0.00     0.031 C 
ATOM     66  C   UNL A   1      47.159  29.552  30.890  1.00  0.00     0.029 A 
ATOM     67  C   UNL A   1      46.363  28.571  30.317  1.00  0.00     0.049 A 
ATOM     68  H   UNL A   1      44.306  28.638  29.857  1.00  0.00     0.167 HD
ATOM     69  C   UNL A   1      45.935  26.327  29.316  1.00  0.00     0.074 A 
ATOM     70  C   UNL A   1      46.368  25.010  28.890  1.00  0.00     0.031 C 
ATOM     71  C   UNL A   1      46.748  27.249  29.888  1.00  0.00     0.037 A 
BRANCH  58  72
ATOM     72  C   UNL A   1      44.029  32.613  31.396  1.00  0.00     0.057 A 
ATOM     73  C   UNL A   1      43.909  32.846  32.774  1.00  0.00     0.134 A 
ATOM     74  C   UNL A   1      44.310  33.717  30.581  1.00  0.00     0.134 A 
ATOM     75  F   UNL A   1      43.630  31.836  33.613  1.00  0.00    -0.206 F 
ATOM     76  C   UNL A   1      44.041  34.127  33.317  1.00  0.00     0.040 A 
ATOM     77  C   UNL A   1      44.472  34.998  31.115  1.00  0.00     0.040 A 
ATOM     78  F   UNL A   1      44.443  33.570  29.255  1.00  0.00    -0.206 F 
ATOM     79  C   UNL A   1      44.331  35.206  32.487  1.00  0.00     0.006 A 
ENDBRANCH  58  72
BRANCH  59  80
ATOM     80  C   UNL A   1      42.745  23.469  27.342  1.00  0.00     0.057 A 
ATOM     81  C   UNL A   1      42.366  22.368  28.119  1.00  0.00     0.134 A 
ATOM     82  C   UNL A   1      42.929  23.252  25.971  1.00  0.00     0.134 A 
ATOM     83  F   UNL A   1      42.174  22.509  29.439  1.00  0.00    -0.206 F 
ATOM     84  C   UNL A   1      42.212  21.095  27.567  1.00  0.00     0.040 A 
ATOM     85  C   UNL A   1      42.750  21.990  25.398  1.00  0.00     0.040 A 
ATOM     86  F   UNL A   1      43.267  24.266  25.163  1.00  0.00    -0.206 F 
ATOM     87  C   UNL A   1      42.402  20.904  26.199  1.00  0.00     0.006 A 
ENDBRANCH  59  80
BRANCH  71  88
ATOM     88  C   UNL A   1      48.170  26.833  30.115  1.00  0.00     0.057 A 
ATOM     89  C   UNL A   1      49.177  27.111  29.184  1.00  0.00     0.134 A 
ATOM     90  C   UNL A   1      48.531  26.167  31.291  1.00  0.00     0.134 A 
ATOM     91  F   UNL A   1      48.888  27.732  28.031  1.00  0.00    -0.206 F 
ATOM     92  C   UNL A   1      50.496  26.712  29.404  1.00  0.00     0.040 A 
ATOM     93  C   UNL A   1      49.851  25.790  31.536  1.00  0.00     0.040 A 
ATOM     94  F   UNL A   1      47.611  25.878  32.224  1.00  0.00    -0.206 F 
ATOM     95  C   UNL A   1      50.836  26.056  30.586  1.00  0.00     0.006 A 
ENDBRANCH  71  88
ENDBRANCH  45  46
ENDBRANCH  37  40
ENDBRANCH  35  36
ENDBRANCH  34  35
ENDBRANCH   1  34
TORSDOF 14
ENDMDL
