MODEL 1
REMARK VINA RESULT:     -12.0      0.000      0.000
REMARK SMILES Cc1ccc(C(=O)N[C@@H]2C=C[C@H](C(=O)NCCCNC(=O)c3ccc(-c4c5nc(c(-c6c(F)cccc6F)c6ccc([nH]6)c(-c6c(F)cccc6F)c6nc(c(-c7c(F)cccc7F)c7ccc4[nH]7)C=C6)C=C5)cc3)C2)c(F)c1
REMARK SMILES IDX 17 1 16 2 15 3 13 4 14 5 12 7 9 8 10 9 76 10 11 11 8 12 6 13
REMARK SMILES IDX 7 14 5 16 1 17 2 18 3 19 79 20 4 21 77 22 78 23 18 24 19 25
REMARK SMILES IDX 20 26 21 28 22 29 23 30 75 31 24 32 74 33 25 34 26 35 27 36
REMARK SMILES IDX 68 37 28 38 73 39 67 40 69 41 29 42 72 43 66 44 65 45 30 47
REMARK SMILES IDX 56 48 39 49 55 50 40 51 43 52 54 53 70 54 41 55 42 56 53 58
REMARK SMILES IDX 71 59 44 60 31 61 32 62 37 63 33 64 34 65 36 66 38 67 35 68
REMARK SMILES IDX 57 69 58 70 63 71 59 72 60 73 62 74 64 75 61 76 45 77 46 78
REMARK SMILES IDX 51 79 47 80 48 81 50 82 52 83 49 84
REMARK H PARENT 15 6 8 15 19 27 69 46 43 57
REMARK Flexibility Score: inf
ROOT
ATOM      1  C   UNL A   1      38.092  19.857  24.934  1.00  0.00     0.042 C 
ENDROOT
BRANCH   1   2
ATOM      2  C   UNL A   1      37.339  21.127  24.555  1.00  0.00     0.117 C 
BRANCH   2   3
ATOM      3  N   UNL A   1      35.919  21.060  24.849  1.00  0.00    -0.356 N 
ATOM      4  C   UNL A   1      34.920  21.929  24.504  1.00  0.00     0.227 C 
ATOM      5  O   UNL A   1      33.759  21.590  24.732  1.00  0.00    -0.274 OA
ATOM      6  H   UNL A   1      35.633  20.276  25.372  1.00  0.00     0.163 HD
BRANCH   4   7
ATOM      7  C   UNL A   1      35.297  23.296  23.931  1.00  0.00     0.103 C 
ATOM      8  C   UNL A   1      34.207  25.241  25.009  1.00  0.00     0.106 C 
ATOM      9  C   UNL A   1      33.678  24.972  23.632  1.00  0.00    -0.006 C 
ATOM     10  C   UNL A   1      35.420  24.298  25.081  1.00  0.00     0.047 C 
ATOM     11  C   UNL A   1      34.251  23.907  23.060  1.00  0.00    -0.016 C 
BRANCH   8  12
ATOM     12  N   UNL A   1      33.107  25.049  25.938  1.00  0.00    -0.346 N 
ATOM     13  C   UNL A   1      32.077  25.859  26.350  1.00  0.00     0.254 C 
ATOM     14  O   UNL A   1      31.091  25.357  26.882  1.00  0.00    -0.269 OA
ATOM     15  H   UNL A   1      33.099  24.159  26.357  1.00  0.00     0.164 HD
BRANCH  13  16
ATOM     16  C   UNL A   1      32.184  27.323  26.254  1.00  0.00     0.075 A 
ATOM     17  C   UNL A   1      31.434  31.548  26.295  1.00  0.00     0.044 C 
ATOM     18  C   UNL A   1      31.794  30.093  26.235  1.00  0.00    -0.048 A 
ATOM     19  C   UNL A   1      32.512  29.487  27.275  1.00  0.00     0.004 A 
ATOM     20  C   UNL A   1      31.411  29.321  25.133  1.00  0.00     0.043 A 
ATOM     21  C   UNL A   1      32.732  28.105  27.275  1.00  0.00     0.017 A 
ATOM     22  C   UNL A   1      31.596  27.943  25.152  1.00  0.00     0.136 A 
ATOM     23  F   UNL A   1      31.125  27.230  24.119  1.00  0.00    -0.206 F 
ENDBRANCH  13  16
ENDBRANCH   8  12
ENDBRANCH   4   7
ENDBRANCH   2   3
ENDBRANCH   1   2
BRANCH   1  24
ATOM     24  C   UNL A   1      39.109  20.015  26.058  1.00  0.00     0.118 C 
BRANCH  24  25
ATOM     25  N   UNL A   1      40.309  19.216  25.864  1.00  0.00    -0.352 N 
ATOM     26  C   UNL A   1      41.635  19.559  25.978  1.00  0.00     0.251 C 
ATOM     27  H   UNL A   1      40.145  18.279  25.611  1.00  0.00     0.163 HD
ATOM     28  O   UNL A   1      42.499  18.772  25.609  1.00  0.00    -0.269 OA
BRANCH  26  29
ATOM     29  C   UNL A   1      42.029  20.881  26.515  1.00  0.00     0.039 A 
ATOM     30  C   UNL A   1      42.412  21.884  25.621  1.00  0.00     0.014 A 
ATOM     31  C   UNL A   1      42.044  21.131  27.889  1.00  0.00     0.014 A 
ATOM     32  C   UNL A   1      42.735  23.157  26.100  1.00  0.00     0.010 A 
ATOM     33  C   UNL A   1      42.281  22.420  28.357  1.00  0.00     0.010 A 
ATOM     34  C   UNL A   1      42.631  23.447  27.469  1.00  0.00    -0.014 A 
BRANCH  34  35
ATOM     35  C   UNL A   1      42.884  24.815  27.993  1.00  0.00     0.031 A 
ATOM     36  C   UNL A   1      44.270  25.220  28.418  1.00  0.00     0.074 A 
ATOM     37  C   UNL A   1      41.855  25.669  28.155  1.00  0.00     0.049 A 
ATOM     38  N   UNL A   1      44.673  26.335  28.973  1.00  0.00    -0.248 NA
ATOM     39  C   UNL A   1      45.340  24.230  28.217  1.00  0.00     0.031 C 
ATOM     40  C   UNL A   1      40.458  25.387  27.818  1.00  0.00     0.029 A 
ATOM     41  N   UNL A   1      41.822  26.948  28.654  1.00  0.00    -0.354 N 
ATOM     42  C   UNL A   1      46.033  26.172  29.204  1.00  0.00     0.074 A 
ATOM     43  C   UNL A   1      46.377  24.834  28.777  1.00  0.00     0.031 C 
ATOM     44  C   UNL A   1      39.711  26.468  28.093  1.00  0.00     0.029 A 
ATOM     45  C   UNL A   1      40.564  27.502  28.669  1.00  0.00     0.049 A 
ATOM     46  H   UNL A   1      42.623  27.423  28.970  1.00  0.00     0.167 HD
ATOM     47  C   UNL A   1      46.920  27.065  29.705  1.00  0.00     0.037 A 
ATOM     48  C   UNL A   1      40.144  28.704  29.108  1.00  0.00     0.037 A 
ATOM     49  C   UNL A   1      46.579  28.405  30.107  1.00  0.00     0.049 A 
ATOM     50  C   UNL A   1      41.145  29.669  29.682  1.00  0.00     0.074 A 
ATOM     51  C   UNL A   1      47.418  29.406  30.567  1.00  0.00     0.029 A 
ATOM     52  N   UNL A   1      45.295  28.929  30.104  1.00  0.00    -0.354 N 
ATOM     53  N   UNL A   1      42.440  29.527  29.830  1.00  0.00    -0.248 NA
ATOM     54  C   UNL A   1      40.626  30.961  30.151  1.00  0.00     0.031 C 
ATOM     55  C   UNL A   1      46.633  30.515  30.897  1.00  0.00     0.029 A 
ATOM     56  C   UNL A   1      45.315  30.229  30.583  1.00  0.00     0.049 A 
ATOM     57  H   UNL A   1      44.490  28.449  29.805  1.00  0.00     0.167 HD
ATOM     58  C   UNL A   1      42.895  30.723  30.372  1.00  0.00     0.074 A 
ATOM     59  C   UNL A   1      41.738  31.582  30.517  1.00  0.00     0.031 C 
ATOM     60  C   UNL A   1      44.158  31.079  30.713  1.00  0.00     0.037 A 
BRANCH  47  61
ATOM     61  C   UNL A   1      48.346  26.619  29.855  1.00  0.00     0.057 A 
ATOM     62  C   UNL A   1      48.791  25.912  30.980  1.00  0.00     0.134 A 
ATOM     63  C   UNL A   1      49.282  26.870  28.843  1.00  0.00     0.134 A 
ATOM     64  F   UNL A   1      47.950  25.647  31.993  1.00  0.00    -0.206 F 
ATOM     65  C   UNL A   1      50.117  25.497  31.107  1.00  0.00     0.040 A 
ATOM     66  C   UNL A   1      50.604  26.432  28.944  1.00  0.00     0.040 A 
ATOM     67  F   UNL A   1      48.924  27.535  27.733  1.00  0.00    -0.206 F 
ATOM     68  C   UNL A   1      51.027  25.751  30.082  1.00  0.00     0.006 A 
ENDBRANCH  47  61
BRANCH  48  69
ATOM     69  C   UNL A   1      38.710  29.078  29.001  1.00  0.00     0.057 A 
ATOM     70  C   UNL A   1      38.178  29.554  27.796  1.00  0.00     0.134 A 
ATOM     71  C   UNL A   1      37.841  28.985  30.095  1.00  0.00     0.134 A 
ATOM     72  F   UNL A   1      38.963  29.684  26.717  1.00  0.00    -0.206 F 
ATOM     73  C   UNL A   1      36.843  29.947  27.689  1.00  0.00     0.040 A 
ATOM     74  C   UNL A   1      36.498  29.347  29.995  1.00  0.00     0.040 A 
ATOM     75  F   UNL A   1      38.285  28.527  31.275  1.00  0.00    -0.206 F 
ATOM     76  C   UNL A   1      35.996  29.839  28.791  1.00  0.00     0.006 A 
ENDBRANCH  48  69
BRANCH  60  77
ATOM     77  C   UNL A   1      44.367  32.472  31.233  1.00  0.00     0.057 A 
ATOM     78  C   UNL A   1      44.342  32.768  32.602  1.00  0.00     0.134 A 
ATOM     79  C   UNL A   1      44.641  33.525  30.349  1.00  0.00     0.134 A 
ATOM     80  F   UNL A   1      44.073  31.808  33.500  1.00  0.00    -0.206 F 
ATOM     81  C   UNL A   1      44.561  34.064  33.072  1.00  0.00     0.040 A 
ATOM     82  C   UNL A   1      44.891  34.818  30.810  1.00  0.00     0.040 A 
ATOM     83  F   UNL A   1      44.688  33.310  29.026  1.00  0.00    -0.206 F 
ATOM     84  C   UNL A   1      44.844  35.092  32.175  1.00  0.00     0.006 A 
ENDBRANCH  60  77
ENDBRANCH  34  35
ENDBRANCH  26  29
ENDBRANCH  24  25
ENDBRANCH   1  24
TORSDOF 12
ENDMDL
MODEL 2
REMARK VINA RESULT:     -11.9      3.842      9.594
REMARK SMILES Cc1ccc(C(=O)N[C@@H]2C=C[C@H](C(=O)NCCCNC(=O)c3ccc(-c4c5nc(c(-c6c(F)cccc6F)c6ccc([nH]6)c(-c6c(F)cccc6F)c6nc(c(-c7c(F)cccc7F)c7ccc4[nH]7)C=C6)C=C5)cc3)C2)c(F)c1
REMARK SMILES IDX 17 1 16 2 15 3 13 4 14 5 12 7 9 8 10 9 76 10 11 11 8 12 6 13
REMARK SMILES IDX 7 14 5 16 1 17 2 18 3 19 79 20 4 21 77 22 78 23 18 24 19 25
REMARK SMILES IDX 20 26 21 28 22 29 23 30 75 31 24 32 74 33 25 34 26 35 27 36
REMARK SMILES IDX 68 37 28 38 73 39 67 40 69 41 29 42 72 43 66 44 65 45 30 47
REMARK SMILES IDX 56 48 39 49 55 50 40 51 43 52 54 53 70 54 41 55 42 56 53 58
REMARK SMILES IDX 71 59 44 60 31 61 32 62 37 63 33 64 34 65 36 66 38 67 35 68
REMARK SMILES IDX 57 69 58 70 63 71 59 72 60 73 62 74 64 75 61 76 45 77 46 78
REMARK SMILES IDX 51 79 47 80 48 81 50 82 52 83 49 84
REMARK H PARENT 15 6 8 15 19 27 69 46 43 57
REMARK Flexibility Score: inf
ROOT
ATOM      1  C   UNL A   1      33.692  33.722  28.745  1.00  0.00     0.042 C 
ENDROOT
BRANCH   1   2
ATOM      2  C   UNL A   1      33.992  34.611  29.947  1.00  0.00     0.117 C 
BRANCH   2   3
ATOM      3  N   UNL A   1      33.997  33.888  31.207  1.00  0.00    -0.356 N 
ATOM      4  C   UNL A   1      35.042  33.618  32.046  1.00  0.00     0.227 C 
ATOM      5  O   UNL A   1      34.785  33.119  33.142  1.00  0.00    -0.274 OA
ATOM      6  H   UNL A   1      33.122  33.545  31.498  1.00  0.00     0.163 HD
BRANCH   4   7
ATOM      7  C   UNL A   1      36.468  33.874  31.555  1.00  0.00     0.103 C 
ATOM      8  C   UNL A   1      38.207  32.395  32.517  1.00  0.00     0.106 C 
ATOM      9  C   UNL A   1      38.290  33.798  33.037  1.00  0.00    -0.006 C 
ATOM     10  C   UNL A   1      37.179  32.530  31.381  1.00  0.00     0.047 C 
ATOM     11  C   UNL A   1      37.336  34.590  32.534  1.00  0.00    -0.016 C 
BRANCH   8  12
ATOM     12  N   UNL A   1      37.901  31.535  33.646  1.00  0.00    -0.346 N 
ATOM     13  C   UNL A   1      38.624  30.579  34.318  1.00  0.00     0.254 C 
ATOM     14  O   UNL A   1      38.268  30.231  35.441  1.00  0.00    -0.269 OA
ATOM     15  H   UNL A   1      36.993  31.662  34.002  1.00  0.00     0.164 HD
BRANCH  13  16
ATOM     16  C   UNL A   1      39.754  29.894  33.670  1.00  0.00     0.075 A 
ATOM     17  C   UNL A   1      43.199  27.487  32.803  1.00  0.00     0.044 C 
ATOM     18  C   UNL A   1      42.004  28.370  33.004  1.00  0.00    -0.048 A 
ATOM     19  C   UNL A   1      40.723  27.945  32.623  1.00  0.00     0.004 A 
ATOM     20  C   UNL A   1      42.157  29.635  33.582  1.00  0.00     0.043 A 
ATOM     21  C   UNL A   1      39.597  28.718  32.932  1.00  0.00     0.017 A 
ATOM     22  C   UNL A   1      41.035  30.384  33.922  1.00  0.00     0.136 A 
ATOM     23  F   UNL A   1      41.225  31.546  34.563  1.00  0.00    -0.206 F 
ENDBRANCH  13  16
ENDBRANCH   8  12
ENDBRANCH   4   7
ENDBRANCH   2   3
ENDBRANCH   1   2
BRANCH   1  24
ATOM     24  C   UNL A   1      34.686  32.591  28.511  1.00  0.00     0.118 C 
BRANCH  24  25
ATOM     25  N   UNL A   1      34.048  31.321  28.198  1.00  0.00    -0.352 N 
ATOM     26  C   UNL A   1      34.593  30.073  28.008  1.00  0.00     0.251 C 
ATOM     27  H   UNL A   1      33.068  31.362  28.107  1.00  0.00     0.163 HD
ATOM     28  O   UNL A   1      33.890  29.162  27.588  1.00  0.00    -0.269 OA
BRANCH  26  29
ATOM     29  C   UNL A   1      36.027  29.828  28.279  1.00  0.00     0.039 A 
ATOM     30  C   UNL A   1      36.404  29.363  29.541  1.00  0.00     0.014 A 
ATOM     31  C   UNL A   1      37.002  30.073  27.308  1.00  0.00     0.014 A 
ATOM     32  C   UNL A   1      37.746  29.071  29.804  1.00  0.00     0.010 A 
ATOM     33  C   UNL A   1      38.322  29.701  27.542  1.00  0.00     0.010 A 
ATOM     34  C   UNL A   1      38.710  29.198  28.792  1.00  0.00    -0.014 A 
BRANCH  34  35
ATOM     35  C   UNL A   1      40.128  28.811  29.020  1.00  0.00     0.031 A 
ATOM     36  C   UNL A   1      41.095  29.796  29.619  1.00  0.00     0.074 A 
ATOM     37  C   UNL A   1      40.561  27.600  28.621  1.00  0.00     0.049 A 
ATOM     38  N   UNL A   1      42.383  29.674  29.818  1.00  0.00    -0.248 NA
ATOM     39  C   UNL A   1      40.547  31.101  30.023  1.00  0.00     0.031 C 
ATOM     40  C   UNL A   1      39.735  26.568  27.992  1.00  0.00     0.029 A 
ATOM     41  N   UNL A   1      41.811  27.034  28.676  1.00  0.00    -0.354 N 
ATOM     42  C   UNL A   1      42.800  30.888  30.351  1.00  0.00     0.074 A 
ATOM     43  C   UNL A   1      41.640  31.750  30.394  1.00  0.00     0.031 C 
ATOM     44  C   UNL A   1      40.491  25.486  27.746  1.00  0.00     0.029 A 
ATOM     45  C   UNL A   1      41.864  25.763  28.154  1.00  0.00     0.049 A 
ATOM     46  H   UNL A   1      42.595  27.493  29.054  1.00  0.00     0.167 HD
ATOM     47  C   UNL A   1      44.033  31.245  30.783  1.00  0.00     0.037 A 
ATOM     48  C   UNL A   1      42.905  24.920  28.011  1.00  0.00     0.037 A 
ATOM     49  C   UNL A   1      45.181  30.375  30.760  1.00  0.00     0.049 A 
ATOM     50  C   UNL A   1      44.269  25.349  28.478  1.00  0.00     0.074 A 
ATOM     51  C   UNL A   1      46.457  30.622  31.235  1.00  0.00     0.029 A 
ATOM     52  N   UNL A   1      45.193  29.095  30.227  1.00  0.00    -0.354 N 
ATOM     53  N   UNL A   1      44.634  26.474  29.042  1.00  0.00    -0.248 NA
ATOM     54  C   UNL A   1      45.366  24.390  28.288  1.00  0.00     0.031 C 
ATOM     55  C   UNL A   1      47.256  29.514  30.936  1.00  0.00     0.029 A 
ATOM     56  C   UNL A   1      46.462  28.552  30.333  1.00  0.00     0.049 A 
ATOM     57  H   UNL A   1      44.415  28.641  29.832  1.00  0.00     0.167 HD
ATOM     58  C   UNL A   1      45.992  26.343  29.310  1.00  0.00     0.074 A 
ATOM     59  C   UNL A   1      46.382  25.026  28.853  1.00  0.00     0.031 C 
ATOM     60  C   UNL A   1      46.837  27.234  29.885  1.00  0.00     0.037 A 
BRANCH  47  61
ATOM     61  C   UNL A   1      44.208  32.639  31.314  1.00  0.00     0.057 A 
ATOM     62  C   UNL A   1      44.205  32.918  32.687  1.00  0.00     0.134 A 
ATOM     63  C   UNL A   1      44.416  33.714  30.439  1.00  0.00     0.134 A 
ATOM     64  F   UNL A   1      44.001  31.938  33.580  1.00  0.00    -0.206 F 
ATOM     65  C   UNL A   1      44.374  34.217  33.170  1.00  0.00     0.040 A 
ATOM     66  C   UNL A   1      44.617  35.013  30.911  1.00  0.00     0.040 A 
ATOM     67  F   UNL A   1      44.438  33.518  29.111  1.00  0.00    -0.206 F 
ATOM     68  C   UNL A   1      44.588  35.268  32.279  1.00  0.00     0.006 A 
ENDBRANCH  47  61
BRANCH  48  69
ATOM     69  C   UNL A   1      42.698  23.573  27.418  1.00  0.00     0.057 A 
ATOM     70  C   UNL A   1      42.808  23.370  26.038  1.00  0.00     0.134 A 
ATOM     71  C   UNL A   1      42.371  22.464  28.208  1.00  0.00     0.134 A 
ATOM     72  F   UNL A   1      43.100  24.396  25.225  1.00  0.00    -0.206 F 
ATOM     73  C   UNL A   1      42.578  22.120  25.461  1.00  0.00     0.040 A 
ATOM     74  C   UNL A   1      42.166  21.203  27.648  1.00  0.00     0.040 A 
ATOM     75  F   UNL A   1      42.260  22.589  29.539  1.00  0.00    -0.206 F 
ATOM     76  C   UNL A   1      42.261  21.029  26.269  1.00  0.00     0.006 A 
ENDBRANCH  48  69
BRANCH  60  77
ATOM     77  C   UNL A   1      48.257  26.798  30.100  1.00  0.00     0.057 A 
ATOM     78  C   UNL A   1      49.278  27.110  29.192  1.00  0.00     0.134 A 
ATOM     79  C   UNL A   1      48.616  26.094  31.258  1.00  0.00     0.134 A 
ATOM     80  F   UNL A   1      49.000  27.770  28.058  1.00  0.00    -0.206 F 
ATOM     81  C   UNL A   1      50.599  26.717  29.416  1.00  0.00     0.040 A 
ATOM     82  C   UNL A   1      49.938  25.723  31.507  1.00  0.00     0.040 A 
ATOM     83  F   UNL A   1      47.691  25.771  32.173  1.00  0.00    -0.206 F 
ATOM     84  C   UNL A   1      50.933  26.029  30.581  1.00  0.00     0.006 A 
ENDBRANCH  60  77
ENDBRANCH  34  35
ENDBRANCH  26  29
ENDBRANCH  24  25
ENDBRANCH   1  24
TORSDOF 12
ENDMDL
MODEL 3
REMARK VINA RESULT:     -11.8      1.254      1.946
REMARK SMILES Cc1ccc(C(=O)N[C@@H]2C=C[C@H](C(=O)NCCCNC(=O)c3ccc(-c4c5nc(c(-c6c(F)cccc6F)c6ccc([nH]6)c(-c6c(F)cccc6F)c6nc(c(-c7c(F)cccc7F)c7ccc4[nH]7)C=C6)C=C5)cc3)C2)c(F)c1
REMARK SMILES IDX 17 1 16 2 15 3 13 4 14 5 12 7 9 8 10 9 76 10 11 11 8 12 6 13
REMARK SMILES IDX 7 14 5 16 1 17 2 18 3 19 79 20 4 21 77 22 78 23 18 24 19 25
REMARK SMILES IDX 20 26 21 28 22 29 23 30 75 31 24 32 74 33 25 34 26 35 27 36
REMARK SMILES IDX 68 37 28 38 73 39 67 40 69 41 29 42 72 43 66 44 65 45 30 47
REMARK SMILES IDX 56 48 39 49 55 50 40 51 43 52 54 53 70 54 41 55 42 56 53 58
REMARK SMILES IDX 71 59 44 60 31 61 32 62 37 63 33 64 34 65 36 66 38 67 35 68
REMARK SMILES IDX 57 69 58 70 63 71 59 72 60 73 62 74 64 75 61 76 45 77 46 78
REMARK SMILES IDX 51 79 47 80 48 81 50 82 52 83 49 84
REMARK H PARENT 15 6 8 15 19 27 69 46 43 57
REMARK Flexibility Score: inf
ROOT
ATOM      1  C   UNL A   1      38.219  19.804  24.932  1.00  0.00     0.042 C 
ENDROOT
BRANCH   1   2
ATOM      2  C   UNL A   1      37.407  21.040  24.563  1.00  0.00     0.117 C 
BRANCH   2   3
ATOM      3  N   UNL A   1      36.553  21.507  25.641  1.00  0.00    -0.356 N 
ATOM      4  C   UNL A   1      35.211  21.321  25.826  1.00  0.00     0.227 C 
ATOM      5  O   UNL A   1      34.723  21.680  26.898  1.00  0.00    -0.274 OA
ATOM      6  H   UNL A   1      37.006  22.033  26.340  1.00  0.00     0.163 HD
BRANCH   4   7
ATOM      7  C   UNL A   1      34.379  20.754  24.675  1.00  0.00     0.103 C 
ATOM      8  C   UNL A   1      31.961  21.289  24.743  1.00  0.00     0.106 C 
ATOM      9  C   UNL A   1      32.244  19.850  25.054  1.00  0.00    -0.006 C 
ATOM     10  C   UNL A   1      33.333  21.793  24.263  1.00  0.00     0.047 C 
ATOM     11  C   UNL A   1      33.551  19.568  25.040  1.00  0.00    -0.016 C 
BRANCH   8  12
ATOM     12  N   UNL A   1      31.370  21.878  25.932  1.00  0.00    -0.346 N 
ATOM     13  C   UNL A   1      31.119  23.176  26.308  1.00  0.00     0.254 C 
ATOM     14  O   UNL A   1      30.312  23.398  27.206  1.00  0.00    -0.269 OA
ATOM     15  H   UNL A   1      31.094  21.215  26.604  1.00  0.00     0.164 HD
BRANCH  13  16
ATOM     16  C   UNL A   1      31.879  24.291  25.721  1.00  0.00     0.075 A 
ATOM     17  C   UNL A   1      33.336  28.153  24.550  1.00  0.00     0.044 C 
ATOM     18  C   UNL A   1      32.899  26.759  24.889  1.00  0.00    -0.048 A 
ATOM     19  C   UNL A   1      33.554  26.023  25.886  1.00  0.00     0.004 A 
ATOM     20  C   UNL A   1      31.823  26.178  24.209  1.00  0.00     0.043 A 
ATOM     21  C   UNL A   1      33.061  24.775  26.287  1.00  0.00     0.017 A 
ATOM     22  C   UNL A   1      31.312  24.956  24.634  1.00  0.00     0.136 A 
ATOM     23  F   UNL A   1      30.220  24.483  24.018  1.00  0.00    -0.206 F 
ENDBRANCH  13  16
ENDBRANCH   8  12
ENDBRANCH   4   7
ENDBRANCH   2   3
ENDBRANCH   1   2
BRANCH   1  24
ATOM     24  C   UNL A   1      39.225  20.001  26.060  1.00  0.00     0.118 C 
BRANCH  24  25
ATOM     25  N   UNL A   1      40.419  19.181  25.915  1.00  0.00    -0.352 N 
ATOM     26  C   UNL A   1      41.747  19.511  26.039  1.00  0.00     0.251 C 
ATOM     27  H   UNL A   1      40.247  18.237  25.691  1.00  0.00     0.163 HD
ATOM     28  O   UNL A   1      42.607  18.701  25.713  1.00  0.00    -0.269 OA
BRANCH  26  29
ATOM     29  C   UNL A   1      42.148  20.846  26.537  1.00  0.00     0.039 A 
ATOM     30  C   UNL A   1      42.510  21.829  25.612  1.00  0.00     0.014 A 
ATOM     31  C   UNL A   1      42.191  21.128  27.904  1.00  0.00     0.014 A 
ATOM     32  C   UNL A   1      42.840  23.113  26.054  1.00  0.00     0.010 A 
ATOM     33  C   UNL A   1      42.435  22.428  28.337  1.00  0.00     0.010 A 
ATOM     34  C   UNL A   1      42.764  23.435  27.418  1.00  0.00    -0.014 A 
BRANCH  34  35
ATOM     35  C   UNL A   1      43.024  24.816  27.905  1.00  0.00     0.031 A 
ATOM     36  C   UNL A   1      44.422  25.242  28.263  1.00  0.00     0.074 A 
ATOM     37  C   UNL A   1      41.994  25.663  28.092  1.00  0.00     0.049 A 
ATOM     38  N   UNL A   1      44.836  26.371  28.780  1.00  0.00    -0.248 NA
ATOM     39  C   UNL A   1      45.493  24.259  28.037  1.00  0.00     0.031 C 
ATOM     40  C   UNL A   1      40.587  25.360  27.820  1.00  0.00     0.029 A 
ATOM     41  N   UNL A   1      41.968  26.950  28.568  1.00  0.00    -0.354 N 
ATOM     42  C   UNL A   1      46.207  26.226  28.957  1.00  0.00     0.074 A 
ATOM     43  C   UNL A   1      46.546  24.883  28.542  1.00  0.00     0.031 C 
ATOM     44  C   UNL A   1      39.841  26.440  28.105  1.00  0.00     0.029 A 
ATOM     45  C   UNL A   1      40.706  27.493  28.624  1.00  0.00     0.049 A 
ATOM     46  H   UNL A   1      42.777  27.440  28.841  1.00  0.00     0.167 HD
ATOM     47  C   UNL A   1      47.104  27.137  29.404  1.00  0.00     0.037 A 
ATOM     48  C   UNL A   1      40.292  28.700  29.057  1.00  0.00     0.037 A 
ATOM     49  C   UNL A   1      46.766  28.481  29.794  1.00  0.00     0.049 A 
ATOM     50  C   UNL A   1      41.306  29.685  29.571  1.00  0.00     0.074 A 
ATOM     51  C   UNL A   1      47.613  29.499  30.198  1.00  0.00     0.029 A 
ATOM     52  N   UNL A   1      45.478  28.993  29.833  1.00  0.00    -0.354 N 
ATOM     53  N   UNL A   1      42.607  29.558  29.667  1.00  0.00    -0.248 NA
ATOM     54  C   UNL A   1      40.794  30.981  30.035  1.00  0.00     0.031 C 
ATOM     55  C   UNL A   1      46.831  30.607  30.540  1.00  0.00     0.029 A 
ATOM     56  C   UNL A   1      45.504  30.302  30.286  1.00  0.00     0.049 A 
ATOM     57  H   UNL A   1      44.666  28.500  29.578  1.00  0.00     0.167 HD
ATOM     58  C   UNL A   1      43.072  30.769  30.166  1.00  0.00     0.074 A 
ATOM     59  C   UNL A   1      41.914  31.619  30.344  1.00  0.00     0.031 C 
ATOM     60  C   UNL A   1      44.345  31.143  30.448  1.00  0.00     0.037 A 
BRANCH  47  61
ATOM     61  C   UNL A   1      48.540  26.708  29.502  1.00  0.00     0.057 A 
ATOM     62  C   UNL A   1      49.450  26.907  28.456  1.00  0.00     0.134 A 
ATOM     63  C   UNL A   1      49.029  26.117  30.675  1.00  0.00     0.134 A 
ATOM     64  F   UNL A   1      49.047  27.457  27.300  1.00  0.00    -0.206 F 
ATOM     65  C   UNL A   1      50.784  26.509  28.560  1.00  0.00     0.040 A 
ATOM     66  C   UNL A   1      50.368  25.743  30.803  1.00  0.00     0.040 A 
ATOM     67  F   UNL A   1      48.215  25.903  31.721  1.00  0.00    -0.206 F 
ATOM     68  C   UNL A   1      51.247  25.932  29.740  1.00  0.00     0.006 A 
ENDBRANCH  47  61
BRANCH  48  69
ATOM     69  C   UNL A   1      38.851  29.057  29.003  1.00  0.00     0.057 A 
ATOM     70  C   UNL A   1      38.274  29.543  27.823  1.00  0.00     0.134 A 
ATOM     71  C   UNL A   1      38.021  28.940  30.124  1.00  0.00     0.134 A 
ATOM     72  F   UNL A   1      39.021  29.696  26.720  1.00  0.00    -0.206 F 
ATOM     73  C   UNL A   1      36.932  29.920  27.766  1.00  0.00     0.040 A 
ATOM     74  C   UNL A   1      36.671  29.288  30.073  1.00  0.00     0.040 A 
ATOM     75  F   UNL A   1      38.509  28.473  31.283  1.00  0.00    -0.206 F 
ATOM     76  C   UNL A   1      36.124  29.788  28.894  1.00  0.00     0.006 A 
ENDBRANCH  48  69
BRANCH  60  77
ATOM     77  C   UNL A   1      44.560  32.548  30.931  1.00  0.00     0.057 A 
ATOM     78  C   UNL A   1      44.597  32.870  32.295  1.00  0.00     0.134 A 
ATOM     79  C   UNL A   1      44.780  33.587  30.017  1.00  0.00     0.134 A 
ATOM     80  F   UNL A   1      44.382  31.925  33.222  1.00  0.00    -0.206 F 
ATOM     81  C   UNL A   1      44.821  34.177  32.730  1.00  0.00     0.040 A 
ATOM     82  C   UNL A   1      45.035  34.892  30.441  1.00  0.00     0.040 A 
ATOM     83  F   UNL A   1      44.767  33.348  28.697  1.00  0.00    -0.206 F 
ATOM     84  C   UNL A   1      45.049  35.191  31.801  1.00  0.00     0.006 A 
ENDBRANCH  60  77
ENDBRANCH  34  35
ENDBRANCH  26  29
ENDBRANCH  24  25
ENDBRANCH   1  24
TORSDOF 12
ENDMDL
