MODEL 1
REMARK VINA RESULT:     -11.3      0.000      0.000
REMARK SMILES C[C@@H](C(=O)NCCCNC(=O)c1ccc(-c2c3nc(c(-c4c(F)cccc4F)c4ccc([nH]4)c(-c4c(F)cccc4F)c4nc(c(-c5c(F)cccc5F)c5ccc2[nH]5)C=C4)C=C3)cc1)c1ccc(C[C@H]2CCC[C@@H]2O)cc1Br
REMARK SMILES IDX 6 1 5 2 3 3 4 4 2 6 1 7 66 8 67 9 78 10 68 11 77 12 79 13
REMARK SMILES IDX 69 14 70 15 71 16 72 17 75 18 73 19 74 20 76 21 7 23 8 24
REMARK SMILES IDX 9 25 10 26 11 28 12 29 13 30 65 31 14 32 64 33 15 34 16 35
REMARK SMILES IDX 17 36 58 37 18 38 63 39 57 40 59 41 19 42 62 43 56 44 55 45
REMARK SMILES IDX 20 47 46 48 29 49 45 50 30 51 33 52 44 53 60 54 31 55 32 56
REMARK SMILES IDX 43 58 61 59 34 60 21 61 22 62 27 63 23 64 24 65 26 66 28 67
REMARK SMILES IDX 25 68 47 69 48 70 53 71 49 72 50 73 52 74 54 75 51 76 35 77
REMARK SMILES IDX 36 78 41 79 37 80 38 81 40 82 42 83 39 84
REMARK H PARENT 5 5 76 22 9 27 59 46 33 57
REMARK Flexibility Score: inf
ROOT
ATOM      1  C   UNL A   1      36.293  19.920  24.989  1.00  0.00     0.117 C 
ENDROOT
BRANCH   1   2
ATOM      2  N   UNL A   1      36.048  21.094  25.805  1.00  0.00    -0.356 N 
ATOM      3  C   UNL A   1      35.687  22.357  25.428  1.00  0.00     0.227 C 
ATOM      4  O   UNL A   1      35.826  23.254  26.263  1.00  0.00    -0.274 OA
ATOM      5  H   UNL A   1      36.159  20.960  26.775  1.00  0.00     0.163 HD
BRANCH   3   6
ATOM      6  C   UNL A   1      35.139  22.602  24.011  1.00  0.00     0.106 C 
ATOM      7  C   UNL A   1      36.339  22.997  23.134  1.00  0.00     0.023 C 
BRANCH   6   8
ATOM      8  C   UNL A   1      33.990  23.620  23.991  1.00  0.00    -0.022 A 
ATOM      9  C   UNL A   1      34.179  24.896  23.430  1.00  0.00     0.006 A 
ATOM     10  C   UNL A   1      32.714  23.342  24.519  1.00  0.00     0.022 A 
ATOM     11  C   UNL A   1      33.199  25.884  23.508  1.00  0.00     0.004 A 
ATOM     12  C   UNL A   1      31.757  24.359  24.660  1.00  0.00     0.019 A 
ATOM     13  Br  UNL A   1      32.164  21.594  25.039  1.00  0.00    -0.051 Br
ATOM     14  C   UNL A   1      32.018  25.656  24.207  1.00  0.00    -0.047 A 
BRANCH  14  15
ATOM     15  C   UNL A   1      31.068  26.794  24.493  1.00  0.00     0.041 C 
BRANCH  15  16
ATOM     16  C   UNL A   1      31.527  27.787  25.579  1.00  0.00     0.022 C 
ATOM     17  C   UNL A   1      32.553  27.253  26.593  1.00  0.00     0.007 C 
ATOM     18  C   UNL A   1      32.142  29.102  25.085  1.00  0.00     0.117 C 
ATOM     19  C   UNL A   1      33.461  28.437  26.944  1.00  0.00     0.003 C 
ATOM     20  C   UNL A   1      32.793  29.662  26.339  1.00  0.00     0.032 C 
BRANCH  18  21
ATOM     21  O   UNL A   1      31.153  29.969  24.567  1.00  0.00    -0.393 OA
ATOM     22  H   UNL A   1      31.447  30.320  23.712  1.00  0.00     0.210 HD
ENDBRANCH  18  21
ENDBRANCH  15  16
ENDBRANCH  14  15
ENDBRANCH   6   8
ENDBRANCH   3   6
ENDBRANCH   1   2
BRANCH   1  23
ATOM     23  C   UNL A   1      37.770  19.818  24.605  1.00  0.00     0.042 C 
BRANCH  23  24
ATOM     24  C   UNL A   1      38.729  20.175  25.734  1.00  0.00     0.118 C 
BRANCH  24  25
ATOM     25  N   UNL A   1      39.872  19.282  25.789  1.00  0.00    -0.352 N 
ATOM     26  C   UNL A   1      41.186  19.557  26.065  1.00  0.00     0.251 C 
ATOM     27  H   UNL A   1      39.674  18.337  25.598  1.00  0.00     0.163 HD
ATOM     28  O   UNL A   1      42.035  18.687  25.870  1.00  0.00    -0.269 OA
BRANCH  26  29
ATOM     29  C   UNL A   1      41.600  20.880  26.586  1.00  0.00     0.039 A 
ATOM     30  C   UNL A   1      41.486  21.117  27.960  1.00  0.00     0.014 A 
ATOM     31  C   UNL A   1      42.027  21.906  25.738  1.00  0.00     0.014 A 
ATOM     32  C   UNL A   1      41.814  22.370  28.481  1.00  0.00     0.010 A 
ATOM     33  C   UNL A   1      42.425  23.132  26.268  1.00  0.00     0.010 A 
ATOM     34  C   UNL A   1      42.293  23.386  27.641  1.00  0.00    -0.014 A 
BRANCH  34  35
ATOM     35  C   UNL A   1      42.591  24.738  28.178  1.00  0.00     0.031 A 
ATOM     36  C   UNL A   1      44.001  25.100  28.561  1.00  0.00     0.074 A 
ATOM     37  C   UNL A   1      41.597  25.630  28.344  1.00  0.00     0.049 A 
ATOM     38  N   UNL A   1      44.461  26.218  29.064  1.00  0.00    -0.248 NA
ATOM     39  C   UNL A   1      45.024  24.059  28.381  1.00  0.00     0.031 C 
ATOM     40  C   UNL A   1      40.184  25.385  28.059  1.00  0.00     0.029 A 
ATOM     41  N   UNL A   1      41.628  26.923  28.799  1.00  0.00    -0.354 N 
ATOM     42  C   UNL A   1      45.818  26.008  29.272  1.00  0.00     0.074 A 
ATOM     43  C   UNL A   1      46.096  24.639  28.897  1.00  0.00     0.031 C 
ATOM     44  C   UNL A   1      39.483  26.501  28.326  1.00  0.00     0.029 A 
ATOM     45  C   UNL A   1      40.394  27.528  28.820  1.00  0.00     0.049 A 
ATOM     46  H   UNL A   1      42.455  27.376  29.084  1.00  0.00     0.167 HD
ATOM     47  C   UNL A   1      46.757  26.882  29.707  1.00  0.00     0.037 A 
ATOM     48  C   UNL A   1      40.042  28.774  29.190  1.00  0.00     0.037 A 
ATOM     49  C   UNL A   1      46.487  28.253  30.055  1.00  0.00     0.049 A 
ATOM     50  C   UNL A   1      41.104  29.739  29.635  1.00  0.00     0.074 A 
ATOM     51  C   UNL A   1      47.373  29.230  30.473  1.00  0.00     0.029 A 
ATOM     52  N   UNL A   1      45.232  28.840  30.015  1.00  0.00    -0.354 N 
ATOM     53  N   UNL A   1      42.393  29.543  29.775  1.00  0.00    -0.248 NA
ATOM     54  C   UNL A   1      40.665  31.105  29.954  1.00  0.00     0.031 C 
ATOM     55  C   UNL A   1      46.648  30.403  30.712  1.00  0.00     0.029 A 
ATOM     56  C   UNL A   1      45.319  30.167  30.404  1.00  0.00     0.049 A 
ATOM     57  H   UNL A   1      44.402  28.382  29.752  1.00  0.00     0.167 HD
ATOM     58  C   UNL A   1      42.923  30.764  30.171  1.00  0.00     0.074 A 
ATOM     59  C   UNL A   1      41.817  31.697  30.236  1.00  0.00     0.031 C 
ATOM     60  C   UNL A   1      44.209  31.084  30.454  1.00  0.00     0.037 A 
BRANCH  47  61
ATOM     61  C   UNL A   1      48.166  26.375  29.820  1.00  0.00     0.057 A 
ATOM     62  C   UNL A   1      49.067  26.461  28.749  1.00  0.00     0.134 A 
ATOM     63  C   UNL A   1      48.630  25.801  31.009  1.00  0.00     0.134 A 
ATOM     64  F   UNL A   1      48.680  26.986  27.577  1.00  0.00    -0.206 F 
ATOM     65  C   UNL A   1      50.366  25.962  28.846  1.00  0.00     0.040 A 
ATOM     66  C   UNL A   1      49.937  25.324  31.128  1.00  0.00     0.040 A 
ATOM     67  F   UNL A   1      47.823  25.692  32.075  1.00  0.00    -0.206 F 
ATOM     68  C   UNL A   1      50.807  25.396  30.040  1.00  0.00     0.006 A 
ENDBRANCH  47  61
BRANCH  48  69
ATOM     69  C   UNL A   1      38.620  29.189  29.110  1.00  0.00     0.057 A 
ATOM     70  C   UNL A   1      37.782  29.119  30.230  1.00  0.00     0.134 A 
ATOM     71  C   UNL A   1      38.067  29.673  27.919  1.00  0.00     0.134 A 
ATOM     72  F   UNL A   1      38.252  28.648  31.394  1.00  0.00    -0.206 F 
ATOM     73  C   UNL A   1      36.441  29.498  30.164  1.00  0.00     0.040 A 
ATOM     74  C   UNL A   1      36.733  30.077  27.845  1.00  0.00     0.040 A 
ATOM     75  F   UNL A   1      38.822  29.774  26.815  1.00  0.00    -0.206 F 
ATOM     76  C   UNL A   1      35.914  29.984  28.968  1.00  0.00     0.006 A 
ENDBRANCH  48  69
BRANCH  60  77
ATOM     77  C   UNL A   1      44.494  32.510  30.820  1.00  0.00     0.057 A 
ATOM     78  C   UNL A   1      44.780  33.480  29.850  1.00  0.00     0.134 A 
ATOM     79  C   UNL A   1      44.454  32.922  32.158  1.00  0.00     0.134 A 
ATOM     80  F   UNL A   1      44.846  33.145  28.553  1.00  0.00    -0.206 F 
ATOM     81  C   UNL A   1      45.041  34.804  30.202  1.00  0.00     0.040 A 
ATOM     82  C   UNL A   1      44.689  34.248  32.519  1.00  0.00     0.040 A 
ATOM     83  F   UNL A   1      44.178  32.043  33.133  1.00  0.00    -0.206 F 
ATOM     84  C   UNL A   1      44.990  35.193  31.540  1.00  0.00     0.006 A 
ENDBRANCH  60  77
ENDBRANCH  34  35
ENDBRANCH  26  29
ENDBRANCH  24  25
ENDBRANCH  23  24
ENDBRANCH   1  23
TORSDOF 14
ENDMDL
MODEL 2
REMARK VINA RESULT:     -11.2      4.057      9.456
REMARK SMILES C[C@@H](C(=O)NCCCNC(=O)c1ccc(-c2c3nc(c(-c4c(F)cccc4F)c4ccc([nH]4)c(-c4c(F)cccc4F)c4nc(c(-c5c(F)cccc5F)c5ccc2[nH]5)C=C4)C=C3)cc1)c1ccc(C[C@H]2CCC[C@@H]2O)cc1Br
REMARK SMILES IDX 6 1 5 2 3 3 4 4 2 6 1 7 66 8 67 9 78 10 68 11 77 12 79 13
REMARK SMILES IDX 69 14 70 15 71 16 72 17 75 18 73 19 74 20 76 21 7 23 8 24
REMARK SMILES IDX 9 25 10 26 11 28 12 29 13 30 65 31 14 32 64 33 15 34 16 35
REMARK SMILES IDX 17 36 58 37 18 38 63 39 57 40 59 41 19 42 62 43 56 44 55 45
REMARK SMILES IDX 20 47 46 48 29 49 45 50 30 51 33 52 44 53 60 54 31 55 32 56
REMARK SMILES IDX 43 58 61 59 34 60 21 61 22 62 27 63 23 64 24 65 26 66 28 67
REMARK SMILES IDX 25 68 47 69 48 70 53 71 49 72 50 73 52 74 54 75 51 76 35 77
REMARK SMILES IDX 36 78 41 79 37 80 38 81 40 82 42 83 39 84
REMARK H PARENT 5 5 76 22 9 27 59 46 33 57
REMARK Flexibility Score: inf
ROOT
ATOM      1  C   UNL A   1      31.300  31.058  25.684  1.00  0.00     0.117 C 
ENDROOT
BRANCH   1   2
ATOM      2  N   UNL A   1      32.639  30.516  25.823  1.00  0.00    -0.356 N 
ATOM      3  C   UNL A   1      33.036  29.250  26.150  1.00  0.00     0.227 C 
ATOM      4  O   UNL A   1      34.211  29.101  26.497  1.00  0.00    -0.274 OA
ATOM      5  H   UNL A   1      33.369  31.156  25.659  1.00  0.00     0.163 HD
BRANCH   3   6
ATOM      6  C   UNL A   1      32.025  28.092  26.077  1.00  0.00     0.106 C 
ATOM      7  C   UNL A   1      31.551  27.827  27.515  1.00  0.00     0.023 C 
BRANCH   6   8
ATOM      8  C   UNL A   1      32.598  26.854  25.372  1.00  0.00    -0.022 A 
ATOM      9  C   UNL A   1      33.072  25.762  26.121  1.00  0.00     0.006 A 
ATOM     10  C   UNL A   1      32.679  26.743  23.969  1.00  0.00     0.022 A 
ATOM     11  C   UNL A   1      33.710  24.680  25.518  1.00  0.00     0.004 A 
ATOM     12  C   UNL A   1      33.385  25.688  23.371  1.00  0.00     0.019 A 
ATOM     13  Br  UNL A   1      31.821  27.960  22.781  1.00  0.00    -0.051 Br
ATOM     14  C   UNL A   1      33.958  24.677  24.150  1.00  0.00    -0.047 A 
BRANCH  14  15
ATOM     15  C   UNL A   1      34.853  23.626  23.538  1.00  0.00     0.041 C 
BRANCH  15  16
ATOM     16  C   UNL A   1      35.562  22.691  24.538  1.00  0.00     0.022 C 
ATOM     17  C   UNL A   1      34.973  21.277  24.675  1.00  0.00     0.007 C 
ATOM     18  C   UNL A   1      37.057  22.451  24.305  1.00  0.00     0.117 C 
ATOM     19  C   UNL A   1      36.162  20.344  24.934  1.00  0.00     0.003 C 
ATOM     20  C   UNL A   1      37.351  21.256  25.197  1.00  0.00     0.032 C 
BRANCH  18  21
ATOM     21  O   UNL A   1      37.822  23.584  24.665  1.00  0.00    -0.393 OA
ATOM     22  H   UNL A   1      37.228  24.321  24.880  1.00  0.00     0.210 HD
ENDBRANCH  18  21
ENDBRANCH  15  16
ENDBRANCH  14  15
ENDBRANCH   6   8
ENDBRANCH   3   6
ENDBRANCH   1   2
BRANCH   1  23
ATOM     23  C   UNL A   1      31.132  32.325  26.523  1.00  0.00     0.042 C 
BRANCH  23  24
ATOM     24  C   UNL A   1      32.435  32.862  27.103  1.00  0.00     0.118 C 
BRANCH  24  25
ATOM     25  N   UNL A   1      32.304  34.225  27.583  1.00  0.00    -0.352 N 
ATOM     26  C   UNL A   1      33.000  34.878  28.567  1.00  0.00     0.251 C 
ATOM     27  H   UNL A   1      31.612  34.762  27.134  1.00  0.00     0.163 HD
ATOM     28  O   UNL A   1      32.603  35.978  28.954  1.00  0.00    -0.269 OA
BRANCH  26  29
ATOM     29  C   UNL A   1      34.211  34.282  29.174  1.00  0.00     0.039 A 
ATOM     30  C   UNL A   1      35.449  34.543  28.577  1.00  0.00     0.014 A 
ATOM     31  C   UNL A   1      34.138  33.419  30.271  1.00  0.00     0.014 A 
ATOM     32  C   UNL A   1      36.608  33.954  29.088  1.00  0.00     0.010 A 
ATOM     33  C   UNL A   1      35.304  32.892  30.826  1.00  0.00     0.010 A 
ATOM     34  C   UNL A   1      36.546  33.129  30.221  1.00  0.00    -0.014 A 
BRANCH  34  35
ATOM     35  C   UNL A   1      37.764  32.456  30.737  1.00  0.00     0.031 A 
ATOM     36  C   UNL A   1      38.441  32.973  31.978  1.00  0.00     0.074 A 
ATOM     37  C   UNL A   1      38.277  31.397  30.082  1.00  0.00     0.049 A 
ATOM     38  N   UNL A   1      39.522  32.538  32.575  1.00  0.00    -0.248 NA
ATOM     39  C   UNL A   1      37.839  34.154  32.616  1.00  0.00     0.031 C 
ATOM     40  C   UNL A   1      37.745  30.831  28.842  1.00  0.00     0.029 A 
ATOM     41  N   UNL A   1      39.365  30.613  30.368  1.00  0.00    -0.354 N 
ATOM     42  C   UNL A   1      39.735  33.397  33.646  1.00  0.00     0.074 A 
ATOM     43  C   UNL A   1      38.707  34.413  33.582  1.00  0.00     0.031 C 
ATOM     44  C   UNL A   1      38.497  29.776  28.485  1.00  0.00     0.029 A 
ATOM     45  C   UNL A   1      39.572  29.606  29.458  1.00  0.00     0.049 A 
ATOM     46  H   UNL A   1      39.943  30.758  31.152  1.00  0.00     0.167 HD
ATOM     47  C   UNL A   1      40.680  33.332  34.613  1.00  0.00     0.037 A 
ATOM     48  C   UNL A   1      40.519  28.651  29.416  1.00  0.00     0.037 A 
ATOM     49  C   UNL A   1      41.687  32.306  34.692  1.00  0.00     0.049 A 
ATOM     50  C   UNL A   1      41.537  28.575  30.519  1.00  0.00     0.074 A 
ATOM     51  C   UNL A   1      42.669  32.130  35.651  1.00  0.00     0.029 A 
ATOM     52  N   UNL A   1      41.832  31.275  33.776  1.00  0.00    -0.354 N 
ATOM     53  N   UNL A   1      41.693  29.361  31.556  1.00  0.00    -0.248 NA
ATOM     54  C   UNL A   1      42.498  27.464  30.457  1.00  0.00     0.031 C 
ATOM     55  C   UNL A   1      43.426  31.006  35.300  1.00  0.00     0.029 A 
ATOM     56  C   UNL A   1      42.890  30.460  34.146  1.00  0.00     0.049 A 
ATOM     57  H   UNL A   1      41.268  31.143  32.981  1.00  0.00     0.167 HD
ATOM     58  C   UNL A   1      42.749  28.829  32.283  1.00  0.00     0.074 A 
ATOM     59  C   UNL A   1      43.187  27.643  31.575  1.00  0.00     0.031 C 
ATOM     60  C   UNL A   1      43.306  29.279  33.434  1.00  0.00     0.037 A 
BRANCH  47  61
ATOM     61  C   UNL A   1      40.657  34.401  35.667  1.00  0.00     0.057 A 
ATOM     62  C   UNL A   1      39.878  34.276  36.825  1.00  0.00     0.134 A 
ATOM     63  C   UNL A   1      41.423  35.565  35.527  1.00  0.00     0.134 A 
ATOM     64  F   UNL A   1      39.110  33.193  37.013  1.00  0.00    -0.206 F 
ATOM     65  C   UNL A   1      39.835  35.283  37.789  1.00  0.00     0.040 A 
ATOM     66  C   UNL A   1      41.410  36.568  36.499  1.00  0.00     0.040 A 
ATOM     67  F   UNL A   1      42.195  35.747  34.446  1.00  0.00    -0.206 F 
ATOM     68  C   UNL A   1      40.607  36.433  37.630  1.00  0.00     0.006 A 
ENDBRANCH  47  61
BRANCH  48  69
ATOM     69  C   UNL A   1      40.518  27.661  28.311  1.00  0.00     0.057 A 
ATOM     70  C   UNL A   1      41.205  27.910  27.117  1.00  0.00     0.134 A 
ATOM     71  C   UNL A   1      39.840  26.443  28.424  1.00  0.00     0.134 A 
ATOM     72  F   UNL A   1      41.860  29.068  26.945  1.00  0.00    -0.206 F 
ATOM     73  C   UNL A   1      41.203  26.992  26.067  1.00  0.00     0.040 A 
ATOM     74  C   UNL A   1      39.847  25.504  27.390  1.00  0.00     0.040 A 
ATOM     75  F   UNL A   1      39.171  26.142  29.547  1.00  0.00    -0.206 F 
ATOM     76  C   UNL A   1      40.526  25.781  26.205  1.00  0.00     0.006 A 
ENDBRANCH  48  69
BRANCH  60  77
ATOM     77  C   UNL A   1      44.421  28.465  34.019  1.00  0.00     0.057 A 
ATOM     78  C   UNL A   1      44.178  27.392  34.885  1.00  0.00     0.134 A 
ATOM     79  C   UNL A   1      45.753  28.743  33.687  1.00  0.00     0.134 A 
ATOM     80  F   UNL A   1      42.925  27.083  35.251  1.00  0.00    -0.206 F 
ATOM     81  C   UNL A   1      45.224  26.639  35.421  1.00  0.00     0.040 A 
ATOM     82  C   UNL A   1      46.805  27.982  34.197  1.00  0.00     0.040 A 
ATOM     83  F   UNL A   1      46.052  29.753  32.856  1.00  0.00    -0.206 F 
ATOM     84  C   UNL A   1      46.542  26.930  35.073  1.00  0.00     0.006 A 
ENDBRANCH  60  77
ENDBRANCH  34  35
ENDBRANCH  26  29
ENDBRANCH  24  25
ENDBRANCH  23  24
ENDBRANCH   1  23
TORSDOF 14
ENDMDL
MODEL 3
REMARK VINA RESULT:     -11.1      1.750      3.884
REMARK SMILES C[C@@H](C(=O)NCCCNC(=O)c1ccc(-c2c3nc(c(-c4c(F)cccc4F)c4ccc([nH]4)c(-c4c(F)cccc4F)c4nc(c(-c5c(F)cccc5F)c5ccc2[nH]5)C=C4)C=C3)cc1)c1ccc(C[C@H]2CCC[C@@H]2O)cc1Br
REMARK SMILES IDX 6 1 5 2 3 3 4 4 2 6 1 7 66 8 67 9 78 10 68 11 77 12 79 13
REMARK SMILES IDX 69 14 70 15 71 16 72 17 75 18 73 19 74 20 76 21 7 23 8 24
REMARK SMILES IDX 9 25 10 26 11 28 12 29 13 30 65 31 14 32 64 33 15 34 16 35
REMARK SMILES IDX 17 36 58 37 18 38 63 39 57 40 59 41 19 42 62 43 56 44 55 45
REMARK SMILES IDX 20 47 46 48 29 49 45 50 30 51 33 52 44 53 60 54 31 55 32 56
REMARK SMILES IDX 43 58 61 59 34 60 21 61 22 62 27 63 23 64 24 65 26 66 28 67
REMARK SMILES IDX 25 68 47 69 48 70 53 71 49 72 50 73 52 74 54 75 51 76 35 77
REMARK SMILES IDX 36 78 41 79 37 80 38 81 40 82 42 83 39 84
REMARK H PARENT 5 5 76 22 9 27 59 46 33 57
REMARK Flexibility Score: inf
ROOT
ATOM      1  C   UNL A   1      37.394  21.343  24.336  1.00  0.00     0.117 C 
ENDROOT
BRANCH   1   2
ATOM      2  N   UNL A   1      37.434  22.254  25.464  1.00  0.00    -0.356 N 
ATOM      3  C   UNL A   1      36.704  23.386  25.696  1.00  0.00     0.227 C 
ATOM      4  O   UNL A   1      37.117  24.152  26.570  1.00  0.00    -0.274 OA
ATOM      5  H   UNL A   1      38.085  22.023  26.167  1.00  0.00     0.163 HD
BRANCH   3   6
ATOM      6  C   UNL A   1      35.430  23.653  24.875  1.00  0.00     0.106 C 
ATOM      7  C   UNL A   1      34.834  24.971  25.395  1.00  0.00     0.023 C 
BRANCH   6   8
ATOM      8  C   UNL A   1      34.451  22.470  24.906  1.00  0.00    -0.022 A 
ATOM      9  C   UNL A   1      34.332  21.675  26.061  1.00  0.00     0.006 A 
ATOM     10  C   UNL A   1      33.636  22.123  23.811  1.00  0.00     0.022 A 
ATOM     11  C   UNL A   1      33.548  20.523  26.080  1.00  0.00     0.004 A 
ATOM     12  C   UNL A   1      32.904  20.925  23.809  1.00  0.00     0.019 A 
ATOM     13  Br  UNL A   1      33.420  23.241  22.284  1.00  0.00    -0.051 Br
ATOM     14  C   UNL A   1      32.904  20.085  24.927  1.00  0.00    -0.047 A 
BRANCH  14  15
ATOM     15  C   UNL A   1      32.255  18.722  24.885  1.00  0.00     0.041 C 
BRANCH  15  16
ATOM     16  C   UNL A   1      33.113  17.561  25.427  1.00  0.00     0.022 C 
ATOM     17  C   UNL A   1      32.365  16.250  25.722  1.00  0.00     0.007 C 
ATOM     18  C   UNL A   1      34.299  17.126  24.559  1.00  0.00     0.117 C 
ATOM     19  C   UNL A   1      33.344  15.117  25.390  1.00  0.00     0.003 C 
ATOM     20  C   UNL A   1      34.690  15.789  25.167  1.00  0.00     0.032 C 
BRANCH  18  21
ATOM     21  O   UNL A   1      35.352  18.067  24.620  1.00  0.00    -0.393 OA
ATOM     22  H   UNL A   1      35.406  18.547  23.778  1.00  0.00     0.210 HD
ENDBRANCH  18  21
ENDBRANCH  15  16
ENDBRANCH  14  15
ENDBRANCH   6   8
ENDBRANCH   3   6
ENDBRANCH   1   2
BRANCH   1  23
ATOM     23  C   UNL A   1      38.099  20.028  24.669  1.00  0.00     0.042 C 
BRANCH  23  24
ATOM     24  C   UNL A   1      38.925  20.074  25.949  1.00  0.00     0.118 C 
BRANCH  24  25
ATOM     25  N   UNL A   1      40.119  19.254  25.864  1.00  0.00    -0.352 N 
ATOM     26  C   UNL A   1      41.434  19.603  26.026  1.00  0.00     0.251 C 
ATOM     27  H   UNL A   1      39.961  18.305  25.658  1.00  0.00     0.163 HD
ATOM     28  O   UNL A   1      42.312  18.795  25.721  1.00  0.00    -0.269 OA
BRANCH  26  29
ATOM     29  C   UNL A   1      41.816  20.933  26.554  1.00  0.00     0.039 A 
ATOM     30  C   UNL A   1      41.791  21.129  27.939  1.00  0.00     0.014 A 
ATOM     31  C   UNL A   1      42.125  22.002  25.708  1.00  0.00     0.014 A 
ATOM     32  C   UNL A   1      42.090  22.384  28.472  1.00  0.00     0.010 A 
ATOM     33  C   UNL A   1      42.497  23.234  26.244  1.00  0.00     0.010 A 
ATOM     34  C   UNL A   1      42.453  23.446  27.629  1.00  0.00    -0.014 A 
BRANCH  34  35
ATOM     35  C   UNL A   1      42.719  24.798  28.182  1.00  0.00     0.031 A 
ATOM     36  C   UNL A   1      44.116  25.181  28.591  1.00  0.00     0.074 A 
ATOM     37  C   UNL A   1      41.706  25.671  28.341  1.00  0.00     0.049 A 
ATOM     38  N   UNL A   1      44.548  26.303  29.111  1.00  0.00    -0.248 NA
ATOM     39  C   UNL A   1      45.160  24.160  28.418  1.00  0.00     0.031 C 
ATOM     40  C   UNL A   1      40.302  25.403  28.032  1.00  0.00     0.029 A 
ATOM     41  N   UNL A   1      41.707  26.960  28.808  1.00  0.00    -0.354 N 
ATOM     42  C   UNL A   1      45.905  26.115  29.338  1.00  0.00     0.074 A 
ATOM     43  C   UNL A   1      46.213  24.754  28.956  1.00  0.00     0.031 C 
ATOM     44  C   UNL A   1      39.578  26.504  28.298  1.00  0.00     0.029 A 
ATOM     45  C   UNL A   1      40.463  27.543  28.815  1.00  0.00     0.049 A 
ATOM     46  H   UNL A   1      42.521  27.425  29.110  1.00  0.00     0.167 HD
ATOM     47  C   UNL A   1      46.821  27.001  29.796  1.00  0.00     0.037 A 
ATOM     48  C   UNL A   1      40.082  28.779  29.190  1.00  0.00     0.037 A 
ATOM     49  C   UNL A   1      46.521  28.363  30.151  1.00  0.00     0.049 A 
ATOM     50  C   UNL A   1      41.120  29.758  29.660  1.00  0.00     0.074 A 
ATOM     51  C   UNL A   1      47.383  29.353  30.592  1.00  0.00     0.029 A 
ATOM     52  N   UNL A   1      45.257  28.929  30.097  1.00  0.00    -0.354 N 
ATOM     53  N   UNL A   1      42.410  29.584  29.818  1.00  0.00    -0.248 NA
ATOM     54  C   UNL A   1      40.652  31.113  29.984  1.00  0.00     0.031 C 
ATOM     55  C   UNL A   1      46.634  30.511  30.830  1.00  0.00     0.029 A 
ATOM     56  C   UNL A   1      45.314  30.254  30.499  1.00  0.00     0.049 A 
ATOM     57  H   UNL A   1      44.439  28.459  29.817  1.00  0.00     0.167 HD
ATOM     58  C   UNL A   1      42.912  30.810  30.233  1.00  0.00     0.074 A 
ATOM     59  C   UNL A   1      41.789  31.723  30.289  1.00  0.00     0.031 C 
ATOM     60  C   UNL A   1      44.188  31.150  30.539  1.00  0.00     0.037 A 
BRANCH  47  61
ATOM     61  C   UNL A   1      48.237  26.518  29.926  1.00  0.00     0.057 A 
ATOM     62  C   UNL A   1      48.690  25.869  31.083  1.00  0.00     0.134 A 
ATOM     63  C   UNL A   1      49.156  26.699  28.886  1.00  0.00     0.134 A 
ATOM     64  F   UNL A   1      47.863  25.678  32.122  1.00  0.00    -0.206 F 
ATOM     65  C   UNL A   1      50.014  25.447  31.213  1.00  0.00     0.040 A 
ATOM     66  C   UNL A   1      50.477  26.257  28.994  1.00  0.00     0.040 A 
ATOM     67  F   UNL A   1      48.789  27.308  27.749  1.00  0.00    -0.206 F 
ATOM     68  C   UNL A   1      50.911  25.637  30.164  1.00  0.00     0.006 A 
ENDBRANCH  47  61
BRANCH  48  69
ATOM     69  C   UNL A   1      38.655  29.170  29.092  1.00  0.00     0.057 A 
ATOM     70  C   UNL A   1      37.812  29.115  30.208  1.00  0.00     0.134 A 
ATOM     71  C   UNL A   1      38.102  29.614  27.886  1.00  0.00     0.134 A 
ATOM     72  F   UNL A   1      38.281  28.682  31.387  1.00  0.00    -0.206 F 
ATOM     73  C   UNL A   1      36.465  29.471  30.125  1.00  0.00     0.040 A 
ATOM     74  C   UNL A   1      36.762  29.995  27.793  1.00  0.00     0.040 A 
ATOM     75  F   UNL A   1      38.861  29.698  26.783  1.00  0.00    -0.206 F 
ATOM     76  C   UNL A   1      35.938  29.918  28.914  1.00  0.00     0.006 A 
ENDBRANCH  48  69
BRANCH  60  77
ATOM     77  C   UNL A   1      44.442  32.578  30.922  1.00  0.00     0.057 A 
ATOM     78  C   UNL A   1      44.714  33.563  29.965  1.00  0.00     0.134 A 
ATOM     79  C   UNL A   1      44.385  32.975  32.264  1.00  0.00     0.134 A 
ATOM     80  F   UNL A   1      44.794  33.244  28.664  1.00  0.00    -0.206 F 
ATOM     81  C   UNL A   1      44.946  34.889  30.332  1.00  0.00     0.040 A 
ATOM     82  C   UNL A   1      44.591  34.301  32.641  1.00  0.00     0.040 A 
ATOM     83  F   UNL A   1      44.121  32.080  33.228  1.00  0.00    -0.206 F 
ATOM     84  C   UNL A   1      44.879  35.263  31.673  1.00  0.00     0.006 A 
ENDBRANCH  60  77
ENDBRANCH  34  35
ENDBRANCH  26  29
ENDBRANCH  24  25
ENDBRANCH  23  24
ENDBRANCH   1  23
TORSDOF 14
ENDMDL
