MODEL 1
REMARK VINA RESULT:     -13.0      0.000      0.000
REMARK SMILES O=C(NCCCNC(=O)[C@@H]1Nc2c(cccc2C(F)(F)F)[C@@H]2C=CC[C@@H]12)c1ccc(-c2c3nc(c(-c4c(F)cccc4F)c4ccc([nH]4)c(-c4c(F)cccc4F)c4nc(c(-c5c(F)cccc5F)c5ccc2[nH]5)C=C4)C=C3)cc1
REMARK SMILES IDX 4 1 3 2 1 3 2 4 27 6 28 7 80 8 29 9 79 10 30 11 31 12 32 13
REMARK SMILES IDX 73 14 33 15 78 16 72 17 74 18 34 19 77 20 71 21 70 22 35 24
REMARK SMILES IDX 61 25 44 26 60 27 45 28 48 29 59 30 75 31 46 32 47 33 58 35
REMARK SMILES IDX 76 36 49 37 36 38 37 39 42 40 38 41 39 42 41 43 43 44 40 45
REMARK SMILES IDX 62 46 63 47 68 48 64 49 65 50 67 51 69 52 66 53 50 54 51 55
REMARK SMILES IDX 56 56 52 57 53 58 55 59 57 60 54 61 5 62 6 63 7 64 8 65 9 67
REMARK SMILES IDX 10 68 11 69 26 70 12 71 22 73 25 74 13 75 17 76 23 77 24 78
REMARK SMILES IDX 14 79 16 80 15 81 18 82 19 83 20 84 21 85
REMARK H PARENT 3 5 74 23 48 34 7 66 11 72
REMARK Flexibility Score: inf
ROOT
ATOM      1  C   UNL A   1      34.584  29.315  27.355  1.00  0.00     0.118 C 
ENDROOT
BRANCH   1   2
ATOM      2  N   UNL A   1      34.767  30.294  28.414  1.00  0.00    -0.352 N 
ATOM      3  O   UNL A   1      35.690  31.262  30.210  1.00  0.00    -0.269 OA
ATOM      4  C   UNL A   1      35.835  30.519  29.239  1.00  0.00     0.251 C 
ATOM      5  H   UNL A   1      33.998  30.891  28.560  1.00  0.00     0.163 HD
BRANCH   4   6
ATOM      6  C   UNL A   1      37.158  29.901  28.988  1.00  0.00     0.039 A 
ATOM      7  C   UNL A   1      37.840  29.337  30.072  1.00  0.00     0.014 A 
ATOM      8  C   UNL A   1      37.782  29.967  27.739  1.00  0.00     0.014 A 
ATOM      9  C   UNL A   1      39.139  28.850  29.907  1.00  0.00     0.010 A 
ATOM     10  C   UNL A   1      39.048  29.411  27.556  1.00  0.00     0.010 A 
ATOM     11  C   UNL A   1      39.756  28.888  28.648  1.00  0.00    -0.014 A 
BRANCH  11  12
ATOM     12  C   UNL A   1      41.181  28.496  28.496  1.00  0.00     0.031 A 
ATOM     13  C   UNL A   1      41.529  27.072  28.147  1.00  0.00     0.074 A 
ATOM     14  C   UNL A   1      42.159  29.406  28.657  1.00  0.00     0.049 A 
ATOM     15  N   UNL A   1      42.706  26.522  27.974  1.00  0.00    -0.248 NA
ATOM     16  C   UNL A   1      40.404  26.134  27.994  1.00  0.00     0.031 C 
ATOM     17  C   UNL A   1      41.962  30.808  29.026  1.00  0.00     0.029 A 
ATOM     18  N   UNL A   1      43.519  29.284  28.524  1.00  0.00    -0.354 N 
ATOM     19  C   UNL A   1      42.460  25.181  27.701  1.00  0.00     0.074 A 
ATOM     20  C   UNL A   1      41.030  24.985  27.798  1.00  0.00     0.031 C 
ATOM     21  C   UNL A   1      43.156  31.423  29.063  1.00  0.00     0.029 A 
ATOM     22  C   UNL A   1      44.201  30.457  28.741  1.00  0.00     0.049 A 
ATOM     23  H   UNL A   1      43.964  28.437  28.294  1.00  0.00     0.167 HD
ATOM     24  C   UNL A   1      43.336  24.205  27.364  1.00  0.00     0.037 A 
ATOM     25  C   UNL A   1      45.520  30.719  28.677  1.00  0.00     0.037 A 
ATOM     26  C   UNL A   1      44.757  24.397  27.243  1.00  0.00     0.049 A 
ATOM     27  C   UNL A   1      46.473  29.622  28.290  1.00  0.00     0.074 A 
ATOM     28  C   UNL A   1      45.731  23.476  26.901  1.00  0.00     0.029 A 
ATOM     29  N   UNL A   1      45.404  25.606  27.449  1.00  0.00    -0.354 N 
ATOM     30  N   UNL A   1      46.221  28.367  28.006  1.00  0.00    -0.248 NA
ATOM     31  C   UNL A   1      47.894  29.985  28.200  1.00  0.00     0.031 C 
ATOM     32  C   UNL A   1      46.972  24.124  26.917  1.00  0.00     0.029 A 
ATOM     33  C   UNL A   1      46.765  25.456  27.236  1.00  0.00     0.049 A 
ATOM     34  H   UNL A   1      44.962  26.446  27.706  1.00  0.00     0.167 HD
ATOM     35  C   UNL A   1      47.446  27.798  27.682  1.00  0.00     0.074 A 
ATOM     36  C   UNL A   1      48.435  28.851  27.782  1.00  0.00     0.031 C 
ATOM     37  C   UNL A   1      47.731  26.518  27.336  1.00  0.00     0.037 A 
BRANCH  24  38
ATOM     38  C   UNL A   1      42.765  22.844  27.088  1.00  0.00     0.057 A 
ATOM     39  C   UNL A   1      42.541  22.407  25.778  1.00  0.00     0.134 A 
ATOM     40  C   UNL A   1      42.447  21.961  28.130  1.00  0.00     0.134 A 
ATOM     41  F   UNL A   1      42.822  23.202  24.736  1.00  0.00    -0.206 F 
ATOM     42  C   UNL A   1      42.030  21.134  25.512  1.00  0.00     0.040 A 
ATOM     43  C   UNL A   1      41.959  20.678  27.876  1.00  0.00     0.040 A 
ATOM     44  F   UNL A   1      42.656  22.313  29.407  1.00  0.00    -0.206 F 
ATOM     45  C   UNL A   1      41.746  20.263  26.564  1.00  0.00     0.006 A 
ENDBRANCH  24  38
BRANCH  25  46
ATOM     46  C   UNL A   1      46.022  32.087  28.952  1.00  0.00     0.057 A 
ATOM     47  C   UNL A   1      46.146  33.038  27.933  1.00  0.00     0.134 A 
ATOM     48  C   UNL A   1      46.356  32.485  30.252  1.00  0.00     0.134 A 
ATOM     49  F   UNL A   1      45.848  32.716  26.667  1.00  0.00    -0.206 F 
ATOM     50  C   UNL A   1      46.579  34.339  28.198  1.00  0.00     0.040 A 
ATOM     51  C   UNL A   1      46.768  33.788  30.534  1.00  0.00     0.040 A 
ATOM     52  F   UNL A   1      46.237  31.624  31.273  1.00  0.00    -0.206 F 
ATOM     53  C   UNL A   1      46.882  34.719  29.504  1.00  0.00     0.006 A 
ENDBRANCH  25  46
BRANCH  37  54
ATOM     54  C   UNL A   1      49.162  26.207  27.015  1.00  0.00     0.057 A 
ATOM     55  C   UNL A   1      49.641  26.331  25.705  1.00  0.00     0.134 A 
ATOM     56  C   UNL A   1      50.067  25.792  27.999  1.00  0.00     0.134 A 
ATOM     57  F   UNL A   1      48.823  26.718  24.714  1.00  0.00    -0.206 F 
ATOM     58  C   UNL A   1      50.973  26.060  25.388  1.00  0.00     0.040 A 
ATOM     59  C   UNL A   1      51.406  25.542  27.699  1.00  0.00     0.040 A 
ATOM     60  F   UNL A   1      49.673  25.670  29.277  1.00  0.00    -0.206 F 
ATOM     61  C   UNL A   1      51.862  25.674  26.388  1.00  0.00     0.006 A 
ENDBRANCH  37  54
ENDBRANCH  11  12
ENDBRANCH   4   6
ENDBRANCH   1   2
BRANCH   1  62
ATOM     62  C   UNL A   1      33.111  29.041  27.071  1.00  0.00     0.042 C 
BRANCH  62  63
ATOM     63  C   UNL A   1      32.555  29.819  25.880  1.00  0.00     0.117 C 
BRANCH  63  64
ATOM     64  N   UNL A   1      33.443  29.733  24.734  1.00  0.00    -0.354 N 
ATOM     65  C   UNL A   1      33.285  29.107  23.534  1.00  0.00     0.242 C 
ATOM     66  H   UNL A   1      34.301  30.204  24.843  1.00  0.00     0.163 HD
ATOM     67  O   UNL A   1      34.267  29.071  22.786  1.00  0.00    -0.273 OA
BRANCH  65  68
ATOM     68  C   UNL A   1      31.950  28.477  23.104  1.00  0.00     0.173 C 
ATOM     69  N   UNL A   1      30.863  29.475  23.125  1.00  0.00    -0.373 N 
ATOM     70  C   UNL A   1      31.523  27.289  23.939  1.00  0.00     0.036 C 
ATOM     71  C   UNL A   1      29.522  29.117  23.236  1.00  0.00     0.051 A 
ATOM     72  H   UNL A   1      31.095  30.430  23.056  1.00  0.00     0.161 HD
ATOM     73  C   UNL A   1      30.258  26.716  23.293  1.00  0.00     0.049 C 
ATOM     74  C   UNL A   1      32.444  26.085  24.080  1.00  0.00     0.034 C 
ATOM     75  C   UNL A   1      29.160  27.746  23.381  1.00  0.00    -0.017 A 
ATOM     76  C   UNL A   1      28.506  30.091  23.259  1.00  0.00     0.079 A 
ATOM     77  C   UNL A   1      30.189  25.405  24.020  1.00  0.00    -0.023 C 
ATOM     78  C   UNL A   1      31.420  25.034  24.415  1.00  0.00    -0.030 C 
ATOM     79  C   UNL A   1      27.813  27.372  23.474  1.00  0.00     0.006 A 
ATOM     80  C   UNL A   1      27.160  29.685  23.372  1.00  0.00     0.015 A 
ATOM     81  C   UNL A   1      26.817  28.339  23.472  1.00  0.00     0.001 A 
BRANCH  76  82
ATOM     82  C   UNL A   1      28.772  31.572  23.156  1.00  0.00     0.418 C 
ATOM     83  F   UNL A   1      27.625  32.310  23.202  1.00  0.00    -0.166 F 
ATOM     84  F   UNL A   1      29.543  32.033  24.184  1.00  0.00    -0.166 F 
ATOM     85  F   UNL A   1      29.413  31.968  22.017  1.00  0.00    -0.166 F 
ENDBRANCH  76  82
ENDBRANCH  65  68
ENDBRANCH  63  64
ENDBRANCH  62  63
ENDBRANCH   1  62
TORSDOF 11
ENDMDL
MODEL 2
REMARK VINA RESULT:     -12.8      6.289     11.018
REMARK SMILES O=C(NCCCNC(=O)[C@@H]1Nc2c(cccc2C(F)(F)F)[C@@H]2C=CC[C@@H]12)c1ccc(-c2c3nc(c(-c4c(F)cccc4F)c4ccc([nH]4)c(-c4c(F)cccc4F)c4nc(c(-c5c(F)cccc5F)c5ccc2[nH]5)C=C4)C=C3)cc1
REMARK SMILES IDX 4 1 3 2 1 3 2 4 27 6 28 7 80 8 29 9 79 10 30 11 31 12 32 13
REMARK SMILES IDX 73 14 33 15 78 16 72 17 74 18 34 19 77 20 71 21 70 22 35 24
REMARK SMILES IDX 61 25 44 26 60 27 45 28 48 29 59 30 75 31 46 32 47 33 58 35
REMARK SMILES IDX 76 36 49 37 36 38 37 39 42 40 38 41 39 42 41 43 43 44 40 45
REMARK SMILES IDX 62 46 63 47 68 48 64 49 65 50 67 51 69 52 66 53 50 54 51 55
REMARK SMILES IDX 56 56 52 57 53 58 55 59 57 60 54 61 5 62 6 63 7 64 8 65 9 67
REMARK SMILES IDX 10 68 11 69 26 70 12 71 22 73 25 74 13 75 17 76 23 77 24 78
REMARK SMILES IDX 14 79 16 80 15 81 18 82 19 83 20 84 21 85
REMARK H PARENT 3 5 74 23 48 34 7 66 11 72
REMARK Flexibility Score: inf
ROOT
ATOM      1  C   UNL A   1      37.846  23.893  26.112  1.00  0.00     0.118 C 
ENDROOT
BRANCH   1   2
ATOM      2  N   UNL A   1      39.278  23.664  26.026  1.00  0.00    -0.352 N 
ATOM      3  O   UNL A   1      41.466  24.136  26.113  1.00  0.00    -0.269 OA
ATOM      4  C   UNL A   1      40.327  24.413  26.487  1.00  0.00     0.251 C 
ATOM      5  H   UNL A   1      39.536  22.836  25.560  1.00  0.00     0.163 HD
BRANCH   4   6
ATOM      6  C   UNL A   1      40.125  25.539  27.429  1.00  0.00     0.039 A 
ATOM      7  C   UNL A   1      40.826  26.728  27.198  1.00  0.00     0.014 A 
ATOM      8  C   UNL A   1      39.354  25.407  28.588  1.00  0.00     0.014 A 
ATOM      9  C   UNL A   1      40.759  27.773  28.122  1.00  0.00     0.010 A 
ATOM     10  C   UNL A   1      39.225  26.478  29.472  1.00  0.00     0.010 A 
ATOM     11  C   UNL A   1      39.962  27.654  29.271  1.00  0.00    -0.014 A 
BRANCH  11  12
ATOM     12  C   UNL A   1      39.993  28.705  30.321  1.00  0.00     0.031 A 
ATOM     13  C   UNL A   1      39.008  29.844  30.264  1.00  0.00     0.074 A 
ATOM     14  C   UNL A   1      40.887  28.639  31.325  1.00  0.00     0.049 A 
ATOM     15  N   UNL A   1      38.869  30.864  31.075  1.00  0.00    -0.248 NA
ATOM     16  C   UNL A   1      38.068  29.850  29.132  1.00  0.00     0.031 C 
ATOM     17  C   UNL A   1      41.914  27.609  31.481  1.00  0.00     0.029 A 
ATOM     18  N   UNL A   1      41.067  29.458  32.410  1.00  0.00    -0.354 N 
ATOM     19  C   UNL A   1      37.836  31.629  30.546  1.00  0.00     0.074 A 
ATOM     20  C   UNL A   1      37.430  30.995  29.311  1.00  0.00     0.031 C 
ATOM     21  C   UNL A   1      42.600  27.843  32.612  1.00  0.00     0.029 A 
ATOM     22  C   UNL A   1      42.075  29.047  33.248  1.00  0.00     0.049 A 
ATOM     23  H   UNL A   1      40.526  30.264  32.574  1.00  0.00     0.167 HD
ATOM     24  C   UNL A   1      37.250  32.739  31.055  1.00  0.00     0.037 A 
ATOM     25  C   UNL A   1      42.516  29.580  34.403  1.00  0.00     0.037 A 
ATOM     26  C   UNL A   1      37.633  33.363  32.293  1.00  0.00     0.049 A 
ATOM     27  C   UNL A   1      41.843  30.807  34.954  1.00  0.00     0.074 A 
ATOM     28  C   UNL A   1      37.100  34.486  32.900  1.00  0.00     0.029 A 
ATOM     29  N   UNL A   1      38.644  32.901  33.123  1.00  0.00    -0.354 N 
ATOM     30  N   UNL A   1      40.849  31.501  34.457  1.00  0.00    -0.248 NA
ATOM     31  C   UNL A   1      42.347  31.314  36.239  1.00  0.00     0.031 C 
ATOM     32  C   UNL A   1      37.800  34.714  34.091  1.00  0.00     0.029 A 
ATOM     33  C   UNL A   1      38.747  33.714  34.240  1.00  0.00     0.049 A 
ATOM     34  H   UNL A   1      39.204  32.112  32.945  1.00  0.00     0.167 HD
ATOM     35  C   UNL A   1      40.593  32.510  35.376  1.00  0.00     0.074 A 
ATOM     36  C   UNL A   1      41.521  32.323  36.472  1.00  0.00     0.031 C 
ATOM     37  C   UNL A   1      39.675  33.507  35.321  1.00  0.00     0.037 A 
BRANCH  24  38
ATOM     38  C   UNL A   1      36.119  33.333  30.266  1.00  0.00     0.057 A 
ATOM     39  C   UNL A   1      36.362  34.098  29.119  1.00  0.00     0.134 A 
ATOM     40  C   UNL A   1      34.783  33.136  30.642  1.00  0.00     0.134 A 
ATOM     41  F   UNL A   1      37.617  34.328  28.705  1.00  0.00    -0.206 F 
ATOM     42  C   UNL A   1      35.315  34.637  28.368  1.00  0.00     0.040 A 
ATOM     43  C   UNL A   1      33.728  33.647  29.885  1.00  0.00     0.040 A 
ATOM     44  F   UNL A   1      34.483  32.396  31.721  1.00  0.00    -0.206 F 
ATOM     45  C   UNL A   1      33.993  34.403  28.746  1.00  0.00     0.006 A 
ENDBRANCH  24  38
BRANCH  25  46
ATOM     46  C   UNL A   1      43.634  28.941  35.141  1.00  0.00     0.057 A 
ATOM     47  C   UNL A   1      43.399  27.991  36.141  1.00  0.00     0.134 A 
ATOM     48  C   UNL A   1      44.965  29.242  34.835  1.00  0.00     0.134 A 
ATOM     49  F   UNL A   1      42.144  27.665  36.485  1.00  0.00    -0.206 F 
ATOM     50  C   UNL A   1      44.450  27.359  36.808  1.00  0.00     0.040 A 
ATOM     51  C   UNL A   1      46.026  28.601  35.476  1.00  0.00     0.040 A 
ATOM     52  F   UNL A   1      45.253  30.129  33.870  1.00  0.00    -0.206 F 
ATOM     53  C   UNL A   1      45.769  27.656  36.468  1.00  0.00     0.006 A 
ENDBRANCH  25  46
BRANCH  37  54
ATOM     54  C   UNL A   1      39.621  34.442  36.491  1.00  0.00     0.057 A 
ATOM     55  C   UNL A   1      38.910  34.096  37.646  1.00  0.00     0.134 A 
ATOM     56  C   UNL A   1      40.274  35.680  36.478  1.00  0.00     0.134 A 
ATOM     57  F   UNL A   1      38.256  32.927  37.720  1.00  0.00    -0.206 F 
ATOM     58  C   UNL A   1      38.859  34.946  38.753  1.00  0.00     0.040 A 
ATOM     59  C   UNL A   1      40.250  36.528  37.586  1.00  0.00     0.040 A 
ATOM     60  F   UNL A   1      40.986  36.063  35.406  1.00  0.00    -0.206 F 
ATOM     61  C   UNL A   1      39.539  36.162  38.728  1.00  0.00     0.006 A 
ENDBRANCH  37  54
ENDBRANCH  11  12
ENDBRANCH   4   6
ENDBRANCH   1   2
BRANCH   1  62
ATOM     62  C   UNL A   1      37.089  23.261  24.949  1.00  0.00     0.042 C 
BRANCH  62  63
ATOM     63  C   UNL A   1      36.450  21.914  25.285  1.00  0.00     0.117 C 
BRANCH  63  64
ATOM     64  N   UNL A   1      35.805  21.948  26.586  1.00  0.00    -0.354 N 
ATOM     65  C   UNL A   1      34.508  21.723  26.939  1.00  0.00     0.242 C 
ATOM     66  H   UNL A   1      36.403  22.171  27.336  1.00  0.00     0.163 HD
ATOM     67  O   UNL A   1      34.196  21.961  28.110  1.00  0.00    -0.273 OA
BRANCH  65  68
ATOM     68  C   UNL A   1      33.466  21.185  25.944  1.00  0.00     0.173 C 
ATOM     69  N   UNL A   1      33.792  19.808  25.529  1.00  0.00    -0.373 N 
ATOM     70  C   UNL A   1      33.296  22.031  24.701  1.00  0.00     0.036 C 
ATOM     71  C   UNL A   1      33.323  19.255  24.340  1.00  0.00     0.051 A 
ATOM     72  H   UNL A   1      34.361  19.258  26.116  1.00  0.00     0.161 HD
ATOM     73  C   UNL A   1      32.140  21.427  23.899  1.00  0.00     0.049 C 
ATOM     74  C   UNL A   1      32.931  23.504  24.823  1.00  0.00     0.034 C 
ATOM     75  C   UNL A   1      32.534  20.041  23.452  1.00  0.00    -0.017 A 
ATOM     76  C   UNL A   1      33.654  17.939  23.967  1.00  0.00     0.079 A 
ATOM     77  C   UNL A   1      31.907  22.547  22.930  1.00  0.00    -0.023 C 
ATOM     78  C   UNL A   1      32.306  23.713  23.470  1.00  0.00    -0.030 C 
ATOM     79  C   UNL A   1      32.039  19.490  22.262  1.00  0.00     0.006 A 
ATOM     80  C   UNL A   1      33.157  17.417  22.754  1.00  0.00     0.015 A 
ATOM     81  C   UNL A   1      32.353  18.182  21.914  1.00  0.00     0.001 A 
BRANCH  76  82
ATOM     82  C   UNL A   1      34.516  17.029  24.806  1.00  0.00     0.418 C 
ATOM     83  F   UNL A   1      34.688  15.802  24.233  1.00  0.00    -0.166 F 
ATOM     84  F   UNL A   1      35.775  17.527  24.986  1.00  0.00    -0.166 F 
ATOM     85  F   UNL A   1      34.044  16.779  26.063  1.00  0.00    -0.166 F 
ENDBRANCH  76  82
ENDBRANCH  65  68
ENDBRANCH  63  64
ENDBRANCH  62  63
ENDBRANCH   1  62
TORSDOF 11
ENDMDL
MODEL 3
REMARK VINA RESULT:     -12.7      4.266      8.845
REMARK SMILES O=C(NCCCNC(=O)[C@@H]1Nc2c(cccc2C(F)(F)F)[C@@H]2C=CC[C@@H]12)c1ccc(-c2c3nc(c(-c4c(F)cccc4F)c4ccc([nH]4)c(-c4c(F)cccc4F)c4nc(c(-c5c(F)cccc5F)c5ccc2[nH]5)C=C4)C=C3)cc1
REMARK SMILES IDX 4 1 3 2 1 3 2 4 27 6 28 7 80 8 29 9 79 10 30 11 31 12 32 13
REMARK SMILES IDX 73 14 33 15 78 16 72 17 74 18 34 19 77 20 71 21 70 22 35 24
REMARK SMILES IDX 61 25 44 26 60 27 45 28 48 29 59 30 75 31 46 32 47 33 58 35
REMARK SMILES IDX 76 36 49 37 36 38 37 39 42 40 38 41 39 42 41 43 43 44 40 45
REMARK SMILES IDX 62 46 63 47 68 48 64 49 65 50 67 51 69 52 66 53 50 54 51 55
REMARK SMILES IDX 56 56 52 57 53 58 55 59 57 60 54 61 5 62 6 63 7 64 8 65 9 67
REMARK SMILES IDX 10 68 11 69 26 70 12 71 22 73 25 74 13 75 17 76 23 77 24 78
REMARK SMILES IDX 14 79 16 80 15 81 18 82 19 83 20 84 21 85
REMARK H PARENT 3 5 74 23 48 34 7 66 11 72
REMARK Flexibility Score: inf
ROOT
ATOM      1  C   UNL A   1      38.959  20.189  26.104  1.00  0.00     0.118 C 
ENDROOT
BRANCH   1   2
ATOM      2  N   UNL A   1      40.026  19.204  26.037  1.00  0.00    -0.352 N 
ATOM      3  O   UNL A   1      42.099  18.403  25.751  1.00  0.00    -0.269 OA
ATOM      4  C   UNL A   1      41.385  19.367  26.031  1.00  0.00     0.251 C 
ATOM      5  H   UNL A   1      39.722  18.269  25.989  1.00  0.00     0.163 HD
BRANCH   4   6
ATOM      6  C   UNL A   1      42.016  20.667  26.359  1.00  0.00     0.039 A 
ATOM      7  C   UNL A   1      42.235  20.973  27.707  1.00  0.00     0.014 A 
ATOM      8  C   UNL A   1      42.288  21.627  25.381  1.00  0.00     0.014 A 
ATOM      9  C   UNL A   1      42.717  22.232  28.071  1.00  0.00     0.010 A 
ATOM     10  C   UNL A   1      42.842  22.857  25.738  1.00  0.00     0.010 A 
ATOM     11  C   UNL A   1      43.018  23.188  27.089  1.00  0.00    -0.014 A 
BRANCH  11  12
ATOM     12  C   UNL A   1      43.402  24.570  27.475  1.00  0.00     0.031 A 
ATOM     13  C   UNL A   1      44.840  25.004  27.360  1.00  0.00     0.074 A 
ATOM     14  C   UNL A   1      42.472  25.437  27.917  1.00  0.00     0.049 A 
ATOM     15  N   UNL A   1      45.385  26.160  27.649  1.00  0.00    -0.248 NA
ATOM     16  C   UNL A   1      45.798  23.997  26.876  1.00  0.00     0.031 C 
ATOM     17  C   UNL A   1      41.052  25.136  28.105  1.00  0.00     0.029 A 
ATOM     18  N   UNL A   1      42.586  26.755  28.282  1.00  0.00    -0.354 N 
ATOM     19  C   UNL A   1      46.743  26.014  27.389  1.00  0.00     0.074 A 
ATOM     20  C   UNL A   1      46.950  24.640  26.985  1.00  0.00     0.031 C 
ATOM     21  C   UNL A   1      40.421  26.246  28.526  1.00  0.00     0.029 A 
ATOM     22  C   UNL A   1      41.393  27.327  28.654  1.00  0.00     0.049 A 
ATOM     23  H   UNL A   1      43.439  27.243  28.277  1.00  0.00     0.167 HD
ATOM     24  C   UNL A   1      47.727  26.943  27.444  1.00  0.00     0.037 A 
ATOM     25  C   UNL A   1      41.119  28.586  29.045  1.00  0.00     0.037 A 
ATOM     26  C   UNL A   1      47.525  28.316  27.823  1.00  0.00     0.049 A 
ATOM     27  C   UNL A   1      42.226  29.602  29.089  1.00  0.00     0.074 A 
ATOM     28  C   UNL A   1      48.454  29.338  27.905  1.00  0.00     0.029 A 
ATOM     29  N   UNL A   1      46.299  28.861  28.170  1.00  0.00    -0.354 N 
ATOM     30  N   UNL A   1      43.499  29.455  28.812  1.00  0.00    -0.248 NA
ATOM     31  C   UNL A   1      41.852  30.967  29.486  1.00  0.00     0.031 C 
ATOM     32  C   UNL A   1      47.791  30.500  28.319  1.00  0.00     0.029 A 
ATOM     33  C   UNL A   1      46.444  30.206  28.463  1.00  0.00     0.049 A 
ATOM     34  H   UNL A   1      45.449  28.365  28.203  1.00  0.00     0.167 HD
ATOM     35  C   UNL A   1      44.072  30.710  28.978  1.00  0.00     0.074 A 
ATOM     36  C   UNL A   1      43.003  31.610  29.357  1.00  0.00     0.031 C 
ATOM     37  C   UNL A   1      45.366  31.085  28.834  1.00  0.00     0.037 A 
BRANCH  24  38
ATOM     38  C   UNL A   1      49.109  26.492  27.068  1.00  0.00     0.057 A 
ATOM     39  C   UNL A   1      50.002  26.019  28.035  1.00  0.00     0.134 A 
ATOM     40  C   UNL A   1      49.549  26.518  25.737  1.00  0.00     0.134 A 
ATOM     41  F   UNL A   1      49.646  25.969  29.327  1.00  0.00    -0.206 F 
ATOM     42  C   UNL A   1      51.282  25.578  27.691  1.00  0.00     0.040 A 
ATOM     43  C   UNL A   1      50.816  26.057  25.377  1.00  0.00     0.040 A 
ATOM     44  F   UNL A   1      48.733  26.943  24.760  1.00  0.00    -0.206 F 
ATOM     45  C   UNL A   1      51.688  25.588  26.357  1.00  0.00     0.006 A 
ENDBRANCH  24  38
BRANCH  25  46
ATOM     46  C   UNL A   1      39.731  28.972  29.397  1.00  0.00     0.057 A 
ATOM     47  C   UNL A   1      38.842  29.457  28.432  1.00  0.00     0.134 A 
ATOM     48  C   UNL A   1      39.251  28.829  30.704  1.00  0.00     0.134 A 
ATOM     49  F   UNL A   1      39.244  29.623  27.164  1.00  0.00    -0.206 F 
ATOM     50  C   UNL A   1      37.523  29.782  28.753  1.00  0.00     0.040 A 
ATOM     51  C   UNL A   1      37.929  29.127  31.034  1.00  0.00     0.040 A 
ATOM     52  F   UNL A   1      40.051  28.348  31.668  1.00  0.00    -0.206 F 
ATOM     53  C   UNL A   1      37.060  29.607  30.056  1.00  0.00     0.006 A 
ENDBRANCH  25  46
BRANCH  37  54
ATOM     54  C   UNL A   1      45.679  32.535  29.060  1.00  0.00     0.057 A 
ATOM     55  C   UNL A   1      45.616  33.450  28.002  1.00  0.00     0.134 A 
ATOM     56  C   UNL A   1      46.037  33.025  30.322  1.00  0.00     0.134 A 
ATOM     57  F   UNL A   1      45.286  33.043  26.767  1.00  0.00    -0.206 F 
ATOM     58  C   UNL A   1      45.889  34.805  28.195  1.00  0.00     0.040 A 
ATOM     59  C   UNL A   1      46.288  34.381  30.531  1.00  0.00     0.040 A 
ATOM     60  F   UNL A   1      46.099  32.200  31.379  1.00  0.00    -0.206 F 
ATOM     61  C   UNL A   1      46.217  35.276  29.464  1.00  0.00     0.006 A 
ENDBRANCH  37  54
ENDBRANCH  11  12
ENDBRANCH   4   6
ENDBRANCH   1   2
BRANCH   1  62
ATOM     62  C   UNL A   1      37.924  19.992  25.001  1.00  0.00     0.042 C 
BRANCH  62  63
ATOM     63  C   UNL A   1      36.988  21.185  24.811  1.00  0.00     0.117 C 
BRANCH  63  64
ATOM     64  N   UNL A   1      36.445  21.635  26.080  1.00  0.00    -0.354 N 
ATOM     65  C   UNL A   1      35.154  21.766  26.495  1.00  0.00     0.242 C 
ATOM     66  H   UNL A   1      37.121  21.886  26.751  1.00  0.00     0.163 HD
ATOM     67  O   UNL A   1      34.969  22.313  27.587  1.00  0.00    -0.273 OA
BRANCH  65  68
ATOM     68  C   UNL A   1      33.966  21.254  25.665  1.00  0.00     0.173 C 
ATOM     69  N   UNL A   1      34.138  19.831  25.317  1.00  0.00    -0.373 N 
ATOM     70  C   UNL A   1      33.715  22.030  24.390  1.00  0.00     0.036 C 
ATOM     71  C   UNL A   1      33.494  19.243  24.232  1.00  0.00     0.051 A 
ATOM     72  H   UNL A   1      34.729  19.275  25.876  1.00  0.00     0.161 HD
ATOM     73  C   UNL A   1      32.432  21.472  23.767  1.00  0.00     0.049 C 
ATOM     74  C   UNL A   1      33.477  23.532  24.444  1.00  0.00     0.034 C 
ATOM     75  C   UNL A   1      32.667  20.034  23.381  1.00  0.00    -0.017 A 
ATOM     76  C   UNL A   1      33.681  17.883  23.920  1.00  0.00     0.079 A 
ATOM     77  C   UNL A   1      32.171  22.544  22.751  1.00  0.00    -0.023 C 
ATOM     78  C   UNL A   1      32.716  23.705  23.157  1.00  0.00    -0.030 C 
ATOM     79  C   UNL A   1      31.998  19.450  22.298  1.00  0.00     0.006 A 
ATOM     80  C   UNL A   1      33.008  17.328  22.812  1.00  0.00     0.015 A 
ATOM     81  C   UNL A   1      32.170  18.101  22.013  1.00  0.00     0.001 A 
BRANCH  76  82
ATOM     82  C   UNL A   1      34.564  16.961  24.722  1.00  0.00     0.418 C 
ATOM     83  F   UNL A   1      34.021  16.642  25.933  1.00  0.00    -0.166 F 
ATOM     84  F   UNL A   1      34.777  15.768  24.093  1.00  0.00    -0.166 F 
ATOM     85  F   UNL A   1      35.810  17.448  25.001  1.00  0.00    -0.166 F 
ENDBRANCH  76  82
ENDBRANCH  65  68
ENDBRANCH  63  64
ENDBRANCH  62  63
ENDBRANCH   1  62
TORSDOF 11
ENDMDL
