MODEL 1
REMARK VINA RESULT:     -12.5      0.000      0.000
REMARK SMILES O=C(NCCCNC(=O)c1cccc(Nc2ccnc3ccc(F)cc23)c1)c1ccc(-c2c3nc(c(-c4c(F)cccc4F)c4ccc([nH]4)c(-c4c(F)cccc4F)c4nc(c(-c5c(F)cccc5F)c5ccc2[nH]5)C=C4)C=C3)cc1
REMARK SMILES IDX 5 1 4 2 3 3 1 4 2 5 28 7 29 8 81 9 30 10 80 11 31 12 32 13
REMARK SMILES IDX 33 14 74 15 34 16 79 17 73 18 75 19 35 20 78 21 72 22 71 23
REMARK SMILES IDX 36 25 62 26 45 27 61 28 46 29 49 30 60 31 76 32 47 33 48 34
REMARK SMILES IDX 59 36 77 37 50 38 37 39 38 40 43 41 39 42 40 43 42 44 44 45
REMARK SMILES IDX 41 46 63 47 64 48 69 49 65 50 66 51 68 52 70 53 67 54 51 55
REMARK SMILES IDX 52 56 57 57 53 58 54 59 56 60 58 61 55 62 6 63 7 64 8 65
REMARK SMILES IDX 9 67 10 68 11 69 27 70 12 71 14 72 13 73 15 74 16 76 17 77
REMARK SMILES IDX 26 78 18 79 20 80 25 81 19 82 21 83 23 84 22 85 24 86
REMARK H PARENT 3 6 75 24 49 35 7 66 15 75
REMARK Flexibility Score: inf
ROOT
ATOM      1  C   UNL A   1      38.130  19.526  24.650  1.00  0.00     0.042 C 
ENDROOT
BRANCH   1   2
ATOM      2  C   UNL A   1      39.022  19.783  25.862  1.00  0.00     0.118 C 
BRANCH   2   3
ATOM      3  N   UNL A   1      40.226  18.964  25.873  1.00  0.00    -0.352 N 
ATOM      4  O   UNL A   1      42.406  18.438  25.859  1.00  0.00    -0.269 OA
ATOM      5  C   UNL A   1      41.545  19.286  26.075  1.00  0.00     0.251 C 
ATOM      6  H   UNL A   1      40.066  18.007  25.705  1.00  0.00     0.163 HD
BRANCH   5   7
ATOM      7  C   UNL A   1      41.954  20.635  26.527  1.00  0.00     0.039 A 
ATOM      8  C   UNL A   1      42.129  20.937  27.879  1.00  0.00     0.014 A 
ATOM      9  C   UNL A   1      42.251  21.603  25.561  1.00  0.00     0.014 A 
ATOM     10  C   UNL A   1      42.466  22.233  28.270  1.00  0.00     0.010 A 
ATOM     11  C   UNL A   1      42.665  22.880  25.950  1.00  0.00     0.010 A 
ATOM     12  C   UNL A   1      42.748  23.215  27.310  1.00  0.00    -0.014 A 
BRANCH  12  13
ATOM     13  C   UNL A   1      43.185  24.571  27.731  1.00  0.00     0.031 A 
ATOM     14  C   UNL A   1      42.182  25.619  28.120  1.00  0.00     0.074 A 
ATOM     15  C   UNL A   1      44.499  24.866  27.734  1.00  0.00     0.049 A 
ATOM     16  N   UNL A   1      42.379  26.869  28.457  1.00  0.00    -0.248 NA
ATOM     17  C   UNL A   1      40.769  25.213  28.120  1.00  0.00     0.031 C 
ATOM     18  C   UNL A   1      45.571  23.941  27.360  1.00  0.00     0.029 A 
ATOM     19  N   UNL A   1      45.156  26.029  28.048  1.00  0.00    -0.354 N 
ATOM     20  C   UNL A   1      41.119  27.404  28.688  1.00  0.00     0.074 A 
ATOM     21  C   UNL A   1      40.162  26.350  28.427  1.00  0.00     0.031 C 
ATOM     22  C   UNL A   1      46.750  24.568  27.473  1.00  0.00     0.029 A 
ATOM     23  C   UNL A   1      46.517  25.953  27.871  1.00  0.00     0.049 A 
ATOM     24  H   UNL A   1      44.698  26.838  28.371  1.00  0.00     0.167 HD
ATOM     25  C   UNL A   1      40.793  28.658  29.087  1.00  0.00     0.037 A 
ATOM     26  C   UNL A   1      47.470  26.897  27.980  1.00  0.00     0.037 A 
ATOM     27  C   UNL A   1      41.752  29.700  29.350  1.00  0.00     0.049 A 
ATOM     28  C   UNL A   1      47.085  28.288  28.391  1.00  0.00     0.074 A 
ATOM     29  C   UNL A   1      41.525  30.985  29.812  1.00  0.00     0.029 A 
ATOM     30  N   UNL A   1      43.122  29.583  29.158  1.00  0.00    -0.354 N 
ATOM     31  N   UNL A   1      45.895  28.765  28.663  1.00  0.00    -0.248 NA
ATOM     32  C   UNL A   1      48.171  29.270  28.511  1.00  0.00     0.031 C 
ATOM     33  C   UNL A   1      42.748  31.662  29.844  1.00  0.00     0.029 A 
ATOM     34  C   UNL A   1      43.747  30.782  29.459  1.00  0.00     0.049 A 
ATOM     35  H   UNL A   1      43.581  28.767  28.852  1.00  0.00     0.167 HD
ATOM     36  C   UNL A   1      46.088  30.096  29.005  1.00  0.00     0.074 A 
ATOM     37  C   UNL A   1      47.512  30.348  28.915  1.00  0.00     0.031 C 
ATOM     38  C   UNL A   1      45.166  31.023  29.365  1.00  0.00     0.037 A 
BRANCH  25  39
ATOM     39  C   UNL A   1      39.333  28.980  29.231  1.00  0.00     0.057 A 
ATOM     40  C   UNL A   1      38.559  29.432  28.153  1.00  0.00     0.134 A 
ATOM     41  C   UNL A   1      38.686  28.816  30.463  1.00  0.00     0.134 A 
ATOM     42  F   UNL A   1      39.115  29.618  26.947  1.00  0.00    -0.206 F 
ATOM     43  C   UNL A   1      37.205  29.743  28.305  1.00  0.00     0.040 A 
ATOM     44  C   UNL A   1      37.327  29.097  30.621  1.00  0.00     0.040 A 
ATOM     45  F   UNL A   1      39.362  28.377  31.535  1.00  0.00    -0.206 F 
ATOM     46  C   UNL A   1      36.585  29.572  29.541  1.00  0.00     0.006 A 
ENDBRANCH  25  39
BRANCH  26  47
ATOM     47  C   UNL A   1      48.877  26.541  27.671  1.00  0.00     0.057 A 
ATOM     48  C   UNL A   1      49.748  26.090  28.667  1.00  0.00     0.134 A 
ATOM     49  C   UNL A   1      49.364  26.595  26.358  1.00  0.00     0.134 A 
ATOM     50  F   UNL A   1      49.342  26.031  29.943  1.00  0.00    -0.206 F 
ATOM     51  C   UNL A   1      51.056  25.703  28.370  1.00  0.00     0.040 A 
ATOM     52  C   UNL A   1      50.661  26.188  26.043  1.00  0.00     0.040 A 
ATOM     53  F   UNL A   1      48.573  27.010  25.359  1.00  0.00    -0.206 F 
ATOM     54  C   UNL A   1      51.512  25.742  27.052  1.00  0.00     0.006 A 
ENDBRANCH  26  47
BRANCH  38  55
ATOM     55  C   UNL A   1      45.665  32.392  29.722  1.00  0.00     0.057 A 
ATOM     56  C   UNL A   1      46.088  32.711  31.019  1.00  0.00     0.134 A 
ATOM     57  C   UNL A   1      45.785  33.383  28.740  1.00  0.00     0.134 A 
ATOM     58  F   UNL A   1      45.986  31.810  32.008  1.00  0.00    -0.206 F 
ATOM     59  C   UNL A   1      46.605  33.970  31.327  1.00  0.00     0.040 A 
ATOM     60  C   UNL A   1      46.322  34.638  29.031  1.00  0.00     0.040 A 
ATOM     61  F   UNL A   1      45.402  33.140  27.477  1.00  0.00    -0.206 F 
ATOM     62  C   UNL A   1      46.733  34.934  30.329  1.00  0.00     0.006 A 
ENDBRANCH  38  55
ENDBRANCH  12  13
ENDBRANCH   5   7
ENDBRANCH   2   3
ENDBRANCH   1   2
BRANCH   1  63
ATOM     63  C   UNL A   1      36.649  19.354  24.969  1.00  0.00     0.118 C 
BRANCH  63  64
ATOM     64  N   UNL A   1      36.238  17.964  25.033  1.00  0.00    -0.352 N 
ATOM     65  C   UNL A   1      35.063  17.329  24.731  1.00  0.00     0.251 C 
ATOM     66  H   UNL A   1      36.943  17.358  25.356  1.00  0.00     0.163 HD
ATOM     67  O   UNL A   1      34.963  16.137  25.020  1.00  0.00    -0.269 OA
BRANCH  65  68
ATOM     68  C   UNL A   1      33.911  18.007  24.090  1.00  0.00     0.041 A 
ATOM     69  C   UNL A   1      33.395  17.416  22.927  1.00  0.00     0.014 A 
ATOM     70  C   UNL A   1      33.465  19.279  24.471  1.00  0.00     0.039 A 
ATOM     71  C   UNL A   1      32.421  18.067  22.172  1.00  0.00     0.003 A 
ATOM     72  C   UNL A   1      32.493  19.946  23.708  1.00  0.00     0.039 A 
ATOM     73  C   UNL A   1      31.979  19.328  22.561  1.00  0.00     0.026 A 
BRANCH  72  74
ATOM     74  N   UNL A   1      32.231  21.326  23.913  1.00  0.00    -0.355 N 
ATOM     75  H   UNL A   1      31.606  21.806  23.321  1.00  0.00     0.167 HD
BRANCH  74  76
ATOM     76  C   UNL A   1      32.879  22.011  24.981  1.00  0.00     0.050 A 
ATOM     77  C   UNL A   1      32.174  22.193  26.174  1.00  0.00     0.047 A 
ATOM     78  C   UNL A   1      34.195  22.512  24.870  1.00  0.00     0.027 A 
ATOM     79  C   UNL A   1      32.819  22.777  27.240  1.00  0.00     0.114 A 
ATOM     80  C   UNL A   1      34.747  23.121  26.024  1.00  0.00     0.072 A 
ATOM     81  C   UNL A   1      34.983  22.423  23.700  1.00  0.00     0.051 A 
ATOM     82  N   UNL A   1      34.082  23.236  27.183  1.00  0.00    -0.256 NA
ATOM     83  C   UNL A   1      36.037  23.629  25.970  1.00  0.00     0.032 A 
ATOM     84  C   UNL A   1      36.268  22.954  23.681  1.00  0.00     0.124 A 
ATOM     85  C   UNL A   1      36.802  23.564  24.805  1.00  0.00     0.041 A 
ATOM     86  F   UNL A   1      37.002  22.881  22.563  1.00  0.00    -0.207 F 
ENDBRANCH  74  76
ENDBRANCH  72  74
ENDBRANCH  65  68
ENDBRANCH  63  64
ENDBRANCH   1  63
TORSDOF 12
ENDMDL
MODEL 2
REMARK VINA RESULT:     -12.4      5.478      9.974
REMARK SMILES O=C(NCCCNC(=O)c1cccc(Nc2ccnc3ccc(F)cc23)c1)c1ccc(-c2c3nc(c(-c4c(F)cccc4F)c4ccc([nH]4)c(-c4c(F)cccc4F)c4nc(c(-c5c(F)cccc5F)c5ccc2[nH]5)C=C4)C=C3)cc1
REMARK SMILES IDX 5 1 4 2 3 3 1 4 2 5 28 7 29 8 81 9 30 10 80 11 31 12 32 13
REMARK SMILES IDX 33 14 74 15 34 16 79 17 73 18 75 19 35 20 78 21 72 22 71 23
REMARK SMILES IDX 36 25 62 26 45 27 61 28 46 29 49 30 60 31 76 32 47 33 48 34
REMARK SMILES IDX 59 36 77 37 50 38 37 39 38 40 43 41 39 42 40 43 42 44 44 45
REMARK SMILES IDX 41 46 63 47 64 48 69 49 65 50 66 51 68 52 70 53 67 54 51 55
REMARK SMILES IDX 52 56 57 57 53 58 54 59 56 60 58 61 55 62 6 63 7 64 8 65
REMARK SMILES IDX 9 67 10 68 11 69 27 70 12 71 14 72 13 73 15 74 16 76 17 77
REMARK SMILES IDX 26 78 18 79 20 80 25 81 19 82 21 83 23 84 22 85 24 86
REMARK H PARENT 3 6 75 24 49 35 7 66 15 75
REMARK Flexibility Score: inf
ROOT
ATOM      1  C   UNL A   1      31.497  31.872  26.885  1.00  0.00     0.042 C 
ENDROOT
BRANCH   1   2
ATOM      2  C   UNL A   1      32.730  32.772  26.846  1.00  0.00     0.118 C 
BRANCH   2   3
ATOM      3  N   UNL A   1      32.542  34.032  27.551  1.00  0.00    -0.352 N 
ATOM      4  O   UNL A   1      32.691  35.570  29.177  1.00  0.00    -0.269 OA
ATOM      5  C   UNL A   1      33.150  34.551  28.667  1.00  0.00     0.251 C 
ATOM      6  H   UNL A   1      31.857  34.619  27.156  1.00  0.00     0.163 HD
BRANCH   5   7
ATOM      7  C   UNL A   1      34.329  33.900  29.283  1.00  0.00     0.039 A 
ATOM      8  C   UNL A   1      34.199  32.840  30.181  1.00  0.00     0.014 A 
ATOM      9  C   UNL A   1      35.606  34.314  28.884  1.00  0.00     0.014 A 
ATOM     10  C   UNL A   1      35.331  32.286  30.780  1.00  0.00     0.010 A 
ATOM     11  C   UNL A   1      36.741  33.706  29.424  1.00  0.00     0.010 A 
ATOM     12  C   UNL A   1      36.614  32.705  30.399  1.00  0.00    -0.014 A 
BRANCH  12  13
ATOM     13  C   UNL A   1      37.817  32.055  30.980  1.00  0.00     0.031 A 
ATOM     14  C   UNL A   1      38.539  30.965  30.240  1.00  0.00     0.074 A 
ATOM     15  C   UNL A   1      38.243  32.433  32.201  1.00  0.00     0.049 A 
ATOM     16  N   UNL A   1      39.567  30.248  30.619  1.00  0.00    -0.248 NA
ATOM     17  C   UNL A   1      38.033  30.628  28.902  1.00  0.00     0.031 C 
ATOM     18  C   UNL A   1      37.617  33.466  33.028  1.00  0.00     0.029 A 
ATOM     19  N   UNL A   1      39.291  31.984  32.964  1.00  0.00    -0.354 N 
ATOM     20  C   UNL A   1      39.819  29.364  29.579  1.00  0.00     0.074 A 
ATOM     21  C   UNL A   1      38.817  29.615  28.564  1.00  0.00     0.031 C 
ATOM     22  C   UNL A   1      38.295  33.577  34.178  1.00  0.00     0.029 A 
ATOM     23  C   UNL A   1      39.368  32.587  34.196  1.00  0.00     0.049 A 
ATOM     24  H   UNL A   1      39.927  31.298  32.658  1.00  0.00     0.167 HD
ATOM     25  C   UNL A   1      40.798  28.431  29.480  1.00  0.00     0.037 A 
ATOM     26  C   UNL A   1      40.183  32.350  35.240  1.00  0.00     0.037 A 
ATOM     27  C   UNL A   1      41.794  28.191  30.493  1.00  0.00     0.049 A 
ATOM     28  C   UNL A   1      41.240  31.291  35.122  1.00  0.00     0.074 A 
ATOM     29  C   UNL A   1      42.860  27.309  30.461  1.00  0.00     0.029 A 
ATOM     30  N   UNL A   1      41.836  28.823  31.727  1.00  0.00    -0.354 N 
ATOM     31  N   UNL A   1      41.503  30.501  34.110  1.00  0.00    -0.248 NA
ATOM     32  C   UNL A   1      42.112  31.090  36.287  1.00  0.00     0.031 C 
ATOM     33  C   UNL A   1      43.512  27.366  31.697  1.00  0.00     0.029 A 
ATOM     34  C   UNL A   1      42.889  28.325  32.478  1.00  0.00     0.049 A 
ATOM     35  H   UNL A   1      41.211  29.522  32.025  1.00  0.00     0.167 HD
ATOM     36  C   UNL A   1      42.583  29.722  34.506  1.00  0.00     0.074 A 
ATOM     37  C   UNL A   1      42.931  30.143  35.848  1.00  0.00     0.031 C 
ATOM     38  C   UNL A   1      43.227  28.751  33.815  1.00  0.00     0.037 A 
BRANCH  25  39
ATOM     39  C   UNL A   1      40.818  27.579  28.243  1.00  0.00     0.057 A 
ATOM     40  C   UNL A   1      40.107  26.374  28.156  1.00  0.00     0.134 A 
ATOM     41  C   UNL A   1      41.543  27.980  27.114  1.00  0.00     0.134 A 
ATOM     42  F   UNL A   1      39.397  25.925  29.202  1.00  0.00    -0.206 F 
ATOM     43  C   UNL A   1      40.148  25.583  27.005  1.00  0.00     0.040 A 
ATOM     44  C   UNL A   1      41.570  27.212  25.948  1.00  0.00     0.040 A 
ATOM     45  F   UNL A   1      42.238  29.128  27.122  1.00  0.00    -0.206 F 
ATOM     46  C   UNL A   1      40.877  26.004  25.895  1.00  0.00     0.006 A 
ENDBRANCH  25  39
BRANCH  26  47
ATOM     47  C   UNL A   1      40.003  33.129  36.489  1.00  0.00     0.057 A 
ATOM     48  C   UNL A   1      40.711  34.314  36.715  1.00  0.00     0.134 A 
ATOM     49  C   UNL A   1      39.075  32.733  37.461  1.00  0.00     0.134 A 
ATOM     50  F   UNL A   1      41.622  34.735  35.828  1.00  0.00    -0.206 F 
ATOM     51  C   UNL A   1      40.503  35.078  37.865  1.00  0.00     0.040 A 
ATOM     52  C   UNL A   1      38.840  33.499  38.603  1.00  0.00     0.040 A 
ATOM     53  F   UNL A   1      38.358  31.612  37.295  1.00  0.00    -0.206 F 
ATOM     54  C   UNL A   1      39.557  34.675  38.808  1.00  0.00     0.006 A 
ENDBRANCH  26  47
BRANCH  38  55
ATOM     55  C   UNL A   1      44.398  28.090  34.480  1.00  0.00     0.057 A 
ATOM     56  C   UNL A   1      44.264  26.897  35.201  1.00  0.00     0.134 A 
ATOM     57  C   UNL A   1      45.687  28.619  34.339  1.00  0.00     0.134 A 
ATOM     58  F   UNL A   1      43.055  26.346  35.384  1.00  0.00    -0.206 F 
ATOM     59  C   UNL A   1      45.369  26.259  35.766  1.00  0.00     0.040 A 
ATOM     60  C   UNL A   1      46.803  27.978  34.879  1.00  0.00     0.040 A 
ATOM     61  F   UNL A   1      45.886  29.757  33.655  1.00  0.00    -0.206 F 
ATOM     62  C   UNL A   1      46.645  26.795  35.597  1.00  0.00     0.006 A 
ENDBRANCH  38  55
ENDBRANCH  12  13
ENDBRANCH   5   7
ENDBRANCH   2   3
ENDBRANCH   1   2
BRANCH   1  63
ATOM     63  C   UNL A   1      31.794  30.377  26.863  1.00  0.00     0.118 C 
BRANCH  63  64
ATOM     64  N   UNL A   1      33.089  30.046  27.426  1.00  0.00    -0.352 N 
ATOM     65  C   UNL A   1      34.013  29.082  27.125  1.00  0.00     0.251 C 
ATOM     66  H   UNL A   1      33.357  30.630  28.172  1.00  0.00     0.163 HD
ATOM     67  O   UNL A   1      34.978  28.955  27.878  1.00  0.00    -0.269 OA
BRANCH  65  68
ATOM     68  C   UNL A   1      33.900  28.183  25.952  1.00  0.00     0.041 A 
ATOM     69  C   UNL A   1      33.959  28.784  24.685  1.00  0.00     0.014 A 
ATOM     70  C   UNL A   1      33.544  26.832  26.056  1.00  0.00     0.039 A 
ATOM     71  C   UNL A   1      33.702  28.041  23.535  1.00  0.00     0.003 A 
ATOM     72  C   UNL A   1      33.273  26.080  24.901  1.00  0.00     0.039 A 
ATOM     73  C   UNL A   1      33.356  26.698  23.646  1.00  0.00     0.026 A 
BRANCH  72  74
ATOM     74  N   UNL A   1      32.652  24.807  24.994  1.00  0.00    -0.355 N 
ATOM     75  H   UNL A   1      31.797  24.637  24.535  1.00  0.00     0.167 HD
BRANCH  74  76
ATOM     76  C   UNL A   1      33.276  23.778  25.756  1.00  0.00     0.050 A 
ATOM     77  C   UNL A   1      32.731  23.456  27.003  1.00  0.00     0.047 A 
ATOM     78  C   UNL A   1      34.418  23.083  25.299  1.00  0.00     0.027 A 
ATOM     79  C   UNL A   1      33.272  22.406  27.709  1.00  0.00     0.114 A 
ATOM     80  C   UNL A   1      34.906  22.040  26.125  1.00  0.00     0.072 A 
ATOM     81  C   UNL A   1      35.076  23.353  24.077  1.00  0.00     0.051 A 
ATOM     82  N   UNL A   1      34.338  21.701  27.292  1.00  0.00    -0.256 NA
ATOM     83  C   UNL A   1      36.025  21.327  25.722  1.00  0.00     0.032 A 
ATOM     84  C   UNL A   1      36.202  22.623  23.713  1.00  0.00     0.124 A 
ATOM     85  C   UNL A   1      36.688  21.614  24.529  1.00  0.00     0.041 A 
ATOM     86  F   UNL A   1      36.829  22.898  22.563  1.00  0.00    -0.207 F 
ENDBRANCH  74  76
ENDBRANCH  72  74
ENDBRANCH  65  68
ENDBRANCH  63  64
ENDBRANCH   1  63
TORSDOF 12
ENDMDL
MODEL 3
REMARK VINA RESULT:     -12.4      2.534      3.823
REMARK SMILES O=C(NCCCNC(=O)c1cccc(Nc2ccnc3ccc(F)cc23)c1)c1ccc(-c2c3nc(c(-c4c(F)cccc4F)c4ccc([nH]4)c(-c4c(F)cccc4F)c4nc(c(-c5c(F)cccc5F)c5ccc2[nH]5)C=C4)C=C3)cc1
REMARK SMILES IDX 5 1 4 2 3 3 1 4 2 5 28 7 29 8 81 9 30 10 80 11 31 12 32 13
REMARK SMILES IDX 33 14 74 15 34 16 79 17 73 18 75 19 35 20 78 21 72 22 71 23
REMARK SMILES IDX 36 25 62 26 45 27 61 28 46 29 49 30 60 31 76 32 47 33 48 34
REMARK SMILES IDX 59 36 77 37 50 38 37 39 38 40 43 41 39 42 40 43 42 44 44 45
REMARK SMILES IDX 41 46 63 47 64 48 69 49 65 50 66 51 68 52 70 53 67 54 51 55
REMARK SMILES IDX 52 56 57 57 53 58 54 59 56 60 58 61 55 62 6 63 7 64 8 65
REMARK SMILES IDX 9 67 10 68 11 69 27 70 12 71 14 72 13 73 15 74 16 76 17 77
REMARK SMILES IDX 26 78 18 79 20 80 25 81 19 82 21 83 23 84 22 85 24 86
REMARK H PARENT 3 6 75 24 49 35 7 66 15 75
REMARK Flexibility Score: inf
ROOT
ATOM      1  C   UNL A   1      38.063  19.872  24.711  1.00  0.00     0.042 C 
ENDROOT
BRANCH   1   2
ATOM      2  C   UNL A   1      38.920  19.870  25.975  1.00  0.00     0.118 C 
BRANCH   2   3
ATOM      3  N   UNL A   1      40.183  19.165  25.810  1.00  0.00    -0.352 N 
ATOM      4  O   UNL A   1      42.391  18.839  25.593  1.00  0.00    -0.269 OA
ATOM      5  C   UNL A   1      41.483  19.578  25.964  1.00  0.00     0.251 C 
ATOM      6  H   UNL A   1      40.088  18.223  25.541  1.00  0.00     0.163 HD
BRANCH   5   7
ATOM      7  C   UNL A   1      41.816  20.899  26.544  1.00  0.00     0.039 A 
ATOM      8  C   UNL A   1      41.821  21.116  27.923  1.00  0.00     0.014 A 
ATOM      9  C   UNL A   1      42.213  21.928  25.682  1.00  0.00     0.014 A 
ATOM     10  C   UNL A   1      42.089  22.387  28.431  1.00  0.00     0.010 A 
ATOM     11  C   UNL A   1      42.559  23.180  26.196  1.00  0.00     0.010 A 
ATOM     12  C   UNL A   1      42.472  23.429  27.574  1.00  0.00    -0.014 A 
BRANCH  12  13
ATOM     13  C   UNL A   1      42.835  24.759  28.128  1.00  0.00     0.031 A 
ATOM     14  C   UNL A   1      41.786  25.806  28.374  1.00  0.00     0.074 A 
ATOM     15  C   UNL A   1      44.129  25.033  28.385  1.00  0.00     0.049 A 
ATOM     16  N   UNL A   1      41.928  27.037  28.796  1.00  0.00    -0.248 NA
ATOM     17  C   UNL A   1      40.394  25.423  28.097  1.00  0.00     0.031 C 
ATOM     18  C   UNL A   1      45.243  24.108  28.172  1.00  0.00     0.029 A 
ATOM     19  N   UNL A   1      44.727  26.171  28.865  1.00  0.00    -0.354 N 
ATOM     20  C   UNL A   1      40.652  27.582  28.817  1.00  0.00     0.074 A 
ATOM     21  C   UNL A   1      39.750  26.556  28.338  1.00  0.00     0.031 C 
ATOM     22  C   UNL A   1      46.387  24.710  28.526  1.00  0.00     0.029 A 
ATOM     23  C   UNL A   1      46.096  26.080  28.936  1.00  0.00     0.049 A 
ATOM     24  H   UNL A   1      44.224  26.973  29.135  1.00  0.00     0.167 HD
ATOM     25  C   UNL A   1      40.268  28.824  29.205  1.00  0.00     0.037 A 
ATOM     26  C   UNL A   1      47.020  27.003  29.259  1.00  0.00     0.037 A 
ATOM     27  C   UNL A   1      41.171  29.838  29.685  1.00  0.00     0.049 A 
ATOM     28  C   UNL A   1      46.578  28.382  29.655  1.00  0.00     0.074 A 
ATOM     29  C   UNL A   1      40.874  31.106  30.154  1.00  0.00     0.029 A 
ATOM     30  N   UNL A   1      42.552  29.707  29.741  1.00  0.00    -0.354 N 
ATOM     31  N   UNL A   1      45.362  28.866  29.725  1.00  0.00    -0.248 NA
ATOM     32  C   UNL A   1      47.631  29.341  30.014  1.00  0.00     0.031 C 
ATOM     33  C   UNL A   1      42.076  31.761  30.439  1.00  0.00     0.029 A 
ATOM     34  C   UNL A   1      43.121  30.883  30.204  1.00  0.00     0.049 A 
ATOM     35  H   UNL A   1      43.053  28.898  29.489  1.00  0.00     0.167 HD
ATOM     36  C   UNL A   1      45.500  30.178  30.156  1.00  0.00     0.074 A 
ATOM     37  C   UNL A   1      46.919  30.411  30.339  1.00  0.00     0.031 C 
ATOM     38  C   UNL A   1      44.535  31.104  30.383  1.00  0.00     0.037 A 
BRANCH  25  39
ATOM     39  C   UNL A   1      38.809  29.163  29.093  1.00  0.00     0.057 A 
ATOM     40  C   UNL A   1      37.941  29.092  30.191  1.00  0.00     0.134 A 
ATOM     41  C   UNL A   1      38.268  29.586  27.872  1.00  0.00     0.134 A 
ATOM     42  F   UNL A   1      38.389  28.688  31.389  1.00  0.00    -0.206 F 
ATOM     43  C   UNL A   1      36.582  29.394  30.069  1.00  0.00     0.040 A 
ATOM     44  C   UNL A   1      36.917  29.917  27.744  1.00  0.00     0.040 A 
ATOM     45  F   UNL A   1      39.043  29.687  26.781  1.00  0.00    -0.206 F 
ATOM     46  C   UNL A   1      36.068  29.812  28.844  1.00  0.00     0.006 A 
ENDBRANCH  25  39
BRANCH  26  47
ATOM     47  C   UNL A   1      48.457  26.639  29.198  1.00  0.00     0.057 A 
ATOM     48  C   UNL A   1      49.230  26.916  28.066  1.00  0.00     0.134 A 
ATOM     49  C   UNL A   1      49.102  26.054  30.296  1.00  0.00     0.134 A 
ATOM     50  F   UNL A   1      48.665  27.462  26.980  1.00  0.00    -0.206 F 
ATOM     51  C   UNL A   1      50.595  26.624  28.027  1.00  0.00     0.040 A 
ATOM     52  C   UNL A   1      50.469  25.779  30.279  1.00  0.00     0.040 A 
ATOM     53  F   UNL A   1      48.416  25.774  31.414  1.00  0.00    -0.206 F 
ATOM     54  C   UNL A   1      51.219  26.063  29.140  1.00  0.00     0.006 A 
ENDBRANCH  26  47
BRANCH  38  55
ATOM     55  C   UNL A   1      44.971  32.448  30.885  1.00  0.00     0.057 A 
ATOM     56  C   UNL A   1      45.216  33.519  30.017  1.00  0.00     0.134 A 
ATOM     57  C   UNL A   1      45.081  32.692  32.260  1.00  0.00     0.134 A 
ATOM     58  F   UNL A   1      45.141  33.348  28.688  1.00  0.00    -0.206 F 
ATOM     59  C   UNL A   1      45.564  34.783  30.498  1.00  0.00     0.040 A 
ATOM     60  C   UNL A   1      45.405  33.956  32.754  1.00  0.00     0.040 A 
ATOM     61  F   UNL A   1      44.854  31.710  33.146  1.00  0.00    -0.206 F 
ATOM     62  C   UNL A   1      45.649  35.006  31.871  1.00  0.00     0.006 A 
ENDBRANCH  38  55
ENDBRANCH  12  13
ENDBRANCH   5   7
ENDBRANCH   2   3
ENDBRANCH   1   2
BRANCH   1  63
ATOM     63  C   UNL A   1      37.247  21.142  24.492  1.00  0.00     0.118 C 
BRANCH  63  64
ATOM     64  N   UNL A   1      37.833  22.311  25.121  1.00  0.00    -0.352 N 
ATOM     65  C   UNL A   1      37.286  23.427  25.695  1.00  0.00     0.251 C 
ATOM     66  H   UNL A   1      38.817  22.298  25.141  1.00  0.00     0.163 HD
ATOM     67  O   UNL A   1      38.050  24.332  26.031  1.00  0.00    -0.269 OA
BRANCH  65  68
ATOM     68  C   UNL A   1      35.831  23.602  25.916  1.00  0.00     0.041 A 
ATOM     69  C   UNL A   1      35.213  22.705  26.801  1.00  0.00     0.014 A 
ATOM     70  C   UNL A   1      35.040  24.465  25.146  1.00  0.00     0.039 A 
ATOM     71  C   UNL A   1      33.827  22.693  26.945  1.00  0.00     0.003 A 
ATOM     72  C   UNL A   1      33.642  24.449  25.278  1.00  0.00     0.039 A 
ATOM     73  C   UNL A   1      33.049  23.558  26.182  1.00  0.00     0.026 A 
BRANCH  72  74
ATOM     74  N   UNL A   1      32.817  25.106  24.328  1.00  0.00    -0.355 N 
ATOM     75  H   UNL A   1      32.106  24.609  23.860  1.00  0.00     0.167 HD
BRANCH  74  76
ATOM     76  C   UNL A   1      33.025  26.488  24.056  1.00  0.00     0.050 A 
ATOM     77  C   UNL A   1      33.605  26.842  22.835  1.00  0.00     0.047 A 
ATOM     78  C   UNL A   1      32.671  27.502  24.975  1.00  0.00     0.027 A 
ATOM     79  C   UNL A   1      33.732  28.177  22.526  1.00  0.00     0.114 A 
ATOM     80  C   UNL A   1      32.875  28.841  24.559  1.00  0.00     0.072 A 
ATOM     81  C   UNL A   1      32.119  27.259  26.253  1.00  0.00     0.051 A 
ATOM     82  N   UNL A   1      33.378  29.170  23.360  1.00  0.00    -0.256 NA
ATOM     83  C   UNL A   1      32.545  29.875  25.423  1.00  0.00     0.032 A 
ATOM     84  C   UNL A   1      31.811  28.321  27.095  1.00  0.00     0.124 A 
ATOM     85  C   UNL A   1      32.025  29.630  26.695  1.00  0.00     0.041 A 
ATOM     86  F   UNL A   1      31.304  28.081  28.311  1.00  0.00    -0.207 F 
ENDBRANCH  74  76
ENDBRANCH  72  74
ENDBRANCH  65  68
ENDBRANCH  63  64
ENDBRANCH   1  63
TORSDOF 12
ENDMDL
