MODEL 1
REMARK VINA RESULT:     -11.3      0.000      0.000
REMARK SMILES CC(C)C[C@H](CNC(=O)N[C@@H](C)C1CCCCC1)C(=O)NCCCNC(=O)c1ccc(-c2c3nc(c(-c4c(F)cccc4F)c4ccc([nH]4)c(-c4c(F)cccc4F)c4nc(c(-c5c(F)cccc5F)c5ccc2[nH]5)C=C4)C=C3)cc1
REMARK SMILES IDX 22 1 21 2 19 3 20 4 5 6 4 7 2 8 1 9 3 10 6 11 7 12 8 13 9 15
REMARK SMILES IDX 10 16 11 18 12 19 13 20 14 21 18 22 15 23 17 24 16 25 23 26
REMARK SMILES IDX 24 27 25 28 26 29 27 31 28 32 29 33 81 34 30 35 80 36 31 37
REMARK SMILES IDX 32 38 33 39 74 40 34 41 79 42 73 43 75 44 35 45 78 46 72 47
REMARK SMILES IDX 71 48 36 50 62 51 45 52 61 53 46 54 49 55 60 56 76 57 47 58
REMARK SMILES IDX 48 59 59 61 77 62 50 63 37 64 38 65 43 66 39 67 40 68 42 69
REMARK SMILES IDX 44 70 41 71 63 72 64 73 69 74 65 75 66 76 68 77 70 78 67 79
REMARK SMILES IDX 51 80 52 81 57 82 53 83 54 84 56 85 58 86 55 87
REMARK H PARENT 21 5 7 14 10 17 25 30 75 49 49 60
REMARK Flexibility Score: inf
ROOT
ATOM      1  C   UNL A   1      36.444  20.627  25.002  1.00  0.00     0.117 C 
ENDROOT
BRANCH   1   2
ATOM      2  N   UNL A   1      35.211  19.984  25.398  1.00  0.00    -0.356 N 
ATOM      3  C   UNL A   1      33.952  20.477  25.436  1.00  0.00     0.224 C 
ATOM      4  O   UNL A   1      33.049  19.685  25.727  1.00  0.00    -0.275 OA
ATOM      5  H   UNL A   1      35.301  19.045  25.682  1.00  0.00     0.163 HD
BRANCH   3   6
ATOM      6  C   UNL A   1      33.640  21.942  25.209  1.00  0.00     0.098 C 
BRANCH   6   7
ATOM      7  C   UNL A   1      34.275  23.050  26.079  1.00  0.00     0.018 C 
BRANCH   7   8
ATOM      8  C   UNL A   1      35.261  24.133  25.593  1.00  0.00    -0.017 C 
ATOM      9  C   UNL A   1      36.715  23.926  26.003  1.00  0.00     0.007 C 
ATOM     10  C   UNL A   1      35.190  24.212  24.058  1.00  0.00     0.007 C 
ENDBRANCH   7   8
ENDBRANCH   6   7
BRANCH   6  11
ATOM     11  C   UNL A   1      32.156  22.143  24.802  1.00  0.00     0.131 C 
BRANCH  11  12
ATOM     12  N   UNL A   1      31.158  22.229  25.860  1.00  0.00    -0.337 N 
ATOM     13  C   UNL A   1      30.736  23.178  26.706  1.00  0.00     0.315 C 
ATOM     14  H   UNL A   1      30.673  21.380  25.984  1.00  0.00     0.165 HD
ATOM     15  O   UNL A   1      30.155  22.825  27.735  1.00  0.00    -0.249 OA
ATOM     16  N   UNL A   1      30.942  24.486  26.511  1.00  0.00    -0.335 N 
ATOM     17  H   UNL A   1      31.108  25.012  27.327  1.00  0.00     0.165 HD
BRANCH  16  18
ATOM     18  C   UNL A   1      30.959  25.248  25.266  1.00  0.00     0.083 C 
ATOM     19  C   UNL A   1      29.648  26.026  25.153  1.00  0.00     0.031 C 
BRANCH  18  20
ATOM     20  C   UNL A   1      32.267  26.079  25.166  1.00  0.00     0.011 C 
ATOM     21  C   UNL A   1      32.209  27.002  23.931  1.00  0.00     0.006 C 
ATOM     22  C   UNL A   1      32.618  26.905  26.415  1.00  0.00     0.006 C 
ATOM     23  C   UNL A   1      33.520  27.750  23.735  1.00  0.00     0.000 C 
ATOM     24  C   UNL A   1      33.894  27.727  26.223  1.00  0.00     0.000 C 
ATOM     25  C   UNL A   1      33.841  28.588  24.964  1.00  0.00     0.000 C 
ENDBRANCH  18  20
ENDBRANCH  16  18
ENDBRANCH  11  12
ENDBRANCH   6  11
ENDBRANCH   3   6
ENDBRANCH   1   2
BRANCH   1  26
ATOM     26  C   UNL A   1      37.613  19.671  24.957  1.00  0.00     0.042 C 
BRANCH  26  27
ATOM     27  C   UNL A   1      38.870  20.275  25.543  1.00  0.00     0.118 C 
BRANCH  27  28
ATOM     28  N   UNL A   1      39.905  19.275  25.771  1.00  0.00    -0.352 N 
ATOM     29  C   UNL A   1      41.227  19.448  26.115  1.00  0.00     0.251 C 
ATOM     30  H   UNL A   1      39.617  18.340  25.663  1.00  0.00     0.163 HD
ATOM     31  O   UNL A   1      42.018  18.520  26.020  1.00  0.00    -0.269 OA
BRANCH  29  32
ATOM     32  C   UNL A   1      41.684  20.777  26.576  1.00  0.00     0.039 A 
ATOM     33  C   UNL A   1      42.231  21.679  25.663  1.00  0.00     0.014 A 
ATOM     34  C   UNL A   1      41.541  21.136  27.915  1.00  0.00     0.014 A 
ATOM     35  C   UNL A   1      42.553  22.972  26.084  1.00  0.00     0.010 A 
ATOM     36  C   UNL A   1      41.716  22.455  28.293  1.00  0.00     0.010 A 
ATOM     37  C   UNL A   1      42.252  23.385  27.392  1.00  0.00    -0.014 A 
BRANCH  37  38
ATOM     38  C   UNL A   1      42.524  24.760  27.882  1.00  0.00     0.031 A 
ATOM     39  C   UNL A   1      43.917  25.117  28.331  1.00  0.00     0.074 A 
ATOM     40  C   UNL A   1      41.518  25.645  28.022  1.00  0.00     0.049 A 
ATOM     41  N   UNL A   1      44.340  26.186  28.957  1.00  0.00    -0.248 NA
ATOM     42  C   UNL A   1      44.968  24.112  28.091  1.00  0.00     0.031 C 
ATOM     43  C   UNL A   1      40.118  25.407  27.666  1.00  0.00     0.029 A 
ATOM     44  N   UNL A   1      41.519  26.922  28.526  1.00  0.00    -0.354 N 
ATOM     45  C   UNL A   1      45.687  25.962  29.210  1.00  0.00     0.074 A 
ATOM     46  C   UNL A   1      45.998  24.634  28.737  1.00  0.00     0.031 C 
ATOM     47  C   UNL A   1      39.401  26.509  27.939  1.00  0.00     0.029 A 
ATOM     48  C   UNL A   1      40.277  27.510  28.539  1.00  0.00     0.049 A 
ATOM     49  H   UNL A   1      42.333  27.374  28.846  1.00  0.00     0.167 HD
ATOM     50  C   UNL A   1      46.595  26.802  29.762  1.00  0.00     0.037 A 
ATOM     51  C   UNL A   1      39.887  28.713  29.004  1.00  0.00     0.037 A 
ATOM     52  C   UNL A   1      46.289  28.139  30.191  1.00  0.00     0.049 A 
ATOM     53  C   UNL A   1      40.911  29.627  29.619  1.00  0.00     0.074 A 
ATOM     54  C   UNL A   1      47.147  29.096  30.705  1.00  0.00     0.029 A 
ATOM     55  N   UNL A   1      45.026  28.709  30.153  1.00  0.00    -0.354 N 
ATOM     56  N   UNL A   1      42.194  29.427  29.803  1.00  0.00    -0.248 NA
ATOM     57  C   UNL A   1      40.436  30.935  30.090  1.00  0.00     0.031 C 
ATOM     58  C   UNL A   1      46.393  30.228  31.024  1.00  0.00     0.029 A 
ATOM     59  C   UNL A   1      45.077  29.999  30.651  1.00  0.00     0.049 A 
ATOM     60  H   UNL A   1      44.214  28.262  29.820  1.00  0.00     0.167 HD
ATOM     61  C   UNL A   1      42.685  30.596  30.370  1.00  0.00     0.074 A 
ATOM     62  C   UNL A   1      41.563  31.501  30.500  1.00  0.00     0.031 C 
ATOM     63  C   UNL A   1      43.953  30.895  30.746  1.00  0.00     0.037 A 
BRANCH  50  64
ATOM     64  C   UNL A   1      48.000  26.297  29.926  1.00  0.00     0.057 A 
ATOM     65  C   UNL A   1      48.957  26.422  28.910  1.00  0.00     0.134 A 
ATOM     66  C   UNL A   1      48.410  25.704  31.126  1.00  0.00     0.134 A 
ATOM     67  F   UNL A   1      48.628  26.970  27.728  1.00  0.00    -0.206 F 
ATOM     68  C   UNL A   1      50.260  25.947  29.067  1.00  0.00     0.040 A 
ATOM     69  C   UNL A   1      49.720  25.254  31.309  1.00  0.00     0.040 A 
ATOM     70  F   UNL A   1      47.549  25.557  32.144  1.00  0.00    -0.206 F 
ATOM     71  C   UNL A   1      50.646  25.367  30.274  1.00  0.00     0.006 A 
ENDBRANCH  50  64
BRANCH  51  72
ATOM     72  C   UNL A   1      38.466  29.131  28.888  1.00  0.00     0.057 A 
ATOM     73  C   UNL A   1      37.958  29.632  27.683  1.00  0.00     0.134 A 
ATOM     74  C   UNL A   1      37.585  29.050  29.973  1.00  0.00     0.134 A 
ATOM     75  F   UNL A   1      38.756  29.750  26.612  1.00  0.00    -0.206 F 
ATOM     76  C   UNL A   1      36.633  30.058  27.567  1.00  0.00     0.040 A 
ATOM     77  C   UNL A   1      36.250  29.446  29.864  1.00  0.00     0.040 A 
ATOM     78  F   UNL A   1      38.006  28.574  31.154  1.00  0.00    -0.206 F 
ATOM     79  C   UNL A   1      35.774  29.961  28.660  1.00  0.00     0.006 A 
ENDBRANCH  51  72
BRANCH  63  80
ATOM     80  C   UNL A   1      44.216  32.275  31.270  1.00  0.00     0.057 A 
ATOM     81  C   UNL A   1      44.514  33.349  30.425  1.00  0.00     0.134 A 
ATOM     82  C   UNL A   1      44.091  32.542  32.641  1.00  0.00     0.134 A 
ATOM     83  F   UNL A   1      44.658  33.158  29.105  1.00  0.00    -0.206 F 
ATOM     84  C   UNL A   1      44.690  34.641  30.926  1.00  0.00     0.040 A 
ATOM     85  C   UNL A   1      44.237  33.832  33.149  1.00  0.00     0.040 A 
ATOM     86  F   UNL A   1      43.797  31.557  33.504  1.00  0.00    -0.206 F 
ATOM     87  C   UNL A   1      44.540  34.887  32.290  1.00  0.00     0.006 A 
ENDBRANCH  63  80
ENDBRANCH  37  38
ENDBRANCH  29  32
ENDBRANCH  27  28
ENDBRANCH  26  27
ENDBRANCH   1  26
TORSDOF 16
ENDMDL
MODEL 2
REMARK VINA RESULT:     -11.3      0.687      6.291
REMARK SMILES CC(C)C[C@H](CNC(=O)N[C@@H](C)C1CCCCC1)C(=O)NCCCNC(=O)c1ccc(-c2c3nc(c(-c4c(F)cccc4F)c4ccc([nH]4)c(-c4c(F)cccc4F)c4nc(c(-c5c(F)cccc5F)c5ccc2[nH]5)C=C4)C=C3)cc1
REMARK SMILES IDX 22 1 21 2 19 3 20 4 5 6 4 7 2 8 1 9 3 10 6 11 7 12 8 13 9 15
REMARK SMILES IDX 10 16 11 18 12 19 13 20 14 21 18 22 15 23 17 24 16 25 23 26
REMARK SMILES IDX 24 27 25 28 26 29 27 31 28 32 29 33 81 34 30 35 80 36 31 37
REMARK SMILES IDX 32 38 33 39 74 40 34 41 79 42 73 43 75 44 35 45 78 46 72 47
REMARK SMILES IDX 71 48 36 50 62 51 45 52 61 53 46 54 49 55 60 56 76 57 47 58
REMARK SMILES IDX 48 59 59 61 77 62 50 63 37 64 38 65 43 66 39 67 40 68 42 69
REMARK SMILES IDX 44 70 41 71 63 72 64 73 69 74 65 75 66 76 68 77 70 78 67 79
REMARK SMILES IDX 51 80 52 81 57 82 53 83 54 84 56 85 58 86 55 87
REMARK H PARENT 21 5 7 14 10 17 25 30 75 49 49 60
REMARK Flexibility Score: inf
ROOT
ATOM      1  C   UNL A   1      36.006  20.391  24.751  1.00  0.00     0.117 C 
ENDROOT
BRANCH   1   2
ATOM      2  N   UNL A   1      34.766  19.849  25.262  1.00  0.00    -0.356 N 
ATOM      3  C   UNL A   1      33.560  20.441  25.414  1.00  0.00     0.224 C 
ATOM      4  O   UNL A   1      32.627  19.725  25.792  1.00  0.00    -0.275 OA
ATOM      5  H   UNL A   1      34.807  18.905  25.541  1.00  0.00     0.163 HD
BRANCH   3   6
ATOM      6  C   UNL A   1      33.348  21.928  25.209  1.00  0.00     0.098 C 
BRANCH   6   7
ATOM      7  C   UNL A   1      34.050  22.977  26.100  1.00  0.00     0.018 C 
BRANCH   7   8
ATOM      8  C   UNL A   1      35.061  24.041  25.625  1.00  0.00    -0.017 C 
ATOM      9  C   UNL A   1      36.519  23.762  25.976  1.00  0.00     0.007 C 
ATOM     10  C   UNL A   1      34.943  24.188  24.098  1.00  0.00     0.007 C 
ENDBRANCH   7   8
ENDBRANCH   6   7
BRANCH   6  11
ATOM     11  C   UNL A   1      31.883  22.233  24.799  1.00  0.00     0.131 C 
BRANCH  11  12
ATOM     12  N   UNL A   1      30.876  22.312  25.849  1.00  0.00    -0.337 N 
ATOM     13  C   UNL A   1      30.584  23.170  26.836  1.00  0.00     0.315 C 
ATOM     14  H   UNL A   1      30.257  21.546  25.828  1.00  0.00     0.165 HD
ATOM     15  O   UNL A   1      29.918  22.756  27.788  1.00  0.00    -0.249 OA
ATOM     16  N   UNL A   1      31.004  24.440  26.859  1.00  0.00    -0.335 N 
ATOM     17  H   UNL A   1      31.224  24.793  27.751  1.00  0.00     0.165 HD
BRANCH  16  18
ATOM     18  C   UNL A   1      31.187  25.378  25.756  1.00  0.00     0.083 C 
ATOM     19  C   UNL A   1      29.813  25.881  25.312  1.00  0.00     0.031 C 
BRANCH  18  20
ATOM     20  C   UNL A   1      32.228  26.463  26.144  1.00  0.00     0.011 C 
ATOM     21  C   UNL A   1      32.867  27.055  24.871  1.00  0.00     0.006 C 
ATOM     22  C   UNL A   1      31.695  27.598  27.034  1.00  0.00     0.006 C 
ATOM     23  C   UNL A   1      33.975  28.042  25.214  1.00  0.00     0.000 C 
ATOM     24  C   UNL A   1      32.767  28.647  27.336  1.00  0.00     0.000 C 
ATOM     25  C   UNL A   1      33.429  29.177  26.067  1.00  0.00     0.000 C 
ENDBRANCH  18  20
ENDBRANCH  16  18
ENDBRANCH  11  12
ENDBRANCH   6  11
ENDBRANCH   3   6
ENDBRANCH   1   2
BRANCH   1  26
ATOM     26  C   UNL A   1      37.177  19.457  24.947  1.00  0.00     0.042 C 
BRANCH  26  27
ATOM     27  C   UNL A   1      38.408  20.179  25.448  1.00  0.00     0.118 C 
BRANCH  27  28
ATOM     28  N   UNL A   1      39.548  19.284  25.594  1.00  0.00    -0.352 N 
ATOM     29  C   UNL A   1      40.838  19.568  25.984  1.00  0.00     0.251 C 
ATOM     30  H   UNL A   1      39.371  18.339  25.382  1.00  0.00     0.163 HD
ATOM     31  O   UNL A   1      41.731  18.751  25.810  1.00  0.00    -0.269 OA
BRANCH  29  32
ATOM     32  C   UNL A   1      41.134  20.883  26.591  1.00  0.00     0.039 A 
ATOM     33  C   UNL A   1      41.212  21.006  27.979  1.00  0.00     0.014 A 
ATOM     34  C   UNL A   1      41.366  21.990  25.776  1.00  0.00     0.014 A 
ATOM     35  C   UNL A   1      41.605  22.224  28.540  1.00  0.00     0.010 A 
ATOM     36  C   UNL A   1      41.901  23.144  26.323  1.00  0.00     0.010 A 
ATOM     37  C   UNL A   1      42.001  23.287  27.713  1.00  0.00    -0.014 A 
BRANCH  37  38
ATOM     38  C   UNL A   1      42.477  24.587  28.251  1.00  0.00     0.031 A 
ATOM     39  C   UNL A   1      41.481  25.693  28.488  1.00  0.00     0.074 A 
ATOM     40  C   UNL A   1      43.794  24.812  28.424  1.00  0.00     0.049 A 
ATOM     41  N   UNL A   1      41.690  26.952  28.776  1.00  0.00    -0.248 NA
ATOM     42  C   UNL A   1      40.058  25.347  28.329  1.00  0.00     0.031 C 
ATOM     43  C   UNL A   1      44.862  23.839  28.187  1.00  0.00     0.029 A 
ATOM     44  N   UNL A   1      44.460  25.945  28.823  1.00  0.00    -0.354 N 
ATOM     45  C   UNL A   1      40.434  27.545  28.797  1.00  0.00     0.074 A 
ATOM     46  C   UNL A   1      39.476  26.531  28.425  1.00  0.00     0.031 C 
ATOM     47  C   UNL A   1      46.046  24.408  28.468  1.00  0.00     0.029 A 
ATOM     48  C   UNL A   1      45.826  25.799  28.850  1.00  0.00     0.049 A 
ATOM     49  H   UNL A   1      44.001  26.781  29.065  1.00  0.00     0.167 HD
ATOM     50  C   UNL A   1      40.104  28.816  29.125  1.00  0.00     0.037 A 
ATOM     51  C   UNL A   1      46.792  26.695  29.132  1.00  0.00     0.037 A 
ATOM     52  C   UNL A   1      41.059  29.809  29.537  1.00  0.00     0.049 A 
ATOM     53  C   UNL A   1      46.402  28.104  29.489  1.00  0.00     0.074 A 
ATOM     54  C   UNL A   1      40.826  31.107  29.953  1.00  0.00     0.029 A 
ATOM     55  N   UNL A   1      42.430  29.609  29.588  1.00  0.00    -0.354 N 
ATOM     56  N   UNL A   1      45.207  28.639  29.558  1.00  0.00    -0.248 NA
ATOM     57  C   UNL A   1      47.494  29.034  29.808  1.00  0.00     0.031 C 
ATOM     58  C   UNL A   1      42.060  31.711  30.207  1.00  0.00     0.029 A 
ATOM     59  C   UNL A   1      43.058  30.768  30.010  1.00  0.00     0.049 A 
ATOM     60  H   UNL A   1      42.888  28.769  29.358  1.00  0.00     0.167 HD
ATOM     61  C   UNL A   1      45.400  29.952  29.969  1.00  0.00     0.074 A 
ATOM     62  C   UNL A   1      46.827  30.133  30.133  1.00  0.00     0.031 C 
ATOM     63  C   UNL A   1      44.478  30.920  30.195  1.00  0.00     0.037 A 
BRANCH  50  64
ATOM     64  C   UNL A   1      38.654  29.198  29.057  1.00  0.00     0.057 A 
ATOM     65  C   UNL A   1      37.821  29.155  30.183  1.00  0.00     0.134 A 
ATOM     66  C   UNL A   1      38.087  29.642  27.856  1.00  0.00     0.134 A 
ATOM     67  F   UNL A   1      38.294  28.727  31.365  1.00  0.00    -0.206 F 
ATOM     68  C   UNL A   1      36.472  29.507  30.111  1.00  0.00     0.040 A 
ATOM     69  C   UNL A   1      36.748  30.029  27.777  1.00  0.00     0.040 A 
ATOM     70  F   UNL A   1      38.827  29.714  26.739  1.00  0.00    -0.206 F 
ATOM     71  C   UNL A   1      35.935  29.954  28.906  1.00  0.00     0.006 A 
ENDBRANCH  50  64
BRANCH  51  72
ATOM     72  C   UNL A   1      48.219  26.284  29.108  1.00  0.00     0.057 A 
ATOM     73  C   UNL A   1      48.842  25.773  30.254  1.00  0.00     0.134 A 
ATOM     74  C   UNL A   1      48.997  26.396  27.950  1.00  0.00     0.134 A 
ATOM     75  F   UNL A   1      48.154  25.657  31.400  1.00  0.00    -0.206 F 
ATOM     76  C   UNL A   1      50.191  25.411  30.255  1.00  0.00     0.040 A 
ATOM     77  C   UNL A   1      50.340  26.011  27.929  1.00  0.00     0.040 A 
ATOM     78  F   UNL A   1      48.461  26.871  26.816  1.00  0.00    -0.206 F 
ATOM     79  C   UNL A   1      50.942  25.526  29.088  1.00  0.00     0.006 A 
ENDBRANCH  51  72
BRANCH  63  80
ATOM     80  C   UNL A   1      44.968  32.242  30.707  1.00  0.00     0.057 A 
ATOM     81  C   UNL A   1      45.272  33.306  29.852  1.00  0.00     0.134 A 
ATOM     82  C   UNL A   1      45.059  32.470  32.087  1.00  0.00     0.134 A 
ATOM     83  F   UNL A   1      45.215  33.148  28.521  1.00  0.00    -0.206 F 
ATOM     84  C   UNL A   1      45.662  34.551  30.351  1.00  0.00     0.040 A 
ATOM     85  C   UNL A   1      45.419  33.717  32.597  1.00  0.00     0.040 A 
ATOM     86  F   UNL A   1      44.770  31.494  32.961  1.00  0.00    -0.206 F 
ATOM     87  C   UNL A   1      45.726  34.761  31.727  1.00  0.00     0.006 A 
ENDBRANCH  63  80
ENDBRANCH  37  38
ENDBRANCH  29  32
ENDBRANCH  27  28
ENDBRANCH  26  27
ENDBRANCH   1  26
TORSDOF 16
ENDMDL
MODEL 3
REMARK VINA RESULT:     -10.9      4.389      8.842
REMARK SMILES CC(C)C[C@H](CNC(=O)N[C@@H](C)C1CCCCC1)C(=O)NCCCNC(=O)c1ccc(-c2c3nc(c(-c4c(F)cccc4F)c4ccc([nH]4)c(-c4c(F)cccc4F)c4nc(c(-c5c(F)cccc5F)c5ccc2[nH]5)C=C4)C=C3)cc1
REMARK SMILES IDX 22 1 21 2 19 3 20 4 5 6 4 7 2 8 1 9 3 10 6 11 7 12 8 13 9 15
REMARK SMILES IDX 10 16 11 18 12 19 13 20 14 21 18 22 15 23 17 24 16 25 23 26
REMARK SMILES IDX 24 27 25 28 26 29 27 31 28 32 29 33 81 34 30 35 80 36 31 37
REMARK SMILES IDX 32 38 33 39 74 40 34 41 79 42 73 43 75 44 35 45 78 46 72 47
REMARK SMILES IDX 71 48 36 50 62 51 45 52 61 53 46 54 49 55 60 56 76 57 47 58
REMARK SMILES IDX 48 59 59 61 77 62 50 63 37 64 38 65 43 66 39 67 40 68 42 69
REMARK SMILES IDX 44 70 41 71 63 72 64 73 69 74 65 75 66 76 68 77 70 78 67 79
REMARK SMILES IDX 51 80 52 81 57 82 53 83 54 84 56 85 58 86 55 87
REMARK H PARENT 21 5 7 14 10 17 25 30 75 49 49 60
REMARK Flexibility Score: inf
ROOT
ATOM      1  C   UNL A   1      31.029  30.415  25.778  1.00  0.00     0.117 C 
ENDROOT
BRANCH   1   2
ATOM      2  N   UNL A   1      31.366  30.119  24.404  1.00  0.00    -0.356 N 
ATOM      3  C   UNL A   1      31.841  28.978  23.855  1.00  0.00     0.224 C 
ATOM      4  O   UNL A   1      31.961  28.955  22.626  1.00  0.00    -0.275 OA
ATOM      5  H   UNL A   1      31.228  30.861  23.771  1.00  0.00     0.163 HD
BRANCH   3   6
ATOM      6  C   UNL A   1      32.283  27.792  24.689  1.00  0.00     0.098 C 
BRANCH   6   7
ATOM      7  C   UNL A   1      33.652  27.771  25.406  1.00  0.00     0.018 C 
BRANCH   7   8
ATOM      8  C   UNL A   1      33.915  28.171  26.872  1.00  0.00    -0.017 C 
ATOM      9  C   UNL A   1      34.612  29.514  27.070  1.00  0.00     0.007 C 
ATOM     10  C   UNL A   1      32.573  28.199  27.625  1.00  0.00     0.007 C 
ENDBRANCH   7   8
ENDBRANCH   6   7
BRANCH   6  11
ATOM     11  C   UNL A   1      31.808  26.456  24.059  1.00  0.00     0.131 C 
BRANCH  11  12
ATOM     12  N   UNL A   1      32.119  26.206  22.658  1.00  0.00    -0.337 N 
ATOM     13  C   UNL A   1      33.061  25.524  21.991  1.00  0.00     0.315 C 
ATOM     14  H   UNL A   1      31.480  26.646  22.051  1.00  0.00     0.165 HD
ATOM     15  O   UNL A   1      33.278  25.829  20.817  1.00  0.00    -0.249 OA
ATOM     16  N   UNL A   1      33.800  24.554  22.542  1.00  0.00    -0.335 N 
ATOM     17  H   UNL A   1      34.731  24.507  22.228  1.00  0.00     0.165 HD
BRANCH  16  18
ATOM     18  C   UNL A   1      33.429  23.558  23.543  1.00  0.00     0.083 C 
ATOM     19  C   UNL A   1      32.690  22.418  22.844  1.00  0.00     0.031 C 
BRANCH  18  20
ATOM     20  C   UNL A   1      34.671  23.162  24.388  1.00  0.00     0.011 C 
ATOM     21  C   UNL A   1      35.830  22.753  23.457  1.00  0.00     0.006 C 
ATOM     22  C   UNL A   1      35.156  24.230  25.383  1.00  0.00     0.006 C 
ATOM     23  C   UNL A   1      37.028  22.250  24.250  1.00  0.00     0.000 C 
ATOM     24  C   UNL A   1      36.405  23.783  26.145  1.00  0.00     0.000 C 
ATOM     25  C   UNL A   1      37.519  23.325  25.208  1.00  0.00     0.000 C 
ENDBRANCH  18  20
ENDBRANCH  16  18
ENDBRANCH  11  12
ENDBRANCH   6  11
ENDBRANCH   3   6
ENDBRANCH   1   2
BRANCH   1  26
ATOM     26  C   UNL A   1      31.029  31.896  26.075  1.00  0.00     0.042 C 
BRANCH  26  27
ATOM     27  C   UNL A   1      32.239  32.321  26.876  1.00  0.00     0.118 C 
BRANCH  27  28
ATOM     28  N   UNL A   1      32.152  33.709  27.308  1.00  0.00    -0.352 N 
ATOM     29  C   UNL A   1      32.899  34.379  28.251  1.00  0.00     0.251 C 
ATOM     30  H   UNL A   1      31.458  34.246  26.863  1.00  0.00     0.163 HD
ATOM     31  O   UNL A   1      32.531  35.467  28.673  1.00  0.00    -0.269 OA
BRANCH  29  32
ATOM     32  C   UNL A   1      34.138  33.757  28.765  1.00  0.00     0.039 A 
ATOM     33  C   UNL A   1      35.371  34.366  28.532  1.00  0.00     0.014 A 
ATOM     34  C   UNL A   1      34.068  32.579  29.508  1.00  0.00     0.014 A 
ATOM     35  C   UNL A   1      36.522  33.834  29.118  1.00  0.00     0.010 A 
ATOM     36  C   UNL A   1      35.179  32.144  30.209  1.00  0.00     0.010 A 
ATOM     37  C   UNL A   1      36.427  32.747  30.002  1.00  0.00    -0.014 A 
BRANCH  37  38
ATOM     38  C   UNL A   1      37.607  32.171  30.695  1.00  0.00     0.031 A 
ATOM     39  C   UNL A   1      38.379  31.059  30.030  1.00  0.00     0.074 A 
ATOM     40  C   UNL A   1      37.922  32.562  31.945  1.00  0.00     0.049 A 
ATOM     41  N   UNL A   1      39.319  30.293  30.520  1.00  0.00    -0.248 NA
ATOM     42  C   UNL A   1      38.005  30.732  28.643  1.00  0.00     0.031 C 
ATOM     43  C   UNL A   1      37.227  33.596  32.715  1.00  0.00     0.029 A 
ATOM     44  N   UNL A   1      38.901  32.116  32.798  1.00  0.00    -0.354 N 
ATOM     45  C   UNL A   1      39.618  29.380  29.517  1.00  0.00     0.074 A 
ATOM     46  C   UNL A   1      38.716  29.639  28.420  1.00  0.00     0.031 C 
ATOM     47  C   UNL A   1      37.816  33.721  33.915  1.00  0.00     0.029 A 
ATOM     48  C   UNL A   1      38.893  32.742  34.022  1.00  0.00     0.049 A 
ATOM     49  H   UNL A   1      39.548  31.414  32.556  1.00  0.00     0.167 HD
ATOM     50  C   UNL A   1      40.580  28.427  29.499  1.00  0.00     0.037 A 
ATOM     51  C   UNL A   1      39.655  32.533  35.113  1.00  0.00     0.037 A 
ATOM     52  C   UNL A   1      41.503  28.203  30.578  1.00  0.00     0.049 A 
ATOM     53  C   UNL A   1      40.713  31.465  35.072  1.00  0.00     0.074 A 
ATOM     54  C   UNL A   1      42.556  27.309  30.638  1.00  0.00     0.029 A 
ATOM     55  N   UNL A   1      41.484  28.885  31.785  1.00  0.00    -0.354 N 
ATOM     56  N   UNL A   1      41.023  30.644  34.098  1.00  0.00    -0.248 NA
ATOM     57  C   UNL A   1      41.529  31.294  36.282  1.00  0.00     0.031 C 
ATOM     58  C   UNL A   1      43.144  27.413  31.901  1.00  0.00     0.029 A 
ATOM     59  C   UNL A   1      42.496  28.417  32.605  1.00  0.00     0.049 A 
ATOM     60  H   UNL A   1      40.846  29.596  32.023  1.00  0.00     0.167 HD
ATOM     61  C   UNL A   1      42.095  29.891  34.560  1.00  0.00     0.074 A 
ATOM     62  C   UNL A   1      42.382  30.352  35.902  1.00  0.00     0.031 C 
ATOM     63  C   UNL A   1      42.783  28.909  33.928  1.00  0.00     0.037 A 
BRANCH  50  64
ATOM     64  C   UNL A   1      40.682  27.564  28.274  1.00  0.00     0.057 A 
ATOM     65  C   UNL A   1      40.006  26.340  28.170  1.00  0.00     0.134 A 
ATOM     66  C   UNL A   1      41.443  27.974  27.173  1.00  0.00     0.134 A 
ATOM     67  F   UNL A   1      39.269  25.880  29.194  1.00  0.00    -0.206 F 
ATOM     68  C   UNL A   1      40.110  25.541  27.031  1.00  0.00     0.040 A 
ATOM     69  C   UNL A   1      41.528  27.200  26.014  1.00  0.00     0.040 A 
ATOM     70  F   UNL A   1      42.112  29.137  27.201  1.00  0.00    -0.206 F 
ATOM     71  C   UNL A   1      40.867  25.975  25.945  1.00  0.00     0.006 A 
ENDBRANCH  50  64
BRANCH  51  72
ATOM     72  C   UNL A   1      39.458  33.364  36.329  1.00  0.00     0.057 A 
ATOM     73  C   UNL A   1      40.127  34.585  36.483  1.00  0.00     0.134 A 
ATOM     74  C   UNL A   1      38.610  32.960  37.366  1.00  0.00     0.134 A 
ATOM     75  F   UNL A   1      40.967  35.018  35.532  1.00  0.00    -0.206 F 
ATOM     76  C   UNL A   1      39.977  35.362  37.633  1.00  0.00     0.040 A 
ATOM     77  C   UNL A   1      38.428  33.741  38.510  1.00  0.00     0.040 A 
ATOM     78  F   UNL A   1      37.934  31.804  37.279  1.00  0.00    -0.206 F 
ATOM     79  C   UNL A   1      39.121  34.942  38.649  1.00  0.00     0.006 A 
ENDBRANCH  51  72
BRANCH  63  80
ATOM     80  C   UNL A   1      43.955  28.307  34.645  1.00  0.00     0.057 A 
ATOM     81  C   UNL A   1      45.233  28.874  34.591  1.00  0.00     0.134 A 
ATOM     82  C   UNL A   1      43.777  27.185  35.466  1.00  0.00     0.134 A 
ATOM     83  F   UNL A   1      45.472  29.943  33.815  1.00  0.00    -0.206 F 
ATOM     84  C   UNL A   1      46.297  28.338  35.319  1.00  0.00     0.040 A 
ATOM     85  C   UNL A   1      44.825  26.659  36.220  1.00  0.00     0.040 A 
ATOM     86  F   UNL A   1      42.573  26.601  35.570  1.00  0.00    -0.206 F 
ATOM     87  C   UNL A   1      46.092  27.234  36.145  1.00  0.00     0.006 A 
ENDBRANCH  63  80
ENDBRANCH  37  38
ENDBRANCH  29  32
ENDBRANCH  27  28
ENDBRANCH  26  27
ENDBRANCH   1  26
TORSDOF 16
ENDMDL
