MODEL 1
REMARK VINA RESULT:     -13.2      0.000      0.000
REMARK SMILES O=C(C[C@]12CSc3[nH]c(=O)sc3[C@H]1c1cc(Cl)ccc1OC2=O)NCCCNC(=O)c1ccc(-c2c3nc(c(-c4c(F)cccc4F)c4ccc([nH]4)c(-c4c(F)cccc4F)c4nc(c(-c5c(F)cccc5F)c5ccc2[nH]5)C=C4)C=C3)cc1
REMARK SMILES IDX 26 1 25 2 24 3 1 4 2 5 3 7 4 8 5 9 13 10 22 11 6 12 12 13
REMARK SMILES IDX 14 14 21 15 23 16 7 17 11 18 15 19 20 20 8 21 9 22 16 23
REMARK SMILES IDX 19 24 10 26 17 27 18 28 27 29 28 30 29 31 30 33 31 34 32 35
REMARK SMILES IDX 84 36 33 37 83 38 34 39 35 40 36 41 77 42 37 43 82 44 76 45
REMARK SMILES IDX 78 46 38 47 81 48 75 49 74 50 39 52 65 53 48 54 64 55 49 56
REMARK SMILES IDX 52 57 63 58 79 59 50 60 51 61 62 63 80 64 53 65 40 66 41 67
REMARK SMILES IDX 46 68 42 69 43 70 45 71 47 72 44 73 66 74 67 75 72 76 68 77
REMARK SMILES IDX 69 78 71 79 73 80 70 81 54 82 55 83 60 84 56 85 57 86 59 87
REMARK SMILES IDX 61 88 58 89
REMARK H PARENT 24 6 8 25 28 32 78 51 52 62
REMARK Flexibility Score: inf
ROOT
ATOM      1  C   UNL A   1      33.604  29.695  26.437  1.00  0.00     0.042 C 
ENDROOT
BRANCH   1   2
ATOM      2  C   UNL A   1      32.860  28.641  25.627  1.00  0.00     0.117 C 
BRANCH   2   3
ATOM      3  N   UNL A   1      33.493  27.315  25.691  1.00  0.00    -0.356 N 
ATOM      4  O   UNL A   1      31.944  26.270  26.993  1.00  0.00    -0.275 OA
ATOM      5  C   UNL A   1      32.900  26.188  26.228  1.00  0.00     0.221 C 
ATOM      6  H   UNL A   1      34.402  27.225  25.327  1.00  0.00     0.163 HD
BRANCH   5   7
ATOM      7  C   UNL A   1      33.455  24.793  25.748  1.00  0.00     0.120 C 
BRANCH   7   8
ATOM      8  C   UNL A   1      32.495  23.555  25.987  1.00  0.00     0.098 C 
ATOM      9  C   UNL A   1      32.920  23.003  27.374  1.00  0.00     0.097 C 
ATOM     10  C   UNL A   1      32.522  22.755  24.642  1.00  0.00     0.085 C 
ATOM     11  C   UNL A   1      30.933  23.495  26.176  1.00  0.00     0.319 C 
ATOM     12  S   UNL A   1      33.904  21.529  27.306  1.00  0.00    -0.106 SA
ATOM     13  C   UNL A   1      32.539  21.265  24.905  1.00  0.00     0.049 A 
ATOM     14  C   UNL A   1      31.735  23.723  23.657  1.00  0.00     0.006 A 
ATOM     15  O   UNL A   1      30.138  24.286  25.424  1.00  0.00    -0.426 OA
ATOM     16  O   UNL A   1      30.376  22.626  26.850  1.00  0.00    -0.251 OA
ATOM     17  C   UNL A   1      33.154  20.738  25.993  1.00  0.00     0.090 A 
ATOM     18  S   UNL A   1      32.429  20.020  23.672  1.00  0.00    -0.077 S 
ATOM     19  C   UNL A   1      32.430  24.334  22.583  1.00  0.00     0.028 A 
ATOM     20  C   UNL A   1      30.697  24.528  24.186  1.00  0.00     0.134 A 
ATOM     21  N   UNL A   1      33.487  19.427  25.908  1.00  0.00    -0.307 N 
ATOM     22  C   UNL A   1      33.260  18.838  24.713  1.00  0.00     0.305 A 
ATOM     23  C   UNL A   1      32.174  25.680  22.210  1.00  0.00     0.041 A 
ATOM     24  C   UNL A   1      30.338  25.802  23.722  1.00  0.00     0.049 A 
ATOM     25  H   UNL A   1      33.871  18.934  26.670  1.00  0.00     0.171 HD
ATOM     26  O   UNL A   1      33.624  17.709  24.377  1.00  0.00    -0.257 OA
ATOM     27  Cl  UNL A   1      33.276  26.519  21.183  1.00  0.00    -0.084 Cl
ATOM     28  C   UNL A   1      31.133  26.413  22.776  1.00  0.00     0.024 A 
ENDBRANCH   7   8
ENDBRANCH   5   7
ENDBRANCH   2   3
ENDBRANCH   1   2
BRANCH   1  29
ATOM     29  C   UNL A   1      34.774  29.106  27.222  1.00  0.00     0.118 C 
BRANCH  29  30
ATOM     30  N   UNL A   1      35.048  29.787  28.472  1.00  0.00    -0.352 N 
ATOM     31  C   UNL A   1      36.182  30.040  29.189  1.00  0.00     0.251 C 
ATOM     32  H   UNL A   1      34.237  30.148  28.897  1.00  0.00     0.163 HD
ATOM     33  O   UNL A   1      36.074  30.872  30.094  1.00  0.00    -0.269 OA
BRANCH  31  34
ATOM     34  C   UNL A   1      37.474  29.326  29.016  1.00  0.00     0.039 A 
ATOM     35  C   UNL A   1      38.018  28.397  29.906  1.00  0.00     0.014 A 
ATOM     36  C   UNL A   1      38.232  29.714  27.896  1.00  0.00     0.014 A 
ATOM     37  C   UNL A   1      39.327  27.965  29.757  1.00  0.00     0.010 A 
ATOM     38  C   UNL A   1      39.536  29.277  27.733  1.00  0.00     0.010 A 
ATOM     39  C   UNL A   1      40.097  28.455  28.704  1.00  0.00    -0.014 A 
BRANCH  39  40
ATOM     40  C   UNL A   1      41.475  28.003  28.595  1.00  0.00     0.031 A 
ATOM     41  C   UNL A   1      41.632  26.702  27.887  1.00  0.00     0.074 A 
ATOM     42  C   UNL A   1      42.503  28.780  28.991  1.00  0.00     0.049 A 
ATOM     43  N   UNL A   1      42.141  25.599  28.332  1.00  0.00    -0.248 NA
ATOM     44  C   UNL A   1      41.002  26.571  26.562  1.00  0.00     0.031 C 
ATOM     45  C   UNL A   1      42.451  30.166  29.466  1.00  0.00     0.029 A 
ATOM     46  N   UNL A   1      43.840  28.528  28.950  1.00  0.00    -0.354 N 
ATOM     47  C   UNL A   1      42.084  24.696  27.270  1.00  0.00     0.074 A 
ATOM     48  C   UNL A   1      41.220  25.286  26.286  1.00  0.00     0.031 C 
ATOM     49  C   UNL A   1      43.692  30.700  29.432  1.00  0.00     0.029 A 
ATOM     50  C   UNL A   1      44.638  29.662  29.064  1.00  0.00     0.049 A 
ATOM     51  H   UNL A   1      44.211  27.622  28.848  1.00  0.00     0.167 HD
ATOM     52  C   UNL A   1      42.966  23.661  27.178  1.00  0.00     0.037 A 
ATOM     53  C   UNL A   1      45.966  29.742  28.793  1.00  0.00     0.037 A 
ATOM     54  C   UNL A   1      43.542  23.364  28.466  1.00  0.00     0.049 A 
ATOM     55  C   UNL A   1      46.502  28.358  28.787  1.00  0.00     0.074 A 
ATOM     56  C   UNL A   1      43.051  22.953  29.690  1.00  0.00     0.029 A 
ATOM     57  N   UNL A   1      44.814  23.818  28.713  1.00  0.00    -0.354 N 
ATOM     58  N   UNL A   1      46.610  27.622  29.858  1.00  0.00    -0.248 NA
ATOM     59  C   UNL A   1      46.465  27.627  27.528  1.00  0.00     0.031 C 
ATOM     60  C   UNL A   1      43.854  23.629  30.657  1.00  0.00     0.029 A 
ATOM     61  C   UNL A   1      44.824  24.359  29.970  1.00  0.00     0.049 A 
ATOM     62  H   UNL A   1      45.581  23.766  28.098  1.00  0.00     0.167 HD
ATOM     63  C   UNL A   1      46.214  26.354  29.456  1.00  0.00     0.074 A 
ATOM     64  C   UNL A   1      46.209  26.402  27.994  1.00  0.00     0.031 C 
ATOM     65  C   UNL A   1      45.646  25.482  30.341  1.00  0.00     0.037 A 
BRANCH  52  66
ATOM     66  C   UNL A   1      43.651  23.249  25.885  1.00  0.00     0.057 A 
ATOM     67  C   UNL A   1      44.522  24.067  25.137  1.00  0.00     0.134 A 
ATOM     68  C   UNL A   1      43.726  21.875  25.578  1.00  0.00     0.134 A 
ATOM     69  F   UNL A   1      44.571  25.396  25.270  1.00  0.00    -0.206 F 
ATOM     70  C   UNL A   1      45.475  23.551  24.255  1.00  0.00     0.040 A 
ATOM     71  C   UNL A   1      44.705  21.346  24.730  1.00  0.00     0.040 A 
ATOM     72  F   UNL A   1      42.919  20.988  26.181  1.00  0.00    -0.206 F 
ATOM     73  C   UNL A   1      45.604  22.184  24.086  1.00  0.00     0.006 A 
ENDBRANCH  52  66
BRANCH  53  74
ATOM     74  C   UNL A   1      46.725  30.885  28.237  1.00  0.00     0.057 A 
ATOM     75  C   UNL A   1      47.612  31.632  29.032  1.00  0.00     0.134 A 
ATOM     76  C   UNL A   1      46.405  31.440  26.990  1.00  0.00     0.134 A 
ATOM     77  F   UNL A   1      47.921  31.243  30.277  1.00  0.00    -0.206 F 
ATOM     78  C   UNL A   1      48.146  32.857  28.617  1.00  0.00     0.040 A 
ATOM     79  C   UNL A   1      46.928  32.670  26.563  1.00  0.00     0.040 A 
ATOM     80  F   UNL A   1      45.529  30.829  26.178  1.00  0.00    -0.206 F 
ATOM     81  C   UNL A   1      47.795  33.386  27.382  1.00  0.00     0.006 A 
ENDBRANCH  53  74
BRANCH  65  82
ATOM     82  C   UNL A   1      45.676  25.850  31.796  1.00  0.00     0.057 A 
ATOM     83  C   UNL A   1      44.575  26.515  32.344  1.00  0.00     0.134 A 
ATOM     84  C   UNL A   1      46.801  25.695  32.621  1.00  0.00     0.134 A 
ATOM     85  F   UNL A   1      43.488  26.754  31.593  1.00  0.00    -0.206 F 
ATOM     86  C   UNL A   1      44.583  26.993  33.656  1.00  0.00     0.040 A 
ATOM     87  C   UNL A   1      46.810  26.137  33.947  1.00  0.00     0.040 A 
ATOM     88  F   UNL A   1      47.937  25.165  32.151  1.00  0.00    -0.206 F 
ATOM     89  C   UNL A   1      45.698  26.794  34.466  1.00  0.00     0.006 A 
ENDBRANCH  65  82
ENDBRANCH  39  40
ENDBRANCH  31  34
ENDBRANCH  29  30
ENDBRANCH   1  29
TORSDOF 11
ENDMDL
MODEL 2
REMARK VINA RESULT:     -13.0      2.513      6.495
REMARK SMILES O=C(C[C@]12CSc3[nH]c(=O)sc3[C@H]1c1cc(Cl)ccc1OC2=O)NCCCNC(=O)c1ccc(-c2c3nc(c(-c4c(F)cccc4F)c4ccc([nH]4)c(-c4c(F)cccc4F)c4nc(c(-c5c(F)cccc5F)c5ccc2[nH]5)C=C4)C=C3)cc1
REMARK SMILES IDX 26 1 25 2 24 3 1 4 2 5 3 7 4 8 5 9 13 10 22 11 6 12 12 13
REMARK SMILES IDX 14 14 21 15 23 16 7 17 11 18 15 19 20 20 8 21 9 22 16 23
REMARK SMILES IDX 19 24 10 26 17 27 18 28 27 29 28 30 29 31 30 33 31 34 32 35
REMARK SMILES IDX 84 36 33 37 83 38 34 39 35 40 36 41 77 42 37 43 82 44 76 45
REMARK SMILES IDX 78 46 38 47 81 48 75 49 74 50 39 52 65 53 48 54 64 55 49 56
REMARK SMILES IDX 52 57 63 58 79 59 50 60 51 61 62 63 80 64 53 65 40 66 41 67
REMARK SMILES IDX 46 68 42 69 43 70 45 71 47 72 44 73 66 74 67 75 72 76 68 77
REMARK SMILES IDX 69 78 71 79 73 80 70 81 54 82 55 83 60 84 56 85 57 86 59 87
REMARK SMILES IDX 61 88 58 89
REMARK H PARENT 24 6 8 25 28 32 78 51 52 62
REMARK Flexibility Score: inf
ROOT
ATOM      1  C   UNL A   1      34.952  29.315  27.501  1.00  0.00     0.042 C 
ENDROOT
BRANCH   1   2
ATOM      2  C   UNL A   1      33.560  28.818  27.135  1.00  0.00     0.117 C 
BRANCH   2   3
ATOM      3  N   UNL A   1      33.581  27.571  26.357  1.00  0.00    -0.356 N 
ATOM      4  O   UNL A   1      33.805  28.480  24.281  1.00  0.00    -0.275 OA
ATOM      5  C   UNL A   1      33.871  27.494  25.008  1.00  0.00     0.221 C 
ATOM      6  H   UNL A   1      33.373  26.733  26.829  1.00  0.00     0.163 HD
BRANCH   5   7
ATOM      7  C   UNL A   1      34.373  26.100  24.465  1.00  0.00     0.120 C 
BRANCH   7   8
ATOM      8  C   UNL A   1      33.236  25.056  24.108  1.00  0.00     0.098 C 
ATOM      9  C   UNL A   1      32.027  25.934  23.689  1.00  0.00     0.097 C 
ATOM     10  C   UNL A   1      33.248  24.025  25.286  1.00  0.00     0.085 C 
ATOM     11  C   UNL A   1      33.158  23.983  22.958  1.00  0.00     0.319 C 
ATOM     12  S   UNL A   1      30.757  26.069  24.921  1.00  0.00    -0.106 SA
ATOM     13  C   UNL A   1      31.838  23.622  25.658  1.00  0.00     0.049 A 
ATOM     14  C   UNL A   1      34.621  23.260  25.051  1.00  0.00     0.006 A 
ATOM     15  O   UNL A   1      34.261  23.275  22.630  1.00  0.00    -0.426 OA
ATOM     16  O   UNL A   1      32.093  23.617  22.457  1.00  0.00    -0.251 OA
ATOM     17  C   UNL A   1      30.796  24.484  25.553  1.00  0.00     0.090 A 
ATOM     18  S   UNL A   1      31.417  22.385  26.830  1.00  0.00    -0.077 S 
ATOM     19  C   UNL A   1      35.667  23.406  25.997  1.00  0.00     0.028 A 
ATOM     20  C   UNL A   1      35.082  23.090  23.723  1.00  0.00     0.134 A 
ATOM     21  N   UNL A   1      29.704  24.189  26.300  1.00  0.00    -0.307 N 
ATOM     22  C   UNL A   1      29.831  23.133  27.135  1.00  0.00     0.305 A 
ATOM     23  C   UNL A   1      37.021  23.517  25.585  1.00  0.00     0.041 A 
ATOM     24  C   UNL A   1      36.427  23.046  23.328  1.00  0.00     0.049 A 
ATOM     25  H   UNL A   1      28.871  24.711  26.239  1.00  0.00     0.171 HD
ATOM     26  O   UNL A   1      29.023  22.789  28.001  1.00  0.00    -0.257 OA
ATOM     27  Cl  UNL A   1      38.219  24.078  26.692  1.00  0.00    -0.084 Cl
ATOM     28  C   UNL A   1      37.402  23.339  24.257  1.00  0.00     0.024 A 
ENDBRANCH   7   8
ENDBRANCH   5   7
ENDBRANCH   2   3
ENDBRANCH   1   2
BRANCH   1  29
ATOM     29  C   UNL A   1      35.012  30.836  27.629  1.00  0.00     0.118 C 
BRANCH  29  30
ATOM     30  N   UNL A   1      34.759  31.325  28.971  1.00  0.00    -0.352 N 
ATOM     31  C   UNL A   1      35.535  31.505  30.079  1.00  0.00     0.251 C 
ATOM     32  H   UNL A   1      33.820  31.584  29.113  1.00  0.00     0.163 HD
ATOM     33  O   UNL A   1      35.037  32.182  30.982  1.00  0.00    -0.269 OA
BRANCH  31  34
ATOM     34  C   UNL A   1      36.864  30.877  30.299  1.00  0.00     0.039 A 
ATOM     35  C   UNL A   1      38.099  31.513  30.160  1.00  0.00     0.014 A 
ATOM     36  C   UNL A   1      36.840  29.498  30.577  1.00  0.00     0.014 A 
ATOM     37  C   UNL A   1      39.274  30.776  30.168  1.00  0.00     0.010 A 
ATOM     38  C   UNL A   1      38.010  28.756  30.601  1.00  0.00     0.010 A 
ATOM     39  C   UNL A   1      39.216  29.393  30.329  1.00  0.00    -0.014 A 
BRANCH  39  40
ATOM     40  C   UNL A   1      40.465  28.648  30.305  1.00  0.00     0.031 A 
ATOM     41  C   UNL A   1      41.122  28.523  31.636  1.00  0.00     0.074 A 
ATOM     42  C   UNL A   1      40.890  28.027  29.186  1.00  0.00     0.049 A 
ATOM     43  N   UNL A   1      42.296  28.932  31.995  1.00  0.00    -0.248 NA
ATOM     44  C   UNL A   1      40.307  28.010  32.749  1.00  0.00     0.031 C 
ATOM     45  C   UNL A   1      40.184  27.892  27.909  1.00  0.00     0.029 A 
ATOM     46  N   UNL A   1      42.012  27.282  28.988  1.00  0.00    -0.354 N 
ATOM     47  C   UNL A   1      42.446  28.540  33.326  1.00  0.00     0.074 A 
ATOM     48  C   UNL A   1      41.140  28.149  33.780  1.00  0.00     0.031 C 
ATOM     49  C   UNL A   1      40.771  26.925  27.170  1.00  0.00     0.029 A 
ATOM     50  C   UNL A   1      41.965  26.469  27.859  1.00  0.00     0.049 A 
ATOM     51  H   UNL A   1      42.790  27.314  29.590  1.00  0.00     0.167 HD
ATOM     52  C   UNL A   1      43.680  28.318  33.860  1.00  0.00     0.037 A 
ATOM     53  C   UNL A   1      42.809  25.447  27.568  1.00  0.00     0.037 A 
ATOM     54  C   UNL A   1      44.698  28.993  33.092  1.00  0.00     0.049 A 
ATOM     55  C   UNL A   1      44.023  25.621  28.404  1.00  0.00     0.074 A 
ATOM     56  C   UNL A   1      44.975  30.307  32.771  1.00  0.00     0.029 A 
ATOM     57  N   UNL A   1      45.446  28.235  32.225  1.00  0.00    -0.354 N 
ATOM     58  N   UNL A   1      44.885  26.583  28.231  1.00  0.00    -0.248 NA
ATOM     59  C   UNL A   1      44.022  25.015  29.728  1.00  0.00     0.031 C 
ATOM     60  C   UNL A   1      45.480  30.263  31.437  1.00  0.00     0.029 A 
ATOM     61  C   UNL A   1      45.540  28.926  31.048  1.00  0.00     0.049 A 
ATOM     62  H   UNL A   1      45.844  27.355  32.416  1.00  0.00     0.167 HD
ATOM     63  C   UNL A   1      45.215  26.997  29.514  1.00  0.00     0.074 A 
ATOM     64  C   UNL A   1      44.710  25.945  30.395  1.00  0.00     0.031 C 
ATOM     65  C   UNL A   1      45.600  28.284  29.759  1.00  0.00     0.037 A 
BRANCH  52  66
ATOM     66  C   UNL A   1      44.010  27.137  34.756  1.00  0.00     0.057 A 
ATOM     67  C   UNL A   1      44.023  25.789  34.344  1.00  0.00     0.134 A 
ATOM     68  C   UNL A   1      44.688  27.387  35.967  1.00  0.00     0.134 A 
ATOM     69  F   UNL A   1      43.409  25.357  33.238  1.00  0.00    -0.206 F 
ATOM     70  C   UNL A   1      44.753  24.800  35.008  1.00  0.00     0.040 A 
ATOM     71  C   UNL A   1      45.457  26.414  36.615  1.00  0.00     0.040 A 
ATOM     72  F   UNL A   1      44.715  28.618  36.502  1.00  0.00    -0.206 F 
ATOM     73  C   UNL A   1      45.515  25.119  36.118  1.00  0.00     0.006 A 
ENDBRANCH  52  66
BRANCH  53  74
ATOM     74  C   UNL A   1      42.511  24.179  26.864  1.00  0.00     0.057 A 
ATOM     75  C   UNL A   1      41.835  23.125  27.505  1.00  0.00     0.134 A 
ATOM     76  C   UNL A   1      43.110  23.865  25.635  1.00  0.00     0.134 A 
ATOM     77  F   UNL A   1      41.300  23.286  28.723  1.00  0.00    -0.206 F 
ATOM     78  C   UNL A   1      41.762  21.837  26.962  1.00  0.00     0.040 A 
ATOM     79  C   UNL A   1      43.050  22.577  25.083  1.00  0.00     0.040 A 
ATOM     80  F   UNL A   1      43.819  24.788  24.969  1.00  0.00    -0.206 F 
ATOM     81  C   UNL A   1      42.381  21.556  25.751  1.00  0.00     0.006 A 
ENDBRANCH  53  74
BRANCH  65  82
ATOM     82  C   UNL A   1      45.875  29.166  28.575  1.00  0.00     0.057 A 
ATOM     83  C   UNL A   1      47.200  29.361  28.176  1.00  0.00     0.134 A 
ATOM     84  C   UNL A   1      44.894  29.926  27.919  1.00  0.00     0.134 A 
ATOM     85  F   UNL A   1      48.196  28.714  28.802  1.00  0.00    -0.206 F 
ATOM     86  C   UNL A   1      47.538  30.259  27.163  1.00  0.00     0.040 A 
ATOM     87  C   UNL A   1      45.215  30.803  26.879  1.00  0.00     0.040 A 
ATOM     88  F   UNL A   1      43.613  29.883  28.304  1.00  0.00    -0.206 F 
ATOM     89  C   UNL A   1      46.543  30.975  26.501  1.00  0.00     0.006 A 
ENDBRANCH  65  82
ENDBRANCH  39  40
ENDBRANCH  31  34
ENDBRANCH  29  30
ENDBRANCH   1  29
TORSDOF 11
ENDMDL
MODEL 3
REMARK VINA RESULT:     -13.0      3.540      7.088
REMARK SMILES O=C(C[C@]12CSc3[nH]c(=O)sc3[C@H]1c1cc(Cl)ccc1OC2=O)NCCCNC(=O)c1ccc(-c2c3nc(c(-c4c(F)cccc4F)c4ccc([nH]4)c(-c4c(F)cccc4F)c4nc(c(-c5c(F)cccc5F)c5ccc2[nH]5)C=C4)C=C3)cc1
REMARK SMILES IDX 26 1 25 2 24 3 1 4 2 5 3 7 4 8 5 9 13 10 22 11 6 12 12 13
REMARK SMILES IDX 14 14 21 15 23 16 7 17 11 18 15 19 20 20 8 21 9 22 16 23
REMARK SMILES IDX 19 24 10 26 17 27 18 28 27 29 28 30 29 31 30 33 31 34 32 35
REMARK SMILES IDX 84 36 33 37 83 38 34 39 35 40 36 41 77 42 37 43 82 44 76 45
REMARK SMILES IDX 78 46 38 47 81 48 75 49 74 50 39 52 65 53 48 54 64 55 49 56
REMARK SMILES IDX 52 57 63 58 79 59 50 60 51 61 62 63 80 64 53 65 40 66 41 67
REMARK SMILES IDX 46 68 42 69 43 70 45 71 47 72 44 73 66 74 67 75 72 76 68 77
REMARK SMILES IDX 69 78 71 79 73 80 70 81 54 82 55 83 60 84 56 85 57 86 59 87
REMARK SMILES IDX 61 88 58 89
REMARK H PARENT 24 6 8 25 28 32 78 51 52 62
REMARK Flexibility Score: inf
ROOT
ATOM      1  C   UNL A   1      36.746  21.777  24.171  1.00  0.00     0.042 C 
ENDROOT
BRANCH   1   2
ATOM      2  C   UNL A   1      36.452  23.131  23.538  1.00  0.00     0.117 C 
BRANCH   2   3
ATOM      3  N   UNL A   1      35.162  23.695  23.960  1.00  0.00    -0.356 N 
ATOM      4  O   UNL A   1      35.888  24.855  25.781  1.00  0.00    -0.275 OA
ATOM      5  C   UNL A   1      35.009  24.648  24.950  1.00  0.00     0.221 C 
ATOM      6  H   UNL A   1      34.350  23.370  23.509  1.00  0.00     0.163 HD
BRANCH   5   7
ATOM      7  C   UNL A   1      33.691  25.514  24.908  1.00  0.00     0.120 C 
BRANCH   7   8
ATOM      8  C   UNL A   1      33.215  25.966  23.465  1.00  0.00     0.098 C 
ATOM      9  C   UNL A   1      34.265  27.024  23.030  1.00  0.00     0.097 C 
ATOM     10  C   UNL A   1      31.677  26.216  23.606  1.00  0.00     0.085 C 
ATOM     11  C   UNL A   1      33.123  25.156  22.119  1.00  0.00     0.319 C 
ATOM     12  S   UNL A   1      33.705  28.703  23.143  1.00  0.00    -0.106 SA
ATOM     13  C   UNL A   1      31.258  27.437  22.816  1.00  0.00     0.049 A 
ATOM     14  C   UNL A   1      31.112  24.743  23.801  1.00  0.00     0.006 A 
ATOM     15  O   UNL A   1      32.685  23.878  22.137  1.00  0.00    -0.426 OA
ATOM     16  O   UNL A   1      33.254  25.683  21.012  1.00  0.00    -0.251 OA
ATOM     17  C   UNL A   1      32.082  28.502  22.655  1.00  0.00     0.090 A 
ATOM     18  S   UNL A   1      29.603  27.978  22.595  1.00  0.00    -0.077 S 
ATOM     19  C   UNL A   1      30.533  24.381  25.043  1.00  0.00     0.028 A 
ATOM     20  C   UNL A   1      31.779  23.673  23.157  1.00  0.00     0.134 A 
ATOM     21  N   UNL A   1      31.481  29.673  22.332  1.00  0.00    -0.307 N 
ATOM     22  C   UNL A   1      30.129  29.656  22.314  1.00  0.00     0.305 A 
ATOM     23  C   UNL A   1      30.756  23.100  25.613  1.00  0.00     0.041 A 
ATOM     24  C   UNL A   1      31.873  22.361  23.645  1.00  0.00     0.049 A 
ATOM     25  H   UNL A   1      31.997  30.486  22.123  1.00  0.00     0.171 HD
ATOM     26  O   UNL A   1      29.390  30.635  22.194  1.00  0.00    -0.257 OA
ATOM     27  Cl  UNL A   1      30.380  22.813  27.272  1.00  0.00    -0.084 Cl
ATOM     28  C   UNL A   1      31.423  22.093  24.919  1.00  0.00     0.024 A 
ENDBRANCH   7   8
ENDBRANCH   5   7
ENDBRANCH   2   3
ENDBRANCH   1   2
BRANCH   1  29
ATOM     29  C   UNL A   1      37.433  21.907  25.529  1.00  0.00     0.118 C 
BRANCH  29  30
ATOM     30  N   UNL A   1      38.824  21.499  25.527  1.00  0.00    -0.352 N 
ATOM     31  C   UNL A   1      39.933  21.898  26.215  1.00  0.00     0.251 C 
ATOM     32  H   UNL A   1      39.009  20.773  24.887  1.00  0.00     0.163 HD
ATOM     33  O   UNL A   1      40.914  21.153  26.136  1.00  0.00    -0.269 OA
BRANCH  31  34
ATOM     34  C   UNL A   1      40.060  23.182  26.953  1.00  0.00     0.039 A 
ATOM     35  C   UNL A   1      39.251  24.306  26.776  1.00  0.00     0.014 A 
ATOM     36  C   UNL A   1      41.159  23.269  27.828  1.00  0.00     0.014 A 
ATOM     37  C   UNL A   1      39.599  25.519  27.352  1.00  0.00     0.010 A 
ATOM     38  C   UNL A   1      41.505  24.474  28.417  1.00  0.00     0.010 A 
ATOM     39  C   UNL A   1      40.758  25.607  28.121  1.00  0.00    -0.014 A 
BRANCH  39  40
ATOM     40  C   UNL A   1      41.107  26.901  28.686  1.00  0.00     0.031 A 
ATOM     41  C   UNL A   1      42.336  27.507  28.101  1.00  0.00     0.074 A 
ATOM     42  C   UNL A   1      40.296  27.526  29.563  1.00  0.00     0.049 A 
ATOM     43  N   UNL A   1      43.434  27.839  28.700  1.00  0.00    -0.248 NA
ATOM     44  C   UNL A   1      42.405  27.617  26.634  1.00  0.00     0.031 C 
ATOM     45  C   UNL A   1      38.958  27.117  29.999  1.00  0.00     0.029 A 
ATOM     46  N   UNL A   1      40.455  28.732  30.175  1.00  0.00    -0.354 N 
ATOM     47  C   UNL A   1      44.253  28.393  27.716  1.00  0.00     0.074 A 
ATOM     48  C   UNL A   1      43.647  28.064  26.456  1.00  0.00     0.031 C 
ATOM     49  C   UNL A   1      38.341  28.160  30.599  1.00  0.00     0.029 A 
ATOM     50  C   UNL A   1      39.282  29.261  30.706  1.00  0.00     0.049 A 
ATOM     51  H   UNL A   1      41.323  29.192  30.237  1.00  0.00     0.167 HD
ATOM     52  C   UNL A   1      45.216  29.303  28.032  1.00  0.00     0.037 A 
ATOM     53  C   UNL A   1      39.093  30.538  31.125  1.00  0.00     0.037 A 
ATOM     54  C   UNL A   1      45.573  29.206  29.426  1.00  0.00     0.049 A 
ATOM     55  C   UNL A   1      40.433  31.140  31.335  1.00  0.00     0.074 A 
ATOM     56  C   UNL A   1      46.110  28.224  30.236  1.00  0.00     0.029 A 
ATOM     57  N   UNL A   1      45.056  30.147  30.282  1.00  0.00    -0.354 N 
ATOM     58  N   UNL A   1      41.242  30.784  32.294  1.00  0.00    -0.248 NA
ATOM     59  C   UNL A   1      41.065  31.790  30.195  1.00  0.00     0.031 C 
ATOM     60  C   UNL A   1      45.460  28.387  31.496  1.00  0.00     0.029 A 
ATOM     61  C   UNL A   1      44.616  29.492  31.400  1.00  0.00     0.049 A 
ATOM     62  H   UNL A   1      45.009  31.117  30.121  1.00  0.00     0.167 HD
ATOM     63  C   UNL A   1      42.498  30.758  31.705  1.00  0.00     0.074 A 
ATOM     64  C   UNL A   1      42.337  31.459  30.432  1.00  0.00     0.031 C 
ATOM     65  C   UNL A   1      43.472  29.918  32.166  1.00  0.00     0.037 A 
BRANCH  52  66
ATOM     66  C   UNL A   1      45.479  30.566  27.229  1.00  0.00     0.057 A 
ATOM     67  C   UNL A   1      44.534  31.585  26.994  1.00  0.00     0.134 A 
ATOM     68  C   UNL A   1      46.818  30.941  26.995  1.00  0.00     0.134 A 
ATOM     69  F   UNL A   1      43.217  31.407  27.135  1.00  0.00    -0.206 F 
ATOM     70  C   UNL A   1      44.897  32.897  26.679  1.00  0.00     0.040 A 
ATOM     71  C   UNL A   1      47.194  32.261  26.722  1.00  0.00     0.040 A 
ATOM     72  F   UNL A   1      47.817  30.056  27.134  1.00  0.00    -0.206 F 
ATOM     73  C   UNL A   1      46.231  33.253  26.592  1.00  0.00     0.006 A 
ENDBRANCH  52  66
BRANCH  53  74
ATOM     74  C   UNL A   1      37.862  31.358  31.054  1.00  0.00     0.057 A 
ATOM     75  C   UNL A   1      37.013  31.503  32.166  1.00  0.00     0.134 A 
ATOM     76  C   UNL A   1      37.347  31.801  29.828  1.00  0.00     0.134 A 
ATOM     77  F   UNL A   1      37.365  31.035  33.372  1.00  0.00    -0.206 F 
ATOM     78  C   UNL A   1      35.729  32.052  32.066  1.00  0.00     0.040 A 
ATOM     79  C   UNL A   1      36.060  32.347  29.712  1.00  0.00     0.040 A 
ATOM     80  F   UNL A   1      38.059  31.661  28.700  1.00  0.00    -0.206 F 
ATOM     81  C   UNL A   1      35.243  32.466  30.832  1.00  0.00     0.006 A 
ENDBRANCH  53  74
BRANCH  65  82
ATOM     82  C   UNL A   1      43.217  29.201  33.460  1.00  0.00     0.057 A 
ATOM     83  C   UNL A   1      42.554  27.972  33.428  1.00  0.00     0.134 A 
ATOM     84  C   UNL A   1      43.478  29.750  34.725  1.00  0.00     0.134 A 
ATOM     85  F   UNL A   1      42.216  27.417  32.252  1.00  0.00    -0.206 F 
ATOM     86  C   UNL A   1      42.178  27.308  34.597  1.00  0.00     0.040 A 
ATOM     87  C   UNL A   1      43.139  29.081  35.904  1.00  0.00     0.040 A 
ATOM     88  F   UNL A   1      44.015  30.971  34.853  1.00  0.00    -0.206 F 
ATOM     89  C   UNL A   1      42.481  27.856  35.841  1.00  0.00     0.006 A 
ENDBRANCH  65  82
ENDBRANCH  39  40
ENDBRANCH  31  34
ENDBRANCH  29  30
ENDBRANCH   1  29
TORSDOF 11
ENDMDL
