MODEL 1
REMARK VINA RESULT:     -12.3      0.000      0.000
REMARK SMILES O=C(C[C@H]1C[C@H]2CC[C@@H](C1)N2C(=O)c1c[nH]c(=O)[nH]1)NCCCNC(=O)c1ccc(-c2c3nc(c(-c4c(F)cccc4F)c4ccc([nH]4)c(-c4c(F)cccc4F)c4nc(c(-c5c(F)cccc5F)c5ccc2[nH]5)C=C4)C=C3)cc1
REMARK SMILES IDX 21 1 20 2 1 3 2 4 3 6 4 7 5 8 10 9 6 10 9 11 7 12 11 13 8 14
REMARK SMILES IDX 12 15 13 16 14 17 15 18 19 19 16 20 17 21 18 24 22 25 23 26
REMARK SMILES IDX 24 27 25 28 26 30 27 31 28 32 80 33 29 34 79 35 30 36 31 37
REMARK SMILES IDX 32 38 73 39 33 40 78 41 72 42 74 43 34 44 77 45 71 46 70 47
REMARK SMILES IDX 35 49 61 50 44 51 60 52 45 53 48 54 59 55 75 56 46 57 47 58
REMARK SMILES IDX 58 60 76 61 49 62 36 63 37 64 42 65 38 66 39 67 41 68 43 69
REMARK SMILES IDX 40 70 62 71 63 72 68 73 64 74 65 75 67 76 69 77 66 78 50 79
REMARK SMILES IDX 51 80 56 81 52 82 53 83 55 84 57 85 54 86
REMARK H PARENT 20 5 19 22 16 23 24 29 74 48 48 59
REMARK Flexibility Score: inf
ROOT
ATOM      1  C   UNL A   1      31.906  27.202  26.083  1.00  0.00     0.117 C 
ENDROOT
BRANCH   1   2
ATOM      2  N   UNL A   1      32.786  26.053  26.112  1.00  0.00    -0.356 N 
ATOM      3  O   UNL A   1      31.317  24.685  27.219  1.00  0.00    -0.275 OA
ATOM      4  C   UNL A   1      32.394  24.854  26.656  1.00  0.00     0.220 C 
ATOM      5  H   UNL A   1      33.692  26.133  25.733  1.00  0.00     0.163 HD
BRANCH   4   6
ATOM      6  C   UNL A   1      33.403  23.733  26.510  1.00  0.00     0.103 C 
BRANCH   6   7
ATOM      7  C   UNL A   1      32.812  22.308  26.405  1.00  0.00     0.002 C 
ATOM      8  C   UNL A   1      31.899  22.179  25.150  1.00  0.00     0.029 C 
ATOM      9  C   UNL A   1      33.834  21.141  26.490  1.00  0.00     0.029 C 
ATOM     10  C   UNL A   1      32.586  21.548  23.918  1.00  0.00     0.086 C 
ATOM     11  C   UNL A   1      34.356  20.659  25.130  1.00  0.00     0.086 C 
ATOM     12  C   UNL A   1      33.815  22.331  23.446  1.00  0.00     0.027 C 
ATOM     13  N   UNL A   1      33.193  20.301  24.338  1.00  0.00    -0.331 N 
ATOM     14  C   UNL A   1      34.976  21.787  24.298  1.00  0.00     0.027 C 
BRANCH  13  15
ATOM     15  C   UNL A   1      32.834  19.079  23.828  1.00  0.00     0.272 C 
ATOM     16  O   UNL A   1      32.245  18.935  22.759  1.00  0.00    -0.267 OA
BRANCH  15  17
ATOM     17  C   UNL A   1      33.257  17.888  24.597  1.00  0.00     0.125 A 
ATOM     18  C   UNL A   1      32.714  17.378  25.713  1.00  0.00     0.119 A 
ATOM     19  N   UNL A   1      34.318  17.099  24.221  1.00  0.00    -0.302 N 
ATOM     20  N   UNL A   1      33.441  16.272  26.078  1.00  0.00    -0.312 N 
ATOM     21  C   UNL A   1      34.472  16.066  25.147  1.00  0.00     0.323 A 
ATOM     22  H   UNL A   1      34.879  17.241  23.425  1.00  0.00     0.172 HD
ATOM     23  H   UNL A   1      33.266  15.710  26.868  1.00  0.00     0.171 HD
ATOM     24  O   UNL A   1      35.312  15.189  25.157  1.00  0.00    -0.248 OA
ENDBRANCH  15  17
ENDBRANCH  13  15
ENDBRANCH   6   7
ENDBRANCH   4   6
ENDBRANCH   1   2
BRANCH   1  25
ATOM     25  C   UNL A   1      32.126  28.128  27.269  1.00  0.00     0.042 C 
BRANCH  25  26
ATOM     26  C   UNL A   1      33.539  28.695  27.356  1.00  0.00     0.118 C 
BRANCH  26  27
ATOM     27  N   UNL A   1      33.572  30.097  27.748  1.00  0.00    -0.352 N 
ATOM     28  C   UNL A   1      34.585  30.827  28.321  1.00  0.00     0.251 C 
ATOM     29  H   UNL A   1      32.742  30.599  27.575  1.00  0.00     0.163 HD
ATOM     30  O   UNL A   1      34.371  31.974  28.701  1.00  0.00    -0.269 OA
BRANCH  28  31
ATOM     31  C   UNL A   1      35.920  30.223  28.507  1.00  0.00     0.039 A 
ATOM     32  C   UNL A   1      36.823  30.245  27.441  1.00  0.00     0.014 A 
ATOM     33  C   UNL A   1      36.284  29.643  29.724  1.00  0.00     0.014 A 
ATOM     34  C   UNL A   1      38.118  29.755  27.620  1.00  0.00     0.010 A 
ATOM     35  C   UNL A   1      37.596  29.224  29.925  1.00  0.00     0.010 A 
ATOM     36  C   UNL A   1      38.527  29.280  28.876  1.00  0.00    -0.014 A 
BRANCH  36  37
ATOM     37  C   UNL A   1      39.927  28.849  29.122  1.00  0.00     0.031 A 
ATOM     38  C   UNL A   1      40.916  29.805  29.729  1.00  0.00     0.074 A 
ATOM     39  C   UNL A   1      40.328  27.625  28.727  1.00  0.00     0.049 A 
ATOM     40  N   UNL A   1      42.201  29.653  29.922  1.00  0.00    -0.248 NA
ATOM     41  C   UNL A   1      40.397  31.116  30.147  1.00  0.00     0.031 C 
ATOM     42  C   UNL A   1      39.474  26.620  28.090  1.00  0.00     0.029 A 
ATOM     43  N   UNL A   1      41.560  27.024  28.786  1.00  0.00    -0.354 N 
ATOM     44  C   UNL A   1      42.647  30.850  30.468  1.00  0.00     0.074 A 
ATOM     45  C   UNL A   1      41.504  31.737  30.528  1.00  0.00     0.031 C 
ATOM     46  C   UNL A   1      40.206  25.524  27.832  1.00  0.00     0.029 A 
ATOM     47  C   UNL A   1      41.584  25.763  28.244  1.00  0.00     0.049 A 
ATOM     48  H   UNL A   1      42.352  27.458  29.178  1.00  0.00     0.167 HD
ATOM     49  C   UNL A   1      43.889  31.175  30.897  1.00  0.00     0.037 A 
ATOM     50  C   UNL A   1      42.606  24.900  28.082  1.00  0.00     0.037 A 
ATOM     51  C   UNL A   1      45.018  30.283  30.857  1.00  0.00     0.049 A 
ATOM     52  C   UNL A   1      43.980  25.290  28.552  1.00  0.00     0.074 A 
ATOM     53  C   UNL A   1      46.303  30.498  31.324  1.00  0.00     0.029 A 
ATOM     54  N   UNL A   1      44.998  29.006  30.316  1.00  0.00    -0.354 N 
ATOM     55  N   UNL A   1      44.373  26.403  29.123  1.00  0.00    -0.248 NA
ATOM     56  C   UNL A   1      45.053  24.306  28.355  1.00  0.00     0.031 C 
ATOM     57  C   UNL A   1      47.071  29.369  31.025  1.00  0.00     0.029 A 
ATOM     58  C   UNL A   1      46.254  28.431  30.417  1.00  0.00     0.049 A 
ATOM     59  H   UNL A   1      44.207  28.572  29.920  1.00  0.00     0.167 HD
ATOM     60  C   UNL A   1      45.728  26.240  29.382  1.00  0.00     0.074 A 
ATOM     61  C   UNL A   1      46.088  24.919  28.914  1.00  0.00     0.031 C 
ATOM     62  C   UNL A   1      46.594  27.109  29.958  1.00  0.00     0.037 A 
BRANCH  49  63
ATOM     63  C   UNL A   1      44.093  32.555  31.449  1.00  0.00     0.057 A 
ATOM     64  C   UNL A   1      43.922  32.839  32.810  1.00  0.00     0.134 A 
ATOM     65  C   UNL A   1      44.501  33.605  30.617  1.00  0.00     0.134 A 
ATOM     66  F   UNL A   1      43.521  31.881  33.659  1.00  0.00    -0.206 F 
ATOM     67  C   UNL A   1      44.124  34.124  33.320  1.00  0.00     0.040 A 
ATOM     68  C   UNL A   1      44.734  34.887  31.120  1.00  0.00     0.040 A 
ATOM     69  F   UNL A   1      44.690  33.402  29.305  1.00  0.00    -0.206 F 
ATOM     70  C   UNL A   1      44.539  35.150  32.474  1.00  0.00     0.006 A 
ENDBRANCH  49  63
BRANCH  50  71
ATOM     71  C   UNL A   1      42.368  23.573  27.460  1.00  0.00     0.057 A 
ATOM     72  C   UNL A   1      42.096  22.446  28.246  1.00  0.00     0.134 A 
ATOM     73  C   UNL A   1      42.412  23.396  26.072  1.00  0.00     0.134 A 
ATOM     74  F   UNL A   1      42.059  22.550  29.582  1.00  0.00    -0.206 F 
ATOM     75  C   UNL A   1      41.897  21.188  27.676  1.00  0.00     0.040 A 
ATOM     76  C   UNL A   1      42.189  22.148  25.487  1.00  0.00     0.040 A 
ATOM     77  F   UNL A   1      42.660  24.437  25.264  1.00  0.00    -0.206 F 
ATOM     78  C   UNL A   1      41.938  21.039  26.290  1.00  0.00     0.006 A 
ENDBRANCH  50  71
BRANCH  62  79
ATOM     79  C   UNL A   1      48.009  26.646  30.151  1.00  0.00     0.057 A 
ATOM     80  C   UNL A   1      48.406  25.936  31.291  1.00  0.00     0.134 A 
ATOM     81  C   UNL A   1      48.971  26.867  29.157  1.00  0.00     0.134 A 
ATOM     82  F   UNL A   1      47.536  25.703  32.285  1.00  0.00    -0.206 F 
ATOM     83  C   UNL A   1      49.716  25.477  31.443  1.00  0.00     0.040 A 
ATOM     84  C   UNL A   1      50.276  26.391  29.286  1.00  0.00     0.040 A 
ATOM     85  F   UNL A   1      48.653  27.533  28.037  1.00  0.00    -0.206 F 
ATOM     86  C   UNL A   1      50.652  25.698  30.434  1.00  0.00     0.006 A 
ENDBRANCH  62  79
ENDBRANCH  36  37
ENDBRANCH  28  31
ENDBRANCH  26  27
ENDBRANCH  25  26
ENDBRANCH   1  25
TORSDOF 13
ENDMDL
MODEL 2
REMARK VINA RESULT:     -12.1      0.705      1.713
REMARK SMILES O=C(C[C@H]1C[C@H]2CC[C@@H](C1)N2C(=O)c1c[nH]c(=O)[nH]1)NCCCNC(=O)c1ccc(-c2c3nc(c(-c4c(F)cccc4F)c4ccc([nH]4)c(-c4c(F)cccc4F)c4nc(c(-c5c(F)cccc5F)c5ccc2[nH]5)C=C4)C=C3)cc1
REMARK SMILES IDX 21 1 20 2 1 3 2 4 3 6 4 7 5 8 10 9 6 10 9 11 7 12 11 13 8 14
REMARK SMILES IDX 12 15 13 16 14 17 15 18 19 19 16 20 17 21 18 24 22 25 23 26
REMARK SMILES IDX 24 27 25 28 26 30 27 31 28 32 80 33 29 34 79 35 30 36 31 37
REMARK SMILES IDX 32 38 73 39 33 40 78 41 72 42 74 43 34 44 77 45 71 46 70 47
REMARK SMILES IDX 35 49 61 50 44 51 60 52 45 53 48 54 59 55 75 56 46 57 47 58
REMARK SMILES IDX 58 60 76 61 49 62 36 63 37 64 42 65 38 66 39 67 41 68 43 69
REMARK SMILES IDX 40 70 62 71 63 72 68 73 64 74 65 75 67 76 69 77 66 78 50 79
REMARK SMILES IDX 51 80 56 81 52 82 53 83 55 84 57 85 54 86
REMARK H PARENT 20 5 19 22 16 23 24 29 74 48 48 59
REMARK Flexibility Score: inf
ROOT
ATOM      1  C   UNL A   1      32.262  27.147  26.040  1.00  0.00     0.117 C 
ENDROOT
BRANCH   1   2
ATOM      2  N   UNL A   1      33.020  25.915  25.992  1.00  0.00    -0.356 N 
ATOM      3  O   UNL A   1      33.847  26.252  23.881  1.00  0.00    -0.275 OA
ATOM      4  C   UNL A   1      33.796  25.583  24.908  1.00  0.00     0.220 C 
ATOM      5  H   UNL A   1      32.978  25.296  26.757  1.00  0.00     0.163 HD
BRANCH   4   6
ATOM      6  C   UNL A   1      34.598  24.308  25.070  1.00  0.00     0.103 C 
BRANCH   6   7
ATOM      7  C   UNL A   1      34.320  23.203  24.024  1.00  0.00     0.002 C 
ATOM      8  C   UNL A   1      35.147  21.921  24.339  1.00  0.00     0.029 C 
ATOM      9  C   UNL A   1      32.825  22.870  23.769  1.00  0.00     0.029 C 
ATOM     10  C   UNL A   1      34.369  20.828  25.105  1.00  0.00     0.086 C 
ATOM     11  C   UNL A   1      32.280  21.721  24.627  1.00  0.00     0.086 C 
ATOM     12  C   UNL A   1      33.830  21.305  26.456  1.00  0.00     0.027 C 
ATOM     13  N   UNL A   1      33.137  20.574  24.386  1.00  0.00    -0.331 N 
ATOM     14  C   UNL A   1      32.474  21.957  26.129  1.00  0.00     0.027 C 
BRANCH  13  15
ATOM     15  C   UNL A   1      32.823  19.358  23.834  1.00  0.00     0.272 C 
ATOM     16  O   UNL A   1      32.313  19.228  22.723  1.00  0.00    -0.267 OA
BRANCH  15  17
ATOM     17  C   UNL A   1      33.197  18.158  24.613  1.00  0.00     0.125 A 
ATOM     18  C   UNL A   1      32.629  17.677  25.730  1.00  0.00     0.119 A 
ATOM     19  N   UNL A   1      34.229  17.327  24.249  1.00  0.00    -0.302 N 
ATOM     20  N   UNL A   1      33.311  16.546  26.106  1.00  0.00    -0.312 N 
ATOM     21  C   UNL A   1      34.339  16.295  25.183  1.00  0.00     0.323 A 
ATOM     22  H   UNL A   1      34.799  17.440  23.455  1.00  0.00     0.172 HD
ATOM     23  H   UNL A   1      33.111  15.997  26.900  1.00  0.00     0.171 HD
ATOM     24  O   UNL A   1      35.145  15.387  25.204  1.00  0.00    -0.248 OA
ENDBRANCH  15  17
ENDBRANCH  13  15
ENDBRANCH   6   7
ENDBRANCH   4   6
ENDBRANCH   1   2
BRANCH   1  25
ATOM     25  C   UNL A   1      32.648  28.015  27.228  1.00  0.00     0.042 C 
BRANCH  25  26
ATOM     26  C   UNL A   1      33.925  28.819  27.016  1.00  0.00     0.118 C 
BRANCH  26  27
ATOM     27  N   UNL A   1      33.893  30.127  27.656  1.00  0.00    -0.352 N 
ATOM     28  C   UNL A   1      34.848  30.758  28.416  1.00  0.00     0.251 C 
ATOM     29  H   UNL A   1      33.061  30.637  27.524  1.00  0.00     0.163 HD
ATOM     30  O   UNL A   1      34.579  31.813  28.982  1.00  0.00    -0.269 OA
BRANCH  28  31
ATOM     31  C   UNL A   1      36.187  30.154  28.576  1.00  0.00     0.039 A 
ATOM     32  C   UNL A   1      37.083  30.210  27.505  1.00  0.00     0.014 A 
ATOM     33  C   UNL A   1      36.562  29.540  29.773  1.00  0.00     0.014 A 
ATOM     34  C   UNL A   1      38.381  29.720  27.661  1.00  0.00     0.010 A 
ATOM     35  C   UNL A   1      37.876  29.120  29.953  1.00  0.00     0.010 A 
ATOM     36  C   UNL A   1      38.800  29.211  28.901  1.00  0.00    -0.014 A 
BRANCH  36  37
ATOM     37  C   UNL A   1      40.203  28.778  29.125  1.00  0.00     0.031 A 
ATOM     38  C   UNL A   1      41.199  29.727  29.729  1.00  0.00     0.074 A 
ATOM     39  C   UNL A   1      40.599  27.558  28.711  1.00  0.00     0.049 A 
ATOM     40  N   UNL A   1      42.487  29.574  29.905  1.00  0.00    -0.248 NA
ATOM     41  C   UNL A   1      40.684  31.034  30.167  1.00  0.00     0.031 C 
ATOM     42  C   UNL A   1      39.739  26.559  28.075  1.00  0.00     0.029 A 
ATOM     43  N   UNL A   1      41.833  26.958  28.749  1.00  0.00    -0.354 N 
ATOM     44  C   UNL A   1      42.938  30.766  30.457  1.00  0.00     0.074 A 
ATOM     45  C   UNL A   1      41.796  31.651  30.541  1.00  0.00     0.031 C 
ATOM     46  C   UNL A   1      40.467  25.466  27.796  1.00  0.00     0.029 A 
ATOM     47  C   UNL A   1      41.851  25.702  28.193  1.00  0.00     0.049 A 
ATOM     48  H   UNL A   1      42.630  27.388  29.136  1.00  0.00     0.167 HD
ATOM     49  C   UNL A   1      44.185  31.087  30.874  1.00  0.00     0.037 A 
ATOM     50  C   UNL A   1      42.871  24.841  28.010  1.00  0.00     0.037 A 
ATOM     51  C   UNL A   1      45.315  30.196  30.812  1.00  0.00     0.049 A 
ATOM     52  C   UNL A   1      44.251  25.228  28.467  1.00  0.00     0.074 A 
ATOM     53  C   UNL A   1      46.605  30.408  31.265  1.00  0.00     0.029 A 
ATOM     54  N   UNL A   1      45.288  28.925  30.258  1.00  0.00    -0.354 N 
ATOM     55  N   UNL A   1      44.650  26.334  29.045  1.00  0.00    -0.248 NA
ATOM     56  C   UNL A   1      45.322  24.246  28.247  1.00  0.00     0.031 C 
ATOM     57  C   UNL A   1      47.370  29.282  30.945  1.00  0.00     0.029 A 
ATOM     58  C   UNL A   1      46.545  28.350  30.337  1.00  0.00     0.049 A 
ATOM     59  H   UNL A   1      44.493  28.495  29.867  1.00  0.00     0.167 HD
ATOM     60  C   UNL A   1      46.008  26.170  29.286  1.00  0.00     0.074 A 
ATOM     61  C   UNL A   1      46.363  24.853  28.800  1.00  0.00     0.031 C 
ATOM     62  C   UNL A   1      46.881  27.033  29.860  1.00  0.00     0.037 A 
BRANCH  49  63
ATOM     63  C   UNL A   1      44.395  32.462  31.438  1.00  0.00     0.057 A 
ATOM     64  C   UNL A   1      44.761  33.545  30.628  1.00  0.00     0.134 A 
ATOM     65  C   UNL A   1      44.193  32.715  32.801  1.00  0.00     0.134 A 
ATOM     66  F   UNL A   1      44.981  33.369  29.316  1.00  0.00    -0.206 F 
ATOM     67  C   UNL A   1      44.944  34.825  31.158  1.00  0.00     0.040 A 
ATOM     68  C   UNL A   1      44.345  33.995  33.337  1.00  0.00     0.040 A 
ATOM     69  F   UNL A   1      43.835  31.725  33.632  1.00  0.00    -0.206 F 
ATOM     70  C   UNL A   1      44.728  35.053  32.514  1.00  0.00     0.006 A 
ENDBRANCH  49  63
BRANCH  50  71
ATOM     71  C   UNL A   1      42.625  23.521  27.377  1.00  0.00     0.057 A 
ATOM     72  C   UNL A   1      42.252  22.411  28.145  1.00  0.00     0.134 A 
ATOM     73  C   UNL A   1      42.764  23.334  25.997  1.00  0.00     0.134 A 
ATOM     74  F   UNL A   1      42.122  22.525  29.475  1.00  0.00    -0.206 F 
ATOM     75  C   UNL A   1      42.045  21.159  27.567  1.00  0.00     0.040 A 
ATOM     76  C   UNL A   1      42.535  22.091  25.402  1.00  0.00     0.040 A 
ATOM     77  F   UNL A   1      43.112  24.358  25.205  1.00  0.00    -0.206 F 
ATOM     78  C   UNL A   1      42.181  20.998  26.188  1.00  0.00     0.006 A 
ENDBRANCH  50  71
BRANCH  62  79
ATOM     79  C   UNL A   1      48.298  26.568  30.031  1.00  0.00     0.057 A 
ATOM     80  C   UNL A   1      49.289  26.851  29.084  1.00  0.00     0.134 A 
ATOM     81  C   UNL A   1      48.683  25.876  31.186  1.00  0.00     0.134 A 
ATOM     82  F   UNL A   1      48.983  27.499  27.950  1.00  0.00    -0.206 F 
ATOM     83  C   UNL A   1      50.613  26.446  29.272  1.00  0.00     0.040 A 
ATOM     84  C   UNL A   1      50.007  25.489  31.398  1.00  0.00     0.040 A 
ATOM     85  F   UNL A   1      47.783  25.581  32.136  1.00  0.00    -0.206 F 
ATOM     86  C   UNL A   1      50.974  25.770  30.436  1.00  0.00     0.006 A 
ENDBRANCH  62  79
ENDBRANCH  36  37
ENDBRANCH  28  31
ENDBRANCH  26  27
ENDBRANCH  25  26
ENDBRANCH   1  25
TORSDOF 13
ENDMDL
MODEL 3
REMARK VINA RESULT:     -12.0      2.442      7.990
REMARK SMILES O=C(C[C@H]1C[C@H]2CC[C@@H](C1)N2C(=O)c1c[nH]c(=O)[nH]1)NCCCNC(=O)c1ccc(-c2c3nc(c(-c4c(F)cccc4F)c4ccc([nH]4)c(-c4c(F)cccc4F)c4nc(c(-c5c(F)cccc5F)c5ccc2[nH]5)C=C4)C=C3)cc1
REMARK SMILES IDX 21 1 20 2 1 3 2 4 3 6 4 7 5 8 10 9 6 10 9 11 7 12 11 13 8 14
REMARK SMILES IDX 12 15 13 16 14 17 15 18 19 19 16 20 17 21 18 24 22 25 23 26
REMARK SMILES IDX 24 27 25 28 26 30 27 31 28 32 80 33 29 34 79 35 30 36 31 37
REMARK SMILES IDX 32 38 73 39 33 40 78 41 72 42 74 43 34 44 77 45 71 46 70 47
REMARK SMILES IDX 35 49 61 50 44 51 60 52 45 53 48 54 59 55 75 56 46 57 47 58
REMARK SMILES IDX 58 60 76 61 49 62 36 63 37 64 42 65 38 66 39 67 41 68 43 69
REMARK SMILES IDX 40 70 62 71 63 72 68 73 64 74 65 75 67 76 69 77 66 78 50 79
REMARK SMILES IDX 51 80 56 81 52 82 53 83 55 84 57 85 54 86
REMARK H PARENT 20 5 19 22 16 23 24 29 74 48 48 59
REMARK Flexibility Score: inf
ROOT
ATOM      1  C   UNL A   1      35.948  21.084  25.597  1.00  0.00     0.117 C 
ENDROOT
BRANCH   1   2
ATOM      2  N   UNL A   1      34.986  21.617  24.656  1.00  0.00    -0.356 N 
ATOM      3  O   UNL A   1      33.205  20.425  25.470  1.00  0.00    -0.275 OA
ATOM      4  C   UNL A   1      33.659  21.264  24.698  1.00  0.00     0.220 C 
ATOM      5  H   UNL A   1      35.291  22.251  23.966  1.00  0.00     0.163 HD
BRANCH   4   6
ATOM      6  C   UNL A   1      32.778  21.994  23.704  1.00  0.00     0.103 C 
BRANCH   6   7
ATOM      7  C   UNL A   1      31.784  23.012  24.310  1.00  0.00     0.002 C 
ATOM      8  C   UNL A   1      32.514  23.986  25.281  1.00  0.00     0.029 C 
ATOM      9  C   UNL A   1      30.893  23.778  23.294  1.00  0.00     0.029 C 
ATOM     10  C   UNL A   1      32.899  25.346  24.657  1.00  0.00     0.086 C 
ATOM     11  C   UNL A   1      31.470  25.125  22.840  1.00  0.00     0.086 C 
ATOM     12  C   UNL A   1      33.826  25.213  23.446  1.00  0.00     0.027 C 
ATOM     13  N   UNL A   1      31.712  25.904  24.041  1.00  0.00    -0.331 N 
ATOM     14  C   UNL A   1      32.879  24.999  22.250  1.00  0.00     0.027 C 
BRANCH  13  15
ATOM     15  C   UNL A   1      31.146  27.092  24.433  1.00  0.00     0.272 C 
ATOM     16  O   UNL A   1      30.827  27.341  25.593  1.00  0.00    -0.267 OA
BRANCH  15  17
ATOM     17  C   UNL A   1      30.994  28.130  23.391  1.00  0.00     0.125 A 
ATOM     18  C   UNL A   1      31.951  28.833  22.765  1.00  0.00     0.119 A 
ATOM     19  N   UNL A   1      29.770  28.510  22.893  1.00  0.00    -0.302 N 
ATOM     20  N   UNL A   1      31.345  29.689  21.879  1.00  0.00    -0.312 N 
ATOM     21  C   UNL A   1      29.954  29.510  21.936  1.00  0.00     0.323 A 
ATOM     22  H   UNL A   1      28.902  28.136  23.168  1.00  0.00     0.172 HD
ATOM     23  H   UNL A   1      31.814  30.329  21.295  1.00  0.00     0.171 HD
ATOM     24  O   UNL A   1      29.106  30.101  21.299  1.00  0.00    -0.248 OA
ENDBRANCH  15  17
ENDBRANCH  13  15
ENDBRANCH   6   7
ENDBRANCH   4   6
ENDBRANCH   1   2
BRANCH   1  25
ATOM     25  C   UNL A   1      37.107  20.385  24.904  1.00  0.00     0.042 C 
BRANCH  25  26
ATOM     26  C   UNL A   1      38.480  20.834  25.392  1.00  0.00     0.118 C 
BRANCH  26  27
ATOM     27  N   UNL A   1      39.441  19.743  25.484  1.00  0.00    -0.352 N 
ATOM     28  C   UNL A   1      40.737  19.749  25.939  1.00  0.00     0.251 C 
ATOM     29  H   UNL A   1      39.111  18.868  25.174  1.00  0.00     0.163 HD
ATOM     30  O   UNL A   1      41.433  18.746  25.811  1.00  0.00    -0.269 OA
BRANCH  28  31
ATOM     31  C   UNL A   1      41.302  20.969  26.552  1.00  0.00     0.039 A 
ATOM     32  C   UNL A   1      41.909  21.917  25.724  1.00  0.00     0.014 A 
ATOM     33  C   UNL A   1      41.232  21.182  27.930  1.00  0.00     0.014 A 
ATOM     34  C   UNL A   1      42.376  23.115  26.269  1.00  0.00     0.010 A 
ATOM     35  C   UNL A   1      41.628  22.405  28.461  1.00  0.00     0.010 A 
ATOM     36  C   UNL A   1      42.200  23.386  27.636  1.00  0.00    -0.014 A 
BRANCH  36  37
ATOM     37  C   UNL A   1      42.593  24.692  28.223  1.00  0.00     0.031 A 
ATOM     38  C   UNL A   1      41.564  25.768  28.429  1.00  0.00     0.074 A 
ATOM     39  C   UNL A   1      43.889  24.938  28.495  1.00  0.00     0.049 A 
ATOM     40  N   UNL A   1      41.727  27.004  28.826  1.00  0.00    -0.248 NA
ATOM     41  C   UNL A   1      40.169  25.416  28.121  1.00  0.00     0.031 C 
ATOM     42  C   UNL A   1      44.989  23.992  28.301  1.00  0.00     0.029 A 
ATOM     43  N   UNL A   1      44.504  26.067  28.977  1.00  0.00    -0.354 N 
ATOM     44  C   UNL A   1      40.464  27.581  28.801  1.00  0.00     0.074 A 
ATOM     45  C   UNL A   1      39.551  26.574  28.301  1.00  0.00     0.031 C 
ATOM     46  C   UNL A   1      46.140  24.574  28.675  1.00  0.00     0.029 A 
ATOM     47  C   UNL A   1      45.867  25.945  29.093  1.00  0.00     0.049 A 
ATOM     48  H   UNL A   1      44.014  26.887  29.216  1.00  0.00     0.167 HD
ATOM     49  C   UNL A   1      40.094  28.828  29.176  1.00  0.00     0.037 A 
ATOM     50  C   UNL A   1      46.796  26.841  29.478  1.00  0.00     0.037 A 
ATOM     51  C   UNL A   1      41.001  29.819  29.695  1.00  0.00     0.049 A 
ATOM     52  C   UNL A   1      46.362  28.226  29.875  1.00  0.00     0.074 A 
ATOM     53  C   UNL A   1      40.713  31.090  30.160  1.00  0.00     0.029 A 
ATOM     54  N   UNL A   1      42.372  29.650  29.814  1.00  0.00    -0.354 N 
ATOM     55  N   UNL A   1      45.155  28.736  29.905  1.00  0.00    -0.248 NA
ATOM     56  C   UNL A   1      47.419  29.158  30.292  1.00  0.00     0.031 C 
ATOM     57  C   UNL A   1      41.915  31.707  30.518  1.00  0.00     0.029 A 
ATOM     58  C   UNL A   1      42.946  30.803  30.323  1.00  0.00     0.049 A 
ATOM     59  H   UNL A   1      42.864  28.832  29.573  1.00  0.00     0.167 HD
ATOM     60  C   UNL A   1      45.303  30.036  30.373  1.00  0.00     0.074 A 
ATOM     61  C   UNL A   1      46.716  30.232  30.622  1.00  0.00     0.031 C 
ATOM     62  C   UNL A   1      44.353  30.980  30.578  1.00  0.00     0.037 A 
BRANCH  49  63
ATOM     63  C   UNL A   1      38.645  29.191  29.042  1.00  0.00     0.057 A 
ATOM     64  C   UNL A   1      37.766  29.141  30.132  1.00  0.00     0.134 A 
ATOM     65  C   UNL A   1      38.129  29.634  27.818  1.00  0.00     0.134 A 
ATOM     66  F   UNL A   1      38.194  28.715  31.331  1.00  0.00    -0.206 F 
ATOM     67  C   UNL A   1      36.420  29.491  30.003  1.00  0.00     0.040 A 
ATOM     68  C   UNL A   1      36.792  30.014  27.683  1.00  0.00     0.040 A 
ATOM     69  F   UNL A   1      38.916  29.714  26.735  1.00  0.00    -0.206 F 
ATOM     70  C   UNL A   1      35.933  29.937  28.777  1.00  0.00     0.006 A 
ENDBRANCH  49  63
BRANCH  50  71
ATOM     71  C   UNL A   1      48.229  26.455  29.521  1.00  0.00     0.057 A 
ATOM     72  C   UNL A   1      49.067  26.671  28.421  1.00  0.00     0.134 A 
ATOM     73  C   UNL A   1      48.792  25.857  30.655  1.00  0.00     0.134 A 
ATOM     74  F   UNL A   1      48.580  27.224  27.300  1.00  0.00    -0.206 F 
ATOM     75  C   UNL A   1      50.409  26.289  28.438  1.00  0.00     0.040 A 
ATOM     76  C   UNL A   1      50.139  25.493  30.695  1.00  0.00     0.040 A 
ATOM     77  F   UNL A   1      48.044  25.630  31.744  1.00  0.00    -0.206 F 
ATOM     78  C   UNL A   1      50.950  25.702  29.582  1.00  0.00     0.006 A 
ENDBRANCH  50  71
BRANCH  62  79
ATOM     79  C   UNL A   1      44.801  32.299  31.136  1.00  0.00     0.057 A 
ATOM     80  C   UNL A   1      45.143  33.375  30.308  1.00  0.00     0.134 A 
ATOM     81  C   UNL A   1      44.838  32.509  32.520  1.00  0.00     0.134 A 
ATOM     82  F   UNL A   1      45.141  33.236  28.974  1.00  0.00    -0.206 F 
ATOM     83  C   UNL A   1      45.522  34.610  30.839  1.00  0.00     0.040 A 
ATOM     84  C   UNL A   1      45.189  33.745  33.062  1.00  0.00     0.040 A 
ATOM     85  F   UNL A   1      44.514  31.521  33.368  1.00  0.00    -0.206 F 
ATOM     86  C   UNL A   1      45.538  34.799  32.220  1.00  0.00     0.006 A 
ENDBRANCH  62  79
ENDBRANCH  36  37
ENDBRANCH  28  31
ENDBRANCH  26  27
ENDBRANCH  25  26
ENDBRANCH   1  25
TORSDOF 13
ENDMDL
