MODEL 1
REMARK VINA RESULT:     -12.3      0.000      0.000
REMARK SMILES CCOC(=O)c1c(NC(=O)[C@H]2CCCC[C@@H]2C(=O)NCCCNC(=O)c2ccc(-c3c4nc(c(-c5c(F)cccc5F)c5ccc([nH]5)c(-c5c(F)cccc5F)c5nc(c(-c6c(F)cccc6F)c6ccc3[nH]6)C=C5)C=C4)cc2)sc2c1CC[C@H](C)C2
REMARK SMILES IDX 17 1 18 2 19 3 16 5 11 6 12 7 13 8 15 9 14 10 9 11 8 12
REMARK SMILES IDX 10 14 7 15 6 16 82 17 80 18 81 19 83 20 87 21 84 22 85 23
REMARK SMILES IDX 86 24 4 25 5 26 3 27 2 28 1 29 20 30 21 31 22 32 23 33 24 34
REMARK SMILES IDX 25 36 26 37 27 38 79 39 28 40 78 41 29 42 30 43 31 44 72 45
REMARK SMILES IDX 32 46 77 47 71 48 73 49 33 50 76 51 70 52 69 53 34 55 60 56
REMARK SMILES IDX 43 57 59 58 44 59 47 60 58 61 74 62 45 63 46 64 57 66 75 67
REMARK SMILES IDX 48 68 35 69 36 70 41 71 37 72 38 73 40 74 42 75 39 76 61 77
REMARK SMILES IDX 62 78 67 79 63 80 64 81 66 82 68 83 65 84 49 85 50 86 55 87
REMARK SMILES IDX 51 88 52 89 54 90 56 91 53 92
REMARK H PARENT 19 4 8 13 23 35 73 54 47 65
REMARK Flexibility Score: inf
ROOT
ATOM      1  C   UNL A   1      31.686  27.848  26.778  1.00  0.00     0.223 C 
ATOM      2  O   UNL A   1      30.877  27.450  27.626  1.00  0.00    -0.275 OA
ATOM      3  N   UNL A   1      31.878  29.230  26.740  1.00  0.00    -0.356 N 
ATOM      4  H   UNL A   1      31.114  29.703  27.143  1.00  0.00     0.163 HD
ENDROOT
BRANCH   1   5
ATOM      5  C   UNL A   1      32.370  26.804  25.796  1.00  0.00     0.091 C 
ATOM      6  C   UNL A   1      32.476  27.067  24.239  1.00  0.00     0.091 C 
ATOM      7  C   UNL A   1      31.359  27.930  23.766  1.00  0.00     0.014 C 
ATOM      8  C   UNL A   1      30.127  27.142  24.073  1.00  0.00     0.001 C 
ATOM      9  C   UNL A   1      31.519  25.609  25.833  1.00  0.00     0.014 C 
ATOM     10  C   UNL A   1      30.186  26.124  25.257  1.00  0.00     0.001 C 
BRANCH   6  11
ATOM     11  C   UNL A   1      32.515  25.812  23.225  1.00  0.00     0.228 C 
ATOM     12  N   UNL A   1      32.918  24.490  23.304  1.00  0.00    -0.317 N 
ATOM     13  H   UNL A   1      32.693  24.116  22.422  1.00  0.00     0.170 HD
ATOM     14  O   UNL A   1      32.145  26.100  22.064  1.00  0.00    -0.274 OA
BRANCH  12  15
ATOM     15  C   UNL A   1      33.492  23.390  24.014  1.00  0.00     0.110 A 
ATOM     16  C   UNL A   1      34.636  22.701  24.540  1.00  0.00     0.098 A 
ATOM     17  C   UNL A   1      34.341  21.255  24.596  1.00  0.00    -0.017 A 
ATOM     18  S   UNL A   1      32.082  22.373  24.343  1.00  0.00    -0.122 S 
ATOM     19  C   UNL A   1      33.001  20.974  24.531  1.00  0.00     0.011 A 
ATOM     20  C   UNL A   1      35.372  20.153  24.751  1.00  0.00     0.038 C 
ATOM     21  C   UNL A   1      32.411  19.592  24.618  1.00  0.00     0.050 C 
ATOM     22  C   UNL A   1      34.788  18.742  24.631  1.00  0.00     0.008 C 
ATOM     23  C   UNL A   1      33.414  18.636  25.309  1.00  0.00    -0.009 C 
ATOM     24  C   UNL A   1      32.932  17.190  25.292  1.00  0.00     0.008 C 
BRANCH  16  25
ATOM     25  C   UNL A   1      36.093  23.040  24.748  1.00  0.00     0.341 C 
ATOM     26  O   UNL A   1      36.884  23.057  23.803  1.00  0.00    -0.246 OA
BRANCH  25  27
ATOM     27  O   UNL A   1      36.519  23.325  26.016  1.00  0.00    -0.462 OA
BRANCH  27  28
ATOM     28  C   UNL A   1      37.964  23.411  26.128  1.00  0.00     0.230 C 
ATOM     29  C   UNL A   1      38.523  24.450  27.078  1.00  0.00     0.049 C 
ENDBRANCH  27  28
ENDBRANCH  25  27
ENDBRANCH  16  25
ENDBRANCH  12  15
ENDBRANCH   6  11
ENDBRANCH   1   5
BRANCH   3  30
ATOM     30  C   UNL A   1      32.921  30.207  26.257  1.00  0.00     0.117 C 
BRANCH  30  31
ATOM     31  C   UNL A   1      34.368  29.736  26.257  1.00  0.00     0.042 C 
BRANCH  31  32
ATOM     32  C   UNL A   1      34.776  29.233  27.637  1.00  0.00     0.118 C 
BRANCH  32  33
ATOM     33  N   UNL A   1      35.222  30.265  28.585  1.00  0.00    -0.352 N 
ATOM     34  C   UNL A   1      36.420  30.273  29.303  1.00  0.00     0.251 C 
ATOM     35  H   UNL A   1      34.615  31.028  28.729  1.00  0.00     0.163 HD
ATOM     36  O   UNL A   1      36.599  30.957  30.281  1.00  0.00    -0.269 OA
BRANCH  34  37
ATOM     37  C   UNL A   1      37.480  29.381  28.791  1.00  0.00     0.039 A 
ATOM     38  C   UNL A   1      38.195  29.705  27.636  1.00  0.00     0.014 A 
ATOM     39  C   UNL A   1      37.915  28.397  29.668  1.00  0.00     0.014 A 
ATOM     40  C   UNL A   1      39.454  29.131  27.449  1.00  0.00     0.010 A 
ATOM     41  C   UNL A   1      39.220  27.976  29.563  1.00  0.00     0.010 A 
ATOM     42  C   UNL A   1      40.000  28.312  28.451  1.00  0.00    -0.014 A 
BRANCH  42  43
ATOM     43  C   UNL A   1      41.412  27.913  28.407  1.00  0.00     0.031 A 
ATOM     44  C   UNL A   1      41.761  26.659  27.656  1.00  0.00     0.074 A 
ATOM     45  C   UNL A   1      42.422  28.723  28.795  1.00  0.00     0.049 A 
ATOM     46  N   UNL A   1      42.346  25.596  28.108  1.00  0.00    -0.248 NA
ATOM     47  C   UNL A   1      41.391  26.566  26.235  1.00  0.00     0.031 C 
ATOM     48  C   UNL A   1      42.367  30.112  29.267  1.00  0.00     0.029 A 
ATOM     49  N   UNL A   1      43.762  28.488  28.728  1.00  0.00    -0.354 N 
ATOM     50  C   UNL A   1      42.563  24.759  27.012  1.00  0.00     0.074 A 
ATOM     51  C   UNL A   1      41.862  25.360  25.905  1.00  0.00     0.031 C 
ATOM     52  C   UNL A   1      43.594  30.666  29.194  1.00  0.00     0.029 A 
ATOM     53  C   UNL A   1      44.545  29.619  28.880  1.00  0.00     0.049 A 
ATOM     54  H   UNL A   1      44.141  27.590  28.584  1.00  0.00     0.167 HD
ATOM     55  C   UNL A   1      43.440  23.714  27.050  1.00  0.00     0.037 A 
ATOM     56  C   UNL A   1      45.888  29.708  28.760  1.00  0.00     0.037 A 
ATOM     57  C   UNL A   1      43.796  23.360  28.398  1.00  0.00     0.049 A 
ATOM     58  C   UNL A   1      46.441  28.346  28.947  1.00  0.00     0.074 A 
ATOM     59  C   UNL A   1      43.090  22.956  29.515  1.00  0.00     0.029 A 
ATOM     60  N   UNL A   1      45.030  23.736  28.871  1.00  0.00    -0.354 N 
ATOM     61  N   UNL A   1      46.403  27.693  30.075  1.00  0.00    -0.248 NA
ATOM     62  C   UNL A   1      46.657  27.533  27.762  1.00  0.00     0.031 C 
ATOM     63  C   UNL A   1      43.726  23.620  30.606  1.00  0.00     0.029 A 
ATOM     64  C   UNL A   1      44.806  24.335  30.085  1.00  0.00     0.049 A 
ATOM     65  H   UNL A   1      45.899  23.601  28.428  1.00  0.00     0.167 HD
ATOM     66  C   UNL A   1      46.165  26.375  29.715  1.00  0.00     0.074 A 
ATOM     67  C   UNL A   1      46.440  26.323  28.280  1.00  0.00     0.031 C 
ATOM     68  C   UNL A   1      45.504  25.514  30.544  1.00  0.00     0.037 A 
BRANCH  55  69
ATOM     69  C   UNL A   1      44.200  23.179  25.862  1.00  0.00     0.057 A 
ATOM     70  C   UNL A   1      44.150  21.808  25.545  1.00  0.00     0.134 A 
ATOM     71  C   UNL A   1      45.193  23.912  25.184  1.00  0.00     0.134 A 
ATOM     72  F   UNL A   1      43.272  20.993  26.150  1.00  0.00    -0.206 F 
ATOM     73  C   UNL A   1      45.046  21.207  24.650  1.00  0.00     0.040 A 
ATOM     74  C   UNL A   1      46.061  23.333  24.252  1.00  0.00     0.040 A 
ATOM     75  F   UNL A   1      45.434  25.200  25.462  1.00  0.00    -0.206 F 
ATOM     76  C   UNL A   1      46.007  21.971  24.001  1.00  0.00     0.006 A 
ENDBRANCH  55  69
BRANCH  56  77
ATOM     77  C   UNL A   1      46.676  30.856  28.274  1.00  0.00     0.057 A 
ATOM     78  C   UNL A   1      46.642  31.250  26.933  1.00  0.00     0.134 A 
ATOM     79  C   UNL A   1      47.297  31.747  29.170  1.00  0.00     0.134 A 
ATOM     80  F   UNL A   1      46.039  30.482  26.015  1.00  0.00    -0.206 F 
ATOM     81  C   UNL A   1      47.180  32.470  26.506  1.00  0.00     0.040 A 
ATOM     82  C   UNL A   1      47.845  32.964  28.757  1.00  0.00     0.040 A 
ATOM     83  F   UNL A   1      47.319  31.502  30.490  1.00  0.00    -0.206 F 
ATOM     84  C   UNL A   1      47.775  33.335  27.420  1.00  0.00     0.006 A 
ENDBRANCH  56  77
BRANCH  68  85
ATOM     85  C   UNL A   1      45.233  25.948  31.961  1.00  0.00     0.057 A 
ATOM     86  C   UNL A   1      44.059  26.597  32.371  1.00  0.00     0.134 A 
ATOM     87  C   UNL A   1      46.111  25.544  32.974  1.00  0.00     0.134 A 
ATOM     88  F   UNL A   1      43.105  26.926  31.494  1.00  0.00    -0.206 F 
ATOM     89  C   UNL A   1      43.790  26.870  33.715  1.00  0.00     0.040 A 
ATOM     90  C   UNL A   1      45.839  25.782  34.325  1.00  0.00     0.040 A 
ATOM     91  F   UNL A   1      47.226  24.861  32.672  1.00  0.00    -0.206 F 
ATOM     92  C   UNL A   1      44.679  26.456  34.699  1.00  0.00     0.006 A 
ENDBRANCH  68  85
ENDBRANCH  42  43
ENDBRANCH  34  37
ENDBRANCH  32  33
ENDBRANCH  31  32
ENDBRANCH  30  31
ENDBRANCH   3  30
TORSDOF 15
ENDMDL
MODEL 2
REMARK VINA RESULT:     -12.3      1.871      5.782
REMARK SMILES CCOC(=O)c1c(NC(=O)[C@H]2CCCC[C@@H]2C(=O)NCCCNC(=O)c2ccc(-c3c4nc(c(-c5c(F)cccc5F)c5ccc([nH]5)c(-c5c(F)cccc5F)c5nc(c(-c6c(F)cccc6F)c6ccc3[nH]6)C=C5)C=C4)cc2)sc2c1CC[C@H](C)C2
REMARK SMILES IDX 17 1 18 2 19 3 16 5 11 6 12 7 13 8 15 9 14 10 9 11 8 12
REMARK SMILES IDX 10 14 7 15 6 16 82 17 80 18 81 19 83 20 87 21 84 22 85 23
REMARK SMILES IDX 86 24 4 25 5 26 3 27 2 28 1 29 20 30 21 31 22 32 23 33 24 34
REMARK SMILES IDX 25 36 26 37 27 38 79 39 28 40 78 41 29 42 30 43 31 44 72 45
REMARK SMILES IDX 32 46 77 47 71 48 73 49 33 50 76 51 70 52 69 53 34 55 60 56
REMARK SMILES IDX 43 57 59 58 44 59 47 60 58 61 74 62 45 63 46 64 57 66 75 67
REMARK SMILES IDX 48 68 35 69 36 70 41 71 37 72 38 73 40 74 42 75 39 76 61 77
REMARK SMILES IDX 62 78 67 79 63 80 64 81 66 82 68 83 65 84 49 85 50 86 55 87
REMARK SMILES IDX 51 88 52 89 54 90 56 91 53 92
REMARK H PARENT 19 4 8 13 23 35 73 54 47 65
REMARK Flexibility Score: inf
ROOT
ATOM      1  C   UNL A   1      32.054  28.228  27.325  1.00  0.00     0.223 C 
ATOM      2  O   UNL A   1      31.097  27.828  28.001  1.00  0.00    -0.275 OA
ATOM      3  N   UNL A   1      32.356  29.584  27.465  1.00  0.00    -0.356 N 
ATOM      4  H   UNL A   1      31.579  30.085  27.804  1.00  0.00     0.163 HD
ENDROOT
BRANCH   1   5
ATOM      5  C   UNL A   1      32.795  27.225  26.343  1.00  0.00     0.091 C 
ATOM      6  C   UNL A   1      33.202  27.643  24.871  1.00  0.00     0.091 C 
ATOM      7  C   UNL A   1      32.278  28.679  24.336  1.00  0.00     0.014 C 
ATOM      8  C   UNL A   1      30.939  28.015  24.331  1.00  0.00     0.001 C 
ATOM      9  C   UNL A   1      31.838  26.143  26.085  1.00  0.00     0.014 C 
ATOM     10  C   UNL A   1      30.685  26.874  25.368  1.00  0.00     0.001 C 
BRANCH   6  11
ATOM     11  C   UNL A   1      33.297  26.511  23.725  1.00  0.00     0.228 C 
ATOM     12  N   UNL A   1      33.593  25.159  23.693  1.00  0.00    -0.317 N 
ATOM     13  H   UNL A   1      33.469  24.907  22.749  1.00  0.00     0.170 HD
ATOM     14  O   UNL A   1      33.114  26.958  22.570  1.00  0.00    -0.274 OA
BRANCH  12  15
ATOM     15  C   UNL A   1      33.985  23.942  24.331  1.00  0.00     0.110 A 
ATOM     16  C   UNL A   1      35.003  23.063  24.832  1.00  0.00     0.098 A 
ATOM     17  C   UNL A   1      34.509  21.672  24.771  1.00  0.00    -0.017 A 
ATOM     18  S   UNL A   1      32.437  23.112  24.547  1.00  0.00    -0.122 S 
ATOM     19  C   UNL A   1      33.146  21.587  24.651  1.00  0.00     0.011 A 
ATOM     20  C   UNL A   1      35.372  20.428  24.867  1.00  0.00     0.038 C 
ATOM     21  C   UNL A   1      32.368  20.299  24.619  1.00  0.00     0.050 C 
ATOM     22  C   UNL A   1      34.603  19.126  24.626  1.00  0.00     0.008 C 
ATOM     23  C   UNL A   1      33.204  19.165  25.260  1.00  0.00    -0.009 C 
ATOM     24  C   UNL A   1      32.528  17.806  25.122  1.00  0.00     0.008 C 
BRANCH  16  25
ATOM     25  C   UNL A   1      36.485  23.178  25.101  1.00  0.00     0.341 C 
ATOM     26  O   UNL A   1      37.313  22.879  24.239  1.00  0.00    -0.246 OA
BRANCH  25  27
ATOM     27  O   UNL A   1      36.889  23.619  26.331  1.00  0.00    -0.462 OA
BRANCH  27  28
ATOM     28  C   UNL A   1      38.331  23.750  26.446  1.00  0.00     0.230 C 
ATOM     29  C   UNL A   1      38.858  24.630  27.560  1.00  0.00     0.049 C 
ENDBRANCH  27  28
ENDBRANCH  25  27
ENDBRANCH  16  25
ENDBRANCH  12  15
ENDBRANCH   6  11
ENDBRANCH   1   5
BRANCH   3  30
ATOM     30  C   UNL A   1      33.533  30.502  27.244  1.00  0.00     0.117 C 
BRANCH  30  31
ATOM     31  C   UNL A   1      33.291  31.996  27.411  1.00  0.00     0.042 C 
BRANCH  31  32
ATOM     32  C   UNL A   1      34.516  32.683  28.002  1.00  0.00     0.118 C 
BRANCH  32  33
ATOM     33  N   UNL A   1      34.540  32.791  29.469  1.00  0.00    -0.352 N 
ATOM     34  C   UNL A   1      35.344  32.057  30.344  1.00  0.00     0.251 C 
ATOM     35  H   UNL A   1      33.927  33.447  29.875  1.00  0.00     0.163 HD
ATOM     36  O   UNL A   1      35.112  31.953  31.523  1.00  0.00    -0.269 OA
BRANCH  34  37
ATOM     37  C   UNL A   1      36.520  31.401  29.737  1.00  0.00     0.039 A 
ATOM     38  C   UNL A   1      37.722  32.094  29.571  1.00  0.00     0.014 A 
ATOM     39  C   UNL A   1      36.453  30.019  29.634  1.00  0.00     0.014 A 
ATOM     40  C   UNL A   1      38.903  31.359  29.454  1.00  0.00     0.010 A 
ATOM     41  C   UNL A   1      37.632  29.314  29.694  1.00  0.00     0.010 A 
ATOM     42  C   UNL A   1      38.867  29.961  29.583  1.00  0.00    -0.014 A 
BRANCH  42  43
ATOM     43  C   UNL A   1      40.107  29.189  29.730  1.00  0.00     0.031 A 
ATOM     44  C   UNL A   1      40.596  28.913  31.124  1.00  0.00     0.074 A 
ATOM     45  C   UNL A   1      40.691  28.525  28.708  1.00  0.00     0.049 A 
ATOM     46  N   UNL A   1      41.733  29.244  31.650  1.00  0.00    -0.248 NA
ATOM     47  C   UNL A   1      39.703  28.203  32.053  1.00  0.00     0.031 C 
ATOM     48  C   UNL A   1      40.237  28.375  27.320  1.00  0.00     0.029 A 
ATOM     49  N   UNL A   1      41.791  27.723  28.746  1.00  0.00    -0.354 N 
ATOM     50  C   UNL A   1      41.774  28.661  32.918  1.00  0.00     0.074 A 
ATOM     51  C   UNL A   1      40.458  28.122  33.153  1.00  0.00     0.031 C 
ATOM     52  C   UNL A   1      40.891  27.352  26.735  1.00  0.00     0.029 A 
ATOM     53  C   UNL A   1      41.948  26.922  27.628  1.00  0.00     0.049 A 
ATOM     54  H   UNL A   1      42.421  27.714  29.503  1.00  0.00     0.167 HD
ATOM     55  C   UNL A   1      42.935  28.518  33.621  1.00  0.00     0.037 A 
ATOM     56  C   UNL A   1      42.880  25.963  27.431  1.00  0.00     0.037 A 
ATOM     57  C   UNL A   1      43.986  29.349  33.098  1.00  0.00     0.049 A 
ATOM     58  C   UNL A   1      44.004  26.241  28.354  1.00  0.00     0.074 A 
ATOM     59  C   UNL A   1      44.142  30.707  32.897  1.00  0.00     0.029 A 
ATOM     60  N   UNL A   1      44.976  28.761  32.349  1.00  0.00    -0.354 N 
ATOM     61  N   UNL A   1      44.789  27.279  28.255  1.00  0.00    -0.248 NA
ATOM     62  C   UNL A   1      43.994  25.589  29.653  1.00  0.00     0.031 C 
ATOM     63  C   UNL A   1      44.828  30.814  31.651  1.00  0.00     0.029 A 
ATOM     64  C   UNL A   1      45.091  29.516  31.209  1.00  0.00     0.049 A 
ATOM     65  H   UNL A   1      45.499  27.960  32.584  1.00  0.00     0.167 HD
ATOM     66  C   UNL A   1      45.037  27.663  29.564  1.00  0.00     0.074 A 
ATOM     67  C   UNL A   1      44.612  26.524  30.377  1.00  0.00     0.031 C 
ATOM     68  C   UNL A   1      45.302  28.962  29.892  1.00  0.00     0.037 A 
BRANCH  55  69
ATOM     69  C   UNL A   1      43.213  27.421  34.617  1.00  0.00     0.057 A 
ATOM     70  C   UNL A   1      43.401  26.095  34.181  1.00  0.00     0.134 A 
ATOM     71  C   UNL A   1      43.033  27.572  36.006  1.00  0.00     0.134 A 
ATOM     72  F   UNL A   1      43.549  25.813  32.878  1.00  0.00    -0.206 F 
ATOM     73  C   UNL A   1      43.373  25.001  35.057  1.00  0.00     0.040 A 
ATOM     74  C   UNL A   1      43.052  26.493  36.896  1.00  0.00     0.040 A 
ATOM     75  F   UNL A   1      42.734  28.756  36.555  1.00  0.00    -0.206 F 
ATOM     76  C   UNL A   1      43.197  25.199  36.421  1.00  0.00     0.006 A 
ENDBRANCH  55  69
BRANCH  56  77
ATOM     77  C   UNL A   1      42.740  24.714  26.658  1.00  0.00     0.057 A 
ATOM     78  C   UNL A   1      43.312  24.572  25.391  1.00  0.00     0.134 A 
ATOM     79  C   UNL A   1      42.243  23.539  27.253  1.00  0.00     0.134 A 
ATOM     80  F   UNL A   1      43.844  25.630  24.763  1.00  0.00    -0.206 F 
ATOM     81  C   UNL A   1      43.403  23.328  24.754  1.00  0.00     0.040 A 
ATOM     82  C   UNL A   1      42.320  22.293  26.627  1.00  0.00     0.040 A 
ATOM     83  F   UNL A   1      41.742  23.550  28.498  1.00  0.00    -0.206 F 
ATOM     84  C   UNL A   1      42.914  22.182  25.376  1.00  0.00     0.006 A 
ENDBRANCH  56  77
BRANCH  68  85
ATOM     85  C   UNL A   1      45.549  29.947  28.779  1.00  0.00     0.057 A 
ATOM     86  C   UNL A   1      44.537  30.687  28.148  1.00  0.00     0.134 A 
ATOM     87  C   UNL A   1      46.867  30.284  28.450  1.00  0.00     0.134 A 
ATOM     88  F   UNL A   1      43.251  30.519  28.471  1.00  0.00    -0.206 F 
ATOM     89  C   UNL A   1      44.819  31.682  27.207  1.00  0.00     0.040 A 
ATOM     90  C   UNL A   1      47.164  31.299  27.535  1.00  0.00     0.040 A 
ATOM     91  F   UNL A   1      47.895  29.667  29.055  1.00  0.00    -0.206 F 
ATOM     92  C   UNL A   1      46.138  31.996  26.903  1.00  0.00     0.006 A 
ENDBRANCH  68  85
ENDBRANCH  42  43
ENDBRANCH  34  37
ENDBRANCH  32  33
ENDBRANCH  31  32
ENDBRANCH  30  31
ENDBRANCH   3  30
TORSDOF 15
ENDMDL
MODEL 3
REMARK VINA RESULT:     -12.1      3.981      8.211
REMARK SMILES CCOC(=O)c1c(NC(=O)[C@H]2CCCC[C@@H]2C(=O)NCCCNC(=O)c2ccc(-c3c4nc(c(-c5c(F)cccc5F)c5ccc([nH]5)c(-c5c(F)cccc5F)c5nc(c(-c6c(F)cccc6F)c6ccc3[nH]6)C=C5)C=C4)cc2)sc2c1CC[C@H](C)C2
REMARK SMILES IDX 17 1 18 2 19 3 16 5 11 6 12 7 13 8 15 9 14 10 9 11 8 12
REMARK SMILES IDX 10 14 7 15 6 16 82 17 80 18 81 19 83 20 87 21 84 22 85 23
REMARK SMILES IDX 86 24 4 25 5 26 3 27 2 28 1 29 20 30 21 31 22 32 23 33 24 34
REMARK SMILES IDX 25 36 26 37 27 38 79 39 28 40 78 41 29 42 30 43 31 44 72 45
REMARK SMILES IDX 32 46 77 47 71 48 73 49 33 50 76 51 70 52 69 53 34 55 60 56
REMARK SMILES IDX 43 57 59 58 44 59 47 60 58 61 74 62 45 63 46 64 57 66 75 67
REMARK SMILES IDX 48 68 35 69 36 70 41 71 37 72 38 73 40 74 42 75 39 76 61 77
REMARK SMILES IDX 62 78 67 79 63 80 64 81 66 82 68 83 65 84 49 85 50 86 55 87
REMARK SMILES IDX 51 88 52 89 54 90 56 91 53 92
REMARK H PARENT 19 4 8 13 23 35 73 54 47 65
REMARK Flexibility Score: inf
ROOT
ATOM      1  C   UNL A   1      34.147  30.835  27.432  1.00  0.00     0.223 C 
ATOM      2  O   UNL A   1      35.283  30.502  27.071  1.00  0.00    -0.275 OA
ATOM      3  N   UNL A   1      33.967  32.202  27.647  1.00  0.00    -0.356 N 
ATOM      4  H   UNL A   1      34.829  32.650  27.809  1.00  0.00     0.163 HD
ENDROOT
BRANCH   1   5
ATOM      5  C   UNL A   1      33.042  29.720  27.674  1.00  0.00     0.091 C 
ATOM      6  C   UNL A   1      33.287  28.204  27.289  1.00  0.00     0.091 C 
ATOM      7  C   UNL A   1      34.239  28.089  26.151  1.00  0.00     0.014 C 
ATOM      8  C   UNL A   1      33.563  28.803  25.027  1.00  0.00     0.001 C 
ATOM      9  C   UNL A   1      31.926  30.069  26.789  1.00  0.00     0.014 C 
ATOM     10  C   UNL A   1      32.550  29.938  25.386  1.00  0.00     0.001 C 
BRANCH   6  11
ATOM     11  C   UNL A   1      32.027  27.275  26.896  1.00  0.00     0.228 C 
ATOM     12  N   UNL A   1      31.827  26.170  26.086  1.00  0.00    -0.317 N 
ATOM     13  H   UNL A   1      30.880  25.940  26.220  1.00  0.00     0.170 HD
ATOM     14  O   UNL A   1      30.947  27.666  27.395  1.00  0.00    -0.274 OA
BRANCH  12  15
ATOM     15  C   UNL A   1      32.296  25.193  25.154  1.00  0.00     0.110 A 
ATOM     16  C   UNL A   1      32.617  24.795  23.813  1.00  0.00     0.098 A 
ATOM     17  C   UNL A   1      32.442  23.334  23.690  1.00  0.00    -0.017 A 
ATOM     18  S   UNL A   1      32.538  23.774  26.183  1.00  0.00    -0.122 S 
ATOM     19  C   UNL A   1      32.419  22.689  24.900  1.00  0.00     0.011 A 
ATOM     20  C   UNL A   1      32.334  22.568  22.385  1.00  0.00     0.038 C 
ATOM     21  C   UNL A   1      32.306  21.198  25.073  1.00  0.00     0.050 C 
ATOM     22  C   UNL A   1      32.011  21.082  22.568  1.00  0.00     0.008 C 
ATOM     23  C   UNL A   1      32.752  20.484  23.774  1.00  0.00    -0.009 C 
ATOM     24  C   UNL A   1      32.517  18.979  23.839  1.00  0.00     0.008 C 
BRANCH  16  25
ATOM     25  C   UNL A   1      32.782  25.508  22.491  1.00  0.00     0.341 C 
ATOM     26  O   UNL A   1      33.890  25.627  21.966  1.00  0.00    -0.246 OA
BRANCH  25  27
ATOM     27  O   UNL A   1      31.668  26.026  21.890  1.00  0.00    -0.462 OA
BRANCH  27  28
ATOM     28  C   UNL A   1      31.299  27.335  22.400  1.00  0.00     0.230 C 
ATOM     29  C   UNL A   1      29.998  27.435  23.169  1.00  0.00     0.049 C 
ENDBRANCH  27  28
ENDBRANCH  25  27
ENDBRANCH  16  25
ENDBRANCH  12  15
ENDBRANCH   6  11
ENDBRANCH   1   5
BRANCH   3  30
ATOM     30  C   UNL A   1      32.829  33.192  27.703  1.00  0.00     0.117 C 
BRANCH  30  31
ATOM     31  C   UNL A   1      33.153  34.597  28.190  1.00  0.00     0.042 C 
BRANCH  31  32
ATOM     32  C   UNL A   1      33.702  34.568  29.611  1.00  0.00     0.118 C 
BRANCH  32  33
ATOM     33  N   UNL A   1      32.903  35.284  30.617  1.00  0.00    -0.352 N 
ATOM     34  C   UNL A   1      32.951  35.101  32.001  1.00  0.00     0.251 C 
ATOM     35  H   UNL A   1      32.270  35.961  30.282  1.00  0.00     0.163 HD
ATOM     36  O   UNL A   1      32.077  35.471  32.746  1.00  0.00    -0.269 OA
BRANCH  34  37
ATOM     37  C   UNL A   1      34.154  34.415  32.516  1.00  0.00     0.039 A 
ATOM     38  C   UNL A   1      34.220  33.021  32.565  1.00  0.00     0.014 A 
ATOM     39  C   UNL A   1      35.286  35.206  32.651  1.00  0.00     0.014 A 
ATOM     40  C   UNL A   1      35.478  32.415  32.593  1.00  0.00     0.010 A 
ATOM     41  C   UNL A   1      36.512  34.601  32.502  1.00  0.00     0.010 A 
ATOM     42  C   UNL A   1      36.633  33.207  32.494  1.00  0.00    -0.014 A 
BRANCH  42  43
ATOM     43  C   UNL A   1      37.945  32.593  32.254  1.00  0.00     0.031 A 
ATOM     44  C   UNL A   1      38.857  32.411  33.435  1.00  0.00     0.074 A 
ATOM     45  C   UNL A   1      38.275  31.979  31.096  1.00  0.00     0.049 A 
ATOM     46  N   UNL A   1      40.049  32.889  33.602  1.00  0.00    -0.248 NA
ATOM     47  C   UNL A   1      38.374  31.622  34.579  1.00  0.00     0.031 C 
ATOM     48  C   UNL A   1      37.449  31.744  29.905  1.00  0.00     0.029 A 
ATOM     49  N   UNL A   1      39.425  31.317  30.794  1.00  0.00    -0.354 N 
ATOM     50  C   UNL A   1      40.537  32.346  34.792  1.00  0.00     0.074 A 
ATOM     51  C   UNL A   1      39.427  31.658  35.403  1.00  0.00     0.031 C 
ATOM     52  C   UNL A   1      38.019  30.792  29.138  1.00  0.00     0.029 A 
ATOM     53  C   UNL A   1      39.338  30.513  29.670  1.00  0.00     0.049 A 
ATOM     54  H   UNL A   1      40.248  31.402  31.328  1.00  0.00     0.167 HD
ATOM     55  C   UNL A   1      41.863  32.360  35.115  1.00  0.00     0.037 A 
ATOM     56  C   UNL A   1      40.278  29.669  29.191  1.00  0.00     0.037 A 
ATOM     57  C   UNL A   1      42.601  33.298  34.313  1.00  0.00     0.049 A 
ATOM     58  C   UNL A   1      41.584  30.102  29.740  1.00  0.00     0.074 A 
ATOM     59  C   UNL A   1      42.524  34.660  34.093  1.00  0.00     0.029 A 
ATOM     60  N   UNL A   1      43.387  32.815  33.295  1.00  0.00    -0.354 N 
ATOM     61  N   UNL A   1      42.171  31.223  29.425  1.00  0.00    -0.248 NA
ATOM     62  C   UNL A   1      42.040  29.484  30.974  1.00  0.00     0.031 C 
ATOM     63  C   UNL A   1      42.789  34.819  32.700  1.00  0.00     0.029 A 
ATOM     64  C   UNL A   1      43.065  33.551  32.183  1.00  0.00     0.049 A 
ATOM     65  H   UNL A   1      44.050  32.089  33.353  1.00  0.00     0.167 HD
ATOM     66  C   UNL A   1      42.749  31.666  30.605  1.00  0.00     0.074 A 
ATOM     67  C   UNL A   1      42.728  30.504  31.492  1.00  0.00     0.031 C 
ATOM     68  C   UNL A   1      42.940  32.995  30.855  1.00  0.00     0.037 A 
BRANCH  55  69
ATOM     69  C   UNL A   1      42.556  31.328  35.969  1.00  0.00     0.057 A 
ATOM     70  C   UNL A   1      43.369  31.727  37.047  1.00  0.00     0.134 A 
ATOM     71  C   UNL A   1      42.674  29.973  35.603  1.00  0.00     0.134 A 
ATOM     72  F   UNL A   1      43.376  33.000  37.469  1.00  0.00    -0.206 F 
ATOM     73  C   UNL A   1      44.257  30.852  37.687  1.00  0.00     0.040 A 
ATOM     74  C   UNL A   1      43.521  29.078  36.265  1.00  0.00     0.040 A 
ATOM     75  F   UNL A   1      42.049  29.474  34.528  1.00  0.00    -0.206 F 
ATOM     76  C   UNL A   1      44.336  29.521  37.295  1.00  0.00     0.006 A 
ENDBRANCH  55  69
BRANCH  56  77
ATOM     77  C   UNL A   1      40.068  28.394  28.479  1.00  0.00     0.057 A 
ATOM     78  C   UNL A   1      40.575  28.184  27.194  1.00  0.00     0.134 A 
ATOM     79  C   UNL A   1      39.567  27.259  29.146  1.00  0.00     0.134 A 
ATOM     80  F   UNL A   1      41.106  29.198  26.498  1.00  0.00    -0.206 F 
ATOM     81  C   UNL A   1      40.602  26.912  26.607  1.00  0.00     0.040 A 
ATOM     82  C   UNL A   1      39.580  25.987  28.569  1.00  0.00     0.040 A 
ATOM     83  F   UNL A   1      39.126  27.336  30.411  1.00  0.00    -0.206 F 
ATOM     84  C   UNL A   1      40.111  25.808  27.299  1.00  0.00     0.006 A 
ENDBRANCH  56  77
BRANCH  68  85
ATOM     85  C   UNL A   1      42.723  33.975  29.732  1.00  0.00     0.057 A 
ATOM     86  C   UNL A   1      41.510  34.642  29.498  1.00  0.00     0.134 A 
ATOM     87  C   UNL A   1      43.821  34.387  28.968  1.00  0.00     0.134 A 
ATOM     88  F   UNL A   1      40.429  34.401  30.246  1.00  0.00    -0.206 F 
ATOM     89  C   UNL A   1      41.385  35.637  28.524  1.00  0.00     0.040 A 
ATOM     90  C   UNL A   1      43.717  35.404  28.014  1.00  0.00     0.040 A 
ATOM     91  F   UNL A   1      45.031  33.844  29.174  1.00  0.00    -0.206 F 
ATOM     92  C   UNL A   1      42.494  36.027  27.782  1.00  0.00     0.006 A 
ENDBRANCH  68  85
ENDBRANCH  42  43
ENDBRANCH  34  37
ENDBRANCH  32  33
ENDBRANCH  31  32
ENDBRANCH  30  31
ENDBRANCH   3  30
TORSDOF 15
ENDMDL
