MODEL 1
REMARK VINA RESULT:     -12.4      0.000      0.000
REMARK SMILES O=C(NCCCNC(=O)[C@H]1CC[C@H]2CCCC[C@@H]2N1C(=O)c1ccn[nH]1)c1ccc(-c2c3nc(c(-c4c(F)cccc4F)c4ccc([nH]4)c(-c4c(F)cccc4F)c4nc(c(-c5c(F)cccc5F)c5ccc2[nH]5)C=C4)C=C3)cc1
REMARK SMILES IDX 5 1 4 2 3 3 1 4 2 5 27 7 28 8 80 9 29 10 79 11 30 12 31 13
REMARK SMILES IDX 32 14 73 15 33 16 78 17 72 18 74 19 34 20 77 21 71 22 70 23
REMARK SMILES IDX 35 25 61 26 44 27 60 28 45 29 48 30 59 31 75 32 46 33 47 34
REMARK SMILES IDX 58 36 76 37 49 38 36 39 37 40 42 41 38 42 39 43 41 44 43 45
REMARK SMILES IDX 40 46 62 47 63 48 68 49 64 50 65 51 67 52 69 53 66 54 50 55
REMARK SMILES IDX 51 56 56 57 52 58 53 59 55 60 57 61 54 62 6 63 7 64 8 65
REMARK SMILES IDX 9 67 10 68 11 69 19 70 12 71 18 72 13 73 17 74 14 75 16 76
REMARK SMILES IDX 15 77 20 78 21 79 22 80 23 81 26 82 24 83 25 84
REMARK H PARENT 3 6 74 24 48 35 7 66 26 85
REMARK Flexibility Score: inf
ROOT
ATOM      1  C   UNL A   1      33.158  28.296  27.266  1.00  0.00     0.042 C 
ENDROOT
BRANCH   1   2
ATOM      2  C   UNL A   1      34.526  28.985  27.243  1.00  0.00     0.118 C 
BRANCH   2   3
ATOM      3  N   UNL A   1      34.646  29.996  28.282  1.00  0.00    -0.352 N 
ATOM      4  O   UNL A   1      35.517  31.120  30.010  1.00  0.00    -0.269 OA
ATOM      5  C   UNL A   1      35.705  30.341  29.079  1.00  0.00     0.251 C 
ATOM      6  H   UNL A   1      33.828  30.521  28.439  1.00  0.00     0.163 HD
BRANCH   5   7
ATOM      7  C   UNL A   1      37.065  29.800  28.853  1.00  0.00     0.039 A 
ATOM      8  C   UNL A   1      37.707  29.901  27.615  1.00  0.00     0.014 A 
ATOM      9  C   UNL A   1      37.760  29.287  29.956  1.00  0.00     0.014 A 
ATOM     10  C   UNL A   1      39.022  29.447  27.471  1.00  0.00     0.010 A 
ATOM     11  C   UNL A   1      39.080  28.850  29.818  1.00  0.00     0.010 A 
ATOM     12  C   UNL A   1      39.718  28.922  28.572  1.00  0.00    -0.014 A 
BRANCH  12  13
ATOM     13  C   UNL A   1      41.127  28.493  28.425  1.00  0.00     0.031 A 
ATOM     14  C   UNL A   1      41.463  27.075  28.069  1.00  0.00     0.074 A 
ATOM     15  C   UNL A   1      42.115  29.387  28.614  1.00  0.00     0.049 A 
ATOM     16  N   UNL A   1      42.636  26.535  27.856  1.00  0.00    -0.248 NA
ATOM     17  C   UNL A   1      40.335  26.141  27.944  1.00  0.00     0.031 C 
ATOM     18  C   UNL A   1      41.927  30.788  28.994  1.00  0.00     0.029 A 
ATOM     19  N   UNL A   1      43.474  29.248  28.502  1.00  0.00    -0.354 N 
ATOM     20  C   UNL A   1      42.392  25.198  27.582  1.00  0.00     0.074 A 
ATOM     21  C   UNL A   1      40.958  25.005  27.658  1.00  0.00     0.031 C 
ATOM     22  C   UNL A   1      43.128  31.387  29.058  1.00  0.00     0.029 A 
ATOM     23  C   UNL A   1      44.164  30.412  28.725  1.00  0.00     0.049 A 
ATOM     24  H   UNL A   1      43.913  28.394  28.282  1.00  0.00     0.167 HD
ATOM     25  C   UNL A   1      43.280  24.219  27.291  1.00  0.00     0.037 A 
ATOM     26  C   UNL A   1      45.482  30.670  28.651  1.00  0.00     0.037 A 
ATOM     27  C   UNL A   1      44.703  24.397  27.191  1.00  0.00     0.049 A 
ATOM     28  C   UNL A   1      46.441  29.582  28.276  1.00  0.00     0.074 A 
ATOM     29  C   UNL A   1      45.674  23.461  26.875  1.00  0.00     0.029 A 
ATOM     30  N   UNL A   1      45.360  25.598  27.402  1.00  0.00    -0.354 N 
ATOM     31  N   UNL A   1      46.193  28.327  27.995  1.00  0.00    -0.248 NA
ATOM     32  C   UNL A   1      47.864  29.947  28.205  1.00  0.00     0.031 C 
ATOM     33  C   UNL A   1      46.920  24.098  26.895  1.00  0.00     0.029 A 
ATOM     34  C   UNL A   1      46.723  25.429  27.221  1.00  0.00     0.049 A 
ATOM     35  H   UNL A   1      44.923  26.447  27.644  1.00  0.00     0.167 HD
ATOM     36  C   UNL A   1      47.423  27.754  27.707  1.00  0.00     0.074 A 
ATOM     37  C   UNL A   1      48.418  28.797  27.848  1.00  0.00     0.031 C 
ATOM     38  C   UNL A   1      47.699  26.476  27.358  1.00  0.00     0.037 A 
BRANCH  25  39
ATOM     39  C   UNL A   1      42.725  22.851  27.055  1.00  0.00     0.057 A 
ATOM     40  C   UNL A   1      42.592  22.338  25.761  1.00  0.00     0.134 A 
ATOM     41  C   UNL A   1      42.340  22.039  28.126  1.00  0.00     0.134 A 
ATOM     42  F   UNL A   1      42.935  23.080  24.697  1.00  0.00    -0.206 F 
ATOM     43  C   UNL A   1      42.090  21.055  25.539  1.00  0.00     0.040 A 
ATOM     44  C   UNL A   1      41.840  20.753  27.917  1.00  0.00     0.040 A 
ATOM     45  F   UNL A   1      42.438  22.483  29.388  1.00  0.00    -0.206 F 
ATOM     46  C   UNL A   1      41.714  20.258  26.619  1.00  0.00     0.006 A 
ENDBRANCH  25  39
BRANCH  26  47
ATOM     47  C   UNL A   1      45.970  32.041  28.904  1.00  0.00     0.057 A 
ATOM     48  C   UNL A   1      46.053  32.973  27.865  1.00  0.00     0.134 A 
ATOM     49  C   UNL A   1      46.354  32.450  30.184  1.00  0.00     0.134 A 
ATOM     50  F   UNL A   1      45.709  32.626  26.616  1.00  0.00    -0.206 F 
ATOM     51  C   UNL A   1      46.505  34.273  28.091  1.00  0.00     0.040 A 
ATOM     52  C   UNL A   1      46.805  33.748  30.424  1.00  0.00     0.040 A 
ATOM     53  F   UNL A   1      46.301  31.591  31.212  1.00  0.00    -0.206 F 
ATOM     54  C   UNL A   1      46.881  34.663  29.375  1.00  0.00     0.006 A 
ENDBRANCH  26  47
BRANCH  38  55
ATOM     55  C   UNL A   1      49.132  26.142  27.098  1.00  0.00     0.057 A 
ATOM     56  C   UNL A   1      49.679  26.253  25.815  1.00  0.00     0.134 A 
ATOM     57  C   UNL A   1      49.972  25.725  28.136  1.00  0.00     0.134 A 
ATOM     58  F   UNL A   1      48.915  26.637  24.782  1.00  0.00    -0.206 F 
ATOM     59  C   UNL A   1      51.019  25.956  25.571  1.00  0.00     0.040 A 
ATOM     60  C   UNL A   1      51.316  25.427  27.904  1.00  0.00     0.040 A 
ATOM     61  F   UNL A   1      49.499  25.593  29.383  1.00  0.00    -0.206 F 
ATOM     62  C   UNL A   1      51.842  25.542  26.619  1.00  0.00     0.006 A 
ENDBRANCH  38  55
ENDBRANCH  12  13
ENDBRANCH   5   7
ENDBRANCH   2   3
ENDBRANCH   1   2
BRANCH   1  63
ATOM     63  C   UNL A   1      33.003  27.149  26.267  1.00  0.00     0.117 C 
BRANCH  63  64
ATOM     64  N   UNL A   1      31.880  26.274  26.544  1.00  0.00    -0.354 N 
ATOM     65  C   UNL A   1      31.801  24.906  26.549  1.00  0.00     0.242 C 
ATOM     66  H   UNL A   1      31.040  26.737  26.764  1.00  0.00     0.163 HD
ATOM     67  O   UNL A   1      30.703  24.390  26.775  1.00  0.00    -0.273 OA
BRANCH  65  68
ATOM     68  C   UNL A   1      33.062  24.062  26.238  1.00  0.00     0.175 C 
ATOM     69  C   UNL A   1      33.071  22.870  27.228  1.00  0.00     0.036 C 
ATOM     70  N   UNL A   1      33.254  23.519  24.873  1.00  0.00    -0.322 N 
ATOM     71  C   UNL A   1      34.256  21.913  27.035  1.00  0.00     0.008 C 
ATOM     72  C   UNL A   1      34.493  22.736  24.669  1.00  0.00     0.089 C 
ATOM     73  C   UNL A   1      35.238  22.445  25.994  1.00  0.00     0.012 C 
ATOM     74  C   UNL A   1      35.473  23.431  23.707  1.00  0.00     0.025 C 
ATOM     75  C   UNL A   1      36.413  21.496  25.741  1.00  0.00     0.006 C 
ATOM     76  C   UNL A   1      36.701  22.555  23.451  1.00  0.00     0.002 C 
ATOM     77  C   UNL A   1      37.391  22.116  24.742  1.00  0.00     0.000 C 
BRANCH  70  78
ATOM     78  C   UNL A   1      32.354  23.824  23.849  1.00  0.00     0.272 C 
ATOM     79  O   UNL A   1      31.259  23.263  23.761  1.00  0.00    -0.267 OA
BRANCH  78  80
ATOM     80  C   UNL A   1      32.672  24.867  22.906  1.00  0.00     0.123 A 
ATOM     81  C   UNL A   1      33.103  26.176  23.022  1.00  0.00     0.055 A 
ATOM     82  N   UNL A   1      32.697  24.618  21.558  1.00  0.00    -0.273 N 
ATOM     83  C   UNL A   1      33.248  26.638  21.701  1.00  0.00     0.135 A 
ATOM     84  N   UNL A   1      32.970  25.695  20.803  1.00  0.00    -0.183 NA
ATOM     85  H   UNL A   1      32.529  23.726  21.176  1.00  0.00     0.190 HD
ENDBRANCH  78  80
ENDBRANCH  70  78
ENDBRANCH  65  68
ENDBRANCH  63  64
ENDBRANCH   1  63
TORSDOF 12
ENDMDL
MODEL 2
REMARK VINA RESULT:     -12.4      0.321      1.345
REMARK SMILES O=C(NCCCNC(=O)[C@H]1CC[C@H]2CCCC[C@@H]2N1C(=O)c1ccn[nH]1)c1ccc(-c2c3nc(c(-c4c(F)cccc4F)c4ccc([nH]4)c(-c4c(F)cccc4F)c4nc(c(-c5c(F)cccc5F)c5ccc2[nH]5)C=C4)C=C3)cc1
REMARK SMILES IDX 5 1 4 2 3 3 1 4 2 5 27 7 28 8 80 9 29 10 79 11 30 12 31 13
REMARK SMILES IDX 32 14 73 15 33 16 78 17 72 18 74 19 34 20 77 21 71 22 70 23
REMARK SMILES IDX 35 25 61 26 44 27 60 28 45 29 48 30 59 31 75 32 46 33 47 34
REMARK SMILES IDX 58 36 76 37 49 38 36 39 37 40 42 41 38 42 39 43 41 44 43 45
REMARK SMILES IDX 40 46 62 47 63 48 68 49 64 50 65 51 67 52 69 53 66 54 50 55
REMARK SMILES IDX 51 56 56 57 52 58 53 59 55 60 57 61 54 62 6 63 7 64 8 65
REMARK SMILES IDX 9 67 10 68 11 69 19 70 12 71 18 72 13 73 17 74 14 75 16 76
REMARK SMILES IDX 15 77 20 78 21 79 22 80 23 81 26 82 24 83 25 84
REMARK H PARENT 3 6 74 24 48 35 7 66 26 85
REMARK Flexibility Score: inf
ROOT
ATOM      1  C   UNL A   1      33.228  28.384  27.200  1.00  0.00     0.042 C 
ENDROOT
BRANCH   1   2
ATOM      2  C   UNL A   1      34.629  29.000  27.262  1.00  0.00     0.118 C 
BRANCH   2   3
ATOM      3  N   UNL A   1      34.768  29.929  28.373  1.00  0.00    -0.352 N 
ATOM      4  O   UNL A   1      35.669  30.917  30.169  1.00  0.00    -0.269 OA
ATOM      5  C   UNL A   1      35.840  30.209  29.179  1.00  0.00     0.251 C 
ATOM      6  H   UNL A   1      33.955  30.444  28.581  1.00  0.00     0.163 HD
BRANCH   5   7
ATOM      7  C   UNL A   1      37.194  29.681  28.893  1.00  0.00     0.039 A 
ATOM      8  C   UNL A   1      37.778  29.783  27.627  1.00  0.00     0.014 A 
ATOM      9  C   UNL A   1      37.943  29.181  29.966  1.00  0.00     0.014 A 
ATOM     10  C   UNL A   1      39.090  29.343  27.426  1.00  0.00     0.010 A 
ATOM     11  C   UNL A   1      39.260  28.758  29.770  1.00  0.00     0.010 A 
ATOM     12  C   UNL A   1      39.841  28.830  28.496  1.00  0.00    -0.014 A 
BRANCH  12  13
ATOM     13  C   UNL A   1      41.246  28.415  28.288  1.00  0.00     0.031 A 
ATOM     14  C   UNL A   1      41.583  26.992  27.955  1.00  0.00     0.074 A 
ATOM     15  C   UNL A   1      42.230  29.327  28.399  1.00  0.00     0.049 A 
ATOM     16  N   UNL A   1      42.751  26.461  27.695  1.00  0.00    -0.248 NA
ATOM     17  C   UNL A   1      40.464  26.041  27.916  1.00  0.00     0.031 C 
ATOM     18  C   UNL A   1      42.042  30.736  28.749  1.00  0.00     0.029 A 
ATOM     19  N   UNL A   1      43.583  29.203  28.219  1.00  0.00    -0.354 N 
ATOM     20  C   UNL A   1      42.512  25.114  27.472  1.00  0.00     0.074 A 
ATOM     21  C   UNL A   1      41.087  24.905  27.629  1.00  0.00     0.031 C 
ATOM     22  C   UNL A   1      43.236  31.352  28.732  1.00  0.00     0.029 A 
ATOM     23  C   UNL A   1      44.266  30.381  28.372  1.00  0.00     0.049 A 
ATOM     24  H   UNL A   1      44.022  28.348  28.001  1.00  0.00     0.167 HD
ATOM     25  C   UNL A   1      43.398  24.138  27.163  1.00  0.00     0.037 A 
ATOM     26  C   UNL A   1      45.575  30.655  28.222  1.00  0.00     0.037 A 
ATOM     27  C   UNL A   1      44.812  24.332  26.983  1.00  0.00     0.049 A 
ATOM     28  C   UNL A   1      46.529  29.568  27.827  1.00  0.00     0.074 A 
ATOM     29  C   UNL A   1      45.777  23.400  26.643  1.00  0.00     0.029 A 
ATOM     30  N   UNL A   1      45.461  25.547  27.125  1.00  0.00    -0.354 N 
ATOM     31  N   UNL A   1      46.284  28.303  27.595  1.00  0.00    -0.248 NA
ATOM     32  C   UNL A   1      47.940  29.949  27.671  1.00  0.00     0.031 C 
ATOM     33  C   UNL A   1      47.014  24.053  26.579  1.00  0.00     0.029 A 
ATOM     34  C   UNL A   1      46.814  25.390  26.877  1.00  0.00     0.049 A 
ATOM     35  H   UNL A   1      45.025  26.397  27.365  1.00  0.00     0.167 HD
ATOM     36  C   UNL A   1      47.505  27.738  27.259  1.00  0.00     0.074 A 
ATOM     37  C   UNL A   1      48.492  28.797  27.318  1.00  0.00     0.031 C 
ATOM     38  C   UNL A   1      47.782  26.453  26.932  1.00  0.00     0.037 A 
BRANCH  25  39
ATOM     39  C   UNL A   1      42.852  22.757  26.996  1.00  0.00     0.057 A 
ATOM     40  C   UNL A   1      42.480  21.988  28.102  1.00  0.00     0.134 A 
ATOM     41  C   UNL A   1      42.679  22.203  25.723  1.00  0.00     0.134 A 
ATOM     42  F   UNL A   1      42.635  22.466  29.346  1.00  0.00    -0.206 F 
ATOM     43  C   UNL A   1      41.953  20.705  27.949  1.00  0.00     0.040 A 
ATOM     44  C   UNL A   1      42.151  20.923  25.557  1.00  0.00     0.040 A 
ATOM     45  F   UNL A   1      43.028  22.893  24.627  1.00  0.00    -0.206 F 
ATOM     46  C   UNL A   1      41.786  20.170  26.672  1.00  0.00     0.006 A 
ENDBRANCH  25  39
BRANCH  26  47
ATOM     47  C   UNL A   1      46.056  32.038  28.409  1.00  0.00     0.057 A 
ATOM     48  C   UNL A   1      46.498  32.478  29.661  1.00  0.00     0.134 A 
ATOM     49  C   UNL A   1      46.092  32.944  27.346  1.00  0.00     0.134 A 
ATOM     50  F   UNL A   1      46.472  31.651  30.716  1.00  0.00    -0.206 F 
ATOM     51  C   UNL A   1      46.962  33.780  29.850  1.00  0.00     0.040 A 
ATOM     52  C   UNL A   1      46.554  34.248  27.521  1.00  0.00     0.040 A 
ATOM     53  F   UNL A   1      45.669  32.573  26.128  1.00  0.00    -0.206 F 
ATOM     54  C   UNL A   1      46.992  34.668  28.776  1.00  0.00     0.006 A 
ENDBRANCH  26  47
BRANCH  38  55
ATOM     55  C   UNL A   1      49.204  26.130  26.607  1.00  0.00     0.057 A 
ATOM     56  C   UNL A   1      49.700  26.284  25.308  1.00  0.00     0.134 A 
ATOM     57  C   UNL A   1      50.083  25.681  27.598  1.00  0.00     0.134 A 
ATOM     58  F   UNL A   1      48.897  26.701  24.318  1.00  0.00    -0.206 F 
ATOM     59  C   UNL A   1      51.031  25.998  25.003  1.00  0.00     0.040 A 
ATOM     60  C   UNL A   1      51.417  25.393  27.304  1.00  0.00     0.040 A 
ATOM     61  F   UNL A   1      49.659  25.508  28.857  1.00  0.00    -0.206 F 
ATOM     62  C   UNL A   1      51.894  25.551  26.004  1.00  0.00     0.006 A 
ENDBRANCH  38  55
ENDBRANCH  12  13
ENDBRANCH   5   7
ENDBRANCH   2   3
ENDBRANCH   1   2
BRANCH   1  63
ATOM     63  C   UNL A   1      33.097  27.190  26.255  1.00  0.00     0.117 C 
BRANCH  63  64
ATOM     64  N   UNL A   1      31.950  26.344  26.530  1.00  0.00    -0.354 N 
ATOM     65  C   UNL A   1      31.836  24.979  26.536  1.00  0.00     0.242 C 
ATOM     66  H   UNL A   1      31.122  26.829  26.747  1.00  0.00     0.163 HD
ATOM     67  O   UNL A   1      30.725  24.492  26.760  1.00  0.00    -0.273 OA
BRANCH  65  68
ATOM     68  C   UNL A   1      33.076  24.102  26.229  1.00  0.00     0.175 C 
ATOM     69  C   UNL A   1      33.071  22.930  27.244  1.00  0.00     0.036 C 
ATOM     70  N   UNL A   1      33.242  23.528  24.875  1.00  0.00    -0.322 N 
ATOM     71  C   UNL A   1      34.234  21.945  27.058  1.00  0.00     0.008 C 
ATOM     72  C   UNL A   1      34.462  22.715  24.674  1.00  0.00     0.089 C 
ATOM     73  C   UNL A   1      35.215  22.436  25.996  1.00  0.00     0.012 C 
ATOM     74  C   UNL A   1      35.446  23.370  23.688  1.00  0.00     0.025 C 
ATOM     75  C   UNL A   1      36.367  21.457  25.751  1.00  0.00     0.006 C 
ATOM     76  C   UNL A   1      36.653  22.463  23.437  1.00  0.00     0.002 C 
ATOM     77  C   UNL A   1      37.347  22.036  24.729  1.00  0.00     0.000 C 
BRANCH  70  78
ATOM     78  C   UNL A   1      32.338  23.831  23.854  1.00  0.00     0.272 C 
ATOM     79  O   UNL A   1      31.228  23.296  23.792  1.00  0.00    -0.267 OA
BRANCH  78  80
ATOM     80  C   UNL A   1      32.671  24.842  22.881  1.00  0.00     0.123 A 
ATOM     81  C   UNL A   1      33.136  26.143  22.960  1.00  0.00     0.055 A 
ATOM     82  N   UNL A   1      32.674  24.559  21.539  1.00  0.00    -0.273 N 
ATOM     83  C   UNL A   1      33.278  26.568  21.626  1.00  0.00     0.135 A 
ATOM     84  N   UNL A   1      32.965  25.610  20.755  1.00  0.00    -0.183 NA
ATOM     85  H   UNL A   1      32.480  23.662  21.182  1.00  0.00     0.190 HD
ENDBRANCH  78  80
ENDBRANCH  70  78
ENDBRANCH  65  68
ENDBRANCH  63  64
ENDBRANCH   1  63
TORSDOF 12
ENDMDL
MODEL 3
REMARK VINA RESULT:     -12.4      5.384     10.011
REMARK SMILES O=C(NCCCNC(=O)[C@H]1CC[C@H]2CCCC[C@@H]2N1C(=O)c1ccn[nH]1)c1ccc(-c2c3nc(c(-c4c(F)cccc4F)c4ccc([nH]4)c(-c4c(F)cccc4F)c4nc(c(-c5c(F)cccc5F)c5ccc2[nH]5)C=C4)C=C3)cc1
REMARK SMILES IDX 5 1 4 2 3 3 1 4 2 5 27 7 28 8 80 9 29 10 79 11 30 12 31 13
REMARK SMILES IDX 32 14 73 15 33 16 78 17 72 18 74 19 34 20 77 21 71 22 70 23
REMARK SMILES IDX 35 25 61 26 44 27 60 28 45 29 48 30 59 31 75 32 46 33 47 34
REMARK SMILES IDX 58 36 76 37 49 38 36 39 37 40 42 41 38 42 39 43 41 44 43 45
REMARK SMILES IDX 40 46 62 47 63 48 68 49 64 50 65 51 67 52 69 53 66 54 50 55
REMARK SMILES IDX 51 56 56 57 52 58 53 59 55 60 57 61 54 62 6 63 7 64 8 65
REMARK SMILES IDX 9 67 10 68 11 69 19 70 12 71 18 72 13 73 17 74 14 75 16 76
REMARK SMILES IDX 15 77 20 78 21 79 22 80 23 81 26 82 24 83 25 84
REMARK H PARENT 3 6 74 24 48 35 7 66 26 85
REMARK Flexibility Score: inf
ROOT
ATOM      1  C   UNL A   1      37.002  23.648  24.909  1.00  0.00     0.042 C 
ENDROOT
BRANCH   1   2
ATOM      2  C   UNL A   1      37.794  23.904  26.194  1.00  0.00     0.118 C 
BRANCH   2   3
ATOM      3  N   UNL A   1      39.223  23.708  26.003  1.00  0.00    -0.352 N 
ATOM      4  O   UNL A   1      41.414  24.167  26.019  1.00  0.00    -0.269 OA
ATOM      5  C   UNL A   1      40.296  24.432  26.453  1.00  0.00     0.251 C 
ATOM      6  H   UNL A   1      39.460  22.922  25.459  1.00  0.00     0.163 HD
BRANCH   5   7
ATOM      7  C   UNL A   1      40.144  25.525  27.441  1.00  0.00     0.039 A 
ATOM      8  C   UNL A   1      39.347  25.388  28.582  1.00  0.00     0.014 A 
ATOM      9  C   UNL A   1      40.929  26.673  27.275  1.00  0.00     0.014 A 
ATOM     10  C   UNL A   1      39.299  26.417  29.527  1.00  0.00     0.010 A 
ATOM     11  C   UNL A   1      40.895  27.694  28.229  1.00  0.00     0.010 A 
ATOM     12  C   UNL A   1      40.075  27.575  29.359  1.00  0.00    -0.014 A 
BRANCH  12  13
ATOM     13  C   UNL A   1      40.060  28.637  30.390  1.00  0.00     0.031 A 
ATOM     14  C   UNL A   1      39.058  29.751  30.328  1.00  0.00     0.074 A 
ATOM     15  C   UNL A   1      40.957  28.600  31.393  1.00  0.00     0.049 A 
ATOM     16  N   UNL A   1      38.869  30.738  31.167  1.00  0.00    -0.248 NA
ATOM     17  C   UNL A   1      38.155  29.762  29.168  1.00  0.00     0.031 C 
ATOM     18  C   UNL A   1      42.005  27.590  31.554  1.00  0.00     0.029 A 
ATOM     19  N   UNL A   1      41.121  29.430  32.471  1.00  0.00    -0.354 N 
ATOM     20  C   UNL A   1      37.836  31.494  30.635  1.00  0.00     0.074 A 
ATOM     21  C   UNL A   1      37.437  30.854  29.398  1.00  0.00     0.031 C 
ATOM     22  C   UNL A   1      42.687  27.848  32.682  1.00  0.00     0.029 A 
ATOM     23  C   UNL A   1      42.125  29.036  33.318  1.00  0.00     0.049 A 
ATOM     24  H   UNL A   1      40.571  30.233  32.623  1.00  0.00     0.167 HD
ATOM     25  C   UNL A   1      37.268  32.618  31.132  1.00  0.00     0.037 A 
ATOM     26  C   UNL A   1      42.535  29.563  34.486  1.00  0.00     0.037 A 
ATOM     27  C   UNL A   1      37.638  33.254  32.368  1.00  0.00     0.049 A 
ATOM     28  C   UNL A   1      41.856  30.778  35.042  1.00  0.00     0.074 A 
ATOM     29  C   UNL A   1      37.096  34.383  32.957  1.00  0.00     0.029 A 
ATOM     30  N   UNL A   1      38.646  32.809  33.207  1.00  0.00    -0.354 N 
ATOM     31  N   UNL A   1      40.863  31.467  34.540  1.00  0.00    -0.248 NA
ATOM     32  C   UNL A   1      42.355  31.285  36.329  1.00  0.00     0.031 C 
ATOM     33  C   UNL A   1      37.776  34.622  34.157  1.00  0.00     0.029 A 
ATOM     34  C   UNL A   1      38.740  33.640  34.312  1.00  0.00     0.049 A 
ATOM     35  H   UNL A   1      39.211  32.019  33.044  1.00  0.00     0.167 HD
ATOM     36  C   UNL A   1      40.612  32.484  35.449  1.00  0.00     0.074 A 
ATOM     37  C   UNL A   1      41.557  32.323  36.535  1.00  0.00     0.031 C 
ATOM     38  C   UNL A   1      39.679  33.463  35.387  1.00  0.00     0.037 A 
BRANCH  25  39
ATOM     39  C   UNL A   1      36.172  33.235  30.325  1.00  0.00     0.057 A 
ATOM     40  C   UNL A   1      34.830  33.058  30.675  1.00  0.00     0.134 A 
ATOM     41  C   UNL A   1      36.460  34.023  29.206  1.00  0.00     0.134 A 
ATOM     42  F   UNL A   1      34.496  32.303  31.732  1.00  0.00    -0.206 F 
ATOM     43  C   UNL A   1      33.804  33.647  29.934  1.00  0.00     0.040 A 
ATOM     44  C   UNL A   1      35.444  34.619  28.459  1.00  0.00     0.040 A 
ATOM     45  F   UNL A   1      37.730  34.218  28.820  1.00  0.00    -0.206 F 
ATOM     46  C   UNL A   1      34.111  34.431  28.822  1.00  0.00     0.006 A 
ENDBRANCH  25  39
BRANCH  26  47
ATOM     47  C   UNL A   1      43.631  28.912  35.233  1.00  0.00     0.057 A 
ATOM     48  C   UNL A   1      43.356  27.963  36.222  1.00  0.00     0.134 A 
ATOM     49  C   UNL A   1      44.969  29.216  34.969  1.00  0.00     0.134 A 
ATOM     50  F   UNL A   1      42.087  27.646  36.521  1.00  0.00    -0.206 F 
ATOM     51  C   UNL A   1      44.381  27.335  36.929  1.00  0.00     0.040 A 
ATOM     52  C   UNL A   1      46.003  28.594  35.668  1.00  0.00     0.040 A 
ATOM     53  F   UNL A   1      45.284  30.126  34.035  1.00  0.00    -0.206 F 
ATOM     54  C   UNL A   1      45.709  27.650  36.650  1.00  0.00     0.006 A 
ENDBRANCH  26  47
BRANCH  38  55
ATOM     55  C   UNL A   1      39.635  34.427  36.527  1.00  0.00     0.057 A 
ATOM     56  C   UNL A   1      40.305  35.653  36.463  1.00  0.00     0.134 A 
ATOM     57  C   UNL A   1      38.905  34.137  37.685  1.00  0.00     0.134 A 
ATOM     58  F   UNL A   1      41.029  35.977  35.381  1.00  0.00    -0.206 F 
ATOM     59  C   UNL A   1      40.255  36.562  37.519  1.00  0.00     0.040 A 
ATOM     60  C   UNL A   1      38.846  35.040  38.748  1.00  0.00     0.040 A 
ATOM     61  F   UNL A   1      38.250  32.974  37.803  1.00  0.00    -0.206 F 
ATOM     62  C   UNL A   1      39.522  36.256  38.666  1.00  0.00     0.006 A 
ENDBRANCH  38  55
ENDBRANCH  12  13
ENDBRANCH   5   7
ENDBRANCH   2   3
ENDBRANCH   1   2
BRANCH   1  63
ATOM     63  C   UNL A   1      35.538  24.086  24.963  1.00  0.00     0.117 C 
BRANCH  63  64
ATOM     64  N   UNL A   1      34.874  24.080  23.673  1.00  0.00    -0.354 N 
ATOM     65  C   UNL A   1      34.006  24.983  23.119  1.00  0.00     0.242 C 
ATOM     66  H   UNL A   1      35.079  23.303  23.105  1.00  0.00     0.163 HD
ATOM     67  O   UNL A   1      33.535  24.727  22.007  1.00  0.00    -0.273 OA
BRANCH  65  68
ATOM     68  C   UNL A   1      33.618  26.261  23.905  1.00  0.00     0.175 C 
ATOM     69  C   UNL A   1      33.751  27.458  22.929  1.00  0.00     0.036 C 
ATOM     70  N   UNL A   1      32.285  26.343  24.544  1.00  0.00    -0.322 N 
ATOM     71  C   UNL A   1      33.376  28.809  23.553  1.00  0.00     0.008 C 
ATOM     72  C   UNL A   1      32.010  27.596  25.282  1.00  0.00     0.089 C 
ATOM     73  C   UNL A   1      33.094  28.675  25.047  1.00  0.00     0.012 C 
ATOM     74  C   UNL A   1      31.880  27.365  26.798  1.00  0.00     0.025 C 
ATOM     75  C   UNL A   1      32.672  29.996  25.697  1.00  0.00     0.006 C 
ATOM     76  C   UNL A   1      31.510  28.663  27.519  1.00  0.00     0.002 C 
ATOM     77  C   UNL A   1      32.472  29.808  27.201  1.00  0.00     0.000 C 
BRANCH  70  78
ATOM     78  C   UNL A   1      31.408  25.256  24.512  1.00  0.00     0.272 C 
ATOM     79  O   UNL A   1      30.690  25.032  23.533  1.00  0.00    -0.267 OA
BRANCH  78  80
ATOM     80  C   UNL A   1      31.380  24.327  25.614  1.00  0.00     0.123 A 
ATOM     81  C   UNL A   1      32.328  23.530  26.230  1.00  0.00     0.055 A 
ATOM     82  N   UNL A   1      30.255  24.176  26.384  1.00  0.00    -0.273 N 
ATOM     83  C   UNL A   1      31.644  22.876  27.272  1.00  0.00     0.135 A 
ATOM     84  N   UNL A   1      30.367  23.247  27.347  1.00  0.00    -0.183 NA
ATOM     85  H   UNL A   1      29.436  24.704  26.242  1.00  0.00     0.190 HD
ENDBRANCH  78  80
ENDBRANCH  70  78
ENDBRANCH  65  68
ENDBRANCH  63  64
ENDBRANCH   1  63
TORSDOF 12
ENDMDL
