MODEL 1
REMARK VINA RESULT:     -13.0      0.000      0.000
REMARK SMILES Cc1cc(=O)c(Oc2ccc(C(=O)NCCCNC(=O)c3ccc(-c4c5nc(c(-c6c(F)cccc6F)c6ccc([nH]6)c(-c6c(F)cccc6F)c6nc(c(-c7c(F)cccc7F)c7ccc4[nH]7)C=C6)C=C5)cc3)cc2)c(-c2ccc(S(C)(=O)=O)cc2)o1
REMARK SMILES IDX 15 1 14 2 12 3 13 4 11 6 8 7 9 8 76 9 10 10 75 11 7 12 6 13
REMARK SMILES IDX 1 14 2 15 3 16 88 17 4 18 77 19 5 20 78 21 79 22 87 23 80 24
REMARK SMILES IDX 86 25 81 26 82 27 83 28 84 29 85 30 16 31 17 32 18 33 19 34
REMARK SMILES IDX 20 36 21 37 22 38 74 39 23 40 73 41 24 42 25 43 26 44 67 45
REMARK SMILES IDX 27 46 72 47 66 48 68 49 28 50 71 51 65 52 64 53 29 55 55 56
REMARK SMILES IDX 38 57 54 58 39 59 42 60 53 61 69 62 40 63 41 64 52 66 70 67
REMARK SMILES IDX 43 68 30 69 31 70 36 71 32 72 33 73 35 74 37 75 34 76 56 77
REMARK SMILES IDX 57 78 62 79 58 80 59 81 61 82 63 83 60 84 44 85 45 86 50 87
REMARK SMILES IDX 46 88 47 89 49 90 51 91 48 92
REMARK H PARENT 14 5 18 35 68 54 42 65
REMARK Flexibility Score: inf
ROOT
ATOM      1  C   UNL A   1      39.496  22.119  26.202  1.00  0.00     0.118 C 
ENDROOT
BRANCH   1   2
ATOM      2  N   UNL A   1      38.883  20.884  25.742  1.00  0.00    -0.352 N 
ATOM      3  C   UNL A   1      37.713  20.631  25.064  1.00  0.00     0.251 C 
ATOM      4  O   UNL A   1      37.515  19.488  24.652  1.00  0.00    -0.269 OA
ATOM      5  H   UNL A   1      39.404  20.077  25.955  1.00  0.00     0.163 HD
BRANCH   3   6
ATOM      6  C   UNL A   1      36.637  21.645  24.923  1.00  0.00     0.040 A 
ATOM      7  C   UNL A   1      35.080  23.946  25.015  1.00  0.00     0.127 A 
ATOM      8  C   UNL A   1      35.056  23.071  26.093  1.00  0.00     0.048 A 
ATOM      9  C   UNL A   1      35.662  23.548  23.813  1.00  0.00     0.048 A 
ATOM     10  C   UNL A   1      35.877  21.940  26.065  1.00  0.00     0.017 A 
ATOM     11  C   UNL A   1      36.400  22.368  23.756  1.00  0.00     0.017 A 
BRANCH   7  12
ATOM     12  O   UNL A   1      34.484  25.170  25.025  1.00  0.00    -0.449 OA
BRANCH  12  13
ATOM     13  C   UNL A   1      33.132  25.385  24.796  1.00  0.00     0.217 A 
ATOM     14  C   UNL A   1      29.106  26.665  23.889  1.00  0.00     0.088 C 
ATOM     15  C   UNL A   1      30.507  26.318  24.279  1.00  0.00     0.105 A 
ATOM     16  C   UNL A   1      31.393  27.246  24.641  1.00  0.00     0.098 A 
ATOM     17  O   UNL A   1      30.810  24.975  24.240  1.00  0.00    -0.457 OA
ATOM     18  C   UNL A   1      32.761  26.827  24.969  1.00  0.00     0.228 A 
ATOM     19  C   UNL A   1      32.108  24.538  24.499  1.00  0.00     0.180 A 
ATOM     20  O   UNL A   1      33.562  27.666  25.374  1.00  0.00    -0.285 OA
BRANCH  19  21
ATOM     21  C   UNL A   1      32.162  23.067  24.377  1.00  0.00     0.021 A 
ATOM     22  C   UNL A   1      32.394  22.481  23.119  1.00  0.00     0.013 A 
ATOM     23  C   UNL A   1      31.970  22.234  25.490  1.00  0.00     0.013 A 
ATOM     24  C   UNL A   1      32.521  21.094  22.990  1.00  0.00     0.021 A 
ATOM     25  C   UNL A   1      32.084  20.845  25.365  1.00  0.00     0.021 A 
ATOM     26  C   UNL A   1      32.373  20.283  24.118  1.00  0.00     0.067 A 
BRANCH  26  27
ATOM     27  S   UNL A   1      32.654  18.532  23.970  1.00  0.00     0.175 S 
ATOM     28  C   UNL A   1      34.361  18.343  24.400  1.00  0.00     0.163 C 
ATOM     29  O   UNL A   1      31.868  17.881  24.998  1.00  0.00    -0.224 OA
ATOM     30  O   UNL A   1      32.510  18.173  22.570  1.00  0.00    -0.224 OA
ENDBRANCH  26  27
ENDBRANCH  19  21
ENDBRANCH  12  13
ENDBRANCH   7  12
ENDBRANCH   3   6
ENDBRANCH   1   2
BRANCH   1  31
ATOM     31  C   UNL A   1      40.483  21.972  27.348  1.00  0.00     0.042 C 
BRANCH  31  32
ATOM     32  C   UNL A   1      41.351  23.186  27.630  1.00  0.00     0.118 C 
BRANCH  32  33
ATOM     33  N   UNL A   1      41.776  23.896  26.428  1.00  0.00    -0.352 N 
ATOM     34  C   UNL A   1      41.786  25.231  26.097  1.00  0.00     0.251 C 
ATOM     35  H   UNL A   1      42.124  23.307  25.720  1.00  0.00     0.163 HD
ATOM     36  O   UNL A   1      42.082  25.563  24.951  1.00  0.00    -0.269 OA
BRANCH  34  37
ATOM     37  C   UNL A   1      41.395  26.274  27.074  1.00  0.00     0.039 A 
ATOM     38  C   UNL A   1      41.965  27.542  27.051  1.00  0.00     0.014 A 
ATOM     39  C   UNL A   1      40.421  25.981  28.036  1.00  0.00     0.014 A 
ATOM     40  C   UNL A   1      41.766  28.410  28.117  1.00  0.00     0.010 A 
ATOM     41  C   UNL A   1      40.113  26.916  29.032  1.00  0.00     0.010 A 
ATOM     42  C   UNL A   1      40.837  28.112  29.126  1.00  0.00    -0.014 A 
BRANCH  42  43
ATOM     43  C   UNL A   1      40.659  29.069  30.252  1.00  0.00     0.031 A 
ATOM     44  C   UNL A   1      39.547  30.087  30.241  1.00  0.00     0.074 A 
ATOM     45  C   UNL A   1      41.453  28.966  31.337  1.00  0.00     0.049 A 
ATOM     46  N   UNL A   1      39.194  30.940  31.173  1.00  0.00    -0.248 NA
ATOM     47  C   UNL A   1      38.726  30.164  29.024  1.00  0.00     0.031 C 
ATOM     48  C   UNL A   1      42.560  28.017  31.484  1.00  0.00     0.029 A 
ATOM     49  N   UNL A   1      41.427  29.630  32.536  1.00  0.00    -0.354 N 
ATOM     50  C   UNL A   1      38.128  31.662  30.649  1.00  0.00     0.074 A 
ATOM     51  C   UNL A   1      37.923  31.180  29.300  1.00  0.00     0.031 C 
ATOM     52  C   UNL A   1      43.047  28.098  32.729  1.00  0.00     0.029 A 
ATOM     53  C   UNL A   1      42.346  29.160  33.442  1.00  0.00     0.049 A 
ATOM     54  H   UNL A   1      40.810  30.373  32.728  1.00  0.00     0.167 HD
ATOM     55  C   UNL A   1      37.376  32.626  31.237  1.00  0.00     0.037 A 
ATOM     56  C   UNL A   1      42.602  29.541  34.706  1.00  0.00     0.037 A 
ATOM     57  C   UNL A   1      37.584  33.113  32.578  1.00  0.00     0.049 A 
ATOM     58  C   UNL A   1      41.812  30.668  35.302  1.00  0.00     0.074 A 
ATOM     59  C   UNL A   1      36.872  34.077  33.271  1.00  0.00     0.029 A 
ATOM     60  N   UNL A   1      38.593  32.680  33.428  1.00  0.00    -0.354 N 
ATOM     61  N   UNL A   1      40.794  31.325  34.803  1.00  0.00    -0.248 NA
ATOM     62  C   UNL A   1      42.221  31.113  36.641  1.00  0.00     0.031 C 
ATOM     63  C   UNL A   1      37.486  34.270  34.515  1.00  0.00     0.029 A 
ATOM     64  C   UNL A   1      38.543  33.381  34.624  1.00  0.00     0.049 A 
ATOM     65  H   UNL A   1      39.249  31.977  33.213  1.00  0.00     0.167 HD
ATOM     66  C   UNL A   1      40.427  32.249  35.772  1.00  0.00     0.074 A 
ATOM     67  C   UNL A   1      41.315  32.044  36.899  1.00  0.00     0.031 C 
ATOM     68  C   UNL A   1      39.444  33.183  35.734  1.00  0.00     0.037 A 
BRANCH  55  69
ATOM     69  C   UNL A   1      36.284  33.243  30.403  1.00  0.00     0.057 A 
ATOM     70  C   UNL A   1      34.941  32.919  30.631  1.00  0.00     0.134 A 
ATOM     71  C   UNL A   1      36.555  34.178  29.392  1.00  0.00     0.134 A 
ATOM     72  F   UNL A   1      34.606  32.024  31.572  1.00  0.00    -0.206 F 
ATOM     73  C   UNL A   1      33.909  33.515  29.903  1.00  0.00     0.040 A 
ATOM     74  C   UNL A   1      35.530  34.806  28.681  1.00  0.00     0.040 A 
ATOM     75  F   UNL A   1      37.818  34.544  29.125  1.00  0.00    -0.206 F 
ATOM     76  C   UNL A   1      34.202  34.474  28.936  1.00  0.00     0.006 A 
ENDBRANCH  55  69
BRANCH  56  77
ATOM     77  C   UNL A   1      43.651  28.848  35.496  1.00  0.00     0.057 A 
ATOM     78  C   UNL A   1      43.342  27.796  36.365  1.00  0.00     0.134 A 
ATOM     79  C   UNL A   1      44.995  29.222  35.388  1.00  0.00     0.134 A 
ATOM     80  F   UNL A   1      42.072  27.392  36.517  1.00  0.00    -0.206 F 
ATOM     81  C   UNL A   1      44.329  27.149  37.110  1.00  0.00     0.040 A 
ATOM     82  C   UNL A   1      45.996  28.565  36.103  1.00  0.00     0.040 A 
ATOM     83  F   UNL A   1      45.356  30.212  34.557  1.00  0.00    -0.206 F 
ATOM     84  C   UNL A   1      45.662  27.528  36.972  1.00  0.00     0.006 A 
ENDBRANCH  56  77
BRANCH  68  85
ATOM     85  C   UNL A   1      39.273  34.030  36.963  1.00  0.00     0.057 A 
ATOM     86  C   UNL A   1      38.558  33.549  38.067  1.00  0.00     0.134 A 
ATOM     87  C   UNL A   1      39.835  35.310  37.069  1.00  0.00     0.134 A 
ATOM     88  F   UNL A   1      37.985  32.336  38.034  1.00  0.00    -0.206 F 
ATOM     89  C   UNL A   1      38.419  34.302  39.234  1.00  0.00     0.040 A 
ATOM     90  C   UNL A   1      39.733  36.058  38.243  1.00  0.00     0.040 A 
ATOM     91  F   UNL A   1      40.548  35.825  36.055  1.00  0.00    -0.206 F 
ATOM     92  C   UNL A   1      39.021  35.555  39.329  1.00  0.00     0.006 A 
ENDBRANCH  68  85
ENDBRANCH  42  43
ENDBRANCH  34  37
ENDBRANCH  32  33
ENDBRANCH  31  32
ENDBRANCH   1  31
TORSDOF 14
ENDMDL
MODEL 2
REMARK VINA RESULT:     -12.9      5.197     10.630
REMARK SMILES Cc1cc(=O)c(Oc2ccc(C(=O)NCCCNC(=O)c3ccc(-c4c5nc(c(-c6c(F)cccc6F)c6ccc([nH]6)c(-c6c(F)cccc6F)c6nc(c(-c7c(F)cccc7F)c7ccc4[nH]7)C=C6)C=C5)cc3)cc2)c(-c2ccc(S(C)(=O)=O)cc2)o1
REMARK SMILES IDX 15 1 14 2 12 3 13 4 11 6 8 7 9 8 76 9 10 10 75 11 7 12 6 13
REMARK SMILES IDX 1 14 2 15 3 16 88 17 4 18 77 19 5 20 78 21 79 22 87 23 80 24
REMARK SMILES IDX 86 25 81 26 82 27 83 28 84 29 85 30 16 31 17 32 18 33 19 34
REMARK SMILES IDX 20 36 21 37 22 38 74 39 23 40 73 41 24 42 25 43 26 44 67 45
REMARK SMILES IDX 27 46 72 47 66 48 68 49 28 50 71 51 65 52 64 53 29 55 55 56
REMARK SMILES IDX 38 57 54 58 39 59 42 60 53 61 69 62 40 63 41 64 52 66 70 67
REMARK SMILES IDX 43 68 30 69 31 70 36 71 32 72 33 73 35 74 37 75 34 76 56 77
REMARK SMILES IDX 57 78 62 79 58 80 59 81 61 82 63 83 60 84 44 85 45 86 50 87
REMARK SMILES IDX 46 88 47 89 49 90 51 91 48 92
REMARK H PARENT 14 5 18 35 68 54 42 65
REMARK Flexibility Score: inf
ROOT
ATOM      1  C   UNL A   1      34.655  31.213  27.887  1.00  0.00     0.118 C 
ENDROOT
BRANCH   1   2
ATOM      2  N   UNL A   1      33.378  31.661  27.356  1.00  0.00    -0.352 N 
ATOM      3  C   UNL A   1      32.308  30.978  26.823  1.00  0.00     0.251 C 
ATOM      4  O   UNL A   1      31.272  31.602  26.598  1.00  0.00    -0.269 OA
ATOM      5  H   UNL A   1      33.254  32.637  27.383  1.00  0.00     0.163 HD
BRANCH   3   6
ATOM      6  C   UNL A   1      32.401  29.557  26.399  1.00  0.00     0.040 A 
ATOM      7  C   UNL A   1      33.182  26.926  25.959  1.00  0.00     0.127 A 
ATOM      8  C   UNL A   1      33.661  27.922  25.118  1.00  0.00     0.048 A 
ATOM      9  C   UNL A   1      32.132  27.203  26.833  1.00  0.00     0.048 A 
ATOM     10  C   UNL A   1      33.305  29.250  25.371  1.00  0.00     0.017 A 
ATOM     11  C   UNL A   1      31.708  28.517  27.014  1.00  0.00     0.017 A 
BRANCH   7  12
ATOM     12  O   UNL A   1      33.625  25.639  25.931  1.00  0.00    -0.449 OA
BRANCH  12  13
ATOM     13  C   UNL A   1      33.210  24.689  25.008  1.00  0.00     0.217 A 
ATOM     14  C   UNL A   1      32.123  21.280  22.584  1.00  0.00     0.088 C 
ATOM     15  C   UNL A   1      32.614  22.414  23.427  1.00  0.00     0.105 A 
ATOM     16  C   UNL A   1      33.614  22.271  24.297  1.00  0.00     0.098 A 
ATOM     17  O   UNL A   1      31.961  23.612  23.234  1.00  0.00    -0.457 OA
ATOM     18  C   UNL A   1      34.007  23.424  25.116  1.00  0.00     0.228 A 
ATOM     19  C   UNL A   1      32.271  24.719  24.023  1.00  0.00     0.180 A 
ATOM     20  O   UNL A   1      34.975  23.321  25.866  1.00  0.00    -0.285 OA
BRANCH  19  21
ATOM     21  C   UNL A   1      31.421  25.858  23.622  1.00  0.00     0.021 A 
ATOM     22  C   UNL A   1      30.148  26.013  24.200  1.00  0.00     0.013 A 
ATOM     23  C   UNL A   1      31.849  26.785  22.661  1.00  0.00     0.013 A 
ATOM     24  C   UNL A   1      29.354  27.123  23.891  1.00  0.00     0.021 A 
ATOM     25  C   UNL A   1      31.054  27.891  22.337  1.00  0.00     0.021 A 
ATOM     26  C   UNL A   1      29.817  28.061  22.965  1.00  0.00     0.067 A 
BRANCH  26  27
ATOM     27  S   UNL A   1      28.857  29.531  22.666  1.00  0.00     0.175 S 
ATOM     28  C   UNL A   1      27.209  29.050  23.095  1.00  0.00     0.163 C 
ATOM     29  O   UNL A   1      29.287  30.528  23.623  1.00  0.00    -0.224 OA
ATOM     30  O   UNL A   1      28.880  29.796  21.237  1.00  0.00    -0.224 OA
ENDBRANCH  26  27
ENDBRANCH  19  21
ENDBRANCH  12  13
ENDBRANCH   7  12
ENDBRANCH   3   6
ENDBRANCH   1   2
BRANCH   1  31
ATOM     31  C   UNL A   1      35.728  32.283  27.999  1.00  0.00     0.042 C 
BRANCH  31  32
ATOM     32  C   UNL A   1      36.201  32.597  29.407  1.00  0.00     0.118 C 
BRANCH  32  33
ATOM     33  N   UNL A   1      35.920  31.537  30.371  1.00  0.00    -0.352 N 
ATOM     34  C   UNL A   1      36.653  30.454  30.794  1.00  0.00     0.251 C 
ATOM     35  H   UNL A   1      35.038  31.614  30.801  1.00  0.00     0.163 HD
ATOM     36  O   UNL A   1      36.128  29.626  31.536  1.00  0.00    -0.269 OA
BRANCH  34  37
ATOM     37  C   UNL A   1      38.045  30.233  30.334  1.00  0.00     0.039 A 
ATOM     38  C   UNL A   1      38.340  29.999  28.995  1.00  0.00     0.014 A 
ATOM     39  C   UNL A   1      39.089  30.272  31.266  1.00  0.00     0.014 A 
ATOM     40  C   UNL A   1      39.605  29.555  28.632  1.00  0.00     0.010 A 
ATOM     41  C   UNL A   1      40.397  29.964  30.870  1.00  0.00     0.010 A 
ATOM     42  C   UNL A   1      40.654  29.529  29.562  1.00  0.00    -0.014 A 
BRANCH  42  43
ATOM     43  C   UNL A   1      41.993  29.042  29.130  1.00  0.00     0.031 A 
ATOM     44  C   UNL A   1      42.189  27.628  28.645  1.00  0.00     0.074 A 
ATOM     45  C   UNL A   1      43.028  29.905  29.093  1.00  0.00     0.049 A 
ATOM     46  N   UNL A   1      43.265  27.061  28.154  1.00  0.00    -0.248 NA
ATOM     47  C   UNL A   1      41.028  26.729  28.728  1.00  0.00     0.031 C 
ATOM     48  C   UNL A   1      42.973  31.305  29.522  1.00  0.00     0.029 A 
ATOM     49  N   UNL A   1      44.311  29.750  28.636  1.00  0.00    -0.354 N 
ATOM     50  C   UNL A   1      42.915  25.742  27.887  1.00  0.00     0.074 A 
ATOM     51  C   UNL A   1      41.543  25.581  28.316  1.00  0.00     0.031 C 
ATOM     52  C   UNL A   1      44.136  31.902  29.226  1.00  0.00     0.029 A 
ATOM     53  C   UNL A   1      45.046  30.910  28.665  1.00  0.00     0.049 A 
ATOM     54  H   UNL A   1      44.671  28.891  28.318  1.00  0.00     0.167 HD
ATOM     55  C   UNL A   1      43.660  24.757  27.323  1.00  0.00     0.037 A 
ATOM     56  C   UNL A   1      46.314  31.152  28.288  1.00  0.00     0.037 A 
ATOM     57  C   UNL A   1      45.030  24.915  26.903  1.00  0.00     0.049 A 
ATOM     58  C   UNL A   1      47.142  30.024  27.747  1.00  0.00     0.074 A 
ATOM     59  C   UNL A   1      45.868  23.986  26.311  1.00  0.00     0.029 A 
ATOM     60  N   UNL A   1      45.771  26.081  27.045  1.00  0.00    -0.354 N 
ATOM     61  N   UNL A   1      46.792  28.790  27.480  1.00  0.00    -0.248 NA
ATOM     62  C   UNL A   1      48.551  30.327  27.465  1.00  0.00     0.031 C 
ATOM     63  C   UNL A   1      47.131  24.569  26.150  1.00  0.00     0.029 A 
ATOM     64  C   UNL A   1      47.065  25.883  26.584  1.00  0.00     0.049 A 
ATOM     65  H   UNL A   1      45.428  26.925  27.419  1.00  0.00     0.167 HD
ATOM     66  C   UNL A   1      47.931  28.172  26.981  1.00  0.00     0.074 A 
ATOM     67  C   UNL A   1      48.972  29.180  26.957  1.00  0.00     0.031 C 
ATOM     68  C   UNL A   1      48.100  26.887  26.580  1.00  0.00     0.037 A 
BRANCH  55  69
ATOM     69  C   UNL A   1      43.005  23.410  27.173  1.00  0.00     0.057 A 
ATOM     70  C   UNL A   1      42.568  22.964  25.920  1.00  0.00     0.134 A 
ATOM     71  C   UNL A   1      42.832  22.539  28.260  1.00  0.00     0.134 A 
ATOM     72  F   UNL A   1      42.689  23.746  24.837  1.00  0.00    -0.206 F 
ATOM     73  C   UNL A   1      42.002  21.698  25.748  1.00  0.00     0.040 A 
ATOM     74  C   UNL A   1      42.300  21.258  28.094  1.00  0.00     0.040 A 
ATOM     75  F   UNL A   1      43.237  22.895  29.488  1.00  0.00    -0.206 F 
ATOM     76  C   UNL A   1      41.883  20.835  26.835  1.00  0.00     0.006 A 
ENDBRANCH  55  69
BRANCH  56  77
ATOM     77  C   UNL A   1      46.879  32.520  28.404  1.00  0.00     0.057 A 
ATOM     78  C   UNL A   1      47.527  32.952  29.567  1.00  0.00     0.134 A 
ATOM     79  C   UNL A   1      46.789  33.427  27.341  1.00  0.00     0.134 A 
ATOM     80  F   UNL A   1      47.641  32.133  30.623  1.00  0.00    -0.206 F 
ATOM     81  C   UNL A   1      48.053  34.240  29.676  1.00  0.00     0.040 A 
ATOM     82  C   UNL A   1      47.337  34.707  27.425  1.00  0.00     0.040 A 
ATOM     83  F   UNL A   1      46.196  33.065  26.193  1.00  0.00    -0.206 F 
ATOM     84  C   UNL A   1      47.966  35.118  28.598  1.00  0.00     0.006 A 
ENDBRANCH  56  77
BRANCH  68  85
ATOM     85  C   UNL A   1      49.461  26.520  26.059  1.00  0.00     0.057 A 
ATOM     86  C   UNL A   1      49.845  26.869  24.758  1.00  0.00     0.134 A 
ATOM     87  C   UNL A   1      50.403  25.844  26.849  1.00  0.00     0.134 A 
ATOM     88  F   UNL A   1      48.993  27.510  23.944  1.00  0.00    -0.206 F 
ATOM     89  C   UNL A   1      51.117  26.573  24.267  1.00  0.00     0.040 A 
ATOM     90  C   UNL A   1      51.689  25.573  26.380  1.00  0.00     0.040 A 
ATOM     91  F   UNL A   1      50.106  25.495  28.110  1.00  0.00    -0.206 F 
ATOM     92  C   UNL A   1      52.049  25.936  25.084  1.00  0.00     0.006 A 
ENDBRANCH  68  85
ENDBRANCH  42  43
ENDBRANCH  34  37
ENDBRANCH  32  33
ENDBRANCH  31  32
ENDBRANCH   1  31
TORSDOF 14
ENDMDL
MODEL 3
REMARK VINA RESULT:     -12.8      2.666      7.277
REMARK SMILES Cc1cc(=O)c(Oc2ccc(C(=O)NCCCNC(=O)c3ccc(-c4c5nc(c(-c6c(F)cccc6F)c6ccc([nH]6)c(-c6c(F)cccc6F)c6nc(c(-c7c(F)cccc7F)c7ccc4[nH]7)C=C6)C=C5)cc3)cc2)c(-c2ccc(S(C)(=O)=O)cc2)o1
REMARK SMILES IDX 15 1 14 2 12 3 13 4 11 6 8 7 9 8 76 9 10 10 75 11 7 12 6 13
REMARK SMILES IDX 1 14 2 15 3 16 88 17 4 18 77 19 5 20 78 21 79 22 87 23 80 24
REMARK SMILES IDX 86 25 81 26 82 27 83 28 84 29 85 30 16 31 17 32 18 33 19 34
REMARK SMILES IDX 20 36 21 37 22 38 74 39 23 40 73 41 24 42 25 43 26 44 67 45
REMARK SMILES IDX 27 46 72 47 66 48 68 49 28 50 71 51 65 52 64 53 29 55 55 56
REMARK SMILES IDX 38 57 54 58 39 59 42 60 53 61 69 62 40 63 41 64 52 66 70 67
REMARK SMILES IDX 43 68 30 69 31 70 36 71 32 72 33 73 35 74 37 75 34 76 56 77
REMARK SMILES IDX 57 78 62 79 58 80 59 81 61 82 63 83 60 84 44 85 45 86 50 87
REMARK SMILES IDX 46 88 47 89 49 90 51 91 48 92
REMARK H PARENT 14 5 18 35 68 54 42 65
REMARK Flexibility Score: inf
ROOT
ATOM      1  C   UNL A   1      33.741  28.544  23.199  1.00  0.00     0.118 C 
ENDROOT
BRANCH   1   2
ATOM      2  N   UNL A   1      33.271  27.656  22.149  1.00  0.00    -0.352 N 
ATOM      3  C   UNL A   1      33.013  26.304  22.129  1.00  0.00     0.251 C 
ATOM      4  O   UNL A   1      32.461  25.831  21.137  1.00  0.00    -0.269 OA
ATOM      5  H   UNL A   1      33.107  28.106  21.290  1.00  0.00     0.163 HD
BRANCH   3   6
ATOM      6  C   UNL A   1      33.485  25.386  23.198  1.00  0.00     0.040 A 
ATOM      7  C   UNL A   1      34.922  24.106  25.204  1.00  0.00     0.127 A 
ATOM      8  C   UNL A   1      35.206  23.812  23.877  1.00  0.00     0.048 A 
ATOM      9  C   UNL A   1      33.770  24.824  25.523  1.00  0.00     0.048 A 
ATOM     10  C   UNL A   1      34.516  24.493  22.871  1.00  0.00     0.017 A 
ATOM     11  C   UNL A   1      33.023  25.422  24.512  1.00  0.00     0.017 A 
BRANCH   7  12
ATOM     12  O   UNL A   1      35.668  23.660  26.252  1.00  0.00    -0.449 OA
BRANCH  12  13
ATOM     13  C   UNL A   1      36.838  22.924  26.122  1.00  0.00     0.217 A 
ATOM     14  C   UNL A   1      40.734  21.055  26.169  1.00  0.00     0.088 C 
ATOM     15  C   UNL A   1      39.443  21.807  26.125  1.00  0.00     0.105 A 
ATOM     16  C   UNL A   1      39.366  23.106  26.420  1.00  0.00     0.098 A 
ATOM     17  O   UNL A   1      38.344  21.063  25.752  1.00  0.00    -0.457 OA
ATOM     18  C   UNL A   1      38.053  23.760  26.392  1.00  0.00     0.228 A 
ATOM     19  C   UNL A   1      37.072  21.634  25.757  1.00  0.00     0.180 A 
ATOM     20  O   UNL A   1      37.985  24.971  26.591  1.00  0.00    -0.285 OA
BRANCH  19  21
ATOM     21  C   UNL A   1      36.082  20.623  25.334  1.00  0.00     0.021 A 
ATOM     22  C   UNL A   1      36.521  19.375  24.857  1.00  0.00     0.013 A 
ATOM     23  C   UNL A   1      34.705  20.885  25.383  1.00  0.00     0.013 A 
ATOM     24  C   UNL A   1      35.602  18.376  24.519  1.00  0.00     0.021 A 
ATOM     25  C   UNL A   1      33.780  19.894  25.035  1.00  0.00     0.021 A 
ATOM     26  C   UNL A   1      34.234  18.639  24.619  1.00  0.00     0.067 A 
BRANCH  26  27
ATOM     27  S   UNL A   1      33.073  17.328  24.304  1.00  0.00     0.175 S 
ATOM     28  C   UNL A   1      33.622  16.018  25.360  1.00  0.00     0.163 C 
ATOM     29  O   UNL A   1      31.782  17.770  24.787  1.00  0.00    -0.224 OA
ATOM     30  O   UNL A   1      33.255  16.890  22.930  1.00  0.00    -0.224 OA
ENDBRANCH  26  27
ENDBRANCH  19  21
ENDBRANCH  12  13
ENDBRANCH   7  12
ENDBRANCH   3   6
ENDBRANCH   1   2
BRANCH   1  31
ATOM     31  C   UNL A   1      32.659  29.152  24.075  1.00  0.00     0.042 C 
BRANCH  31  32
ATOM     32  C   UNL A   1      32.978  29.233  25.557  1.00  0.00     0.118 C 
BRANCH  32  33
ATOM     33  N   UNL A   1      32.613  30.508  26.168  1.00  0.00    -0.352 N 
ATOM     34  C   UNL A   1      33.236  31.296  27.107  1.00  0.00     0.251 C 
ATOM     35  H   UNL A   1      31.758  30.874  25.845  1.00  0.00     0.163 HD
ATOM     36  O   UNL A   1      32.647  32.278  27.553  1.00  0.00    -0.269 OA
BRANCH  34  37
ATOM     37  C   UNL A   1      34.580  30.958  27.632  1.00  0.00     0.039 A 
ATOM     38  C   UNL A   1      34.933  29.649  27.940  1.00  0.00     0.014 A 
ATOM     39  C   UNL A   1      35.523  31.979  27.810  1.00  0.00     0.014 A 
ATOM     40  C   UNL A   1      36.097  29.395  28.655  1.00  0.00     0.010 A 
ATOM     41  C   UNL A   1      36.761  31.697  28.402  1.00  0.00     0.010 A 
ATOM     42  C   UNL A   1      37.030  30.414  28.898  1.00  0.00    -0.014 A 
BRANCH  42  43
ATOM     43  C   UNL A   1      38.263  30.098  29.672  1.00  0.00     0.031 A 
ATOM     44  C   UNL A   1      38.433  30.571  31.093  1.00  0.00     0.074 A 
ATOM     45  C   UNL A   1      39.202  29.305  29.118  1.00  0.00     0.049 A 
ATOM     46  N   UNL A   1      39.401  30.317  31.940  1.00  0.00    -0.248 NA
ATOM     47  C   UNL A   1      37.384  31.447  31.633  1.00  0.00     0.031 C 
ATOM     48  C   UNL A   1      39.156  28.768  27.756  1.00  0.00     0.029 A 
ATOM     49  N   UNL A   1      40.353  28.776  29.643  1.00  0.00    -0.354 N 
ATOM     50  C   UNL A   1      39.087  31.015  33.101  1.00  0.00     0.074 A 
ATOM     51  C   UNL A   1      37.864  31.740  32.833  1.00  0.00     0.031 C 
ATOM     52  C   UNL A   1      40.179  27.919  27.583  1.00  0.00     0.029 A 
ATOM     53  C   UNL A   1      40.997  27.914  28.790  1.00  0.00     0.049 A 
ATOM     54  H   UNL A   1      40.685  28.992  30.545  1.00  0.00     0.167 HD
ATOM     55  C   UNL A   1      39.744  31.040  34.289  1.00  0.00     0.037 A 
ATOM     56  C   UNL A   1      42.126  27.201  28.954  1.00  0.00     0.037 A 
ATOM     57  C   UNL A   1      40.967  30.325  34.555  1.00  0.00     0.049 A 
ATOM     58  C   UNL A   1      42.879  27.315  30.246  1.00  0.00     0.074 A 
ATOM     59  C   UNL A   1      41.706  30.274  35.725  1.00  0.00     0.029 A 
ATOM     60  N   UNL A   1      41.644  29.543  33.628  1.00  0.00    -0.354 N 
ATOM     61  N   UNL A   1      42.558  27.959  31.341  1.00  0.00    -0.248 NA
ATOM     62  C   UNL A   1      44.162  26.604  30.317  1.00  0.00     0.031 C 
ATOM     63  C   UNL A   1      42.856  29.513  35.488  1.00  0.00     0.029 A 
ATOM     64  C   UNL A   1      42.806  29.035  34.189  1.00  0.00     0.049 A 
ATOM     65  H   UNL A   1      41.342  29.374  32.706  1.00  0.00     0.167 HD
ATOM     66  C   UNL A   1      43.589  27.718  32.239  1.00  0.00     0.074 A 
ATOM     67  C   UNL A   1      44.529  26.843  31.567  1.00  0.00     0.031 C 
ATOM     68  C   UNL A   1      43.746  28.179  33.505  1.00  0.00     0.037 A 
BRANCH  55  69
ATOM     69  C   UNL A   1      39.163  31.910  35.371  1.00  0.00     0.057 A 
ATOM     70  C   UNL A   1      38.301  31.372  36.335  1.00  0.00     0.134 A 
ATOM     71  C   UNL A   1      39.474  33.274  35.480  1.00  0.00     0.134 A 
ATOM     72  F   UNL A   1      37.948  30.079  36.287  1.00  0.00    -0.206 F 
ATOM     73  C   UNL A   1      37.788  32.148  37.376  1.00  0.00     0.040 A 
ATOM     74  C   UNL A   1      38.995  34.052  36.536  1.00  0.00     0.040 A 
ATOM     75  F   UNL A   1      40.301  33.856  34.599  1.00  0.00    -0.206 F 
ATOM     76  C   UNL A   1      38.149  33.489  37.488  1.00  0.00     0.006 A 
ENDBRANCH  55  69
BRANCH  56  77
ATOM     77  C   UNL A   1      42.611  26.313  27.869  1.00  0.00     0.057 A 
ATOM     78  C   UNL A   1      42.294  24.950  27.836  1.00  0.00     0.134 A 
ATOM     79  C   UNL A   1      43.401  26.816  26.828  1.00  0.00     0.134 A 
ATOM     80  F   UNL A   1      41.546  24.405  28.806  1.00  0.00    -0.206 F 
ATOM     81  C   UNL A   1      42.755  24.116  26.817  1.00  0.00     0.040 A 
ATOM     82  C   UNL A   1      43.844  26.001  25.787  1.00  0.00     0.040 A 
ATOM     83  F   UNL A   1      43.723  28.118  26.794  1.00  0.00    -0.206 F 
ATOM     84  C   UNL A   1      43.525  24.644  25.783  1.00  0.00     0.006 A 
ENDBRANCH  56  77
BRANCH  68  85
ATOM     85  C   UNL A   1      44.971  27.717  34.243  1.00  0.00     0.057 A 
ATOM     86  C   UNL A   1      44.954  26.525  34.977  1.00  0.00     0.134 A 
ATOM     87  C   UNL A   1      46.175  28.435  34.207  1.00  0.00     0.134 A 
ATOM     88  F   UNL A   1      43.833  25.791  35.062  1.00  0.00    -0.206 F 
ATOM     89  C   UNL A   1      46.090  26.056  35.638  1.00  0.00     0.040 A 
ATOM     90  C   UNL A   1      47.328  27.958  34.835  1.00  0.00     0.040 A 
ATOM     91  F   UNL A   1      46.266  29.576  33.508  1.00  0.00    -0.206 F 
ATOM     92  C   UNL A   1      47.286  26.766  35.555  1.00  0.00     0.006 A 
ENDBRANCH  68  85
ENDBRANCH  42  43
ENDBRANCH  34  37
ENDBRANCH  32  33
ENDBRANCH  31  32
ENDBRANCH   1  31
TORSDOF 14
ENDMDL
