MODEL 1
REMARK VINA RESULT:     -11.5      0.000      0.000
REMARK SMILES Cc1nc(C)c(C(=O)N[C@@H](Cc2ccccc2)C(=O)NCCCNC(=O)c2ccc(-c3c4nc(c(-c5c(F)cccc5F)c5ccc([nH]5)c(-c5c(F)cccc5F)c5nc(c(-c6c(F)cccc6F)c6ccc3[nH]6)C=C5)C=C4)cc2)s1
REMARK SMILES IDX 22 1 21 2 20 3 18 4 19 5 10 7 9 8 7 9 8 10 6 12 1 13 2 14
REMARK SMILES IDX 3 15 81 16 4 17 5 18 11 19 12 20 13 21 17 22 14 23 16 24
REMARK SMILES IDX 15 25 23 26 24 27 25 28 26 30 27 31 28 32 80 33 29 34 79 35
REMARK SMILES IDX 30 36 31 37 32 38 73 39 33 40 78 41 72 42 74 43 34 44 77 45
REMARK SMILES IDX 71 46 70 47 35 49 61 50 44 51 60 52 45 53 48 54 59 55 75 56
REMARK SMILES IDX 46 57 47 58 58 60 76 61 49 62 36 63 37 64 42 65 38 66 39 67
REMARK SMILES IDX 41 68 43 69 40 70 62 71 63 72 68 73 64 74 65 75 67 76 69 77
REMARK SMILES IDX 66 78 50 79 51 80 56 81 52 82 53 83 55 84 57 85 54 86
REMARK H PARENT 20 6 9 11 24 29 74 48 48 59
REMARK Flexibility Score: inf
ROOT
ATOM      1  C   UNL A   1      32.046  28.677  27.192  1.00  0.00     0.042 C 
ENDROOT
BRANCH   1   2
ATOM      2  C   UNL A   1      31.559  28.997  25.797  1.00  0.00     0.117 C 
BRANCH   2   3
ATOM      3  N   UNL A   1      32.586  29.418  24.868  1.00  0.00    -0.354 N 
ATOM      4  C   UNL A   1      33.192  28.694  23.882  1.00  0.00     0.242 C 
ATOM      5  O   UNL A   1      33.665  29.336  22.938  1.00  0.00    -0.273 OA
ATOM      6  H   UNL A   1      32.888  30.350  24.960  1.00  0.00     0.163 HD
BRANCH   4   7
ATOM      7  C   UNL A   1      33.244  27.147  23.874  1.00  0.00     0.176 C 
BRANCH   7   8
ATOM      8  N   UNL A   1      33.422  26.600  22.523  1.00  0.00    -0.339 N 
ATOM      9  C   UNL A   1      33.136  25.410  21.899  1.00  0.00     0.263 C 
ATOM     10  O   UNL A   1      33.272  25.488  20.672  1.00  0.00    -0.268 OA
ATOM     11  H   UNL A   1      33.852  27.245  21.915  1.00  0.00     0.164 HD
BRANCH   9  12
ATOM     12  C   UNL A   1      32.765  24.157  22.551  1.00  0.00     0.115 A 
ATOM     13  C   UNL A   1      32.780  20.484  23.877  1.00  0.00     0.079 C 
ATOM     14  C   UNL A   1      32.554  21.897  23.473  1.00  0.00     0.091 A 
ATOM     15  N   UNL A   1      31.416  22.533  23.607  1.00  0.00    -0.246 NA
ATOM     16  S   UNL A   1      33.802  22.811  22.770  1.00  0.00    -0.113 S 
ATOM     17  C   UNL A   1      31.522  23.825  23.098  1.00  0.00     0.061 A 
ATOM     18  C   UNL A   1      30.278  24.644  23.186  1.00  0.00     0.068 C 
ENDBRANCH   9  12
ENDBRANCH   7   8
BRANCH   7  19
ATOM     19  C   UNL A   1      34.137  26.488  24.948  1.00  0.00     0.070 C 
BRANCH  19  20
ATOM     20  C   UNL A   1      33.588  25.327  25.739  1.00  0.00    -0.045 A 
ATOM     21  C   UNL A   1      32.255  25.310  26.175  1.00  0.00     0.004 A 
ATOM     22  C   UNL A   1      34.410  24.225  26.028  1.00  0.00     0.004 A 
ATOM     23  C   UNL A   1      31.735  24.181  26.814  1.00  0.00     0.000 A 
ATOM     24  C   UNL A   1      33.890  23.104  26.679  1.00  0.00     0.000 A 
ATOM     25  C   UNL A   1      32.548  23.075  27.054  1.00  0.00     0.000 A 
ENDBRANCH  19  20
ENDBRANCH   7  19
ENDBRANCH   4   7
ENDBRANCH   2   3
ENDBRANCH   1   2
BRANCH   1  26
ATOM     26  C   UNL A   1      33.497  29.061  27.429  1.00  0.00     0.118 C 
BRANCH  26  27
ATOM     27  N   UNL A   1      33.665  30.407  27.976  1.00  0.00    -0.352 N 
ATOM     28  C   UNL A   1      34.739  31.011  28.588  1.00  0.00     0.251 C 
ATOM     29  H   UNL A   1      32.871  30.981  27.892  1.00  0.00     0.163 HD
ATOM     30  O   UNL A   1      34.603  32.117  29.105  1.00  0.00    -0.269 OA
BRANCH  28  31
ATOM     31  C   UNL A   1      36.045  30.321  28.662  1.00  0.00     0.039 A 
ATOM     32  C   UNL A   1      36.882  30.319  27.543  1.00  0.00     0.014 A 
ATOM     33  C   UNL A   1      36.455  29.695  29.837  1.00  0.00     0.014 A 
ATOM     34  C   UNL A   1      38.171  29.789  27.645  1.00  0.00     0.010 A 
ATOM     35  C   UNL A   1      37.775  29.289  29.976  1.00  0.00     0.010 A 
ATOM     36  C   UNL A   1      38.649  29.326  28.881  1.00  0.00    -0.014 A 
BRANCH  36  37
ATOM     37  C   UNL A   1      40.048  28.862  29.065  1.00  0.00     0.031 A 
ATOM     38  C   UNL A   1      41.079  29.803  29.630  1.00  0.00     0.074 A 
ATOM     39  C   UNL A   1      40.412  27.637  28.634  1.00  0.00     0.049 A 
ATOM     40  N   UNL A   1      42.375  29.651  29.727  1.00  0.00    -0.248 NA
ATOM     41  C   UNL A   1      40.593  31.109  30.106  1.00  0.00     0.031 C 
ATOM     42  C   UNL A   1      39.525  26.653  28.012  1.00  0.00     0.029 A 
ATOM     43  N   UNL A   1      41.637  27.017  28.643  1.00  0.00    -0.354 N 
ATOM     44  C   UNL A   1      42.857  30.847  30.242  1.00  0.00     0.074 A 
ATOM     45  C   UNL A   1      41.726  31.737  30.380  1.00  0.00     0.031 C 
ATOM     46  C   UNL A   1      40.226  25.542  27.728  1.00  0.00     0.029 A 
ATOM     47  C   UNL A   1      41.619  25.752  28.104  1.00  0.00     0.049 A 
ATOM     48  H   UNL A   1      42.452  27.438  28.999  1.00  0.00     0.167 HD
ATOM     49  C   UNL A   1      44.122  31.167  30.600  1.00  0.00     0.037 A 
ATOM     50  C   UNL A   1      42.617  24.865  27.930  1.00  0.00     0.037 A 
ATOM     51  C   UNL A   1      45.235  30.261  30.517  1.00  0.00     0.049 A 
ATOM     52  C   UNL A   1      44.008  25.234  28.364  1.00  0.00     0.074 A 
ATOM     53  C   UNL A   1      46.545  30.466  30.913  1.00  0.00     0.029 A 
ATOM     54  N   UNL A   1      45.163  28.971  30.015  1.00  0.00    -0.354 N 
ATOM     55  N   UNL A   1      44.438  26.351  28.899  1.00  0.00    -0.248 NA
ATOM     56  C   UNL A   1      45.053  24.218  28.174  1.00  0.00     0.031 C 
ATOM     57  C   UNL A   1      47.272  29.306  30.628  1.00  0.00     0.029 A 
ATOM     58  C   UNL A   1      46.407  28.368  30.088  1.00  0.00     0.049 A 
ATOM     59  H   UNL A   1      44.349  28.548  29.660  1.00  0.00     0.167 HD
ATOM     60  C   UNL A   1      45.793  26.161  29.138  1.00  0.00     0.074 A 
ATOM     61  C   UNL A   1      46.111  24.818  28.701  1.00  0.00     0.031 C 
ATOM     62  C   UNL A   1      46.694  27.023  29.667  1.00  0.00     0.037 A 
BRANCH  49  63
ATOM     63  C   UNL A   1      44.361  32.547  31.141  1.00  0.00     0.057 A 
ATOM     64  C   UNL A   1      44.678  33.622  30.300  1.00  0.00     0.134 A 
ATOM     65  C   UNL A   1      44.244  32.811  32.511  1.00  0.00     0.134 A 
ATOM     66  F   UNL A   1      44.820  33.431  28.979  1.00  0.00    -0.206 F 
ATOM     67  C   UNL A   1      44.895  34.905  30.803  1.00  0.00     0.040 A 
ATOM     68  C   UNL A   1      44.432  34.096  33.024  1.00  0.00     0.040 A 
ATOM     69  F   UNL A   1      43.940  31.828  33.372  1.00  0.00    -0.206 F 
ATOM     70  C   UNL A   1      44.764  35.146  32.169  1.00  0.00     0.006 A 
ENDBRANCH  49  63
BRANCH  50  71
ATOM     71  C   UNL A   1      42.340  23.529  27.344  1.00  0.00     0.057 A 
ATOM     72  C   UNL A   1      42.039  22.434  28.163  1.00  0.00     0.134 A 
ATOM     73  C   UNL A   1      42.390  23.307  25.964  1.00  0.00     0.134 A 
ATOM     74  F   UNL A   1      41.994  22.582  29.496  1.00  0.00    -0.206 F 
ATOM     75  C   UNL A   1      41.824  21.161  27.634  1.00  0.00     0.040 A 
ATOM     76  C   UNL A   1      42.153  22.042  25.418  1.00  0.00     0.040 A 
ATOM     77  F   UNL A   1      42.663  24.315  25.123  1.00  0.00    -0.206 F 
ATOM     78  C   UNL A   1      41.880  20.962  26.256  1.00  0.00     0.006 A 
ENDBRANCH  50  71
BRANCH  62  79
ATOM     79  C   UNL A   1      48.095  26.521  29.847  1.00  0.00     0.057 A 
ATOM     80  C   UNL A   1      49.055  26.633  28.834  1.00  0.00     0.134 A 
ATOM     81  C   UNL A   1      48.498  25.961  31.066  1.00  0.00     0.134 A 
ATOM     82  F   UNL A   1      48.727  27.149  27.640  1.00  0.00    -0.206 F 
ATOM     83  C   UNL A   1      50.363  26.186  29.021  1.00  0.00     0.040 A 
ATOM     84  C   UNL A   1      49.808  25.533  31.272  1.00  0.00     0.040 A 
ATOM     85  F   UNL A   1      47.627  25.836  32.080  1.00  0.00    -0.206 F 
ATOM     86  C   UNL A   1      50.744  25.640  30.246  1.00  0.00     0.006 A 
ENDBRANCH  62  79
ENDBRANCH  36  37
ENDBRANCH  28  31
ENDBRANCH  26  27
ENDBRANCH   1  26
TORSDOF 14
ENDMDL
MODEL 2
REMARK VINA RESULT:     -11.4      2.643      7.739
REMARK SMILES Cc1nc(C)c(C(=O)N[C@@H](Cc2ccccc2)C(=O)NCCCNC(=O)c2ccc(-c3c4nc(c(-c5c(F)cccc5F)c5ccc([nH]5)c(-c5c(F)cccc5F)c5nc(c(-c6c(F)cccc6F)c6ccc3[nH]6)C=C5)C=C4)cc2)s1
REMARK SMILES IDX 22 1 21 2 20 3 18 4 19 5 10 7 9 8 7 9 8 10 6 12 1 13 2 14
REMARK SMILES IDX 3 15 81 16 4 17 5 18 11 19 12 20 13 21 17 22 14 23 16 24
REMARK SMILES IDX 15 25 23 26 24 27 25 28 26 30 27 31 28 32 80 33 29 34 79 35
REMARK SMILES IDX 30 36 31 37 32 38 73 39 33 40 78 41 72 42 74 43 34 44 77 45
REMARK SMILES IDX 71 46 70 47 35 49 61 50 44 51 60 52 45 53 48 54 59 55 75 56
REMARK SMILES IDX 46 57 47 58 58 60 76 61 49 62 36 63 37 64 42 65 38 66 39 67
REMARK SMILES IDX 41 68 43 69 40 70 62 71 63 72 68 73 64 74 65 75 67 76 69 77
REMARK SMILES IDX 66 78 50 79 51 80 56 81 52 82 53 83 55 84 57 85 54 86
REMARK H PARENT 20 6 9 11 24 29 74 48 48 59
REMARK Flexibility Score: inf
ROOT
ATOM      1  C   UNL A   1      37.650  19.867  25.026  1.00  0.00     0.042 C 
ENDROOT
BRANCH   1   2
ATOM      2  C   UNL A   1      36.579  20.921  24.847  1.00  0.00     0.117 C 
BRANCH   2   3
ATOM      3  N   UNL A   1      35.976  21.398  26.072  1.00  0.00    -0.354 N 
ATOM      4  C   UNL A   1      34.652  21.528  26.377  1.00  0.00     0.242 C 
ATOM      5  O   UNL A   1      34.355  21.494  27.576  1.00  0.00    -0.273 OA
ATOM      6  H   UNL A   1      36.605  21.666  26.781  1.00  0.00     0.163 HD
BRANCH   4   7
ATOM      7  C   UNL A   1      33.541  21.642  25.305  1.00  0.00     0.176 C 
BRANCH   7   8
ATOM      8  N   UNL A   1      34.047  22.157  24.027  1.00  0.00    -0.339 N 
ATOM      9  C   UNL A   1      34.321  23.400  23.507  1.00  0.00     0.263 C 
ATOM     10  O   UNL A   1      34.950  23.326  22.445  1.00  0.00    -0.268 OA
ATOM     11  H   UNL A   1      34.235  21.436  23.383  1.00  0.00     0.164 HD
BRANCH   9  12
ATOM     12  C   UNL A   1      33.904  24.684  24.064  1.00  0.00     0.115 A 
ATOM     13  C   UNL A   1      33.253  27.674  26.490  1.00  0.00     0.079 C 
ATOM     14  C   UNL A   1      33.383  26.669  25.401  1.00  0.00     0.091 A 
ATOM     15  N   UNL A   1      32.786  26.755  24.239  1.00  0.00    -0.246 NA
ATOM     16  S   UNL A   1      34.342  25.282  25.608  1.00  0.00    -0.113 S 
ATOM     17  C   UNL A   1      33.080  25.639  23.460  1.00  0.00     0.061 A 
ATOM     18  C   UNL A   1      32.443  25.621  22.111  1.00  0.00     0.068 C 
ENDBRANCH   9  12
ENDBRANCH   7   8
BRANCH   7  19
ATOM     19  C   UNL A   1      32.595  20.428  25.170  1.00  0.00     0.070 C 
BRANCH  19  20
ATOM     20  C   UNL A   1      33.037  19.250  24.339  1.00  0.00    -0.045 A 
ATOM     21  C   UNL A   1      34.130  18.459  24.721  1.00  0.00     0.004 A 
ATOM     22  C   UNL A   1      32.331  18.912  23.172  1.00  0.00     0.004 A 
ATOM     23  C   UNL A   1      34.458  17.309  23.997  1.00  0.00     0.000 A 
ATOM     24  C   UNL A   1      32.671  17.770  22.442  1.00  0.00     0.000 A 
ATOM     25  C   UNL A   1      33.722  16.959  22.866  1.00  0.00     0.000 A 
ENDBRANCH  19  20
ENDBRANCH   7  19
ENDBRANCH   4   7
ENDBRANCH   2   3
ENDBRANCH   1   2
BRANCH   1  26
ATOM     26  C   UNL A   1      38.889  20.380  25.741  1.00  0.00     0.118 C 
BRANCH  26  27
ATOM     27  N   UNL A   1      39.984  19.412  25.782  1.00  0.00    -0.352 N 
ATOM     28  C   UNL A   1      41.315  19.559  26.097  1.00  0.00     0.251 C 
ATOM     29  H   UNL A   1      39.723  18.493  25.544  1.00  0.00     0.163 HD
ATOM     30  O   UNL A   1      42.090  18.621  25.921  1.00  0.00    -0.269 OA
BRANCH  28  31
ATOM     31  C   UNL A   1      41.826  20.849  26.608  1.00  0.00     0.039 A 
ATOM     32  C   UNL A   1      42.321  21.794  25.705  1.00  0.00     0.014 A 
ATOM     33  C   UNL A   1      41.797  21.139  27.970  1.00  0.00     0.014 A 
ATOM     34  C   UNL A   1      42.680  23.065  26.162  1.00  0.00     0.010 A 
ATOM     35  C   UNL A   1      42.028  22.437  28.403  1.00  0.00     0.010 A 
ATOM     36  C   UNL A   1      42.476  23.416  27.505  1.00  0.00    -0.014 A 
BRANCH  36  37
ATOM     37  C   UNL A   1      42.733  24.789  28.013  1.00  0.00     0.031 A 
ATOM     38  C   UNL A   1      44.120  25.175  28.452  1.00  0.00     0.074 A 
ATOM     39  C   UNL A   1      41.707  25.649  28.173  1.00  0.00     0.049 A 
ATOM     40  N   UNL A   1      44.524  26.259  29.064  1.00  0.00    -0.248 NA
ATOM     41  C   UNL A   1      45.189  24.190  28.213  1.00  0.00     0.031 C 
ATOM     42  C   UNL A   1      40.306  25.377  27.845  1.00  0.00     0.029 A 
ATOM     43  N   UNL A   1      41.686  26.929  28.668  1.00  0.00    -0.354 N 
ATOM     44  C   UNL A   1      45.878  26.071  29.308  1.00  0.00     0.074 A 
ATOM     45  C   UNL A   1      46.215  24.747  28.837  1.00  0.00     0.031 C 
ATOM     46  C   UNL A   1      39.568  26.466  28.119  1.00  0.00     0.029 A 
ATOM     47  C   UNL A   1      40.433  27.495  28.682  1.00  0.00     0.049 A 
ATOM     48  H   UNL A   1      42.491  27.397  28.985  1.00  0.00     0.167 HD
ATOM     49  C   UNL A   1      46.769  26.934  29.848  1.00  0.00     0.037 A 
ATOM     50  C   UNL A   1      40.029  28.707  29.108  1.00  0.00     0.037 A 
ATOM     51  C   UNL A   1      46.444  28.272  30.263  1.00  0.00     0.049 A 
ATOM     52  C   UNL A   1      41.045  29.659  29.676  1.00  0.00     0.074 A 
ATOM     53  C   UNL A   1      47.287  29.249  30.763  1.00  0.00     0.029 A 
ATOM     54  N   UNL A   1      45.174  28.824  30.211  1.00  0.00    -0.354 N 
ATOM     55  N   UNL A   1      42.333  29.485  29.852  1.00  0.00    -0.248 NA
ATOM     56  C   UNL A   1      40.554  30.977  30.100  1.00  0.00     0.031 C 
ATOM     57  C   UNL A   1      46.520  30.386  31.037  1.00  0.00     0.029 A 
ATOM     58  C   UNL A   1      45.209  30.128  30.674  1.00  0.00     0.049 A 
ATOM     59  H   UNL A   1      44.367  28.358  29.893  1.00  0.00     0.167 HD
ATOM     60  C   UNL A   1      42.809  30.680  30.376  1.00  0.00     0.074 A 
ATOM     61  C   UNL A   1      41.675  31.574  30.478  1.00  0.00     0.031 C 
ATOM     62  C   UNL A   1      44.071  31.006  30.745  1.00  0.00     0.037 A 
BRANCH  49  63
ATOM     63  C   UNL A   1      48.188  26.465  29.993  1.00  0.00     0.057 A 
ATOM     64  C   UNL A   1      48.630  25.807  31.148  1.00  0.00     0.134 A 
ATOM     65  C   UNL A   1      49.113  26.645  28.957  1.00  0.00     0.134 A 
ATOM     66  F   UNL A   1      47.797  25.617  32.183  1.00  0.00    -0.206 F 
ATOM     67  C   UNL A   1      49.948  25.367  31.279  1.00  0.00     0.040 A 
ATOM     68  C   UNL A   1      50.426  26.185  29.065  1.00  0.00     0.040 A 
ATOM     69  F   UNL A   1      48.754  27.265  27.822  1.00  0.00    -0.206 F 
ATOM     70  C   UNL A   1      50.848  25.549  30.231  1.00  0.00     0.006 A 
ENDBRANCH  49  63
BRANCH  50  71
ATOM     71  C   UNL A   1      38.605  29.108  28.990  1.00  0.00     0.057 A 
ATOM     72  C   UNL A   1      38.094  29.596  27.781  1.00  0.00     0.134 A 
ATOM     73  C   UNL A   1      37.728  29.036  30.078  1.00  0.00     0.134 A 
ATOM     74  F   UNL A   1      38.891  29.705  26.708  1.00  0.00    -0.206 F 
ATOM     75  C   UNL A   1      36.771  30.024  27.664  1.00  0.00     0.040 A 
ATOM     76  C   UNL A   1      36.394  29.439  29.969  1.00  0.00     0.040 A 
ATOM     77  F   UNL A   1      38.152  28.570  31.261  1.00  0.00    -0.206 F 
ATOM     78  C   UNL A   1      35.915  29.944  28.762  1.00  0.00     0.006 A 
ENDBRANCH  50  71
BRANCH  62  79
ATOM     79  C   UNL A   1      44.298  32.401  31.245  1.00  0.00     0.057 A 
ATOM     80  C   UNL A   1      44.249  32.713  32.609  1.00  0.00     0.134 A 
ATOM     81  C   UNL A   1      44.615  33.433  30.353  1.00  0.00     0.134 A 
ATOM     82  F   UNL A   1      43.939  31.770  33.512  1.00  0.00    -0.206 F 
ATOM     83  C   UNL A   1      44.487  34.009  33.067  1.00  0.00     0.040 A 
ATOM     84  C   UNL A   1      44.878  34.726  30.801  1.00  0.00     0.040 A 
ATOM     85  F   UNL A   1      44.687  33.195  29.034  1.00  0.00    -0.206 F 
ATOM     86  C   UNL A   1      44.809  35.019  32.161  1.00  0.00     0.006 A 
ENDBRANCH  62  79
ENDBRANCH  36  37
ENDBRANCH  28  31
ENDBRANCH  26  27
ENDBRANCH   1  26
TORSDOF 14
ENDMDL
MODEL 3
REMARK VINA RESULT:     -11.4      1.723      3.112
REMARK SMILES Cc1nc(C)c(C(=O)N[C@@H](Cc2ccccc2)C(=O)NCCCNC(=O)c2ccc(-c3c4nc(c(-c5c(F)cccc5F)c5ccc([nH]5)c(-c5c(F)cccc5F)c5nc(c(-c6c(F)cccc6F)c6ccc3[nH]6)C=C5)C=C4)cc2)s1
REMARK SMILES IDX 22 1 21 2 20 3 18 4 19 5 10 7 9 8 7 9 8 10 6 12 1 13 2 14
REMARK SMILES IDX 3 15 81 16 4 17 5 18 11 19 12 20 13 21 17 22 14 23 16 24
REMARK SMILES IDX 15 25 23 26 24 27 25 28 26 30 27 31 28 32 80 33 29 34 79 35
REMARK SMILES IDX 30 36 31 37 32 38 73 39 33 40 78 41 72 42 74 43 34 44 77 45
REMARK SMILES IDX 71 46 70 47 35 49 61 50 44 51 60 52 45 53 48 54 59 55 75 56
REMARK SMILES IDX 46 57 47 58 58 60 76 61 49 62 36 63 37 64 42 65 38 66 39 67
REMARK SMILES IDX 41 68 43 69 40 70 62 71 63 72 68 73 64 74 65 75 67 76 69 77
REMARK SMILES IDX 66 78 50 79 51 80 56 81 52 82 53 83 55 84 57 85 54 86
REMARK H PARENT 20 6 9 11 24 29 74 48 48 59
REMARK Flexibility Score: inf
ROOT
ATOM      1  C   UNL A   1      32.280  28.742  26.742  1.00  0.00     0.042 C 
ENDROOT
BRANCH   1   2
ATOM      2  C   UNL A   1      32.128  27.356  26.154  1.00  0.00     0.117 C 
BRANCH   2   3
ATOM      3  N   UNL A   1      30.970  26.618  26.612  1.00  0.00    -0.354 N 
ATOM      4  C   UNL A   1      30.122  25.830  25.890  1.00  0.00     0.242 C 
ATOM      5  O   UNL A   1      29.519  24.950  26.515  1.00  0.00    -0.273 OA
ATOM      6  H   UNL A   1      30.768  26.695  27.572  1.00  0.00     0.163 HD
BRANCH   4   7
ATOM      7  C   UNL A   1      29.947  25.951  24.357  1.00  0.00     0.176 C 
BRANCH   7   8
ATOM      8  N   UNL A   1      30.181  24.678  23.664  1.00  0.00    -0.339 N 
ATOM      9  C   UNL A   1      31.218  23.778  23.585  1.00  0.00     0.263 C 
ATOM     10  O   UNL A   1      30.870  22.722  23.043  1.00  0.00    -0.268 OA
ATOM     11  H   UNL A   1      29.406  24.401  23.124  1.00  0.00     0.164 HD
BRANCH   9  12
ATOM     12  C   UNL A   1      32.594  24.002  24.018  1.00  0.00     0.115 A 
ATOM     13  C   UNL A   1      35.979  23.828  25.958  1.00  0.00     0.079 C 
ATOM     14  C   UNL A   1      34.798  24.064  25.084  1.00  0.00     0.091 A 
ATOM     15  N   UNL A   1      34.711  25.029  24.203  1.00  0.00    -0.246 NA
ATOM     16  S   UNL A   1      33.427  23.067  25.187  1.00  0.00    -0.113 S 
ATOM     17  C   UNL A   1      33.467  25.001  23.578  1.00  0.00     0.061 A 
ATOM     18  C   UNL A   1      33.247  26.066  22.556  1.00  0.00     0.068 C 
ENDBRANCH   9  12
ENDBRANCH   7   8
BRANCH   7  19
ATOM     19  C   UNL A   1      28.697  26.717  23.871  1.00  0.00     0.070 C 
BRANCH  19  20
ATOM     20  C   UNL A   1      28.880  28.045  23.179  1.00  0.00    -0.045 A 
ATOM     21  C   UNL A   1      30.143  28.470  22.745  1.00  0.00     0.004 A 
ATOM     22  C   UNL A   1      27.767  28.867  22.935  1.00  0.00     0.004 A 
ATOM     23  C   UNL A   1      30.277  29.652  22.012  1.00  0.00     0.000 A 
ATOM     24  C   UNL A   1      27.907  30.055  22.215  1.00  0.00     0.000 A 
ATOM     25  C   UNL A   1      29.158  30.438  21.737  1.00  0.00     0.000 A 
ENDBRANCH  19  20
ENDBRANCH   7  19
ENDBRANCH   4   7
ENDBRANCH   2   3
ENDBRANCH   1   2
BRANCH   1  26
ATOM     26  C   UNL A   1      33.680  29.030  27.257  1.00  0.00     0.118 C 
BRANCH  26  27
ATOM     27  N   UNL A   1      33.808  30.335  27.906  1.00  0.00    -0.352 N 
ATOM     28  C   UNL A   1      34.851  30.907  28.595  1.00  0.00     0.251 C 
ATOM     29  H   UNL A   1      33.008  30.903  27.836  1.00  0.00     0.163 HD
ATOM     30  O   UNL A   1      34.680  31.971  29.186  1.00  0.00    -0.269 OA
BRANCH  28  31
ATOM     31  C   UNL A   1      36.165  30.231  28.664  1.00  0.00     0.039 A 
ATOM     32  C   UNL A   1      36.989  30.220  27.534  1.00  0.00     0.014 A 
ATOM     33  C   UNL A   1      36.596  29.628  29.843  1.00  0.00     0.014 A 
ATOM     34  C   UNL A   1      38.284  29.704  27.628  1.00  0.00     0.010 A 
ATOM     35  C   UNL A   1      37.921  29.237  29.972  1.00  0.00     0.010 A 
ATOM     36  C   UNL A   1      38.781  29.266  28.865  1.00  0.00    -0.014 A 
BRANCH  36  37
ATOM     37  C   UNL A   1      40.187  28.818  29.039  1.00  0.00     0.031 A 
ATOM     38  C   UNL A   1      41.214  29.776  29.582  1.00  0.00     0.074 A 
ATOM     39  C   UNL A   1      40.559  27.592  28.619  1.00  0.00     0.049 A 
ATOM     40  N   UNL A   1      42.513  29.639  29.666  1.00  0.00    -0.248 NA
ATOM     41  C   UNL A   1      40.720  31.083  30.048  1.00  0.00     0.031 C 
ATOM     42  C   UNL A   1      39.675  26.592  28.018  1.00  0.00     0.029 A 
ATOM     43  N   UNL A   1      41.790  26.984  28.620  1.00  0.00    -0.354 N 
ATOM     44  C   UNL A   1      42.988  30.846  30.162  1.00  0.00     0.074 A 
ATOM     45  C   UNL A   1      41.849  31.726  30.302  1.00  0.00     0.031 C 
ATOM     46  C   UNL A   1      40.385  25.485  27.738  1.00  0.00     0.029 A 
ATOM     47  C   UNL A   1      41.780  25.714  28.097  1.00  0.00     0.049 A 
ATOM     48  H   UNL A   1      42.605  27.418  28.963  1.00  0.00     0.167 HD
ATOM     49  C   UNL A   1      44.253  31.183  30.502  1.00  0.00     0.037 A 
ATOM     50  C   UNL A   1      42.785  24.835  27.921  1.00  0.00     0.037 A 
ATOM     51  C   UNL A   1      45.375  30.288  30.416  1.00  0.00     0.049 A 
ATOM     52  C   UNL A   1      44.177  25.224  28.335  1.00  0.00     0.074 A 
ATOM     53  C   UNL A   1      46.687  30.510  30.796  1.00  0.00     0.029 A 
ATOM     54  N   UNL A   1      45.311  28.991  29.931  1.00  0.00    -0.354 N 
ATOM     55  N   UNL A   1      44.601  26.351  28.853  1.00  0.00    -0.248 NA
ATOM     56  C   UNL A   1      45.230  24.216  28.146  1.00  0.00     0.031 C 
ATOM     57  C   UNL A   1      47.423  29.355  30.516  1.00  0.00     0.029 A 
ATOM     58  C   UNL A   1      46.562  28.402  29.996  1.00  0.00     0.049 A 
ATOM     59  H   UNL A   1      44.497  28.555  29.589  1.00  0.00     0.167 HD
ATOM     60  C   UNL A   1      45.960  26.178  29.079  1.00  0.00     0.074 A 
ATOM     61  C   UNL A   1      46.287  24.833  28.654  1.00  0.00     0.031 C 
ATOM     62  C   UNL A   1      46.858  27.055  29.588  1.00  0.00     0.037 A 
BRANCH  49  63
ATOM     63  C   UNL A   1      44.484  32.572  31.024  1.00  0.00     0.057 A 
ATOM     64  C   UNL A   1      44.805  33.634  30.169  1.00  0.00     0.134 A 
ATOM     65  C   UNL A   1      44.355  32.856  32.389  1.00  0.00     0.134 A 
ATOM     66  F   UNL A   1      44.959  33.424  28.853  1.00  0.00    -0.206 F 
ATOM     67  C   UNL A   1      45.014  34.925  30.655  1.00  0.00     0.040 A 
ATOM     68  C   UNL A   1      44.534  34.148  32.884  1.00  0.00     0.040 A 
ATOM     69  F   UNL A   1      44.046  31.885  33.262  1.00  0.00    -0.206 F 
ATOM     70  C   UNL A   1      44.871  35.187  32.016  1.00  0.00     0.006 A 
ENDBRANCH  49  63
BRANCH  50  71
ATOM     71  C   UNL A   1      42.515  23.490  27.354  1.00  0.00     0.057 A 
ATOM     72  C   UNL A   1      42.596  23.263  25.975  1.00  0.00     0.134 A 
ATOM     73  C   UNL A   1      42.151  22.409  28.165  1.00  0.00     0.134 A 
ATOM     74  F   UNL A   1      42.923  24.265  25.145  1.00  0.00    -0.206 F 
ATOM     75  C   UNL A   1      42.298  22.018  25.418  1.00  0.00     0.040 A 
ATOM     76  C   UNL A   1      41.873  21.151  27.624  1.00  0.00     0.040 A 
ATOM     77  F   UNL A   1      42.064  22.557  29.494  1.00  0.00    -0.206 F 
ATOM     78  C   UNL A   1      41.937  20.956  26.245  1.00  0.00     0.006 A 
ENDBRANCH  50  71
BRANCH  62  79
ATOM     79  C   UNL A   1      48.266  26.569  29.759  1.00  0.00     0.057 A 
ATOM     80  C   UNL A   1      48.689  25.928  30.929  1.00  0.00     0.134 A 
ATOM     81  C   UNL A   1      49.195  26.706  28.719  1.00  0.00     0.134 A 
ATOM     82  F   UNL A   1      47.850  25.778  31.964  1.00  0.00    -0.206 F 
ATOM     83  C   UNL A   1      49.995  25.457  31.067  1.00  0.00     0.040 A 
ATOM     84  C   UNL A   1      50.495  26.218  28.837  1.00  0.00     0.040 A 
ATOM     85  F   UNL A   1      48.847  27.303  27.569  1.00  0.00    -0.206 F 
ATOM     86  C   UNL A   1      50.900  25.596  30.016  1.00  0.00     0.006 A 
ENDBRANCH  62  79
ENDBRANCH  36  37
ENDBRANCH  28  31
ENDBRANCH  26  27
ENDBRANCH   1  26
TORSDOF 14
ENDMDL
