MODEL 1
REMARK VINA RESULT:     -10.7      0.000      0.000
REMARK SMILES O=CN1CCC[C@@H](C(=O)NCCCNC(=O)c2ccc(-c3c4nc(c(-c5c(F)cccc5F)c5ccc([nH]5)c(-c5c(F)cccc5F)c5nc(c(-c6c(F)cccc6F)c6ccc3[nH]6)C=C5)C=C4)cc2)C1
REMARK SMILES IDX 12 1 11 2 10 3 8 4 9 5 7 7 3 8 4 9 71 10 5 11 6 12 2 13 1 14
REMARK SMILES IDX 13 15 14 16 15 17 16 19 17 20 18 21 70 22 19 23 69 24 20 25
REMARK SMILES IDX 21 26 22 27 63 28 23 29 68 30 62 31 64 32 24 33 67 34 61 35
REMARK SMILES IDX 60 36 25 38 51 39 34 40 50 41 35 42 38 43 49 44 65 45 36 46
REMARK SMILES IDX 37 47 48 49 66 50 39 51 26 52 27 53 32 54 28 55 29 56 31 57
REMARK SMILES IDX 33 58 30 59 52 60 53 61 58 62 54 63 55 64 57 65 59 66 56 67
REMARK SMILES IDX 40 68 41 69 46 70 42 71 43 72 45 73 47 74 44 75
REMARK H PARENT 10 6 14 18 64 37 38 48
REMARK Flexibility Score: inf
ROOT
ATOM      1  C   UNL A   1      35.217  33.391  27.974  1.00  0.00     0.042 C 
ENDROOT
BRANCH   1   2
ATOM      2  C   UNL A   1      35.318  34.838  28.441  1.00  0.00     0.117 C 
BRANCH   2   3
ATOM      3  N   UNL A   1      34.039  35.525  28.369  1.00  0.00    -0.356 N 
ATOM      4  C   UNL A   1      33.097  35.908  29.259  1.00  0.00     0.224 C 
ATOM      5  O   UNL A   1      32.110  36.462  28.754  1.00  0.00    -0.275 OA
ATOM      6  H   UNL A   1      33.802  35.771  27.445  1.00  0.00     0.163 HD
BRANCH   4   7
ATOM      7  C   UNL A   1      33.137  35.700  30.776  1.00  0.00     0.098 C 
ATOM      8  N   UNL A   1      34.230  34.746  32.793  1.00  0.00    -0.344 N 
ATOM      9  C   UNL A   1      34.394  36.034  33.440  1.00  0.00     0.119 C 
ATOM     10  C   UNL A   1      34.176  34.744  31.339  1.00  0.00     0.132 C 
ATOM     11  C   UNL A   1      33.327  37.008  32.965  1.00  0.00     0.022 C 
ATOM     12  C   UNL A   1      33.282  37.089  31.439  1.00  0.00     0.017 C 
BRANCH   8  13
ATOM     13  C   UNL A   1      34.348  33.562  33.490  1.00  0.00     0.339 C 
ATOM     14  O   UNL A   1      35.157  33.338  34.384  1.00  0.00    -0.279 OA
ENDBRANCH   8  13
ENDBRANCH   4   7
ENDBRANCH   2   3
ENDBRANCH   1   2
BRANCH   1  15
ATOM     15  C   UNL A   1      34.948  32.415  29.116  1.00  0.00     0.118 C 
BRANCH  15  16
ATOM     16  N   UNL A   1      34.274  31.204  28.656  1.00  0.00    -0.352 N 
ATOM     17  C   UNL A   1      34.786  30.022  28.187  1.00  0.00     0.251 C 
ATOM     18  H   UNL A   1      33.291  31.244  28.686  1.00  0.00     0.163 HD
ATOM     19  O   UNL A   1      34.046  29.227  27.616  1.00  0.00    -0.269 OA
BRANCH  17  20
ATOM     20  C   UNL A   1      36.214  29.694  28.370  1.00  0.00     0.039 A 
ATOM     21  C   UNL A   1      36.653  29.247  29.620  1.00  0.00     0.014 A 
ATOM     22  C   UNL A   1      37.130  29.879  27.332  1.00  0.00     0.014 A 
ATOM     23  C   UNL A   1      37.999  28.933  29.811  1.00  0.00     0.010 A 
ATOM     24  C   UNL A   1      38.454  29.489  27.498  1.00  0.00     0.010 A 
ATOM     25  C   UNL A   1      38.904  29.023  28.741  1.00  0.00    -0.014 A 
BRANCH  25  26
ATOM     26  C   UNL A   1      40.330  28.649  28.901  1.00  0.00     0.031 A 
ATOM     27  C   UNL A   1      41.322  29.661  29.401  1.00  0.00     0.074 A 
ATOM     28  C   UNL A   1      40.742  27.426  28.520  1.00  0.00     0.049 A 
ATOM     29  N   UNL A   1      42.622  29.561  29.513  1.00  0.00    -0.248 NA
ATOM     30  C   UNL A   1      40.785  30.972  29.799  1.00  0.00     0.031 C 
ATOM     31  C   UNL A   1      39.883  26.377  27.967  1.00  0.00     0.029 A 
ATOM     32  N   UNL A   1      41.994  26.864  28.521  1.00  0.00    -0.354 N 
ATOM     33  C   UNL A   1      43.057  30.798  29.975  1.00  0.00     0.074 A 
ATOM     34  C   UNL A   1      41.891  31.649  30.070  1.00  0.00     0.031 C 
ATOM     35  C   UNL A   1      40.629  25.294  27.697  1.00  0.00     0.029 A 
ATOM     36  C   UNL A   1      42.022  25.585  28.023  1.00  0.00     0.049 A 
ATOM     37  H   UNL A   1      42.794  27.334  28.850  1.00  0.00     0.167 HD
ATOM     38  C   UNL A   1      44.311  31.181  30.313  1.00  0.00     0.037 A 
ATOM     39  C   UNL A   1      43.057  24.746  27.838  1.00  0.00     0.037 A 
ATOM     40  C   UNL A   1      45.464  30.322  30.239  1.00  0.00     0.049 A 
ATOM     41  C   UNL A   1      44.438  25.187  28.232  1.00  0.00     0.074 A 
ATOM     42  C   UNL A   1      46.769  30.595  30.608  1.00  0.00     0.029 A 
ATOM     43  N   UNL A   1      45.446  29.019  29.766  1.00  0.00    -0.354 N 
ATOM     44  N   UNL A   1      44.828  26.339  28.723  1.00  0.00    -0.248 NA
ATOM     45  C   UNL A   1      45.522  24.213  28.052  1.00  0.00     0.031 C 
ATOM     46  C   UNL A   1      47.548  29.468  30.325  1.00  0.00     0.029 A 
ATOM     47  C   UNL A   1      46.720  28.479  29.819  1.00  0.00     0.049 A 
ATOM     48  H   UNL A   1      44.646  28.547  29.439  1.00  0.00     0.167 HD
ATOM     49  C   UNL A   1      46.195  26.220  28.933  1.00  0.00     0.074 A 
ATOM     50  C   UNL A   1      46.564  24.879  28.530  1.00  0.00     0.031 C 
ATOM     51  C   UNL A   1      47.066  27.140  29.416  1.00  0.00     0.037 A 
BRANCH  38  52
ATOM     52  C   UNL A   1      44.493  32.590  30.797  1.00  0.00     0.057 A 
ATOM     53  C   UNL A   1      44.382  32.922  32.155  1.00  0.00     0.134 A 
ATOM     54  C   UNL A   1      44.798  33.624  29.903  1.00  0.00     0.134 A 
ATOM     55  F   UNL A   1      44.079  31.982  33.061  1.00  0.00    -0.206 F 
ATOM     56  C   UNL A   1      44.537  34.236  32.600  1.00  0.00     0.040 A 
ATOM     57  C   UNL A   1      44.981  34.936  30.340  1.00  0.00     0.040 A 
ATOM     58  F   UNL A   1      44.925  33.375  28.591  1.00  0.00    -0.206 F 
ATOM     59  C   UNL A   1      44.843  35.247  31.691  1.00  0.00     0.006 A 
ENDBRANCH  38  52
BRANCH  39  60
ATOM     60  C   UNL A   1      42.819  23.394  27.275  1.00  0.00     0.057 A 
ATOM     61  C   UNL A   1      42.403  22.336  28.090  1.00  0.00     0.134 A 
ATOM     62  C   UNL A   1      42.988  23.131  25.910  1.00  0.00     0.134 A 
ATOM     63  F   UNL A   1      42.239  22.523  29.408  1.00  0.00    -0.206 F 
ATOM     64  C   UNL A   1      42.177  21.059  27.572  1.00  0.00     0.040 A 
ATOM     65  C   UNL A   1      42.745  21.865  25.374  1.00  0.00     0.040 A 
ATOM     66  F   UNL A   1      43.377  24.106  25.076  1.00  0.00    -0.206 F 
ATOM     67  C   UNL A   1      42.343  20.823  26.209  1.00  0.00     0.006 A 
ENDBRANCH  39  60
BRANCH  51  68
ATOM     68  C   UNL A   1      48.497  26.714  29.559  1.00  0.00     0.057 A 
ATOM     69  C   UNL A   1      49.453  26.999  28.575  1.00  0.00     0.134 A 
ATOM     70  C   UNL A   1      48.930  26.045  30.710  1.00  0.00     0.134 A 
ATOM     71  F   UNL A   1      49.099  27.626  27.444  1.00  0.00    -0.206 F 
ATOM     72  C   UNL A   1      50.786  26.614  28.725  1.00  0.00     0.040 A 
ATOM     73  C   UNL A   1      50.264  25.677  30.882  1.00  0.00     0.040 A 
ATOM     74  F   UNL A   1      48.064  25.750  31.692  1.00  0.00    -0.206 F 
ATOM     75  C   UNL A   1      51.196  25.958  29.885  1.00  0.00     0.006 A 
ENDBRANCH  51  68
ENDBRANCH  25  26
ENDBRANCH  17  20
ENDBRANCH  15  16
ENDBRANCH   1  15
TORSDOF 11
ENDMDL
MODEL 2
REMARK VINA RESULT:     -10.7      4.350      8.995
REMARK SMILES O=CN1CCC[C@@H](C(=O)NCCCNC(=O)c2ccc(-c3c4nc(c(-c5c(F)cccc5F)c5ccc([nH]5)c(-c5c(F)cccc5F)c5nc(c(-c6c(F)cccc6F)c6ccc3[nH]6)C=C5)C=C4)cc2)C1
REMARK SMILES IDX 12 1 11 2 10 3 8 4 9 5 7 7 3 8 4 9 71 10 5 11 6 12 2 13 1 14
REMARK SMILES IDX 13 15 14 16 15 17 16 19 17 20 18 21 70 22 19 23 69 24 20 25
REMARK SMILES IDX 21 26 22 27 63 28 23 29 68 30 62 31 64 32 24 33 67 34 61 35
REMARK SMILES IDX 60 36 25 38 51 39 34 40 50 41 35 42 38 43 49 44 65 45 36 46
REMARK SMILES IDX 37 47 48 49 66 50 39 51 26 52 27 53 32 54 28 55 29 56 31 57
REMARK SMILES IDX 33 58 30 59 52 60 53 61 58 62 54 63 55 64 57 65 59 66 56 67
REMARK SMILES IDX 40 68 41 69 46 70 42 71 43 72 45 73 47 74 44 75
REMARK H PARENT 10 6 14 18 64 37 38 48
REMARK Flexibility Score: inf
ROOT
ATOM      1  C   UNL A   1      37.557  19.574  25.005  1.00  0.00     0.042 C 
ENDROOT
BRANCH   1   2
ATOM      2  C   UNL A   1      36.422  20.591  25.032  1.00  0.00     0.117 C 
BRANCH   2   3
ATOM      3  N   UNL A   1      36.861  21.886  25.525  1.00  0.00    -0.356 N 
ATOM      4  C   UNL A   1      36.270  23.077  25.767  1.00  0.00     0.224 C 
ATOM      5  O   UNL A   1      37.042  23.959  26.170  1.00  0.00    -0.275 OA
ATOM      6  H   UNL A   1      37.823  21.898  25.732  1.00  0.00     0.163 HD
BRANCH   4   7
ATOM      7  C   UNL A   1      34.790  23.419  25.569  1.00  0.00     0.098 C 
ATOM      8  N   UNL A   1      32.510  23.750  26.502  1.00  0.00    -0.344 N 
ATOM      9  C   UNL A   1      32.402  25.117  26.027  1.00  0.00     0.119 C 
ATOM     10  C   UNL A   1      33.852  23.246  26.753  1.00  0.00     0.132 C 
ATOM     11  C   UNL A   1      33.268  25.322  24.793  1.00  0.00     0.022 C 
ATOM     12  C   UNL A   1      34.707  24.868  25.037  1.00  0.00     0.017 C 
BRANCH   8  13
ATOM     13  C   UNL A   1      31.406  23.034  26.914  1.00  0.00     0.339 C 
ATOM     14  O   UNL A   1      30.350  23.516  27.310  1.00  0.00    -0.279 OA
ENDBRANCH   8  13
ENDBRANCH   4   7
ENDBRANCH   2   3
ENDBRANCH   1   2
BRANCH   1  15
ATOM     15  C   UNL A   1      38.913  20.189  25.338  1.00  0.00     0.118 C 
BRANCH  15  16
ATOM     16  N   UNL A   1      39.896  19.178  25.715  1.00  0.00    -0.352 N 
ATOM     17  C   UNL A   1      41.205  19.307  26.101  1.00  0.00     0.251 C 
ATOM     18  H   UNL A   1      39.565  18.251  25.686  1.00  0.00     0.163 HD
ATOM     19  O   UNL A   1      41.928  18.316  26.130  1.00  0.00    -0.269 OA
BRANCH  17  20
ATOM     20  C   UNL A   1      41.749  20.624  26.489  1.00  0.00     0.039 A 
ATOM     21  C   UNL A   1      42.199  21.492  25.490  1.00  0.00     0.014 A 
ATOM     22  C   UNL A   1      41.869  20.982  27.833  1.00  0.00     0.014 A 
ATOM     23  C   UNL A   1      42.716  22.741  25.838  1.00  0.00     0.010 A 
ATOM     24  C   UNL A   1      42.308  22.256  28.175  1.00  0.00     0.010 A 
ATOM     25  C   UNL A   1      42.746  23.143  27.183  1.00  0.00    -0.014 A 
BRANCH  25  26
ATOM     26  C   UNL A   1      43.244  24.483  27.578  1.00  0.00     0.031 A 
ATOM     27  C   UNL A   1      42.276  25.543  28.026  1.00  0.00     0.074 A 
ATOM     28  C   UNL A   1      44.553  24.768  27.456  1.00  0.00     0.049 A 
ATOM     29  N   UNL A   1      42.500  26.800  28.314  1.00  0.00    -0.248 NA
ATOM     30  C   UNL A   1      40.864  25.145  28.135  1.00  0.00     0.031 C 
ATOM     31  C   UNL A   1      45.581  23.839  26.979  1.00  0.00     0.029 A 
ATOM     32  N   UNL A   1      45.243  25.927  27.705  1.00  0.00    -0.354 N 
ATOM     33  C   UNL A   1      41.258  27.343  28.618  1.00  0.00     0.074 A 
ATOM     34  C   UNL A   1      40.279  26.297  28.427  1.00  0.00     0.031 C 
ATOM     35  C   UNL A   1      46.770  24.460  26.985  1.00  0.00     0.029 A 
ATOM     36  C   UNL A   1      46.585  25.838  27.430  1.00  0.00     0.049 A 
ATOM     37  H   UNL A   1      44.815  26.745  28.050  1.00  0.00     0.167 HD
ATOM     38  C   UNL A   1      40.964  28.595  29.043  1.00  0.00     0.037 A 
ATOM     39  C   UNL A   1      47.554  26.767  27.515  1.00  0.00     0.037 A 
ATOM     40  C   UNL A   1      41.946  29.627  29.254  1.00  0.00     0.049 A 
ATOM     41  C   UNL A   1      47.207  28.146  28.000  1.00  0.00     0.074 A 
ATOM     42  C   UNL A   1      41.760  30.911  29.734  1.00  0.00     0.029 A 
ATOM     43  N   UNL A   1      43.302  29.486  29.002  1.00  0.00    -0.354 N 
ATOM     44  N   UNL A   1      46.038  28.631  28.342  1.00  0.00    -0.248 NA
ATOM     45  C   UNL A   1      48.314  29.105  28.119  1.00  0.00     0.031 C 
ATOM     46  C   UNL A   1      43.000  31.559  29.737  1.00  0.00     0.029 A 
ATOM     47  C   UNL A   1      43.964  30.665  29.301  1.00  0.00     0.049 A 
ATOM     48  H   UNL A   1      43.732  28.669  28.659  1.00  0.00     0.167 HD
ATOM     49  C   UNL A   1      46.270  29.941  28.737  1.00  0.00     0.074 A 
ATOM     50  C   UNL A   1      47.695  30.171  28.607  1.00  0.00     0.031 C 
ATOM     51  C   UNL A   1      45.383  30.872  29.168  1.00  0.00     0.037 A 
BRANCH  38  52
ATOM     52  C   UNL A   1      39.521  28.910  29.310  1.00  0.00     0.057 A 
ATOM     53  C   UNL A   1      38.680  29.418  28.309  1.00  0.00     0.134 A 
ATOM     54  C   UNL A   1      38.959  28.690  30.574  1.00  0.00     0.134 A 
ATOM     55  F   UNL A   1      39.158  29.664  27.081  1.00  0.00    -0.206 F 
ATOM     56  C   UNL A   1      37.343  29.724  28.565  1.00  0.00     0.040 A 
ATOM     57  C   UNL A   1      37.616  28.967  30.834  1.00  0.00     0.040 A 
ATOM     58  F   UNL A   1      39.705  28.200  31.575  1.00  0.00    -0.206 F 
ATOM     59  C   UNL A   1      36.806  29.493  29.830  1.00  0.00     0.006 A 
ENDBRANCH  38  52
BRANCH  39  60
ATOM     60  C   UNL A   1      48.949  26.413  27.155  1.00  0.00     0.057 A 
ATOM     61  C   UNL A   1      49.816  25.848  28.096  1.00  0.00     0.134 A 
ATOM     62  C   UNL A   1      49.444  26.617  25.861  1.00  0.00     0.134 A 
ATOM     63  F   UNL A   1      49.404  25.643  29.356  1.00  0.00    -0.206 F 
ATOM     64  C   UNL A   1      51.131  25.511  27.769  1.00  0.00     0.040 A 
ATOM     65  C   UNL A   1      50.749  26.264  25.514  1.00  0.00     0.040 A 
ATOM     66  F   UNL A   1      48.658  27.145  24.911  1.00  0.00    -0.206 F 
ATOM     67  C   UNL A   1      51.599  25.715  26.473  1.00  0.00     0.006 A 
ENDBRANCH  39  60
BRANCH  51  68
ATOM     68  C   UNL A   1      45.935  32.211  29.556  1.00  0.00     0.057 A 
ATOM     69  C   UNL A   1      46.012  33.270  28.641  1.00  0.00     0.134 A 
ATOM     70  C   UNL A   1      46.357  32.455  30.868  1.00  0.00     0.134 A 
ATOM     71  F   UNL A   1      45.636  33.096  27.366  1.00  0.00    -0.206 F 
ATOM     72  C   UNL A   1      46.511  34.518  29.016  1.00  0.00     0.040 A 
ATOM     73  C   UNL A   1      46.834  33.706  31.260  1.00  0.00     0.040 A 
ATOM     74  F   UNL A   1      46.301  31.485  31.793  1.00  0.00    -0.206 F 
ATOM     75  C   UNL A   1      46.916  34.741  30.331  1.00  0.00     0.006 A 
ENDBRANCH  51  68
ENDBRANCH  25  26
ENDBRANCH  17  20
ENDBRANCH  15  16
ENDBRANCH   1  15
TORSDOF 11
ENDMDL
MODEL 3
REMARK VINA RESULT:     -10.6      4.702      9.644
REMARK SMILES O=CN1CCC[C@@H](C(=O)NCCCNC(=O)c2ccc(-c3c4nc(c(-c5c(F)cccc5F)c5ccc([nH]5)c(-c5c(F)cccc5F)c5nc(c(-c6c(F)cccc6F)c6ccc3[nH]6)C=C5)C=C4)cc2)C1
REMARK SMILES IDX 12 1 11 2 10 3 8 4 9 5 7 7 3 8 4 9 71 10 5 11 6 12 2 13 1 14
REMARK SMILES IDX 13 15 14 16 15 17 16 19 17 20 18 21 70 22 19 23 69 24 20 25
REMARK SMILES IDX 21 26 22 27 63 28 23 29 68 30 62 31 64 32 24 33 67 34 61 35
REMARK SMILES IDX 60 36 25 38 51 39 34 40 50 41 35 42 38 43 49 44 65 45 36 46
REMARK SMILES IDX 37 47 48 49 66 50 39 51 26 52 27 53 32 54 28 55 29 56 31 57
REMARK SMILES IDX 33 58 30 59 52 60 53 61 58 62 54 63 55 64 57 65 59 66 56 67
REMARK SMILES IDX 40 68 41 69 46 70 42 71 43 72 45 73 47 74 44 75
REMARK H PARENT 10 6 14 18 64 37 38 48
REMARK Flexibility Score: inf
ROOT
ATOM      1  C   UNL A   1      37.739  19.512  25.000  1.00  0.00     0.042 C 
ENDROOT
BRANCH   1   2
ATOM      2  C   UNL A   1      36.533  20.443  25.002  1.00  0.00     0.117 C 
BRANCH   2   3
ATOM      3  N   UNL A   1      35.277  19.711  25.001  1.00  0.00    -0.356 N 
ATOM      4  C   UNL A   1      33.968  20.039  24.924  1.00  0.00     0.224 C 
ATOM      5  O   UNL A   1      33.194  19.073  24.990  1.00  0.00    -0.275 OA
ATOM      6  H   UNL A   1      35.415  18.739  25.074  1.00  0.00     0.163 HD
BRANCH   4   7
ATOM      7  C   UNL A   1      33.387  21.450  24.793  1.00  0.00     0.098 C 
ATOM      8  N   UNL A   1      32.321  23.223  23.417  1.00  0.00    -0.344 N 
ATOM      9  C   UNL A   1      31.157  23.334  24.276  1.00  0.00     0.119 C 
ATOM     10  C   UNL A   1      33.008  21.940  23.405  1.00  0.00     0.132 C 
ATOM     11  C   UNL A   1      31.505  22.925  25.699  1.00  0.00     0.022 C 
ATOM     12  C   UNL A   1      32.169  21.548  25.740  1.00  0.00     0.017 C 
BRANCH   8  13
ATOM     13  C   UNL A   1      32.633  24.192  22.487  1.00  0.00     0.339 C 
ATOM     14  O   UNL A   1      33.329  24.027  21.491  1.00  0.00    -0.279 OA
ENDBRANCH   8  13
ENDBRANCH   4   7
ENDBRANCH   2   3
ENDBRANCH   1   2
BRANCH   1  15
ATOM     15  C   UNL A   1      38.939  20.092  25.742  1.00  0.00     0.118 C 
BRANCH  15  16
ATOM     16  N   UNL A   1      40.022  19.122  25.878  1.00  0.00    -0.352 N 
ATOM     17  C   UNL A   1      41.371  19.308  26.033  1.00  0.00     0.251 C 
ATOM     18  H   UNL A   1      39.736  18.181  25.854  1.00  0.00     0.163 HD
ATOM     19  O   UNL A   1      42.134  18.360  25.875  1.00  0.00    -0.269 OA
BRANCH  17  20
ATOM     20  C   UNL A   1      41.912  20.633  26.395  1.00  0.00     0.039 A 
ATOM     21  C   UNL A   1      42.244  21.532  25.377  1.00  0.00     0.014 A 
ATOM     22  C   UNL A   1      42.145  20.972  27.730  1.00  0.00     0.014 A 
ATOM     23  C   UNL A   1      42.757  22.789  25.701  1.00  0.00     0.010 A 
ATOM     24  C   UNL A   1      42.579  22.252  28.055  1.00  0.00     0.010 A 
ATOM     25  C   UNL A   1      42.899  23.169  27.044  1.00  0.00    -0.014 A 
BRANCH  25  26
ATOM     26  C   UNL A   1      43.394  24.515  27.419  1.00  0.00     0.031 A 
ATOM     27  C   UNL A   1      42.426  25.575  27.866  1.00  0.00     0.074 A 
ATOM     28  C   UNL A   1      44.700  24.806  27.279  1.00  0.00     0.049 A 
ATOM     29  N   UNL A   1      42.646  26.837  28.137  1.00  0.00    -0.248 NA
ATOM     30  C   UNL A   1      41.017  25.171  27.995  1.00  0.00     0.031 C 
ATOM     31  C   UNL A   1      45.727  23.877  26.801  1.00  0.00     0.029 A 
ATOM     32  N   UNL A   1      45.386  25.971  27.507  1.00  0.00    -0.354 N 
ATOM     33  C   UNL A   1      41.405  27.377  28.449  1.00  0.00     0.074 A 
ATOM     34  C   UNL A   1      40.429  26.323  28.281  1.00  0.00     0.031 C 
ATOM     35  C   UNL A   1      46.914  24.504  26.785  1.00  0.00     0.029 A 
ATOM     36  C   UNL A   1      46.726  25.886  27.217  1.00  0.00     0.049 A 
ATOM     37  H   UNL A   1      44.958  26.790  27.847  1.00  0.00     0.167 HD
ATOM     38  C   UNL A   1      41.109  28.632  28.863  1.00  0.00     0.037 A 
ATOM     39  C   UNL A   1      47.691  26.821  27.281  1.00  0.00     0.037 A 
ATOM     40  C   UNL A   1      42.087  29.671  29.052  1.00  0.00     0.049 A 
ATOM     41  C   UNL A   1      47.342  28.203  27.754  1.00  0.00     0.074 A 
ATOM     42  C   UNL A   1      41.900  30.959  29.518  1.00  0.00     0.029 A 
ATOM     43  N   UNL A   1      43.442  29.534  28.785  1.00  0.00    -0.354 N 
ATOM     44  N   UNL A   1      46.174  28.686  28.104  1.00  0.00    -0.248 NA
ATOM     45  C   UNL A   1      48.445  29.170  27.849  1.00  0.00     0.031 C 
ATOM     46  C   UNL A   1      43.136  31.615  29.501  1.00  0.00     0.029 A 
ATOM     47  C   UNL A   1      44.100  30.721  29.064  1.00  0.00     0.049 A 
ATOM     48  H   UNL A   1      43.872  28.716  28.447  1.00  0.00     0.167 HD
ATOM     49  C   UNL A   1      46.404  30.002  28.481  1.00  0.00     0.074 A 
ATOM     50  C   UNL A   1      47.826  30.238  28.333  1.00  0.00     0.031 C 
ATOM     51  C   UNL A   1      45.517  30.933  28.912  1.00  0.00     0.037 A 
BRANCH  38  52
ATOM     52  C   UNL A   1      39.667  28.943  29.143  1.00  0.00     0.057 A 
ATOM     53  C   UNL A   1      39.119  28.800  30.425  1.00  0.00     0.134 A 
ATOM     54  C   UNL A   1      38.821  29.404  28.127  1.00  0.00     0.134 A 
ATOM     55  F   UNL A   1      39.871  28.349  31.439  1.00  0.00    -0.206 F 
ATOM     56  C   UNL A   1      37.774  29.074  30.678  1.00  0.00     0.040 A 
ATOM     57  C   UNL A   1      37.482  29.708  28.375  1.00  0.00     0.040 A 
ATOM     58  F   UNL A   1      39.282  29.570  26.878  1.00  0.00    -0.206 F 
ATOM     59  C   UNL A   1      36.952  29.536  29.651  1.00  0.00     0.006 A 
ENDBRANCH  38  52
BRANCH  39  60
ATOM     60  C   UNL A   1      49.083  26.470  26.909  1.00  0.00     0.057 A 
ATOM     61  C   UNL A   1      49.961  25.912  27.844  1.00  0.00     0.134 A 
ATOM     62  C   UNL A   1      49.565  26.671  25.610  1.00  0.00     0.134 A 
ATOM     63  F   UNL A   1      49.562  25.711  29.108  1.00  0.00    -0.206 F 
ATOM     64  C   UNL A   1      51.274  25.578  27.506  1.00  0.00     0.040 A 
ATOM     65  C   UNL A   1      50.869  26.321  25.251  1.00  0.00     0.040 A 
ATOM     66  F   UNL A   1      48.769  27.193  24.665  1.00  0.00    -0.206 F 
ATOM     67  C   UNL A   1      51.729  25.778  26.204  1.00  0.00     0.006 A 
ENDBRANCH  39  60
BRANCH  51  68
ATOM     68  C   UNL A   1      46.066  32.280  29.278  1.00  0.00     0.057 A 
ATOM     69  C   UNL A   1      46.533  32.560  30.568  1.00  0.00     0.134 A 
ATOM     70  C   UNL A   1      46.161  33.295  28.318  1.00  0.00     0.134 A 
ATOM     71  F   UNL A   1      46.456  31.634  31.535  1.00  0.00    -0.206 F 
ATOM     72  C   UNL A   1      47.058  33.811  30.895  1.00  0.00     0.040 A 
ATOM     73  C   UNL A   1      46.707  34.541  28.627  1.00  0.00     0.040 A 
ATOM     74  F   UNL A   1      45.738  33.086  27.062  1.00  0.00    -0.206 F 
ATOM     75  C   UNL A   1      47.152  34.804  29.921  1.00  0.00     0.006 A 
ENDBRANCH  51  68
ENDBRANCH  25  26
ENDBRANCH  17  20
ENDBRANCH  15  16
ENDBRANCH   1  15
TORSDOF 11
ENDMDL
