MODEL 1
REMARK VINA RESULT:      -9.9      0.000      0.000
REMARK SMILES C[C@H](Cc1cccs1)N(C)C(=O)[C@@H]([NH3+])CCC(=O)NCCCNC(=O)c1ccc(-c2c3nc(c(-c4c(F)cccc4F)c4ccc([nH]4)c(-c4c(F)cccc4F)c4nc(c(-c5c(F)cccc5F)c5ccc2[nH]5)C=C4)C=C3)cc1
REMARK SMILES IDX 17 1 18 2 19 3 16 5 15 6 13 7 11 8 12 9 9 10 10 11 2 12 1 13
REMARK SMILES IDX 3 14 4 15 5 16 8 17 6 18 7 19 14 20 20 24 21 25 22 26 23 27
REMARK SMILES IDX 24 28 25 30 26 31 27 32 79 33 28 34 78 35 29 36 30 37 31 38
REMARK SMILES IDX 72 39 32 40 77 41 71 42 73 43 33 44 76 45 70 46 69 47 34 49
REMARK SMILES IDX 60 50 43 51 59 52 44 53 47 54 58 55 74 56 45 57 46 58 57 60
REMARK SMILES IDX 75 61 48 62 35 63 36 64 41 65 37 66 38 67 40 68 42 69 39 70
REMARK SMILES IDX 61 71 62 72 67 73 63 74 64 75 66 76 68 77 65 78 49 79 50 80
REMARK SMILES IDX 55 81 51 82 52 83 54 84 56 85 53 86
REMARK H PARENT 19 4 14 21 14 22 14 23 23 29 73 48 47 59
REMARK Flexibility Score: inf
ROOT
ATOM      1  C   UNL A   1      30.940  27.867  23.102  1.00  0.00     0.220 C 
ATOM      2  O   UNL A   1      30.804  27.470  21.943  1.00  0.00    -0.275 OA
ATOM      3  N   UNL A   1      31.991  28.685  23.380  1.00  0.00    -0.356 N 
ATOM      4  H   UNL A   1      32.513  28.974  22.596  1.00  0.00     0.163 HD
ENDROOT
BRANCH   1   5
ATOM      5  C   UNL A   1      29.953  27.456  24.182  1.00  0.00     0.106 C 
BRANCH   5   6
ATOM      6  C   UNL A   1      29.985  25.956  24.503  1.00  0.00     0.085 C 
BRANCH   6   7
ATOM      7  C   UNL A   1      30.345  25.622  25.956  1.00  0.00     0.271 C 
BRANCH   7   8
ATOM      8  C   UNL A   1      31.358  24.457  26.148  1.00  0.00     0.280 C 
ATOM      9  O   UNL A   1      31.393  23.924  27.261  1.00  0.00    -0.268 OA
BRANCH   8  10
ATOM     10  N   UNL A   1      32.163  24.003  25.117  1.00  0.00    -0.338 N 
ATOM     11  C   UNL A   1      31.987  22.695  24.494  1.00  0.00     0.147 C 
BRANCH  10  12
ATOM     12  C   UNL A   1      33.373  24.773  24.688  1.00  0.00     0.087 C 
ATOM     13  C   UNL A   1      33.551  24.673  23.170  1.00  0.00     0.031 C 
BRANCH  12  14
ATOM     14  C   UNL A   1      34.667  24.582  25.537  1.00  0.00     0.071 C 
BRANCH  14  15
ATOM     15  C   UNL A   1      35.538  23.378  25.237  1.00  0.00     0.007 A 
ATOM     16  C   UNL A   1      36.556  23.223  24.314  1.00  0.00     0.015 A 
ATOM     17  S   UNL A   1      35.256  21.898  26.069  1.00  0.00    -0.149 S 
ATOM     18  C   UNL A   1      37.110  21.912  24.298  1.00  0.00     0.012 A 
ATOM     19  C   UNL A   1      36.483  21.085  25.199  1.00  0.00     0.065 A 
ENDBRANCH  14  15
ENDBRANCH  12  14
ENDBRANCH  10  12
ENDBRANCH   8  10
ENDBRANCH   7   8
BRANCH   7  20
ATOM     20  N   UNL A   1      30.751  26.814  26.725  1.00  0.00    -0.347 N 
ATOM     21  H   UNL A   1      30.392  26.743  27.676  1.00  0.00     0.345 HD
ATOM     22  H   UNL A   1      30.373  27.651  26.280  1.00  0.00     0.345 HD
ATOM     23  H   UNL A   1      31.769  26.872  26.749  1.00  0.00     0.345 HD
ENDBRANCH   7  20
ENDBRANCH   6   7
ENDBRANCH   5   6
ENDBRANCH   1   5
BRANCH   3  24
ATOM     24  C   UNL A   1      32.461  29.199  24.654  1.00  0.00     0.117 C 
BRANCH  24  25
ATOM     25  C   UNL A   1      33.731  28.482  25.099  1.00  0.00     0.042 C 
BRANCH  25  26
ATOM     26  C   UNL A   1      33.925  28.461  26.603  1.00  0.00     0.118 C 
BRANCH  26  27
ATOM     27  N   UNL A   1      33.793  29.787  27.190  1.00  0.00    -0.352 N 
ATOM     28  C   UNL A   1      34.643  30.505  27.996  1.00  0.00     0.251 C 
ATOM     29  H   UNL A   1      32.950  30.247  26.973  1.00  0.00     0.163 HD
ATOM     30  O   UNL A   1      34.230  31.528  28.534  1.00  0.00    -0.269 OA
BRANCH  28  31
ATOM     31  C   UNL A   1      36.043  30.069  28.236  1.00  0.00     0.039 A 
ATOM     32  C   UNL A   1      36.370  29.510  29.479  1.00  0.00     0.014 A 
ATOM     33  C   UNL A   1      37.050  30.259  27.290  1.00  0.00     0.014 A 
ATOM     34  C   UNL A   1      37.683  29.106  29.745  1.00  0.00     0.010 A 
ATOM     35  C   UNL A   1      38.328  29.754  27.512  1.00  0.00     0.010 A 
ATOM     36  C   UNL A   1      38.670  29.197  28.752  1.00  0.00    -0.014 A 
BRANCH  36  37
ATOM     37  C   UNL A   1      40.075  28.777  29.000  1.00  0.00     0.031 A 
ATOM     38  C   UNL A   1      41.042  29.736  29.649  1.00  0.00     0.074 A 
ATOM     39  C   UNL A   1      40.505  27.568  28.590  1.00  0.00     0.049 A 
ATOM     40  N   UNL A   1      42.327  29.604  29.857  1.00  0.00    -0.248 NA
ATOM     41  C   UNL A   1      40.496  31.030  30.091  1.00  0.00     0.031 C 
ATOM     42  C   UNL A   1      39.686  26.563  27.909  1.00  0.00     0.029 A 
ATOM     43  N   UNL A   1      41.743  26.983  28.676  1.00  0.00    -0.354 N 
ATOM     44  C   UNL A   1      42.745  30.803  30.422  1.00  0.00     0.074 A 
ATOM     45  C   UNL A   1      41.590  31.671  30.472  1.00  0.00     0.031 C 
ATOM     46  C   UNL A   1      40.436  25.477  27.663  1.00  0.00     0.029 A 
ATOM     47  C   UNL A   1      41.797  25.722  28.131  1.00  0.00     0.049 A 
ATOM     48  H   UNL A   1      42.519  27.425  29.089  1.00  0.00     0.167 HD
ATOM     49  C   UNL A   1      43.971  31.144  30.884  1.00  0.00     0.037 A 
ATOM     50  C   UNL A   1      42.828  24.864  28.018  1.00  0.00     0.037 A 
ATOM     51  C   UNL A   1      45.108  30.264  30.881  1.00  0.00     0.049 A 
ATOM     52  C   UNL A   1      44.177  25.258  28.553  1.00  0.00     0.074 A 
ATOM     53  C   UNL A   1      46.377  30.491  31.388  1.00  0.00     0.029 A 
ATOM     54  N   UNL A   1      45.111  28.984  30.350  1.00  0.00    -0.354 N 
ATOM     55  N   UNL A   1      44.542  26.375  29.136  1.00  0.00    -0.248 NA
ATOM     56  C   UNL A   1      45.257  24.270  28.421  1.00  0.00     0.031 C 
ATOM     57  C   UNL A   1      47.158  29.359  31.130  1.00  0.00     0.029 A 
ATOM     58  C   UNL A   1      46.363  28.412  30.503  1.00  0.00     0.049 A 
ATOM     59  H   UNL A   1      44.338  28.545  29.928  1.00  0.00     0.167 HD
ATOM     60  C   UNL A   1      45.881  26.213  29.466  1.00  0.00     0.074 A 
ATOM     61  C   UNL A   1      46.261  24.886  29.029  1.00  0.00     0.031 C 
ATOM     62  C   UNL A   1      46.721  27.085  30.074  1.00  0.00     0.037 A 
BRANCH  49  63
ATOM     63  C   UNL A   1      44.141  32.527  31.445  1.00  0.00     0.057 A 
ATOM     64  C   UNL A   1      44.532  33.608  30.643  1.00  0.00     0.134 A 
ATOM     65  C   UNL A   1      43.882  32.789  32.797  1.00  0.00     0.134 A 
ATOM     66  F   UNL A   1      44.808  33.425  29.343  1.00  0.00    -0.206 F 
ATOM     67  C   UNL A   1      44.688  34.891  31.170  1.00  0.00     0.040 A 
ATOM     68  C   UNL A   1      44.007  34.074  33.329  1.00  0.00     0.040 A 
ATOM     69  F   UNL A   1      43.497  31.803  33.620  1.00  0.00    -0.206 F 
ATOM     70  C   UNL A   1      44.419  35.128  32.516  1.00  0.00     0.006 A 
ENDBRANCH  49  63
BRANCH  50  71
ATOM     71  C   UNL A   1      42.623  23.532  27.393  1.00  0.00     0.057 A 
ATOM     72  C   UNL A   1      42.751  23.358  26.011  1.00  0.00     0.134 A 
ATOM     73  C   UNL A   1      42.287  22.408  28.157  1.00  0.00     0.134 A 
ATOM     74  F   UNL A   1      43.053  24.402  25.224  1.00  0.00    -0.206 F 
ATOM     75  C   UNL A   1      42.534  22.120  25.406  1.00  0.00     0.040 A 
ATOM     76  C   UNL A   1      42.090  21.158  27.568  1.00  0.00     0.040 A 
ATOM     77  F   UNL A   1      42.156  22.507  29.488  1.00  0.00    -0.206 F 
ATOM     78  C   UNL A   1      42.206  21.013  26.187  1.00  0.00     0.006 A 
ENDBRANCH  50  71
BRANCH  62  79
ATOM     79  C   UNL A   1      48.122  26.619  30.339  1.00  0.00     0.057 A 
ATOM     80  C   UNL A   1      48.456  25.901  31.494  1.00  0.00     0.134 A 
ATOM     81  C   UNL A   1      49.139  26.856  29.405  1.00  0.00     0.134 A 
ATOM     82  F   UNL A   1      47.529  25.652  32.431  1.00  0.00    -0.206 F 
ATOM     83  C   UNL A   1      49.758  25.452  31.720  1.00  0.00     0.040 A 
ATOM     84  C   UNL A   1      50.438  26.391  29.608  1.00  0.00     0.040 A 
ATOM     85  F   UNL A   1      48.882  27.530  28.275  1.00  0.00    -0.206 F 
ATOM     86  C   UNL A   1      50.752  25.692  30.772  1.00  0.00     0.006 A 
ENDBRANCH  62  79
ENDBRANCH  36  37
ENDBRANCH  28  31
ENDBRANCH  26  27
ENDBRANCH  25  26
ENDBRANCH  24  25
ENDBRANCH   3  24
TORSDOF 18
ENDMDL
MODEL 2
REMARK VINA RESULT:      -9.9      2.600      7.462
REMARK SMILES C[C@H](Cc1cccs1)N(C)C(=O)[C@@H]([NH3+])CCC(=O)NCCCNC(=O)c1ccc(-c2c3nc(c(-c4c(F)cccc4F)c4ccc([nH]4)c(-c4c(F)cccc4F)c4nc(c(-c5c(F)cccc5F)c5ccc2[nH]5)C=C4)C=C3)cc1
REMARK SMILES IDX 17 1 18 2 19 3 16 5 15 6 13 7 11 8 12 9 9 10 10 11 2 12 1 13
REMARK SMILES IDX 3 14 4 15 5 16 8 17 6 18 7 19 14 20 20 24 21 25 22 26 23 27
REMARK SMILES IDX 24 28 25 30 26 31 27 32 79 33 28 34 78 35 29 36 30 37 31 38
REMARK SMILES IDX 72 39 32 40 77 41 71 42 73 43 33 44 76 45 70 46 69 47 34 49
REMARK SMILES IDX 60 50 43 51 59 52 44 53 47 54 58 55 74 56 45 57 46 58 57 60
REMARK SMILES IDX 75 61 48 62 35 63 36 64 41 65 37 66 38 67 40 68 42 69 39 70
REMARK SMILES IDX 61 71 62 72 67 73 63 74 64 75 66 76 68 77 65 78 49 79 50 80
REMARK SMILES IDX 55 81 51 82 52 83 54 84 56 85 53 86
REMARK H PARENT 19 4 14 21 14 22 14 23 23 29 73 48 47 59
REMARK Flexibility Score: inf
ROOT
ATOM      1  C   UNL A   1      33.409  20.052  25.403  1.00  0.00     0.220 C 
ATOM      2  O   UNL A   1      32.551  19.166  25.438  1.00  0.00    -0.275 OA
ATOM      3  N   UNL A   1      34.672  19.704  25.036  1.00  0.00    -0.356 N 
ATOM      4  H   UNL A   1      34.777  18.773  24.732  1.00  0.00     0.163 HD
ENDROOT
BRANCH   1   5
ATOM      5  C   UNL A   1      33.055  21.487  25.752  1.00  0.00     0.106 C 
BRANCH   5   6
ATOM      6  C   UNL A   1      31.605  21.859  25.417  1.00  0.00     0.085 C 
BRANCH   6   7
ATOM      7  C   UNL A   1      30.938  22.801  26.427  1.00  0.00     0.271 C 
BRANCH   7   8
ATOM      8  C   UNL A   1      30.966  24.312  26.058  1.00  0.00     0.280 C 
ATOM      9  O   UNL A   1      30.056  25.015  26.507  1.00  0.00    -0.268 OA
BRANCH   8  10
ATOM     10  N   UNL A   1      31.979  24.865  25.291  1.00  0.00    -0.338 N 
ATOM     11  C   UNL A   1      33.284  25.217  25.842  1.00  0.00     0.147 C 
BRANCH  10  12
ATOM     12  C   UNL A   1      31.733  25.285  23.877  1.00  0.00     0.087 C 
ATOM     13  C   UNL A   1      32.576  24.435  22.920  1.00  0.00     0.031 C 
BRANCH  12  14
ATOM     14  C   UNL A   1      31.719  26.818  23.588  1.00  0.00     0.071 C 
BRANCH  14  15
ATOM     15  C   UNL A   1      30.374  27.486  23.382  1.00  0.00     0.007 A 
ATOM     16  C   UNL A   1      29.102  27.038  23.686  1.00  0.00     0.015 A 
ATOM     17  S   UNL A   1      30.298  29.014  22.593  1.00  0.00    -0.149 S 
ATOM     18  C   UNL A   1      28.076  27.943  23.291  1.00  0.00     0.012 A 
ATOM     19  C   UNL A   1      28.591  29.056  22.671  1.00  0.00     0.065 A 
ENDBRANCH  14  15
ENDBRANCH  12  14
ENDBRANCH  10  12
ENDBRANCH   8  10
ENDBRANCH   7   8
BRANCH   7  20
ATOM     20  N   UNL A   1      29.577  22.367  26.791  1.00  0.00    -0.347 N 
ATOM     21  H   UNL A   1      29.069  22.097  25.948  1.00  0.00     0.345 HD
ATOM     22  H   UNL A   1      29.086  23.134  27.251  1.00  0.00     0.345 HD
ATOM     23  H   UNL A   1      29.632  21.570  27.425  1.00  0.00     0.345 HD
ENDBRANCH   7  20
ENDBRANCH   6   7
ENDBRANCH   5   6
ENDBRANCH   1   5
BRANCH   3  24
ATOM     24  C   UNL A   1      35.890  20.495  25.022  1.00  0.00     0.117 C 
BRANCH  24  25
ATOM     25  C   UNL A   1      37.124  19.601  24.993  1.00  0.00     0.042 C 
BRANCH  25  26
ATOM     26  C   UNL A   1      38.403  20.313  25.392  1.00  0.00     0.118 C 
BRANCH  26  27
ATOM     27  N   UNL A   1      39.507  19.386  25.588  1.00  0.00    -0.352 N 
ATOM     28  C   UNL A   1      40.798  19.597  26.012  1.00  0.00     0.251 C 
ATOM     29  H   UNL A   1      39.294  18.447  25.381  1.00  0.00     0.163 HD
ATOM     30  O   UNL A   1      41.614  18.685  25.910  1.00  0.00    -0.269 OA
BRANCH  28  31
ATOM     31  C   UNL A   1      41.227  20.899  26.583  1.00  0.00     0.039 A 
ATOM     32  C   UNL A   1      41.748  21.873  25.720  1.00  0.00     0.014 A 
ATOM     33  C   UNL A   1      41.188  21.156  27.953  1.00  0.00     0.014 A 
ATOM     34  C   UNL A   1      42.180  23.104  26.227  1.00  0.00     0.010 A 
ATOM     35  C   UNL A   1      41.509  22.419  28.442  1.00  0.00     0.010 A 
ATOM     36  C   UNL A   1      42.037  23.400  27.591  1.00  0.00    -0.014 A 
BRANCH  36  37
ATOM     37  C   UNL A   1      42.485  24.699  28.163  1.00  0.00     0.031 A 
ATOM     38  C   UNL A   1      41.482  25.799  28.404  1.00  0.00     0.074 A 
ATOM     39  C   UNL A   1      43.792  24.917  28.407  1.00  0.00     0.049 A 
ATOM     40  N   UNL A   1      41.681  27.032  28.795  1.00  0.00    -0.248 NA
ATOM     41  C   UNL A   1      40.070  25.479  28.136  1.00  0.00     0.031 C 
ATOM     42  C   UNL A   1      44.871  23.955  28.176  1.00  0.00     0.029 A 
ATOM     43  N   UNL A   1      44.436  26.028  28.893  1.00  0.00    -0.354 N 
ATOM     44  C   UNL A   1      40.431  27.638  28.789  1.00  0.00     0.074 A 
ATOM     45  C   UNL A   1      39.487  26.657  28.302  1.00  0.00     0.031 C 
ATOM     46  C   UNL A   1      46.039  24.507  28.545  1.00  0.00     0.029 A 
ATOM     47  C   UNL A   1      45.797  25.873  28.999  1.00  0.00     0.049 A 
ATOM     48  H   UNL A   1      43.967  26.856  29.142  1.00  0.00     0.167 HD
ATOM     49  C   UNL A   1      40.090  28.890  29.179  1.00  0.00     0.037 A 
ATOM     50  C   UNL A   1      46.744  26.737  29.412  1.00  0.00     0.037 A 
ATOM     51  C   UNL A   1      41.019  29.850  29.711  1.00  0.00     0.049 A 
ATOM     52  C   UNL A   1      46.340  28.116  29.856  1.00  0.00     0.074 A 
ATOM     53  C   UNL A   1      40.763  31.120  30.197  1.00  0.00     0.029 A 
ATOM     54  N   UNL A   1      42.384  29.641  29.832  1.00  0.00    -0.354 N 
ATOM     55  N   UNL A   1      45.145  28.655  29.898  1.00  0.00    -0.248 NA
ATOM     56  C   UNL A   1      47.415  29.005  30.318  1.00  0.00     0.031 C 
ATOM     57  C   UNL A   1      41.980  31.694  30.580  1.00  0.00     0.029 A 
ATOM     58  C   UNL A   1      42.987  30.765  30.373  1.00  0.00     0.049 A 
ATOM     59  H   UNL A   1      42.855  28.817  29.573  1.00  0.00     0.167 HD
ATOM     60  C   UNL A   1      45.321  29.931  30.415  1.00  0.00     0.074 A 
ATOM     61  C   UNL A   1      46.736  30.082  30.684  1.00  0.00     0.031 C 
ATOM     62  C   UNL A   1      44.395  30.892  30.646  1.00  0.00     0.037 A 
BRANCH  49  63
ATOM     63  C   UNL A   1      38.647  29.285  29.056  1.00  0.00     0.057 A 
ATOM     64  C   UNL A   1      38.091  29.688  27.834  1.00  0.00     0.134 A 
ATOM     65  C   UNL A   1      37.793  29.236  30.166  1.00  0.00     0.134 A 
ATOM     66  F   UNL A   1      38.855  29.769  26.734  1.00  0.00    -0.206 F 
ATOM     67  C   UNL A   1      36.748  30.054  27.727  1.00  0.00     0.040 A 
ATOM     68  C   UNL A   1      36.442  29.573  30.065  1.00  0.00     0.040 A 
ATOM     69  F   UNL A   1      38.257  28.853  31.366  1.00  0.00    -0.206 F 
ATOM     70  C   UNL A   1      35.919  29.992  28.843  1.00  0.00     0.006 A 
ENDBRANCH  49  63
BRANCH  50  71
ATOM     71  C   UNL A   1      48.169  26.317  29.451  1.00  0.00     0.057 A 
ATOM     72  C   UNL A   1      48.717  25.738  30.600  1.00  0.00     0.134 A 
ATOM     73  C   UNL A   1      49.015  26.492  28.349  1.00  0.00     0.134 A 
ATOM     74  F   UNL A   1      47.961  25.563  31.694  1.00  0.00    -0.206 F 
ATOM     75  C   UNL A   1      50.060  25.365  30.662  1.00  0.00     0.040 A 
ATOM     76  C   UNL A   1      50.354  26.101  28.388  1.00  0.00     0.040 A 
ATOM     77  F   UNL A   1      48.548  27.035  27.215  1.00  0.00    -0.206 F 
ATOM     78  C   UNL A   1      50.883  25.543  29.551  1.00  0.00     0.006 A 
ENDBRANCH  50  71
BRANCH  62  79
ATOM     79  C   UNL A   1      44.875  32.177  31.254  1.00  0.00     0.057 A 
ATOM     80  C   UNL A   1      45.268  33.267  30.467  1.00  0.00     0.134 A 
ATOM     81  C   UNL A   1      44.902  32.339  32.645  1.00  0.00     0.134 A 
ATOM     82  F   UNL A   1      45.275  33.170  29.128  1.00  0.00    -0.206 F 
ATOM     83  C   UNL A   1      45.691  34.465  31.042  1.00  0.00     0.040 A 
ATOM     84  C   UNL A   1      45.300  33.540  33.232  1.00  0.00     0.040 A 
ATOM     85  F   UNL A   1      44.529  31.337  33.455  1.00  0.00    -0.206 F 
ATOM     86  C   UNL A   1      45.702  34.606  32.429  1.00  0.00     0.006 A 
ENDBRANCH  62  79
ENDBRANCH  36  37
ENDBRANCH  28  31
ENDBRANCH  26  27
ENDBRANCH  25  26
ENDBRANCH  24  25
ENDBRANCH   3  24
TORSDOF 18
ENDMDL
MODEL 3
REMARK VINA RESULT:      -9.8      3.110      7.262
REMARK SMILES C[C@H](Cc1cccs1)N(C)C(=O)[C@@H]([NH3+])CCC(=O)NCCCNC(=O)c1ccc(-c2c3nc(c(-c4c(F)cccc4F)c4ccc([nH]4)c(-c4c(F)cccc4F)c4nc(c(-c5c(F)cccc5F)c5ccc2[nH]5)C=C4)C=C3)cc1
REMARK SMILES IDX 17 1 18 2 19 3 16 5 15 6 13 7 11 8 12 9 9 10 10 11 2 12 1 13
REMARK SMILES IDX 3 14 4 15 5 16 8 17 6 18 7 19 14 20 20 24 21 25 22 26 23 27
REMARK SMILES IDX 24 28 25 30 26 31 27 32 79 33 28 34 78 35 29 36 30 37 31 38
REMARK SMILES IDX 72 39 32 40 77 41 71 42 73 43 33 44 76 45 70 46 69 47 34 49
REMARK SMILES IDX 60 50 43 51 59 52 44 53 47 54 58 55 74 56 45 57 46 58 57 60
REMARK SMILES IDX 75 61 48 62 35 63 36 64 41 65 37 66 38 67 40 68 42 69 39 70
REMARK SMILES IDX 61 71 62 72 67 73 63 74 64 75 66 76 68 77 65 78 49 79 50 80
REMARK SMILES IDX 55 81 51 82 52 83 54 84 56 85 53 86
REMARK H PARENT 19 4 14 21 14 22 14 23 23 29 73 48 47 59
REMARK Flexibility Score: inf
ROOT
ATOM      1  C   UNL A   1      37.420  23.259  25.839  1.00  0.00     0.220 C 
ATOM      2  O   UNL A   1      38.139  24.104  26.378  1.00  0.00    -0.275 OA
ATOM      3  N   UNL A   1      38.016  22.153  25.315  1.00  0.00    -0.356 N 
ATOM      4  H   UNL A   1      38.981  22.074  25.497  1.00  0.00     0.163 HD
ENDROOT
BRANCH   1   5
ATOM      5  C   UNL A   1      35.915  23.450  25.773  1.00  0.00     0.106 C 
BRANCH   5   6
ATOM      6  C   UNL A   1      35.133  22.461  26.648  1.00  0.00     0.085 C 
BRANCH   6   7
ATOM      7  C   UNL A   1      33.734  22.937  27.056  1.00  0.00     0.271 C 
BRANCH   7   8
ATOM      8  C   UNL A   1      32.974  23.782  25.994  1.00  0.00     0.280 C 
ATOM      9  O   UNL A   1      33.033  25.009  26.110  1.00  0.00    -0.268 OA
BRANCH   8  10
ATOM     10  N   UNL A   1      32.288  23.199  24.942  1.00  0.00    -0.338 N 
ATOM     11  C   UNL A   1      30.852  23.365  24.746  1.00  0.00     0.147 C 
BRANCH  10  12
ATOM     12  C   UNL A   1      32.963  22.224  24.029  1.00  0.00     0.087 C 
ATOM     13  C   UNL A   1      33.511  22.949  22.796  1.00  0.00     0.031 C 
BRANCH  12  14
ATOM     14  C   UNL A   1      32.214  20.884  23.750  1.00  0.00     0.071 C 
BRANCH  14  15
ATOM     15  C   UNL A   1      32.999  19.595  23.888  1.00  0.00     0.007 A 
ATOM     16  C   UNL A   1      34.136  19.319  24.625  1.00  0.00     0.015 A 
ATOM     17  S   UNL A   1      32.528  18.213  22.977  1.00  0.00    -0.149 S 
ATOM     18  C   UNL A   1      34.608  17.986  24.457  1.00  0.00     0.012 A 
ATOM     19  C   UNL A   1      33.829  17.279  23.574  1.00  0.00     0.065 A 
ENDBRANCH  14  15
ENDBRANCH  12  14
ENDBRANCH  10  12
ENDBRANCH   8  10
ENDBRANCH   7   8
BRANCH   7  20
ATOM     20  N   UNL A   1      32.892  21.839  27.567  1.00  0.00    -0.347 N 
ATOM     21  H   UNL A   1      32.982  21.785  28.582  1.00  0.00     0.345 HD
ATOM     22  H   UNL A   1      33.193  20.957  27.152  1.00  0.00     0.345 HD
ATOM     23  H   UNL A   1      31.918  22.015  27.321  1.00  0.00     0.345 HD
ENDBRANCH   7  20
ENDBRANCH   6   7
ENDBRANCH   5   6
ENDBRANCH   1   5
BRANCH   3  24
ATOM     24  C   UNL A   1      37.448  21.072  24.529  1.00  0.00     0.117 C 
BRANCH  24  25
ATOM     25  C   UNL A   1      38.187  19.763  24.784  1.00  0.00     0.042 C 
BRANCH  25  26
ATOM     26  C   UNL A   1      38.974  19.750  26.081  1.00  0.00     0.118 C 
BRANCH  26  27
ATOM     27  N   UNL A   1      40.144  18.889  26.002  1.00  0.00    -0.352 N 
ATOM     28  C   UNL A   1      41.486  19.185  26.035  1.00  0.00     0.251 C 
ATOM     29  H   UNL A   1      39.940  17.930  25.908  1.00  0.00     0.163 HD
ATOM     30  O   UNL A   1      42.296  18.307  25.751  1.00  0.00    -0.269 OA
BRANCH  28  31
ATOM     31  C   UNL A   1      41.977  20.539  26.398  1.00  0.00     0.039 A 
ATOM     32  C   UNL A   1      42.211  21.468  25.376  1.00  0.00     0.014 A 
ATOM     33  C   UNL A   1      42.272  20.891  27.716  1.00  0.00     0.014 A 
ATOM     34  C   UNL A   1      42.691  22.746  25.682  1.00  0.00     0.010 A 
ATOM     35  C   UNL A   1      42.639  22.196  28.031  1.00  0.00     0.010 A 
ATOM     36  C   UNL A   1      42.882  23.132  27.017  1.00  0.00    -0.014 A 
BRANCH  36  37
ATOM     37  C   UNL A   1      43.390  24.483  27.378  1.00  0.00     0.031 A 
ATOM     38  C   UNL A   1      42.428  25.550  27.837  1.00  0.00     0.074 A 
ATOM     39  C   UNL A   1      44.698  24.776  27.235  1.00  0.00     0.049 A 
ATOM     40  N   UNL A   1      42.653  26.813  28.096  1.00  0.00    -0.248 NA
ATOM     41  C   UNL A   1      41.020  25.151  27.990  1.00  0.00     0.031 C 
ATOM     42  C   UNL A   1      45.727  23.851  26.758  1.00  0.00     0.029 A 
ATOM     43  N   UNL A   1      45.382  25.943  27.467  1.00  0.00    -0.354 N 
ATOM     44  C   UNL A   1      41.415  27.360  28.412  1.00  0.00     0.074 A 
ATOM     45  C   UNL A   1      40.435  26.309  28.256  1.00  0.00     0.031 C 
ATOM     46  C   UNL A   1      46.916  24.477  26.758  1.00  0.00     0.029 A 
ATOM     47  C   UNL A   1      46.727  25.857  27.195  1.00  0.00     0.049 A 
ATOM     48  H   UNL A   1      44.951  26.763  27.798  1.00  0.00     0.167 HD
ATOM     49  C   UNL A   1      41.120  28.618  28.821  1.00  0.00     0.037 A 
ATOM     50  C   UNL A   1      47.696  26.787  27.284  1.00  0.00     0.037 A 
ATOM     51  C   UNL A   1      42.099  29.650  29.025  1.00  0.00     0.049 A 
ATOM     52  C   UNL A   1      47.348  28.171  27.757  1.00  0.00     0.074 A 
ATOM     53  C   UNL A   1      41.911  30.936  29.502  1.00  0.00     0.029 A 
ATOM     54  N   UNL A   1      43.454  29.512  28.769  1.00  0.00    -0.354 N 
ATOM     55  N   UNL A   1      46.181  28.657  28.106  1.00  0.00    -0.248 NA
ATOM     56  C   UNL A   1      48.453  29.135  27.856  1.00  0.00     0.031 C 
ATOM     57  C   UNL A   1      43.149  31.587  29.501  1.00  0.00     0.029 A 
ATOM     58  C   UNL A   1      44.114  30.693  29.065  1.00  0.00     0.049 A 
ATOM     59  H   UNL A   1      43.885  28.695  28.429  1.00  0.00     0.167 HD
ATOM     60  C   UNL A   1      46.415  29.970  28.492  1.00  0.00     0.074 A 
ATOM     61  C   UNL A   1      47.837  30.202  28.346  1.00  0.00     0.031 C 
ATOM     62  C   UNL A   1      45.532  30.901  28.926  1.00  0.00     0.037 A 
BRANCH  49  63
ATOM     63  C   UNL A   1      39.677  28.939  29.088  1.00  0.00     0.057 A 
ATOM     64  C   UNL A   1      38.818  29.386  28.075  1.00  0.00     0.134 A 
ATOM     65  C   UNL A   1      39.131  28.773  30.368  1.00  0.00     0.134 A 
ATOM     66  F   UNL A   1      39.279  29.579  26.830  1.00  0.00    -0.206 F 
ATOM     67  C   UNL A   1      37.479  29.683  28.330  1.00  0.00     0.040 A 
ATOM     68  C   UNL A   1      37.786  29.039  30.629  1.00  0.00     0.040 A 
ATOM     69  F   UNL A   1      39.895  28.341  31.383  1.00  0.00    -0.206 F 
ATOM     70  C   UNL A   1      36.958  29.504  29.609  1.00  0.00     0.006 A 
ENDBRANCH  49  63
BRANCH  50  71
ATOM     71  C   UNL A   1      49.099  26.435  26.943  1.00  0.00     0.057 A 
ATOM     72  C   UNL A   1      49.956  25.883  27.901  1.00  0.00     0.134 A 
ATOM     73  C   UNL A   1      49.617  26.650  25.661  1.00  0.00     0.134 A 
ATOM     74  F   UNL A   1      49.523  25.673  29.153  1.00  0.00    -0.206 F 
ATOM     75  C   UNL A   1      51.284  25.575  27.604  1.00  0.00     0.040 A 
ATOM     76  C   UNL A   1      50.936  26.323  25.342  1.00  0.00     0.040 A 
ATOM     77  F   UNL A   1      48.844  27.169  24.695  1.00  0.00    -0.206 F 
ATOM     78  C   UNL A   1      51.777  25.790  26.318  1.00  0.00     0.006 A 
ENDBRANCH  50  71
BRANCH  62  79
ATOM     79  C   UNL A   1      46.082  32.243  29.313  1.00  0.00     0.057 A 
ATOM     80  C   UNL A   1      46.530  32.511  30.612  1.00  0.00     0.134 A 
ATOM     81  C   UNL A   1      46.202  33.263  28.361  1.00  0.00     0.134 A 
ATOM     82  F   UNL A   1      46.430  31.578  31.571  1.00  0.00    -0.206 F 
ATOM     83  C   UNL A   1      47.061  33.755  30.956  1.00  0.00     0.040 A 
ATOM     84  C   UNL A   1      46.754  34.502  28.686  1.00  0.00     0.040 A 
ATOM     85  F   UNL A   1      45.800  33.067  27.097  1.00  0.00    -0.206 F 
ATOM     86  C   UNL A   1      47.179  34.753  29.989  1.00  0.00     0.006 A 
ENDBRANCH  62  79
ENDBRANCH  36  37
ENDBRANCH  28  31
ENDBRANCH  26  27
ENDBRANCH  25  26
ENDBRANCH  24  25
ENDBRANCH   3  24
TORSDOF 18
ENDMDL
