MODEL 1
REMARK VINA RESULT:     -12.1      0.000      0.000
REMARK SMILES COc1ccc(CCN2C(=O)CC[C@@H](C(=O)NCCCNC(=O)c3ccc(-c4c5nc(c(-c6c(F)cccc6F)c6ccc([nH]6)c(-c6c(F)cccc6F)c6nc(c(-c7c(F)cccc7F)c7ccc4[nH]7)C=C6)C=C5)cc3)[C@@H]2c2ccc(Cl)cc2)cc1OC
REMARK SMILES IDX 18 1 17 2 15 3 16 4 14 6 9 7 10 8 78 9 11 10 12 11 13 12
REMARK SMILES IDX 8 13 7 14 6 15 3 16 4 17 87 18 5 19 86 20 2 21 1 22 88 23
REMARK SMILES IDX 89 24 79 25 80 26 85 27 81 28 84 29 82 30 83 31 19 32 20 33
REMARK SMILES IDX 21 34 22 35 23 37 24 38 25 39 77 40 26 41 76 42 27 43 28 44
REMARK SMILES IDX 29 45 70 46 30 47 75 48 69 49 71 50 31 51 74 52 68 53 67 54
REMARK SMILES IDX 32 56 58 57 41 58 57 59 42 60 45 61 56 62 72 63 43 64 44 65
REMARK SMILES IDX 55 67 73 68 46 69 33 70 34 71 39 72 35 73 36 74 38 75 40 76
REMARK SMILES IDX 37 77 59 78 60 79 65 80 61 81 62 82 64 83 66 84 63 85 47 86
REMARK SMILES IDX 48 87 53 88 49 89 50 90 52 91 54 92 51 93
REMARK H PARENT 17 5 21 36 71 55 45 66
REMARK Flexibility Score: inf
ROOT
ATOM      1  C   UNL A   1      38.581  22.701  25.963  1.00  0.00     0.117 C 
ENDROOT
BRANCH   1   2
ATOM      2  N   UNL A   1      37.847  22.632  24.723  1.00  0.00    -0.356 N 
ATOM      3  C   UNL A   1      36.732  23.254  24.268  1.00  0.00     0.225 C 
ATOM      4  O   UNL A   1      36.552  23.120  23.048  1.00  0.00    -0.275 OA
ATOM      5  H   UNL A   1      38.236  22.003  24.074  1.00  0.00     0.163 HD
BRANCH   3   6
ATOM      6  C   UNL A   1      35.644  23.965  25.105  1.00  0.00     0.106 C 
ATOM      7  N   UNL A   1      33.560  23.724  23.728  1.00  0.00    -0.335 N 
ATOM      8  C   UNL A   1      33.290  22.474  24.284  1.00  0.00     0.223 C 
ATOM      9  C   UNL A   1      34.443  24.660  24.450  1.00  0.00     0.128 C 
ATOM     10  O   UNL A   1      32.453  21.711  23.798  1.00  0.00    -0.275 OA
ATOM     11  C   UNL A   1      34.128  21.997  25.470  1.00  0.00     0.101 C 
ATOM     12  C   UNL A   1      35.068  22.990  26.133  1.00  0.00     0.026 C 
BRANCH   7  13
ATOM     13  C   UNL A   1      32.967  24.057  22.391  1.00  0.00     0.125 C 
BRANCH  13  14
ATOM     14  C   UNL A   1      33.212  25.428  21.711  1.00  0.00     0.057 C 
BRANCH  14  15
ATOM     15  C   UNL A   1      32.467  26.669  22.179  1.00  0.00    -0.042 A 
ATOM     16  C   UNL A   1      31.170  28.744  23.569  1.00  0.00     0.160 A 
ATOM     17  C   UNL A   1      32.479  28.899  23.149  1.00  0.00     0.051 A 
ATOM     18  C   UNL A   1      30.420  27.664  23.100  1.00  0.00     0.160 A 
ATOM     19  C   UNL A   1      33.081  27.900  22.391  1.00  0.00     0.008 A 
ATOM     20  C   UNL A   1      31.091  26.600  22.470  1.00  0.00     0.054 A 
BRANCH  16  21
ATOM     21  O   UNL A   1      30.672  29.706  24.405  1.00  0.00    -0.493 OA
ATOM     22  C   UNL A   1      29.706  30.505  23.712  1.00  0.00     0.278 C 
ENDBRANCH  16  21
BRANCH  18  23
ATOM     23  O   UNL A   1      29.063  27.518  23.220  1.00  0.00    -0.493 OA
ATOM     24  C   UNL A   1      28.624  26.387  23.978  1.00  0.00     0.278 C 
ENDBRANCH  18  23
ENDBRANCH  14  15
ENDBRANCH  13  14
ENDBRANCH   7  13
BRANCH   9  25
ATOM     25  C   UNL A   1      33.681  25.611  25.391  1.00  0.00    -0.025 A 
ATOM     26  C   UNL A   1      32.351  25.386  25.778  1.00  0.00     0.007 A 
ATOM     27  C   UNL A   1      34.290  26.819  25.789  1.00  0.00     0.007 A 
ATOM     28  C   UNL A   1      31.631  26.360  26.477  1.00  0.00     0.021 A 
ATOM     29  C   UNL A   1      33.577  27.785  26.504  1.00  0.00     0.021 A 
ATOM     30  C   UNL A   1      32.243  27.557  26.829  1.00  0.00     0.041 A 
ATOM     31  Cl  UNL A   1      31.343  28.770  27.651  1.00  0.00    -0.084 Cl
ENDBRANCH   9  25
ENDBRANCH   3   6
ENDBRANCH   1   2
BRANCH   1  32
ATOM     32  C   UNL A   1      39.159  21.389  26.447  1.00  0.00     0.042 C 
BRANCH  32  33
ATOM     33  C   UNL A   1      39.174  20.300  25.398  1.00  0.00     0.118 C 
BRANCH  33  34
ATOM     34  N   UNL A   1      40.110  19.225  25.709  1.00  0.00    -0.352 N 
ATOM     35  C   UNL A   1      41.419  19.280  26.122  1.00  0.00     0.251 C 
ATOM     36  H   UNL A   1      39.747  18.317  25.605  1.00  0.00     0.163 HD
ATOM     37  O   UNL A   1      42.087  18.247  26.169  1.00  0.00    -0.269 OA
BRANCH  35  38
ATOM     38  C   UNL A   1      42.038  20.574  26.483  1.00  0.00     0.039 A 
ATOM     39  C   UNL A   1      42.454  21.438  25.467  1.00  0.00     0.014 A 
ATOM     40  C   UNL A   1      42.204  20.941  27.820  1.00  0.00     0.014 A 
ATOM     41  C   UNL A   1      42.953  22.700  25.795  1.00  0.00     0.010 A 
ATOM     42  C   UNL A   1      42.583  22.237  28.140  1.00  0.00     0.010 A 
ATOM     43  C   UNL A   1      42.975  23.128  27.132  1.00  0.00    -0.014 A 
BRANCH  43  44
ATOM     44  C   UNL A   1      43.418  24.494  27.506  1.00  0.00     0.031 A 
ATOM     45  C   UNL A   1      42.403  25.532  27.902  1.00  0.00     0.074 A 
ATOM     46  C   UNL A   1      44.723  24.822  27.417  1.00  0.00     0.049 A 
ATOM     47  N   UNL A   1      42.581  26.797  28.186  1.00  0.00    -0.248 NA
ATOM     48  C   UNL A   1      40.996  25.100  27.955  1.00  0.00     0.031 C 
ATOM     49  C   UNL A   1      45.795  23.920  26.991  1.00  0.00     0.029 A 
ATOM     50  N   UNL A   1      45.366  26.006  27.672  1.00  0.00    -0.354 N 
ATOM     51  C   UNL A   1      41.313  27.310  28.433  1.00  0.00     0.074 A 
ATOM     52  C   UNL A   1      40.369  26.240  28.201  1.00  0.00     0.031 C 
ATOM     53  C   UNL A   1      46.966  24.575  27.045  1.00  0.00     0.029 A 
ATOM     54  C   UNL A   1      46.724  25.950  27.466  1.00  0.00     0.049 A 
ATOM     55  H   UNL A   1      44.900  26.818  27.975  1.00  0.00     0.167 HD
ATOM     56  C   UNL A   1      40.968  28.552  28.847  1.00  0.00     0.037 A 
ATOM     57  C   UNL A   1      47.664  26.904  27.593  1.00  0.00     0.037 A 
ATOM     58  C   UNL A   1      41.913  29.607  29.100  1.00  0.00     0.049 A 
ATOM     59  C   UNL A   1      47.254  28.280  28.042  1.00  0.00     0.074 A 
ATOM     60  C   UNL A   1      41.672  30.883  29.578  1.00  0.00     0.029 A 
ATOM     61  N   UNL A   1      43.281  29.507  28.894  1.00  0.00    -0.354 N 
ATOM     62  N   UNL A   1      46.060  28.730  28.342  1.00  0.00    -0.248 NA
ATOM     63  C   UNL A   1      48.324  29.278  28.177  1.00  0.00     0.031 C 
ATOM     64  C   UNL A   1      42.888  31.573  29.610  1.00  0.00     0.029 A 
ATOM     65  C   UNL A   1      43.894  30.708  29.210  1.00  0.00     0.049 A 
ATOM     66  H   UNL A   1      43.747  28.702  28.571  1.00  0.00     0.167 HD
ATOM     67  C   UNL A   1      46.238  30.053  28.729  1.00  0.00     0.074 A 
ATOM     68  C   UNL A   1      47.658  30.325  28.642  1.00  0.00     0.031 C 
ATOM     69  C   UNL A   1      45.310  30.960  29.122  1.00  0.00     0.037 A 
BRANCH  56  70
ATOM     70  C   UNL A   1      39.507  28.832  29.054  1.00  0.00     0.057 A 
ATOM     71  C   UNL A   1      38.886  28.648  30.297  1.00  0.00     0.134 A 
ATOM     72  C   UNL A   1      38.715  29.320  28.007  1.00  0.00     0.134 A 
ATOM     73  F   UNL A   1      39.582  28.171  31.341  1.00  0.00    -0.206 F 
ATOM     74  C   UNL A   1      37.527  28.909  30.484  1.00  0.00     0.040 A 
ATOM     75  C   UNL A   1      37.362  29.615  28.188  1.00  0.00     0.040 A 
ATOM     76  F   UNL A   1      39.244  29.525  26.791  1.00  0.00    -0.206 F 
ATOM     77  C   UNL A   1      36.763  29.401  29.428  1.00  0.00     0.006 A 
ENDBRANCH  56  70
BRANCH  57  78
ATOM     78  C   UNL A   1      49.089  26.589  27.314  1.00  0.00     0.057 A 
ATOM     79  C   UNL A   1      49.641  26.807  26.046  1.00  0.00     0.134 A 
ATOM     80  C   UNL A   1      49.930  26.054  28.297  1.00  0.00     0.134 A 
ATOM     81  F   UNL A   1      48.884  27.301  25.056  1.00  0.00    -0.206 F 
ATOM     82  C   UNL A   1      50.969  26.483  25.759  1.00  0.00     0.040 A 
ATOM     83  C   UNL A   1      51.266  25.753  28.034  1.00  0.00     0.040 A 
ATOM     84  F   UNL A   1      49.465  25.830  29.536  1.00  0.00    -0.206 F 
ATOM     85  C   UNL A   1      51.786  25.959  26.758  1.00  0.00     0.006 A 
ENDBRANCH  57  78
BRANCH  69  86
ATOM     86  C   UNL A   1      45.806  32.318  29.526  1.00  0.00     0.057 A 
ATOM     87  C   UNL A   1      45.897  33.377  28.613  1.00  0.00     0.134 A 
ATOM     88  C   UNL A   1      46.160  32.580  30.856  1.00  0.00     0.134 A 
ATOM     89  F   UNL A   1      45.585  33.191  27.321  1.00  0.00    -0.206 F 
ATOM     90  C   UNL A   1      46.349  34.639  29.003  1.00  0.00     0.040 A 
ATOM     91  C   UNL A   1      46.583  33.845  31.264  1.00  0.00     0.040 A 
ATOM     92  F   UNL A   1      46.086  31.613  31.784  1.00  0.00    -0.206 F 
ATOM     93  C   UNL A   1      46.685  34.877  30.334  1.00  0.00     0.006 A 
ENDBRANCH  69  86
ENDBRANCH  43  44
ENDBRANCH  35  38
ENDBRANCH  33  34
ENDBRANCH  32  33
ENDBRANCH   1  32
TORSDOF 16
ENDMDL
MODEL 2
REMARK VINA RESULT:     -12.1      0.552      5.909
REMARK SMILES COc1ccc(CCN2C(=O)CC[C@@H](C(=O)NCCCNC(=O)c3ccc(-c4c5nc(c(-c6c(F)cccc6F)c6ccc([nH]6)c(-c6c(F)cccc6F)c6nc(c(-c7c(F)cccc7F)c7ccc4[nH]7)C=C6)C=C5)cc3)[C@@H]2c2ccc(Cl)cc2)cc1OC
REMARK SMILES IDX 18 1 17 2 15 3 16 4 14 6 9 7 10 8 78 9 11 10 12 11 13 12
REMARK SMILES IDX 8 13 7 14 6 15 3 16 4 17 87 18 5 19 86 20 2 21 1 22 88 23
REMARK SMILES IDX 89 24 79 25 80 26 85 27 81 28 84 29 82 30 83 31 19 32 20 33
REMARK SMILES IDX 21 34 22 35 23 37 24 38 25 39 77 40 26 41 76 42 27 43 28 44
REMARK SMILES IDX 29 45 70 46 30 47 75 48 69 49 71 50 31 51 74 52 68 53 67 54
REMARK SMILES IDX 32 56 58 57 41 58 57 59 42 60 45 61 56 62 72 63 43 64 44 65
REMARK SMILES IDX 55 67 73 68 46 69 33 70 34 71 39 72 35 73 36 74 38 75 40 76
REMARK SMILES IDX 37 77 59 78 60 79 65 80 61 81 62 82 64 83 66 84 63 85 47 86
REMARK SMILES IDX 48 87 53 88 49 89 50 90 52 91 54 92 51 93
REMARK H PARENT 17 5 21 36 71 55 45 66
REMARK Flexibility Score: inf
ROOT
ATOM      1  C   UNL A   1      38.549  22.606  25.837  1.00  0.00     0.117 C 
ENDROOT
BRANCH   1   2
ATOM      2  N   UNL A   1      37.813  22.549  24.597  1.00  0.00    -0.356 N 
ATOM      3  C   UNL A   1      36.696  23.172  24.150  1.00  0.00     0.225 C 
ATOM      4  O   UNL A   1      36.515  23.052  22.929  1.00  0.00    -0.275 OA
ATOM      5  H   UNL A   1      38.204  21.928  23.941  1.00  0.00     0.163 HD
BRANCH   3   6
ATOM      6  C   UNL A   1      35.606  23.870  24.997  1.00  0.00     0.106 C 
ATOM      7  N   UNL A   1      33.528  23.660  23.608  1.00  0.00    -0.335 N 
ATOM      8  C   UNL A   1      33.252  22.401  24.139  1.00  0.00     0.223 C 
ATOM      9  C   UNL A   1      34.410  24.581  24.350  1.00  0.00     0.128 C 
ATOM     10  O   UNL A   1      32.416  21.649  23.637  1.00  0.00    -0.275 OA
ATOM     11  C   UNL A   1      34.085  21.900  25.320  1.00  0.00     0.101 C 
ATOM     12  C   UNL A   1      35.025  22.879  26.004  1.00  0.00     0.026 C 
BRANCH   7  13
ATOM     13  C   UNL A   1      32.940  24.019  22.274  1.00  0.00     0.125 C 
BRANCH  13  14
ATOM     14  C   UNL A   1      33.197  25.399  21.617  1.00  0.00     0.057 C 
BRANCH  14  15
ATOM     15  C   UNL A   1      32.477  26.642  22.118  1.00  0.00    -0.042 A 
ATOM     16  C   UNL A   1      31.224  28.706  23.561  1.00  0.00     0.160 A 
ATOM     17  C   UNL A   1      32.533  28.847  23.140  1.00  0.00     0.051 A 
ATOM     18  C   UNL A   1      30.452  27.652  23.069  1.00  0.00     0.160 A 
ATOM     19  C   UNL A   1      33.115  27.856  22.356  1.00  0.00     0.008 A 
ATOM     20  C   UNL A   1      31.101  26.591  22.412  1.00  0.00     0.054 A 
BRANCH  16  21
ATOM     21  O   UNL A   1      30.746  29.658  24.422  1.00  0.00    -0.493 OA
ATOM     22  C   UNL A   1      29.837  30.526  23.736  1.00  0.00     0.278 C 
ENDBRANCH  16  21
BRANCH  18  23
ATOM     23  O   UNL A   1      29.093  27.528  23.191  1.00  0.00    -0.493 OA
ATOM     24  C   UNL A   1      28.637  26.428  23.982  1.00  0.00     0.278 C 
ENDBRANCH  18  23
ENDBRANCH  14  15
ENDBRANCH  13  14
ENDBRANCH   7  13
BRANCH   9  25
ATOM     25  C   UNL A   1      33.647  25.516  25.305  1.00  0.00    -0.025 A 
ATOM     26  C   UNL A   1      32.308  25.300  25.666  1.00  0.00     0.007 A 
ATOM     27  C   UNL A   1      34.267  26.704  25.745  1.00  0.00     0.007 A 
ATOM     28  C   UNL A   1      31.591  26.264  26.381  1.00  0.00     0.021 A 
ATOM     29  C   UNL A   1      33.556  27.660  26.476  1.00  0.00     0.021 A 
ATOM     30  C   UNL A   1      32.214  27.442  26.775  1.00  0.00     0.041 A 
ATOM     31  Cl  UNL A   1      31.318  28.645  27.617  1.00  0.00    -0.084 Cl
ENDBRANCH   9  25
ENDBRANCH   3   6
ENDBRANCH   1   2
BRANCH   1  32
ATOM     32  C   UNL A   1      39.020  21.272  26.373  1.00  0.00     0.042 C 
BRANCH  32  33
ATOM     33  C   UNL A   1      39.111  20.187  25.324  1.00  0.00     0.118 C 
BRANCH  33  34
ATOM     34  N   UNL A   1      40.118  19.179  25.637  1.00  0.00    -0.352 N 
ATOM     35  C   UNL A   1      41.411  19.323  26.079  1.00  0.00     0.251 C 
ATOM     36  H   UNL A   1      39.826  18.248  25.510  1.00  0.00     0.163 HD
ATOM     37  O   UNL A   1      42.153  18.342  26.122  1.00  0.00    -0.269 OA
BRANCH  35  38
ATOM     38  C   UNL A   1      41.925  20.652  26.474  1.00  0.00     0.039 A 
ATOM     39  C   UNL A   1      42.329  21.550  25.483  1.00  0.00     0.014 A 
ATOM     40  C   UNL A   1      42.002  21.020  27.819  1.00  0.00     0.014 A 
ATOM     41  C   UNL A   1      42.727  22.840  25.840  1.00  0.00     0.010 A 
ATOM     42  C   UNL A   1      42.278  22.335  28.163  1.00  0.00     0.010 A 
ATOM     43  C   UNL A   1      42.657  23.258  27.178  1.00  0.00    -0.014 A 
BRANCH  43  44
ATOM     44  C   UNL A   1      42.990  24.648  27.578  1.00  0.00     0.031 A 
ATOM     45  C   UNL A   1      44.428  25.077  27.684  1.00  0.00     0.074 A 
ATOM     46  C   UNL A   1      42.002  25.500  27.918  1.00  0.00     0.049 A 
ATOM     47  N   UNL A   1      44.923  26.218  28.092  1.00  0.00    -0.248 NA
ATOM     48  C   UNL A   1      45.448  24.081  27.315  1.00  0.00     0.031 C 
ATOM     49  C   UNL A   1      40.571  25.186  27.910  1.00  0.00     0.029 A 
ATOM     50  N   UNL A   1      42.052  26.803  28.344  1.00  0.00    -0.354 N 
ATOM     51  C   UNL A   1      46.304  26.069  28.042  1.00  0.00     0.074 A 
ATOM     52  C   UNL A   1      46.570  24.708  27.632  1.00  0.00     0.031 C 
ATOM     53  C   UNL A   1      39.880  26.275  28.281  1.00  0.00     0.029 A 
ATOM     54  C   UNL A   1      40.816  27.349  28.595  1.00  0.00     0.049 A 
ATOM     55  H   UNL A   1      42.894  27.300  28.457  1.00  0.00     0.167 HD
ATOM     56  C   UNL A   1      47.265  26.991  28.286  1.00  0.00     0.037 A 
ATOM     57  C   UNL A   1      40.478  28.574  29.037  1.00  0.00     0.037 A 
ATOM     58  C   UNL A   1      46.995  28.351  28.671  1.00  0.00     0.049 A 
ATOM     59  C   UNL A   1      41.564  29.577  29.314  1.00  0.00     0.074 A 
ATOM     60  C   UNL A   1      47.894  29.380  28.885  1.00  0.00     0.029 A 
ATOM     61  N   UNL A   1      45.729  28.870  28.901  1.00  0.00    -0.354 N 
ATOM     62  N   UNL A   1      42.863  29.444  29.193  1.00  0.00    -0.248 NA
ATOM     63  C   UNL A   1      41.137  30.902  29.781  1.00  0.00     0.031 C 
ATOM     64  C   UNL A   1      47.176  30.507  29.297  1.00  0.00     0.029 A 
ATOM     65  C   UNL A   1      45.826  30.198  29.281  1.00  0.00     0.049 A 
ATOM     66  H   UNL A   1      44.887  28.368  28.807  1.00  0.00     0.167 HD
ATOM     67  C   UNL A   1      43.405  30.675  29.540  1.00  0.00     0.074 A 
ATOM     68  C   UNL A   1      42.293  31.546  29.859  1.00  0.00     0.031 C 
ATOM     69  C   UNL A   1      44.707  31.051  29.589  1.00  0.00     0.037 A 
BRANCH  56  70
ATOM     70  C   UNL A   1      48.695  26.557  28.139  1.00  0.00     0.057 A 
ATOM     71  C   UNL A   1      49.427  26.040  29.217  1.00  0.00     0.134 A 
ATOM     72  C   UNL A   1      49.341  26.629  26.899  1.00  0.00     0.134 A 
ATOM     73  F   UNL A   1      48.874  25.956  30.437  1.00  0.00    -0.206 F 
ATOM     74  C   UNL A   1      50.757  25.639  29.075  1.00  0.00     0.040 A 
ATOM     75  C   UNL A   1      50.661  26.201  26.736  1.00  0.00     0.040 A 
ATOM     76  F   UNL A   1      48.700  27.108  25.822  1.00  0.00    -0.206 F 
ATOM     77  C   UNL A   1      51.375  25.712  27.828  1.00  0.00     0.006 A 
ENDBRANCH  56  70
BRANCH  57  78
ATOM     78  C   UNL A   1      39.048  28.930  29.225  1.00  0.00     0.057 A 
ATOM     79  C   UNL A   1      38.296  29.474  28.176  1.00  0.00     0.134 A 
ATOM     80  C   UNL A   1      38.401  28.748  30.453  1.00  0.00     0.134 A 
ATOM     81  F   UNL A   1      38.862  29.688  26.980  1.00  0.00    -0.206 F 
ATOM     82  C   UNL A   1      36.961  29.845  28.348  1.00  0.00     0.040 A 
ATOM     83  C   UNL A   1      37.059  29.088  30.631  1.00  0.00     0.040 A 
ATOM     84  F   UNL A   1      39.062  28.224  31.495  1.00  0.00    -0.206 F 
ATOM     85  C   UNL A   1      36.338  29.647  29.578  1.00  0.00     0.006 A 
ENDBRANCH  57  78
BRANCH  69  86
ATOM     86  C   UNL A   1      44.996  32.476  29.964  1.00  0.00     0.057 A 
ATOM     87  C   UNL A   1      45.253  32.859  31.287  1.00  0.00     0.134 A 
ATOM     88  C   UNL A   1      45.056  33.472  28.980  1.00  0.00     0.134 A 
ATOM     89  F   UNL A   1      45.199  31.956  32.279  1.00  0.00    -0.206 F 
ATOM     90  C   UNL A   1      45.532  34.185  31.622  1.00  0.00     0.040 A 
ATOM     91  C   UNL A   1      45.364  34.795  29.298  1.00  0.00     0.040 A 
ATOM     92  F   UNL A   1      44.830  33.172  27.692  1.00  0.00    -0.206 F 
ATOM     93  C   UNL A   1      45.596  35.156  30.624  1.00  0.00     0.006 A 
ENDBRANCH  69  86
ENDBRANCH  43  44
ENDBRANCH  35  38
ENDBRANCH  33  34
ENDBRANCH  32  33
ENDBRANCH   1  32
TORSDOF 16
ENDMDL
MODEL 3
REMARK VINA RESULT:     -12.0      1.383      6.107
REMARK SMILES COc1ccc(CCN2C(=O)CC[C@@H](C(=O)NCCCNC(=O)c3ccc(-c4c5nc(c(-c6c(F)cccc6F)c6ccc([nH]6)c(-c6c(F)cccc6F)c6nc(c(-c7c(F)cccc7F)c7ccc4[nH]7)C=C6)C=C5)cc3)[C@@H]2c2ccc(Cl)cc2)cc1OC
REMARK SMILES IDX 18 1 17 2 15 3 16 4 14 6 9 7 10 8 78 9 11 10 12 11 13 12
REMARK SMILES IDX 8 13 7 14 6 15 3 16 4 17 87 18 5 19 86 20 2 21 1 22 88 23
REMARK SMILES IDX 89 24 79 25 80 26 85 27 81 28 84 29 82 30 83 31 19 32 20 33
REMARK SMILES IDX 21 34 22 35 23 37 24 38 25 39 77 40 26 41 76 42 27 43 28 44
REMARK SMILES IDX 29 45 70 46 30 47 75 48 69 49 71 50 31 51 74 52 68 53 67 54
REMARK SMILES IDX 32 56 58 57 41 58 57 59 42 60 45 61 56 62 72 63 43 64 44 65
REMARK SMILES IDX 55 67 73 68 46 69 33 70 34 71 39 72 35 73 36 74 38 75 40 76
REMARK SMILES IDX 37 77 59 78 60 79 65 80 61 81 62 82 64 83 66 84 63 85 47 86
REMARK SMILES IDX 48 87 53 88 49 89 50 90 52 91 54 92 51 93
REMARK H PARENT 17 5 21 36 71 55 45 66
REMARK Flexibility Score: inf
ROOT
ATOM      1  C   UNL A   1      37.904  21.631  25.699  1.00  0.00     0.117 C 
ENDROOT
BRANCH   1   2
ATOM      2  N   UNL A   1      37.387  22.005  24.404  1.00  0.00    -0.356 N 
ATOM      3  C   UNL A   1      36.493  22.937  23.995  1.00  0.00     0.225 C 
ATOM      4  O   UNL A   1      36.499  23.126  22.769  1.00  0.00    -0.275 OA
ATOM      5  H   UNL A   1      37.760  21.471  23.667  1.00  0.00     0.163 HD
BRANCH   3   6
ATOM      6  C   UNL A   1      35.424  23.656  24.851  1.00  0.00     0.106 C 
ATOM      7  N   UNL A   1      33.386  23.678  23.389  1.00  0.00    -0.335 N 
ATOM      8  C   UNL A   1      33.007  22.410  23.829  1.00  0.00     0.223 C 
ATOM      9  C   UNL A   1      34.302  24.487  24.215  1.00  0.00     0.128 C 
ATOM     10  O   UNL A   1      32.139  21.752  23.255  1.00  0.00    -0.275 OA
ATOM     11  C   UNL A   1      33.763  21.780  25.000  1.00  0.00     0.101 C 
ATOM     12  C   UNL A   1      34.742  22.646  25.774  1.00  0.00     0.026 C 
BRANCH   7  13
ATOM     13  C   UNL A   1      32.870  24.160  22.064  1.00  0.00     0.125 C 
BRANCH  13  14
ATOM     14  C   UNL A   1      33.183  25.584  21.539  1.00  0.00     0.057 C 
BRANCH  14  15
ATOM     15  C   UNL A   1      32.439  26.792  22.086  1.00  0.00    -0.042 A 
ATOM     16  C   UNL A   1      31.132  28.768  23.605  1.00  0.00     0.160 A 
ATOM     17  C   UNL A   1      32.449  28.942  23.222  1.00  0.00     0.051 A 
ATOM     18  C   UNL A   1      30.383  27.733  23.042  1.00  0.00     0.160 A 
ATOM     19  C   UNL A   1      33.058  27.998  22.401  1.00  0.00     0.008 A 
ATOM     20  C   UNL A   1      31.057  26.714  22.346  1.00  0.00     0.054 A 
BRANCH  16  21
ATOM     21  O   UNL A   1      30.626  29.669  24.502  1.00  0.00    -0.493 OA
ATOM     22  C   UNL A   1      29.798  30.622  23.825  1.00  0.00     0.278 C 
ENDBRANCH  16  21
BRANCH  18  23
ATOM     23  O   UNL A   1      29.022  27.591  23.126  1.00  0.00    -0.493 OA
ATOM     24  C   UNL A   1      28.559  26.529  23.963  1.00  0.00     0.278 C 
ENDBRANCH  18  23
ENDBRANCH  14  15
ENDBRANCH  13  14
ENDBRANCH   7  13
BRANCH   9  25
ATOM     25  C   UNL A   1      33.571  25.412  25.205  1.00  0.00    -0.025 A 
ATOM     26  C   UNL A   1      32.225  25.228  25.560  1.00  0.00     0.007 A 
ATOM     27  C   UNL A   1      34.231  26.561  25.689  1.00  0.00     0.007 A 
ATOM     28  C   UNL A   1      31.542  26.190  26.311  1.00  0.00     0.021 A 
ATOM     29  C   UNL A   1      33.553  27.512  26.456  1.00  0.00     0.021 A 
ATOM     30  C   UNL A   1      32.205  27.330  26.747  1.00  0.00     0.041 A 
ATOM     31  Cl  UNL A   1      31.351  28.531  27.634  1.00  0.00    -0.084 Cl
ENDBRANCH   9  25
ENDBRANCH   3   6
ENDBRANCH   1   2
BRANCH   1  32
ATOM     32  C   UNL A   1      39.378  21.295  25.735  1.00  0.00     0.042 C 
BRANCH  32  33
ATOM     33  C   UNL A   1      39.693  19.989  26.432  1.00  0.00     0.118 C 
BRANCH  33  34
ATOM     34  N   UNL A   1      40.891  19.342  25.909  1.00  0.00    -0.352 N 
ATOM     35  C   UNL A   1      42.173  19.818  25.783  1.00  0.00     0.251 C 
ATOM     36  H   UNL A   1      40.760  18.418  25.598  1.00  0.00     0.163 HD
ATOM     37  O   UNL A   1      43.007  19.163  25.158  1.00  0.00    -0.269 OA
BRANCH  35  38
ATOM     38  C   UNL A   1      42.550  21.123  26.367  1.00  0.00     0.039 A 
ATOM     39  C   UNL A   1      42.923  22.168  25.517  1.00  0.00     0.014 A 
ATOM     40  C   UNL A   1      42.530  21.324  27.748  1.00  0.00     0.014 A 
ATOM     41  C   UNL A   1      43.190  23.431  26.051  1.00  0.00     0.010 A 
ATOM     42  C   UNL A   1      42.674  22.603  28.265  1.00  0.00     0.010 A 
ATOM     43  C   UNL A   1      43.019  23.670  27.423  1.00  0.00    -0.014 A 
BRANCH  43  44
ATOM     44  C   UNL A   1      43.210  25.021  28.009  1.00  0.00     0.031 A 
ATOM     45  C   UNL A   1      44.569  25.445  28.495  1.00  0.00     0.074 A 
ATOM     46  C   UNL A   1      42.148  25.835  28.170  1.00  0.00     0.049 A 
ATOM     47  N   UNL A   1      44.923  26.547  29.105  1.00  0.00    -0.248 NA
ATOM     48  C   UNL A   1      45.673  24.489  28.299  1.00  0.00     0.031 C 
ATOM     49  C   UNL A   1      40.770  25.516  27.791  1.00  0.00     0.029 A 
ATOM     50  N   UNL A   1      42.061  27.095  28.705  1.00  0.00    -0.354 N 
ATOM     51  C   UNL A   1      46.278  26.409  29.378  1.00  0.00     0.074 A 
ATOM     52  C   UNL A   1      46.670  25.092  28.930  1.00  0.00     0.031 C 
ATOM     53  C   UNL A   1      39.982  26.565  28.075  1.00  0.00     0.029 A 
ATOM     54  C   UNL A   1      40.788  27.611  28.695  1.00  0.00     0.049 A 
ATOM     55  H   UNL A   1      42.838  27.584  29.060  1.00  0.00     0.167 HD
ATOM     56  C   UNL A   1      47.129  27.310  29.924  1.00  0.00     0.037 A 
ATOM     57  C   UNL A   1      40.322  28.791  29.145  1.00  0.00     0.037 A 
ATOM     58  C   UNL A   1      46.739  28.630  30.345  1.00  0.00     0.049 A 
ATOM     59  C   UNL A   1      41.284  29.771  29.760  1.00  0.00     0.074 A 
ATOM     60  C   UNL A   1      47.534  29.640  30.857  1.00  0.00     0.029 A 
ATOM     61  N   UNL A   1      45.443  29.121  30.306  1.00  0.00    -0.354 N 
ATOM     62  N   UNL A   1      42.576  29.654  29.945  1.00  0.00    -0.248 NA
ATOM     63  C   UNL A   1      40.723  31.048  30.221  1.00  0.00     0.031 C 
ATOM     64  C   UNL A   1      46.710  30.723  31.177  1.00  0.00     0.029 A 
ATOM     65  C   UNL A   1      45.412  30.410  30.810  1.00  0.00     0.049 A 
ATOM     66  H   UNL A   1      44.661  28.625  29.970  1.00  0.00     0.167 HD
ATOM     67  C   UNL A   1      42.988  30.853  30.516  1.00  0.00     0.074 A 
ATOM     68  C   UNL A   1      41.810  31.687  30.629  1.00  0.00     0.031 C 
ATOM     69  C   UNL A   1      44.230  31.228  30.910  1.00  0.00     0.037 A 
BRANCH  56  70
ATOM     70  C   UNL A   1      48.563  26.897  30.090  1.00  0.00     0.057 A 
ATOM     71  C   UNL A   1      49.533  27.180  29.119  1.00  0.00     0.134 A 
ATOM     72  C   UNL A   1      48.987  26.234  31.248  1.00  0.00     0.134 A 
ATOM     73  F   UNL A   1      49.194  27.802  27.979  1.00  0.00    -0.206 F 
ATOM     74  C   UNL A   1      50.865  26.792  29.278  1.00  0.00     0.040 A 
ATOM     75  C   UNL A   1      50.323  25.869  31.434  1.00  0.00     0.040 A 
ATOM     76  F   UNL A   1      48.114  25.935  32.222  1.00  0.00    -0.206 F 
ATOM     77  C   UNL A   1      51.264  26.140  30.444  1.00  0.00     0.006 A 
ENDBRANCH  56  70
BRANCH  57  78
ATOM     78  C   UNL A   1      38.880  29.123  29.012  1.00  0.00     0.057 A 
ATOM     79  C   UNL A   1      38.013  29.023  30.106  1.00  0.00     0.134 A 
ATOM     80  C   UNL A   1      38.331  29.537  27.792  1.00  0.00     0.134 A 
ATOM     81  F   UNL A   1      38.473  28.616  31.298  1.00  0.00    -0.206 F 
ATOM     82  C   UNL A   1      36.649  29.299  29.988  1.00  0.00     0.040 A 
ATOM     83  C   UNL A   1      36.975  29.844  27.666  1.00  0.00     0.040 A 
ATOM     84  F   UNL A   1      39.110  29.663  26.707  1.00  0.00    -0.206 F 
ATOM     85  C   UNL A   1      36.128  29.715  28.765  1.00  0.00     0.006 A 
ENDBRANCH  57  78
BRANCH  69  86
ATOM     86  C   UNL A   1      44.384  32.616  31.463  1.00  0.00     0.057 A 
ATOM     87  C   UNL A   1      44.295  32.882  32.835  1.00  0.00     0.134 A 
ATOM     88  C   UNL A   1      44.663  33.694  30.612  1.00  0.00     0.134 A 
ATOM     89  F   UNL A   1      44.017  31.898  33.703  1.00  0.00    -0.206 F 
ATOM     90  C   UNL A   1      44.452  34.175  33.338  1.00  0.00     0.040 A 
ATOM     91  C   UNL A   1      44.853  34.984  31.106  1.00  0.00     0.040 A 
ATOM     92  F   UNL A   1      44.772  33.506  29.288  1.00  0.00    -0.206 F 
ATOM     93  C   UNL A   1      44.740  35.229  32.473  1.00  0.00     0.006 A 
ENDBRANCH  69  86
ENDBRANCH  43  44
ENDBRANCH  35  38
ENDBRANCH  33  34
ENDBRANCH  32  33
ENDBRANCH   1  32
TORSDOF 16
ENDMDL
