MODEL 1
REMARK VINA RESULT:     -11.8      0.000      0.000
REMARK SMILES Cc1cc(C(=O)C[C@H](C)CC(=O)NCCCNC(=O)c2ccc(-c3c4nc(c(-c5c(F)cccc5F)c5ccc([nH]5)c(-c5c(F)cccc5F)c5nc(c(-c6c(F)cccc6F)c6ccc3[nH]6)C=C5)C=C4)cc2)ccc1F
REMARK SMILES IDX 14 1 13 2 11 3 12 4 10 6 8 7 9 8 7 9 5 10 6 11 4 12 1 13
REMARK SMILES IDX 2 14 3 15 76 16 75 17 77 18 74 19 15 20 16 21 17 22 18 23
REMARK SMILES IDX 19 25 20 26 21 27 73 28 22 29 72 30 23 31 24 32 25 33 66 34
REMARK SMILES IDX 26 35 71 36 65 37 67 38 27 39 70 40 64 41 63 42 28 44 54 45
REMARK SMILES IDX 37 46 53 47 38 48 41 49 52 50 68 51 39 52 40 53 51 55 69 56
REMARK SMILES IDX 42 57 29 58 30 59 35 60 31 61 32 62 34 63 36 64 33 65 55 66
REMARK SMILES IDX 56 67 61 68 57 69 58 70 60 71 62 72 59 73 43 74 44 75 49 76
REMARK SMILES IDX 45 77 46 78 48 79 50 80 47 81
REMARK H PARENT 13 5 17 24 67 43 41 54
REMARK Flexibility Score: inf
ROOT
ATOM      1  C   UNL A   1      32.681  29.957  26.246  1.00  0.00     0.117 C 
ENDROOT
BRANCH   1   2
ATOM      2  N   UNL A   1      32.985  29.620  24.860  1.00  0.00    -0.356 N 
ATOM      3  C   UNL A   1      32.451  28.613  24.100  1.00  0.00     0.220 C 
ATOM      4  O   UNL A   1      33.058  28.215  23.108  1.00  0.00    -0.275 OA
ATOM      5  H   UNL A   1      33.657  30.186  24.415  1.00  0.00     0.163 HD
BRANCH   3   6
ATOM      6  C   UNL A   1      31.065  28.126  24.447  1.00  0.00     0.103 C 
BRANCH   6   7
ATOM      7  C   UNL A   1      30.823  26.709  24.986  1.00  0.00     0.003 C 
ATOM      8  C   UNL A   1      30.871  25.633  23.904  1.00  0.00     0.008 C 
BRANCH   7   9
ATOM      9  C   UNL A   1      31.895  26.338  26.044  1.00  0.00     0.085 C 
BRANCH   9  10
ATOM     10  C   UNL A   1      31.954  24.865  26.423  1.00  0.00     0.163 C 
ATOM     11  O   UNL A   1      31.048  24.354  27.081  1.00  0.00    -0.294 OA
BRANCH  10  12
ATOM     12  C   UNL A   1      33.151  24.038  26.064  1.00  0.00     0.018 A 
ATOM     13  C   UNL A   1      33.918  20.523  24.830  1.00  0.00     0.047 C 
ATOM     14  C   UNL A   1      34.100  21.954  25.240  1.00  0.00    -0.015 A 
ATOM     15  C   UNL A   1      33.092  22.644  25.927  1.00  0.00     0.018 A 
ATOM     16  C   UNL A   1      35.256  22.647  24.878  1.00  0.00     0.126 A 
ATOM     17  C   UNL A   1      35.389  24.008  25.134  1.00  0.00     0.040 A 
ATOM     18  F   UNL A   1      36.245  22.006  24.242  1.00  0.00    -0.207 F 
ATOM     19  C   UNL A   1      34.325  24.710  25.701  1.00  0.00     0.015 A 
ENDBRANCH  10  12
ENDBRANCH   9  10
ENDBRANCH   7   9
ENDBRANCH   6   7
ENDBRANCH   3   6
ENDBRANCH   1   2
BRANCH   1  20
ATOM     20  C   UNL A   1      33.478  29.060  27.189  1.00  0.00     0.042 C 
BRANCH  20  21
ATOM     21  C   UNL A   1      34.956  29.247  26.995  1.00  0.00     0.118 C 
BRANCH  21  22
ATOM     22  N   UNL A   1      35.397  30.610  27.257  1.00  0.00    -0.352 N 
ATOM     23  C   UNL A   1      36.484  30.985  28.022  1.00  0.00     0.251 C 
ATOM     24  H   UNL A   1      34.869  31.334  26.849  1.00  0.00     0.163 HD
ATOM     25  O   UNL A   1      36.653  32.141  28.380  1.00  0.00    -0.269 OA
BRANCH  23  26
ATOM     26  C   UNL A   1      37.458  29.938  28.373  1.00  0.00     0.039 A 
ATOM     27  C   UNL A   1      37.362  29.190  29.552  1.00  0.00     0.014 A 
ATOM     28  C   UNL A   1      38.493  29.722  27.471  1.00  0.00     0.014 A 
ATOM     29  C   UNL A   1      38.335  28.227  29.818  1.00  0.00     0.010 A 
ATOM     30  C   UNL A   1      39.283  28.625  27.605  1.00  0.00     0.010 A 
ATOM     31  C   UNL A   1      39.297  27.973  28.838  1.00  0.00    -0.014 A 
BRANCH  31  32
ATOM     32  C   UNL A   1      40.516  27.209  29.018  1.00  0.00     0.031 A 
ATOM     33  C   UNL A   1      40.599  25.795  28.666  1.00  0.00     0.074 A 
ATOM     34  C   UNL A   1      41.607  27.968  29.269  1.00  0.00     0.049 A 
ATOM     35  N   UNL A   1      41.511  25.006  29.109  1.00  0.00    -0.248 NA
ATOM     36  C   UNL A   1      39.651  25.146  27.770  1.00  0.00     0.031 C 
ATOM     37  C   UNL A   1      43.017  27.672  29.101  1.00  0.00     0.029 A 
ATOM     38  N   UNL A   1      41.598  29.255  29.822  1.00  0.00    -0.354 N 
ATOM     39  C   UNL A   1      41.493  23.883  28.314  1.00  0.00     0.074 A 
ATOM     40  C   UNL A   1      40.244  23.959  27.588  1.00  0.00     0.031 C 
ATOM     41  C   UNL A   1      43.732  28.589  29.783  1.00  0.00     0.029 A 
ATOM     42  C   UNL A   1      42.788  29.403  30.538  1.00  0.00     0.049 A 
ATOM     43  H   UNL A   1      40.887  29.927  29.727  1.00  0.00     0.167 HD
ATOM     44  C   UNL A   1      42.628  23.128  28.230  1.00  0.00     0.037 A 
ATOM     45  C   UNL A   1      42.706  29.475  31.900  1.00  0.00     0.037 A 
ATOM     46  C   UNL A   1      43.691  23.723  29.047  1.00  0.00     0.049 A 
ATOM     47  C   UNL A   1      43.332  28.266  32.550  1.00  0.00     0.074 A 
ATOM     48  C   UNL A   1      44.761  24.542  28.719  1.00  0.00     0.029 A 
ATOM     49  N   UNL A   1      43.536  23.820  30.426  1.00  0.00    -0.354 N 
ATOM     50  N   UNL A   1      43.451  27.104  31.968  1.00  0.00    -0.248 NA
ATOM     51  C   UNL A   1      43.936  28.296  33.875  1.00  0.00     0.031 C 
ATOM     52  C   UNL A   1      45.212  25.176  29.905  1.00  0.00     0.029 A 
ATOM     53  C   UNL A   1      44.429  24.731  30.956  1.00  0.00     0.049 A 
ATOM     54  H   UNL A   1      42.879  23.309  30.952  1.00  0.00     0.167 HD
ATOM     55  C   UNL A   1      44.163  26.257  32.776  1.00  0.00     0.074 A 
ATOM     56  C   UNL A   1      44.440  27.051  33.959  1.00  0.00     0.031 C 
ATOM     57  C   UNL A   1      44.479  24.983  32.392  1.00  0.00     0.037 A 
BRANCH  44  58
ATOM     58  C   UNL A   1      42.882  22.064  27.182  1.00  0.00     0.057 A 
ATOM     59  C   UNL A   1      42.142  20.862  27.173  1.00  0.00     0.134 A 
ATOM     60  C   UNL A   1      43.844  22.150  26.161  1.00  0.00     0.134 A 
ATOM     61  F   UNL A   1      41.119  20.654  28.012  1.00  0.00    -0.206 F 
ATOM     62  C   UNL A   1      42.405  19.802  26.294  1.00  0.00     0.040 A 
ATOM     63  C   UNL A   1      44.148  21.081  25.301  1.00  0.00     0.040 A 
ATOM     64  F   UNL A   1      44.493  23.292  25.903  1.00  0.00    -0.206 F 
ATOM     65  C   UNL A   1      43.433  19.896  25.373  1.00  0.00     0.006 A 
ENDBRANCH  44  58
BRANCH  45  66
ATOM     66  C   UNL A   1      41.461  30.182  32.348  1.00  0.00     0.057 A 
ATOM     67  C   UNL A   1      40.411  29.394  32.861  1.00  0.00     0.134 A 
ATOM     68  C   UNL A   1      41.471  31.532  32.724  1.00  0.00     0.134 A 
ATOM     69  F   UNL A   1      40.336  28.090  32.547  1.00  0.00    -0.206 F 
ATOM     70  C   UNL A   1      39.508  29.880  33.814  1.00  0.00     0.040 A 
ATOM     71  C   UNL A   1      40.561  32.034  33.668  1.00  0.00     0.040 A 
ATOM     72  F   UNL A   1      42.435  32.356  32.289  1.00  0.00    -0.206 F 
ATOM     73  C   UNL A   1      39.609  31.197  34.251  1.00  0.00     0.006 A 
ENDBRANCH  45  66
BRANCH  57  74
ATOM     74  C   UNL A   1      44.951  23.866  33.297  1.00  0.00     0.057 A 
ATOM     75  C   UNL A   1      46.271  23.709  33.739  1.00  0.00     0.134 A 
ATOM     76  C   UNL A   1      44.017  22.990  33.906  1.00  0.00     0.134 A 
ATOM     77  F   UNL A   1      47.253  24.530  33.349  1.00  0.00    -0.206 F 
ATOM     78  C   UNL A   1      46.644  22.728  34.668  1.00  0.00     0.040 A 
ATOM     79  C   UNL A   1      44.367  22.060  34.886  1.00  0.00     0.040 A 
ATOM     80  F   UNL A   1      42.711  23.017  33.603  1.00  0.00    -0.206 F 
ATOM     81  C   UNL A   1      45.690  21.913  35.260  1.00  0.00     0.006 A 
ENDBRANCH  57  74
ENDBRANCH  31  32
ENDBRANCH  23  26
ENDBRANCH  21  22
ENDBRANCH  20  21
ENDBRANCH   1  20
TORSDOF 14
ENDMDL
MODEL 2
REMARK VINA RESULT:     -11.7      1.709      2.175
REMARK SMILES Cc1cc(C(=O)C[C@H](C)CC(=O)NCCCNC(=O)c2ccc(-c3c4nc(c(-c5c(F)cccc5F)c5ccc([nH]5)c(-c5c(F)cccc5F)c5nc(c(-c6c(F)cccc6F)c6ccc3[nH]6)C=C5)C=C4)cc2)ccc1F
REMARK SMILES IDX 14 1 13 2 11 3 12 4 10 6 8 7 9 8 7 9 5 10 6 11 4 12 1 13
REMARK SMILES IDX 2 14 3 15 76 16 75 17 77 18 74 19 15 20 16 21 17 22 18 23
REMARK SMILES IDX 19 25 20 26 21 27 73 28 22 29 72 30 23 31 24 32 25 33 66 34
REMARK SMILES IDX 26 35 71 36 65 37 67 38 27 39 70 40 64 41 63 42 28 44 54 45
REMARK SMILES IDX 37 46 53 47 38 48 41 49 52 50 68 51 39 52 40 53 51 55 69 56
REMARK SMILES IDX 42 57 29 58 30 59 35 60 31 61 32 62 34 63 36 64 33 65 55 66
REMARK SMILES IDX 56 67 61 68 57 69 58 70 60 71 62 72 59 73 43 74 44 75 49 76
REMARK SMILES IDX 45 77 46 78 48 79 50 80 47 81
REMARK H PARENT 13 5 17 24 67 43 41 54
REMARK Flexibility Score: inf
ROOT
ATOM      1  C   UNL A   1      31.984  29.740  25.715  1.00  0.00     0.117 C 
ENDROOT
BRANCH   1   2
ATOM      2  N   UNL A   1      32.978  29.706  24.648  1.00  0.00    -0.356 N 
ATOM      3  C   UNL A   1      33.045  28.844  23.584  1.00  0.00     0.220 C 
ATOM      4  O   UNL A   1      34.113  28.687  22.998  1.00  0.00    -0.275 OA
ATOM      5  H   UNL A   1      33.690  30.384  24.698  1.00  0.00     0.163 HD
BRANCH   3   6
ATOM      6  C   UNL A   1      31.758  28.223  23.097  1.00  0.00     0.103 C 
BRANCH   6   7
ATOM      7  C   UNL A   1      31.313  26.830  23.561  1.00  0.00     0.003 C 
ATOM      8  C   UNL A   1      29.900  26.808  24.141  1.00  0.00     0.008 C 
BRANCH   7   9
ATOM      9  C   UNL A   1      31.334  25.827  22.379  1.00  0.00     0.085 C 
BRANCH   9  10
ATOM     10  C   UNL A   1      32.714  25.334  21.967  1.00  0.00     0.163 C 
ATOM     11  O   UNL A   1      33.280  25.814  20.986  1.00  0.00    -0.294 OA
BRANCH  10  12
ATOM     12  C   UNL A   1      33.367  24.207  22.708  1.00  0.00     0.018 A 
ATOM     13  C   UNL A   1      35.889  23.727  25.514  1.00  0.00     0.047 C 
ATOM     14  C   UNL A   1      34.863  23.427  24.463  1.00  0.00    -0.015 A 
ATOM     15  C   UNL A   1      34.506  24.388  23.506  1.00  0.00     0.018 A 
ATOM     16  C   UNL A   1      34.190  22.204  24.465  1.00  0.00     0.126 A 
ATOM     17  C   UNL A   1      33.145  21.957  23.581  1.00  0.00     0.040 A 
ATOM     18  F   UNL A   1      34.528  21.260  25.354  1.00  0.00    -0.207 F 
ATOM     19  C   UNL A   1      32.713  22.968  22.722  1.00  0.00     0.015 A 
ENDBRANCH  10  12
ENDBRANCH   9  10
ENDBRANCH   7   9
ENDBRANCH   6   7
ENDBRANCH   3   6
ENDBRANCH   1   2
BRANCH   1  20
ATOM     20  C   UNL A   1      32.569  29.147  26.993  1.00  0.00     0.042 C 
BRANCH  20  21
ATOM     21  C   UNL A   1      33.982  29.610  27.209  1.00  0.00     0.118 C 
BRANCH  21  22
ATOM     22  N   UNL A   1      34.062  30.946  27.782  1.00  0.00    -0.352 N 
ATOM     23  C   UNL A   1      34.985  31.384  28.712  1.00  0.00     0.251 C 
ATOM     24  H   UNL A   1      33.393  31.601  27.477  1.00  0.00     0.163 HD
ATOM     25  O   UNL A   1      34.848  32.440  29.309  1.00  0.00    -0.269 OA
BRANCH  23  26
ATOM     26  C   UNL A   1      36.168  30.537  28.941  1.00  0.00     0.039 A 
ATOM     27  C   UNL A   1      36.294  29.712  30.064  1.00  0.00     0.014 A 
ATOM     28  C   UNL A   1      37.170  30.593  27.979  1.00  0.00     0.014 A 
ATOM     29  C   UNL A   1      37.454  28.953  30.214  1.00  0.00     0.010 A 
ATOM     30  C   UNL A   1      38.171  29.674  27.996  1.00  0.00     0.010 A 
ATOM     31  C   UNL A   1      38.388  28.963  29.175  1.00  0.00    -0.014 A 
BRANCH  31  32
ATOM     32  C   UNL A   1      39.743  28.453  29.244  1.00  0.00     0.031 A 
ATOM     33  C   UNL A   1      40.092  27.121  28.760  1.00  0.00     0.074 A 
ATOM     34  C   UNL A   1      40.670  29.397  29.527  1.00  0.00     0.049 A 
ATOM     35  N   UNL A   1      41.166  26.502  29.098  1.00  0.00    -0.248 NA
ATOM     36  C   UNL A   1      39.249  26.368  27.841  1.00  0.00     0.031 C 
ATOM     37  C   UNL A   1      42.101  29.412  29.285  1.00  0.00     0.029 A 
ATOM     38  N   UNL A   1      40.431  30.603  30.196  1.00  0.00    -0.354 N 
ATOM     39  C   UNL A   1      41.334  25.469  28.204  1.00  0.00     0.074 A 
ATOM     40  C   UNL A   1      40.060  25.348  27.531  1.00  0.00     0.031 C 
ATOM     41  C   UNL A   1      42.650  30.397  30.024  1.00  0.00     0.029 A 
ATOM     42  C   UNL A   1      41.601  30.933  30.883  1.00  0.00     0.049 A 
ATOM     43  H   UNL A   1      39.594  31.121  30.187  1.00  0.00     0.167 HD
ATOM     44  C   UNL A   1      42.592  24.974  28.013  1.00  0.00     0.037 A 
ATOM     45  C   UNL A   1      41.576  30.873  32.248  1.00  0.00     0.037 A 
ATOM     46  C   UNL A   1      43.554  25.704  28.845  1.00  0.00     0.049 A 
ATOM     47  C   UNL A   1      42.466  29.768  32.762  1.00  0.00     0.074 A 
ATOM     48  C   UNL A   1      44.418  26.751  28.558  1.00  0.00     0.029 A 
ATOM     49  N   UNL A   1      43.453  25.652  30.232  1.00  0.00    -0.354 N 
ATOM     50  N   UNL A   1      42.787  28.708  32.072  1.00  0.00    -0.248 NA
ATOM     51  C   UNL A   1      43.119  29.811  34.063  1.00  0.00     0.031 C 
ATOM     52  C   UNL A   1      44.793  27.362  29.782  1.00  0.00     0.029 A 
ATOM     53  C   UNL A   1      44.170  26.680  30.814  1.00  0.00     0.049 A 
ATOM     54  H   UNL A   1      42.941  24.975  30.730  1.00  0.00     0.167 HD
ATOM     55  C   UNL A   1      43.696  27.961  32.774  1.00  0.00     0.074 A 
ATOM     56  C   UNL A   1      43.867  28.694  34.016  1.00  0.00     0.031 C 
ATOM     57  C   UNL A   1      44.242  26.816  32.264  1.00  0.00     0.037 A 
BRANCH  44  58
ATOM     58  C   UNL A   1      43.001  24.076  26.863  1.00  0.00     0.057 A 
ATOM     59  C   UNL A   1      42.937  22.671  26.981  1.00  0.00     0.134 A 
ATOM     60  C   UNL A   1      43.476  24.524  25.619  1.00  0.00     0.134 A 
ATOM     61  F   UNL A   1      42.416  22.073  28.060  1.00  0.00    -0.206 F 
ATOM     62  C   UNL A   1      43.401  21.794  25.991  1.00  0.00     0.040 A 
ATOM     63  C   UNL A   1      43.984  23.659  24.634  1.00  0.00     0.040 A 
ATOM     64  F   UNL A   1      43.417  25.814  25.268  1.00  0.00    -0.206 F 
ATOM     65  C   UNL A   1      43.957  22.286  24.823  1.00  0.00     0.006 A 
ENDBRANCH  44  58
BRANCH  45  66
ATOM     66  C   UNL A   1      40.239  31.269  32.800  1.00  0.00     0.057 A 
ATOM     67  C   UNL A   1      39.403  30.243  33.284  1.00  0.00     0.134 A 
ATOM     68  C   UNL A   1      39.993  32.559  33.288  1.00  0.00     0.134 A 
ATOM     69  F   UNL A   1      39.580  28.979  32.864  1.00  0.00    -0.206 F 
ATOM     70  C   UNL A   1      38.472  30.457  34.308  1.00  0.00     0.040 A 
ATOM     71  C   UNL A   1      39.052  32.788  34.304  1.00  0.00     0.040 A 
ATOM     72  F   UNL A   1      40.743  33.596  32.888  1.00  0.00    -0.206 F 
ATOM     73  C   UNL A   1      38.324  31.729  34.850  1.00  0.00     0.006 A 
ENDBRANCH  45  66
BRANCH  57  74
ATOM     74  C   UNL A   1      44.976  25.749  33.047  1.00  0.00     0.057 A 
ATOM     75  C   UNL A   1      46.355  25.516  32.968  1.00  0.00     0.134 A 
ATOM     76  C   UNL A   1      44.312  25.017  34.063  1.00  0.00     0.134 A 
ATOM     77  F   UNL A   1      47.146  26.208  32.140  1.00  0.00    -0.206 F 
ATOM     78  C   UNL A   1      47.013  24.594  33.794  1.00  0.00     0.040 A 
ATOM     79  C   UNL A   1      44.970  24.152  34.938  1.00  0.00     0.040 A 
ATOM     80  F   UNL A   1      42.993  25.132  34.280  1.00  0.00    -0.206 F 
ATOM     81  C   UNL A   1      46.327  23.924  34.796  1.00  0.00     0.006 A 
ENDBRANCH  57  74
ENDBRANCH  31  32
ENDBRANCH  23  26
ENDBRANCH  21  22
ENDBRANCH  20  21
ENDBRANCH   1  20
TORSDOF 14
ENDMDL
MODEL 3
REMARK VINA RESULT:     -11.5      3.983      9.075
REMARK SMILES Cc1cc(C(=O)C[C@H](C)CC(=O)NCCCNC(=O)c2ccc(-c3c4nc(c(-c5c(F)cccc5F)c5ccc([nH]5)c(-c5c(F)cccc5F)c5nc(c(-c6c(F)cccc6F)c6ccc3[nH]6)C=C5)C=C4)cc2)ccc1F
REMARK SMILES IDX 14 1 13 2 11 3 12 4 10 6 8 7 9 8 7 9 5 10 6 11 4 12 1 13
REMARK SMILES IDX 2 14 3 15 76 16 75 17 77 18 74 19 15 20 16 21 17 22 18 23
REMARK SMILES IDX 19 25 20 26 21 27 73 28 22 29 72 30 23 31 24 32 25 33 66 34
REMARK SMILES IDX 26 35 71 36 65 37 67 38 27 39 70 40 64 41 63 42 28 44 54 45
REMARK SMILES IDX 37 46 53 47 38 48 41 49 52 50 68 51 39 52 40 53 51 55 69 56
REMARK SMILES IDX 42 57 29 58 30 59 35 60 31 61 32 62 34 63 36 64 33 65 55 66
REMARK SMILES IDX 56 67 61 68 57 69 58 70 60 71 62 72 59 73 43 74 44 75 49 76
REMARK SMILES IDX 45 77 46 78 48 79 50 80 47 81
REMARK H PARENT 13 5 17 24 67 43 41 54
REMARK Flexibility Score: inf
ROOT
ATOM      1  C   UNL A   1      36.375  21.595  25.251  1.00  0.00     0.117 C 
ENDROOT
BRANCH   1   2
ATOM      2  N   UNL A   1      35.622  21.487  26.496  1.00  0.00    -0.356 N 
ATOM      3  C   UNL A   1      34.279  21.681  26.690  1.00  0.00     0.220 C 
ATOM      4  O   UNL A   1      33.859  21.928  27.817  1.00  0.00    -0.275 OA
ATOM      5  H   UNL A   1      36.142  21.245  27.296  1.00  0.00     0.163 HD
BRANCH   3   6
ATOM      6  C   UNL A   1      33.357  21.447  25.518  1.00  0.00     0.103 C 
BRANCH   6   7
ATOM      7  C   UNL A   1      32.535  22.588  24.903  1.00  0.00     0.003 C 
ATOM      8  C   UNL A   1      32.449  22.520  23.380  1.00  0.00     0.008 C 
BRANCH   7   9
ATOM      9  C   UNL A   1      31.082  22.567  25.442  1.00  0.00     0.085 C 
BRANCH   9  10
ATOM     10  C   UNL A   1      30.653  23.809  26.212  1.00  0.00     0.163 C 
ATOM     11  O   UNL A   1      30.003  23.703  27.251  1.00  0.00    -0.294 OA
BRANCH  10  12
ATOM     12  C   UNL A   1      30.953  25.174  25.673  1.00  0.00     0.018 A 
ATOM     13  C   UNL A   1      29.432  27.674  23.244  1.00  0.00     0.047 C 
ATOM     14  C   UNL A   1      30.334  27.070  24.278  1.00  0.00    -0.015 A 
ATOM     15  C   UNL A   1      30.320  25.692  24.533  1.00  0.00     0.018 A 
ATOM     16  C   UNL A   1      31.156  27.886  25.057  1.00  0.00     0.126 A 
ATOM     17  C   UNL A   1      31.901  27.362  26.108  1.00  0.00     0.040 A 
ATOM     18  F   UNL A   1      31.206  29.203  24.817  1.00  0.00    -0.207 F 
ATOM     19  C   UNL A   1      31.778  26.011  26.435  1.00  0.00     0.015 A 
ENDBRANCH  10  12
ENDBRANCH   9  10
ENDBRANCH   7   9
ENDBRANCH   6   7
ENDBRANCH   3   6
ENDBRANCH   1   2
BRANCH   1  20
ATOM     20  C   UNL A   1      36.703  23.058  24.965  1.00  0.00     0.042 C 
BRANCH  20  21
ATOM     21  C   UNL A   1      37.496  23.666  26.088  1.00  0.00     0.118 C 
BRANCH  21  22
ATOM     22  N   UNL A   1      38.704  22.917  26.402  1.00  0.00    -0.352 N 
ATOM     23  C   UNL A   1      39.917  23.448  26.797  1.00  0.00     0.251 C 
ATOM     24  H   UNL A   1      38.652  21.936  26.326  1.00  0.00     0.163 HD
ATOM     25  O   UNL A   1      40.938  22.778  26.820  1.00  0.00    -0.269 OA
BRANCH  23  26
ATOM     26  C   UNL A   1      39.932  24.859  27.220  1.00  0.00     0.039 A 
ATOM     27  C   UNL A   1      40.404  25.884  26.393  1.00  0.00     0.014 A 
ATOM     28  C   UNL A   1      39.450  25.132  28.494  1.00  0.00     0.014 A 
ATOM     29  C   UNL A   1      40.398  27.193  26.876  1.00  0.00     0.010 A 
ATOM     30  C   UNL A   1      39.210  26.418  28.861  1.00  0.00     0.010 A 
ATOM     31  C   UNL A   1      39.812  27.435  28.121  1.00  0.00    -0.014 A 
BRANCH  31  32
ATOM     32  C   UNL A   1      39.928  28.655  28.894  1.00  0.00     0.031 A 
ATOM     33  C   UNL A   1      38.851  29.638  28.950  1.00  0.00     0.074 A 
ATOM     34  C   UNL A   1      40.975  28.664  29.751  1.00  0.00     0.049 A 
ATOM     35  N   UNL A   1      39.020  30.856  29.322  1.00  0.00    -0.248 NA
ATOM     36  C   UNL A   1      37.475  29.324  28.589  1.00  0.00     0.031 C 
ATOM     37  C   UNL A   1      41.204  29.453  30.946  1.00  0.00     0.029 A 
ATOM     38  N   UNL A   1      42.143  27.902  29.623  1.00  0.00    -0.354 N 
ATOM     39  C   UNL A   1      37.773  31.373  29.590  1.00  0.00     0.074 A 
ATOM     40  C   UNL A   1      36.846  30.434  28.997  1.00  0.00     0.031 C 
ATOM     41  C   UNL A   1      42.508  29.359  31.278  1.00  0.00     0.029 A 
ATOM     42  C   UNL A   1      43.179  28.634  30.207  1.00  0.00     0.049 A 
ATOM     43  H   UNL A   1      42.220  27.017  29.199  1.00  0.00     0.167 HD
ATOM     44  C   UNL A   1      37.678  32.432  30.446  1.00  0.00     0.037 A 
ATOM     45  C   UNL A   1      44.143  29.140  29.381  1.00  0.00     0.037 A 
ATOM     46  C   UNL A   1      39.010  32.805  30.936  1.00  0.00     0.049 A 
ATOM     47  C   UNL A   1      44.094  30.647  29.342  1.00  0.00     0.074 A 
ATOM     48  C   UNL A   1      39.681  32.503  32.112  1.00  0.00     0.029 A 
ATOM     49  N   UNL A   1      39.975  33.266  30.045  1.00  0.00    -0.354 N 
ATOM     50  N   UNL A   1      43.023  31.350  29.594  1.00  0.00    -0.248 NA
ATOM     51  C   UNL A   1      45.263  31.477  29.088  1.00  0.00     0.031 C 
ATOM     52  C   UNL A   1      41.065  32.734  31.902  1.00  0.00     0.029 A 
ATOM     53  C   UNL A   1      41.235  33.190  30.606  1.00  0.00     0.049 A 
ATOM     54  H   UNL A   1      39.784  33.600  29.139  1.00  0.00     0.167 HD
ATOM     55  C   UNL A   1      43.337  32.683  29.590  1.00  0.00     0.074 A 
ATOM     56  C   UNL A   1      44.752  32.709  29.264  1.00  0.00     0.031 C 
ATOM     57  C   UNL A   1      42.410  33.648  29.873  1.00  0.00     0.037 A 
BRANCH  44  58
ATOM     58  C   UNL A   1      36.393  32.914  31.085  1.00  0.00     0.057 A 
ATOM     59  C   UNL A   1      35.550  33.831  30.421  1.00  0.00     0.134 A 
ATOM     60  C   UNL A   1      35.927  32.526  32.354  1.00  0.00     0.134 A 
ATOM     61  F   UNL A   1      35.788  34.230  29.166  1.00  0.00    -0.206 F 
ATOM     62  C   UNL A   1      34.406  34.389  31.007  1.00  0.00     0.040 A 
ATOM     63  C   UNL A   1      34.807  33.108  32.971  1.00  0.00     0.040 A 
ATOM     64  F   UNL A   1      36.495  31.522  33.033  1.00  0.00    -0.206 F 
ATOM     65  C   UNL A   1      34.047  34.053  32.301  1.00  0.00     0.006 A 
ENDBRANCH  44  58
BRANCH  45  66
ATOM     66  C   UNL A   1      44.422  28.228  28.223  1.00  0.00     0.057 A 
ATOM     67  C   UNL A   1      43.914  28.601  26.961  1.00  0.00     0.134 A 
ATOM     68  C   UNL A   1      45.506  27.341  28.224  1.00  0.00     0.134 A 
ATOM     69  F   UNL A   1      42.876  29.450  26.881  1.00  0.00    -0.206 F 
ATOM     70  C   UNL A   1      44.542  28.234  25.765  1.00  0.00     0.040 A 
ATOM     71  C   UNL A   1      46.134  26.955  27.029  1.00  0.00     0.040 A 
ATOM     72  F   UNL A   1      46.058  26.937  29.376  1.00  0.00    -0.206 F 
ATOM     73  C   UNL A   1      45.682  27.440  25.800  1.00  0.00     0.006 A 
ENDBRANCH  45  66
BRANCH  57  74
ATOM     74  C   UNL A   1      42.538  35.126  29.579  1.00  0.00     0.057 A 
ATOM     75  C   UNL A   1      43.398  35.999  30.259  1.00  0.00     0.134 A 
ATOM     76  C   UNL A   1      41.899  35.692  28.447  1.00  0.00     0.134 A 
ATOM     77  F   UNL A   1      44.162  35.590  31.279  1.00  0.00    -0.206 F 
ATOM     78  C   UNL A   1      43.570  37.337  29.880  1.00  0.00     0.040 A 
ATOM     79  C   UNL A   1      42.121  37.002  28.018  1.00  0.00     0.040 A 
ATOM     80  F   UNL A   1      41.053  34.990  27.679  1.00  0.00    -0.206 F 
ATOM     81  C   UNL A   1      42.948  37.838  28.746  1.00  0.00     0.006 A 
ENDBRANCH  57  74
ENDBRANCH  31  32
ENDBRANCH  23  26
ENDBRANCH  21  22
ENDBRANCH  20  21
ENDBRANCH   1  20
TORSDOF 14
ENDMDL
