MODEL 1
REMARK VINA RESULT:     -13.9      0.000      0.000
REMARK SMILES Cc1ccccc1[C@@H]1[NH2+][C@@H](C(=O)NCCCNC(=O)c2ccc(-c3c4nc(c(-c5c(F)cccc5F)c5ccc([nH]5)c(-c5c(F)cccc5F)c5nc(c(-c6c(F)cccc6F)c6ccc3[nH]6)C=C5)C=C4)cc2)CC2=c3ccccc3=N[C@H]21
REMARK SMILES IDX 15 1 14 2 13 3 11 4 12 5 10 7 8 8 9 9 83 10 75 13 82 14
REMARK SMILES IDX 74 15 76 16 81 17 77 18 80 19 78 20 79 21 7 22 1 23 2 24
REMARK SMILES IDX 3 25 4 26 6 27 5 28 16 29 17 30 18 31 19 33 20 34 21 35
REMARK SMILES IDX 73 36 22 37 72 38 23 39 24 40 25 41 66 42 26 43 71 44 65 45
REMARK SMILES IDX 67 46 27 47 70 48 64 49 63 50 28 52 54 53 37 54 53 55 38 56
REMARK SMILES IDX 41 57 52 58 68 59 39 60 40 61 51 63 69 64 42 65 29 66 30 67
REMARK SMILES IDX 35 68 31 69 32 70 34 71 36 72 33 73 55 74 56 75 61 76 57 77
REMARK SMILES IDX 58 78 60 79 62 80 59 81 43 82 44 83 49 84 45 85 46 86 48 87
REMARK SMILES IDX 50 88 47 89
REMARK H PARENT 13 6 9 11 9 12 17 32 67 51 41 62
REMARK Flexibility Score: inf
ROOT
ATOM      1  C   UNL A   1      33.951  31.772  27.665  1.00  0.00     0.042 C 
ENDROOT
BRANCH   1   2
ATOM      2  C   UNL A   1      32.808  30.853  27.239  1.00  0.00     0.118 C 
BRANCH   2   3
ATOM      3  N   UNL A   1      33.119  29.427  27.154  1.00  0.00    -0.351 N 
ATOM      4  C   UNL A   1      33.686  28.680  26.152  1.00  0.00     0.278 C 
ATOM      5  O   UNL A   1      34.415  27.749  26.516  1.00  0.00    -0.268 OA
ATOM      6  H   UNL A   1      32.880  28.912  27.959  1.00  0.00     0.163 HD
BRANCH   4   7
ATOM      7  C   UNL A   1      33.276  28.819  24.654  1.00  0.00     0.277 C 
ATOM      8  C   UNL A   1      31.053  27.891  23.721  1.00  0.00     0.243 C 
ATOM      9  N   UNL A   1      31.791  28.897  24.530  1.00  0.00    -0.327 N 
ATOM     10  C   UNL A   1      31.852  27.016  22.705  1.00  0.00     0.196 C 
ATOM     11  H   UNL A   1      31.414  28.847  25.476  1.00  0.00     0.347 HD
ATOM     12  H   UNL A   1      31.646  29.763  24.011  1.00  0.00     0.347 HD
ATOM     13  C   UNL A   1      33.196  26.743  23.273  1.00  0.00    -0.024 C 
ATOM     14  N   UNL A   1      31.266  25.653  22.494  1.00  0.00    -0.270 NA
ATOM     15  C   UNL A   1      33.988  27.919  23.650  1.00  0.00     0.109 C 
ATOM     16  C   UNL A   1      33.444  25.451  23.412  1.00  0.00     0.002 A 
ATOM     17  C   UNL A   1      32.219  24.851  22.867  1.00  0.00     0.066 A 
ATOM     18  C   UNL A   1      34.507  24.679  23.958  1.00  0.00     0.010 A 
ATOM     19  C   UNL A   1      32.212  23.372  22.801  1.00  0.00     0.028 A 
ATOM     20  C   UNL A   1      34.407  23.341  23.915  1.00  0.00     0.001 A 
ATOM     21  C   UNL A   1      33.262  22.692  23.296  1.00  0.00     0.002 A 
BRANCH   8  22
ATOM     22  C   UNL A   1      29.887  28.566  22.981  1.00  0.00     0.015 A 
ATOM     23  C   UNL A   1      28.077  26.945  23.863  1.00  0.00     0.045 C 
ATOM     24  C   UNL A   1      28.535  28.145  23.077  1.00  0.00    -0.042 A 
ATOM     25  C   UNL A   1      27.527  28.923  22.474  1.00  0.00     0.004 A 
ATOM     26  C   UNL A   1      27.834  30.071  21.750  1.00  0.00     0.000 A 
ATOM     27  C   UNL A   1      30.173  29.722  22.225  1.00  0.00     0.010 A 
ATOM     28  C   UNL A   1      29.159  30.463  21.614  1.00  0.00     0.001 A 
ENDBRANCH   8  22
ENDBRANCH   4   7
ENDBRANCH   2   3
ENDBRANCH   1   2
BRANCH   1  29
ATOM     29  C   UNL A   1      34.776  31.271  28.838  1.00  0.00     0.118 C 
BRANCH  29  30
ATOM     30  N   UNL A   1      35.922  32.130  29.155  1.00  0.00    -0.352 N 
ATOM     31  C   UNL A   1      37.271  31.799  29.177  1.00  0.00     0.251 C 
ATOM     32  H   UNL A   1      35.707  33.064  29.382  1.00  0.00     0.163 HD
ATOM     33  O   UNL A   1      38.128  32.653  29.326  1.00  0.00    -0.269 OA
BRANCH  31  34
ATOM     34  C   UNL A   1      37.643  30.397  28.883  1.00  0.00     0.039 A 
ATOM     35  C   UNL A   1      37.785  29.526  29.964  1.00  0.00     0.014 A 
ATOM     36  C   UNL A   1      38.158  30.077  27.632  1.00  0.00     0.014 A 
ATOM     37  C   UNL A   1      38.695  28.480  29.862  1.00  0.00     0.010 A 
ATOM     38  C   UNL A   1      39.146  29.113  27.566  1.00  0.00     0.010 A 
ATOM     39  C   UNL A   1      39.473  28.372  28.707  1.00  0.00    -0.014 A 
BRANCH  39  40
ATOM     40  C   UNL A   1      40.745  27.652  28.686  1.00  0.00     0.031 A 
ATOM     41  C   UNL A   1      40.801  26.200  28.431  1.00  0.00     0.074 A 
ATOM     42  C   UNL A   1      41.906  28.330  28.847  1.00  0.00     0.049 A 
ATOM     43  N   UNL A   1      41.763  25.438  28.833  1.00  0.00    -0.248 NA
ATOM     44  C   UNL A   1      39.756  25.484  27.713  1.00  0.00     0.031 C 
ATOM     45  C   UNL A   1      43.263  27.835  28.619  1.00  0.00     0.029 A 
ATOM     46  N   UNL A   1      42.093  29.565  29.485  1.00  0.00    -0.354 N 
ATOM     47  C   UNL A   1      41.617  24.224  28.211  1.00  0.00     0.074 A 
ATOM     48  C   UNL A   1      40.323  24.283  27.568  1.00  0.00     0.031 C 
ATOM     49  C   UNL A   1      44.114  28.558  29.363  1.00  0.00     0.029 A 
ATOM     50  C   UNL A   1      43.317  29.448  30.185  1.00  0.00     0.049 A 
ATOM     51  H   UNL A   1      41.497  30.348  29.453  1.00  0.00     0.167 HD
ATOM     52  C   UNL A   1      42.651  23.336  28.196  1.00  0.00     0.037 A 
ATOM     53  C   UNL A   1      43.363  29.528  31.547  1.00  0.00     0.037 A 
ATOM     54  C   UNL A   1      43.816  23.820  28.931  1.00  0.00     0.049 A 
ATOM     55  C   UNL A   1      43.926  28.303  32.240  1.00  0.00     0.074 A 
ATOM     56  C   UNL A   1      45.027  24.390  28.569  1.00  0.00     0.029 A 
ATOM     57  N   UNL A   1      43.710  24.001  30.298  1.00  0.00    -0.354 N 
ATOM     58  N   UNL A   1      44.285  27.207  31.633  1.00  0.00    -0.248 NA
ATOM     59  C   UNL A   1      44.014  28.184  33.698  1.00  0.00     0.031 C 
ATOM     60  C   UNL A   1      45.655  24.895  29.742  1.00  0.00     0.029 A 
ATOM     61  C   UNL A   1      44.821  24.640  30.814  1.00  0.00     0.049 A 
ATOM     62  H   UNL A   1      42.939  23.712  30.835  1.00  0.00     0.167 HD
ATOM     63  C   UNL A   1      44.559  26.241  32.567  1.00  0.00     0.074 A 
ATOM     64  C   UNL A   1      44.385  26.901  33.846  1.00  0.00     0.031 C 
ATOM     65  C   UNL A   1      44.851  24.952  32.231  1.00  0.00     0.037 A 
BRANCH  52  66
ATOM     66  C   UNL A   1      42.660  22.135  27.288  1.00  0.00     0.057 A 
ATOM     67  C   UNL A   1      41.796  21.047  27.506  1.00  0.00     0.134 A 
ATOM     68  C   UNL A   1      43.541  21.978  26.205  1.00  0.00     0.134 A 
ATOM     69  F   UNL A   1      40.827  21.087  28.428  1.00  0.00    -0.206 F 
ATOM     70  C   UNL A   1      41.894  19.847  26.792  1.00  0.00     0.040 A 
ATOM     71  C   UNL A   1      43.691  20.764  25.521  1.00  0.00     0.040 A 
ATOM     72  F   UNL A   1      44.272  23.006  25.749  1.00  0.00    -0.206 F 
ATOM     73  C   UNL A   1      42.876  19.685  25.827  1.00  0.00     0.006 A 
ENDBRANCH  52  66
BRANCH  53  74
ATOM     74  C   UNL A   1      42.312  30.411  32.117  1.00  0.00     0.057 A 
ATOM     75  C   UNL A   1      42.485  31.807  32.061  1.00  0.00     0.134 A 
ATOM     76  C   UNL A   1      41.027  29.942  32.402  1.00  0.00     0.134 A 
ATOM     77  F   UNL A   1      43.693  32.327  31.784  1.00  0.00    -0.206 F 
ATOM     78  C   UNL A   1      41.410  32.689  32.171  1.00  0.00     0.040 A 
ATOM     79  C   UNL A   1      39.945  30.818  32.536  1.00  0.00     0.040 A 
ATOM     80  F   UNL A   1      40.772  28.626  32.444  1.00  0.00    -0.206 F 
ATOM     81  C   UNL A   1      40.128  32.192  32.383  1.00  0.00     0.006 A 
ENDBRANCH  53  74
BRANCH  65  82
ATOM     82  C   UNL A   1      45.166  23.876  33.229  1.00  0.00     0.057 A 
ATOM     83  C   UNL A   1      44.225  22.919  33.634  1.00  0.00     0.134 A 
ATOM     84  C   UNL A   1      46.401  23.839  33.909  1.00  0.00     0.134 A 
ATOM     85  F   UNL A   1      42.990  22.901  33.113  1.00  0.00    -0.206 F 
ATOM     86  C   UNL A   1      44.510  21.958  34.613  1.00  0.00     0.040 A 
ATOM     87  C   UNL A   1      46.681  22.917  34.920  1.00  0.00     0.040 A 
ATOM     88  F   UNL A   1      47.397  24.685  33.605  1.00  0.00    -0.206 F 
ATOM     89  C   UNL A   1      45.738  21.962  35.267  1.00  0.00     0.006 A 
ENDBRANCH  65  82
ENDBRANCH  39  40
ENDBRANCH  31  34
ENDBRANCH  29  30
ENDBRANCH   1  29
TORSDOF 11
ENDMDL
MODEL 2
REMARK VINA RESULT:     -13.5      3.878      9.616
REMARK SMILES Cc1ccccc1[C@@H]1[NH2+][C@@H](C(=O)NCCCNC(=O)c2ccc(-c3c4nc(c(-c5c(F)cccc5F)c5ccc([nH]5)c(-c5c(F)cccc5F)c5nc(c(-c6c(F)cccc6F)c6ccc3[nH]6)C=C5)C=C4)cc2)CC2=c3ccccc3=N[C@H]21
REMARK SMILES IDX 15 1 14 2 13 3 11 4 12 5 10 7 8 8 9 9 83 10 75 13 82 14
REMARK SMILES IDX 74 15 76 16 81 17 77 18 80 19 78 20 79 21 7 22 1 23 2 24
REMARK SMILES IDX 3 25 4 26 6 27 5 28 16 29 17 30 18 31 19 33 20 34 21 35
REMARK SMILES IDX 73 36 22 37 72 38 23 39 24 40 25 41 66 42 26 43 71 44 65 45
REMARK SMILES IDX 67 46 27 47 70 48 64 49 63 50 28 52 54 53 37 54 53 55 38 56
REMARK SMILES IDX 41 57 52 58 68 59 39 60 40 61 51 63 69 64 42 65 29 66 30 67
REMARK SMILES IDX 35 68 31 69 32 70 34 71 36 72 33 73 55 74 56 75 61 76 57 77
REMARK SMILES IDX 58 78 60 79 62 80 59 81 43 82 44 83 49 84 45 85 46 86 48 87
REMARK SMILES IDX 50 88 47 89
REMARK H PARENT 13 6 9 11 9 12 17 32 67 51 41 62
REMARK Flexibility Score: inf
ROOT
ATOM      1  C   UNL A   1      39.734  21.360  26.178  1.00  0.00     0.042 C 
ENDROOT
BRANCH   1   2
ATOM      2  C   UNL A   1      38.466  21.276  25.331  1.00  0.00     0.118 C 
BRANCH   2   3
ATOM      3  N   UNL A   1      37.735  22.525  25.131  1.00  0.00    -0.351 N 
ATOM      4  C   UNL A   1      36.683  23.081  25.817  1.00  0.00     0.278 C 
ATOM      5  O   UNL A   1      36.685  24.315  25.905  1.00  0.00    -0.268 OA
ATOM      6  H   UNL A   1      38.053  23.064  24.371  1.00  0.00     0.163 HD
BRANCH   4   7
ATOM      7  C   UNL A   1      35.434  22.262  26.265  1.00  0.00     0.277 C 
ATOM      8  C   UNL A   1      33.593  21.509  24.618  1.00  0.00     0.243 C 
ATOM      9  N   UNL A   1      34.972  21.376  25.156  1.00  0.00    -0.327 N 
ATOM     10  C   UNL A   1      32.531  22.280  25.462  1.00  0.00     0.196 C 
ATOM     11  H   UNL A   1      35.609  21.529  24.373  1.00  0.00     0.347 HD
ATOM     12  H   UNL A   1      34.966  20.451  25.584  1.00  0.00     0.347 HD
ATOM     13  C   UNL A   1      33.211  23.390  26.175  1.00  0.00    -0.024 C 
ATOM     14  N   UNL A   1      31.488  22.968  24.633  1.00  0.00    -0.270 NA
ATOM     15  C   UNL A   1      34.345  23.011  27.025  1.00  0.00     0.109 C 
ATOM     16  C   UNL A   1      32.715  24.578  25.871  1.00  0.00     0.002 A 
ATOM     17  C   UNL A   1      31.628  24.222  24.948  1.00  0.00     0.066 A 
ATOM     18  C   UNL A   1      33.040  25.924  26.200  1.00  0.00     0.010 A 
ATOM     19  C   UNL A   1      30.801  25.354  24.476  1.00  0.00     0.028 A 
ATOM     20  C   UNL A   1      32.279  26.905  25.690  1.00  0.00     0.001 A 
ATOM     21  C   UNL A   1      31.129  26.604  24.852  1.00  0.00     0.002 A 
BRANCH   8  22
ATOM     22  C   UNL A   1      33.032  20.121  24.267  1.00  0.00     0.015 A 
ATOM     23  C   UNL A   1      32.010  20.843  22.005  1.00  0.00     0.045 C 
ATOM     24  C   UNL A   1      32.340  19.824  23.064  1.00  0.00    -0.042 A 
ATOM     25  C   UNL A   1      31.997  18.488  22.778  1.00  0.00     0.004 A 
ATOM     26  C   UNL A   1      32.284  17.460  23.671  1.00  0.00     0.000 A 
ATOM     27  C   UNL A   1      33.293  19.063  25.164  1.00  0.00     0.010 A 
ATOM     28  C   UNL A   1      32.920  17.750  24.871  1.00  0.00     0.001 A 
ENDBRANCH   8  22
ENDBRANCH   4   7
ENDBRANCH   2   3
ENDBRANCH   1   2
BRANCH   1  29
ATOM     29  C   UNL A   1      39.949  22.689  26.884  1.00  0.00     0.118 C 
BRANCH  29  30
ATOM     30  N   UNL A   1      41.330  23.176  26.802  1.00  0.00    -0.352 N 
ATOM     31  C   UNL A   1      41.795  24.481  26.908  1.00  0.00     0.251 C 
ATOM     32  H   UNL A   1      42.018  22.488  26.653  1.00  0.00     0.163 HD
ATOM     33  O   UNL A   1      42.989  24.724  26.957  1.00  0.00    -0.269 OA
BRANCH  31  34
ATOM     34  C   UNL A   1      40.795  25.557  27.092  1.00  0.00     0.039 A 
ATOM     35  C   UNL A   1      40.958  26.724  26.345  1.00  0.00     0.014 A 
ATOM     36  C   UNL A   1      39.959  25.528  28.203  1.00  0.00     0.014 A 
ATOM     37  C   UNL A   1      40.517  27.928  26.883  1.00  0.00     0.010 A 
ATOM     38  C   UNL A   1      39.625  26.731  28.793  1.00  0.00     0.010 A 
ATOM     39  C   UNL A   1      39.980  27.934  28.173  1.00  0.00    -0.014 A 
BRANCH  39  40
ATOM     40  C   UNL A   1      39.942  29.140  28.997  1.00  0.00     0.031 A 
ATOM     41  C   UNL A   1      38.878  30.148  28.833  1.00  0.00     0.074 A 
ATOM     42  C   UNL A   1      40.863  29.319  29.973  1.00  0.00     0.049 A 
ATOM     43  N   UNL A   1      39.010  31.390  29.162  1.00  0.00    -0.248 NA
ATOM     44  C   UNL A   1      37.575  29.836  28.260  1.00  0.00     0.031 C 
ATOM     45  C   UNL A   1      40.845  30.320  31.039  1.00  0.00     0.029 A 
ATOM     46  N   UNL A   1      42.145  28.755  30.052  1.00  0.00    -0.354 N 
ATOM     47  C   UNL A   1      37.766  31.968  29.110  1.00  0.00     0.074 A 
ATOM     48  C   UNL A   1      36.915  30.975  28.491  1.00  0.00     0.031 C 
ATOM     49  C   UNL A   1      42.105  30.534  31.448  1.00  0.00     0.029 A 
ATOM     50  C   UNL A   1      42.977  29.776  30.570  1.00  0.00     0.049 A 
ATOM     51  H   UNL A   1      42.410  27.841  29.799  1.00  0.00     0.167 HD
ATOM     52  C   UNL A   1      37.548  33.174  29.706  1.00  0.00     0.037 A 
ATOM     53  C   UNL A   1      44.008  30.288  29.837  1.00  0.00     0.037 A 
ATOM     54  C   UNL A   1      38.758  33.730  30.305  1.00  0.00     0.049 A 
ATOM     55  C   UNL A   1      43.926  31.778  29.573  1.00  0.00     0.074 A 
ATOM     56  C   UNL A   1      39.258  33.806  31.596  1.00  0.00     0.029 A 
ATOM     57  N   UNL A   1      39.806  34.087  29.476  1.00  0.00    -0.354 N 
ATOM     58  N   UNL A   1      42.934  32.542  29.935  1.00  0.00    -0.248 NA
ATOM     59  C   UNL A   1      44.917  32.499  28.769  1.00  0.00     0.031 C 
ATOM     60  C   UNL A   1      40.613  34.236  31.529  1.00  0.00     0.029 A 
ATOM     61  C   UNL A   1      40.938  34.411  30.197  1.00  0.00     0.049 A 
ATOM     62  H   UNL A   1      39.751  34.106  28.494  1.00  0.00     0.167 HD
ATOM     63  C   UNL A   1      43.089  33.783  29.371  1.00  0.00     0.074 A 
ATOM     64  C   UNL A   1      44.349  33.711  28.657  1.00  0.00     0.031 C 
ATOM     65  C   UNL A   1      42.148  34.763  29.477  1.00  0.00     0.037 A 
BRANCH  52  66
ATOM     66  C   UNL A   1      36.161  33.709  29.944  1.00  0.00     0.057 A 
ATOM     67  C   UNL A   1      35.354  34.149  28.880  1.00  0.00     0.134 A 
ATOM     68  C   UNL A   1      35.586  33.858  31.217  1.00  0.00     0.134 A 
ATOM     69  F   UNL A   1      35.712  33.975  27.602  1.00  0.00    -0.206 F 
ATOM     70  C   UNL A   1      34.135  34.808  29.075  1.00  0.00     0.040 A 
ATOM     71  C   UNL A   1      34.397  34.568  31.433  1.00  0.00     0.040 A 
ATOM     72  F   UNL A   1      36.142  33.296  32.301  1.00  0.00    -0.206 F 
ATOM     73  C   UNL A   1      33.675  35.062  30.358  1.00  0.00     0.006 A 
ENDBRANCH  52  66
BRANCH  53  74
ATOM     74  C   UNL A   1      44.611  29.298  28.906  1.00  0.00     0.057 A 
ATOM     75  C   UNL A   1      45.522  28.351  29.410  1.00  0.00     0.134 A 
ATOM     76  C   UNL A   1      44.075  29.053  27.640  1.00  0.00     0.134 A 
ATOM     77  F   UNL A   1      46.071  28.520  30.625  1.00  0.00    -0.206 F 
ATOM     78  C   UNL A   1      45.798  27.161  28.734  1.00  0.00     0.040 A 
ATOM     79  C   UNL A   1      44.361  27.874  26.944  1.00  0.00     0.040 A 
ATOM     80  F   UNL A   1      43.177  29.891  27.102  1.00  0.00    -0.206 F 
ATOM     81  C   UNL A   1      45.195  26.908  27.507  1.00  0.00     0.006 A 
ENDBRANCH  53  74
BRANCH  65  82
ATOM     82  C   UNL A   1      42.293  36.133  28.880  1.00  0.00     0.057 A 
ATOM     83  C   UNL A   1      41.788  36.466  27.615  1.00  0.00     0.134 A 
ATOM     84  C   UNL A   1      43.054  37.137  29.514  1.00  0.00     0.134 A 
ATOM     85  F   UNL A   1      41.110  35.570  26.884  1.00  0.00    -0.206 F 
ATOM     86  C   UNL A   1      41.984  37.729  27.041  1.00  0.00     0.040 A 
ATOM     87  C   UNL A   1      43.297  38.383  28.931  1.00  0.00     0.040 A 
ATOM     88  F   UNL A   1      43.578  36.956  30.735  1.00  0.00    -0.206 F 
ATOM     89  C   UNL A   1      42.750  38.688  27.695  1.00  0.00     0.006 A 
ENDBRANCH  65  82
ENDBRANCH  39  40
ENDBRANCH  31  34
ENDBRANCH  29  30
ENDBRANCH   1  29
TORSDOF 11
ENDMDL
MODEL 3
REMARK VINA RESULT:     -13.5      2.666      4.259
REMARK SMILES Cc1ccccc1[C@@H]1[NH2+][C@@H](C(=O)NCCCNC(=O)c2ccc(-c3c4nc(c(-c5c(F)cccc5F)c5ccc([nH]5)c(-c5c(F)cccc5F)c5nc(c(-c6c(F)cccc6F)c6ccc3[nH]6)C=C5)C=C4)cc2)CC2=c3ccccc3=N[C@H]21
REMARK SMILES IDX 15 1 14 2 13 3 11 4 12 5 10 7 8 8 9 9 83 10 75 13 82 14
REMARK SMILES IDX 74 15 76 16 81 17 77 18 80 19 78 20 79 21 7 22 1 23 2 24
REMARK SMILES IDX 3 25 4 26 6 27 5 28 16 29 17 30 18 31 19 33 20 34 21 35
REMARK SMILES IDX 73 36 22 37 72 38 23 39 24 40 25 41 66 42 26 43 71 44 65 45
REMARK SMILES IDX 67 46 27 47 70 48 64 49 63 50 28 52 54 53 37 54 53 55 38 56
REMARK SMILES IDX 41 57 52 58 68 59 39 60 40 61 51 63 69 64 42 65 29 66 30 67
REMARK SMILES IDX 35 68 31 69 32 70 34 71 36 72 33 73 55 74 56 75 61 76 57 77
REMARK SMILES IDX 58 78 60 79 62 80 59 81 43 82 44 83 49 84 45 85 46 86 48 87
REMARK SMILES IDX 50 88 47 89
REMARK H PARENT 13 6 9 11 9 12 17 32 67 51 41 62
REMARK Flexibility Score: inf
ROOT
ATOM      1  C   UNL A   1      34.618  32.326  28.315  1.00  0.00     0.042 C 
ENDROOT
BRANCH   1   2
ATOM      2  C   UNL A   1      34.736  30.962  27.638  1.00  0.00     0.118 C 
BRANCH   2   3
ATOM      3  N   UNL A   1      33.608  30.050  27.816  1.00  0.00    -0.351 N 
ATOM      4  C   UNL A   1      33.131  29.031  27.028  1.00  0.00     0.278 C 
ATOM      5  O   UNL A   1      32.665  28.054  27.628  1.00  0.00    -0.268 OA
ATOM      6  H   UNL A   1      33.100  30.190  28.648  1.00  0.00     0.163 HD
BRANCH   4   7
ATOM      7  C   UNL A   1      32.958  29.162  25.484  1.00  0.00     0.277 C 
ATOM      8  C   UNL A   1      31.015  28.049  24.196  1.00  0.00     0.243 C 
ATOM      9  N   UNL A   1      31.512  29.103  25.119  1.00  0.00    -0.327 N 
ATOM     10  C   UNL A   1      32.048  27.274  23.320  1.00  0.00     0.196 C 
ATOM     11  H   UNL A   1      30.993  28.998  25.991  1.00  0.00     0.347 HD
ATOM     12  H   UNL A   1      31.371  29.962  24.588  1.00  0.00     0.347 HD
ATOM     13  C   UNL A   1      33.302  27.116  24.098  1.00  0.00    -0.024 C 
ATOM     14  N   UNL A   1      31.637  25.867  23.009  1.00  0.00    -0.270 NA
ATOM     15  C   UNL A   1      33.906  28.354  24.605  1.00  0.00     0.109 C 
ATOM     16  C   UNL A   1      33.647  25.851  24.270  1.00  0.00     0.002 A 
ATOM     17  C   UNL A   1      32.590  25.150  23.528  1.00  0.00     0.066 A 
ATOM     18  C   UNL A   1      34.677  25.171  24.978  1.00  0.00     0.010 A 
ATOM     19  C   UNL A   1      32.735  23.679  23.455  1.00  0.00     0.028 A 
ATOM     20  C   UNL A   1      34.714  23.830  24.912  1.00  0.00     0.001 A 
ATOM     21  C   UNL A   1      33.752  23.090  24.111  1.00  0.00     0.002 A 
BRANCH   8  22
ATOM     22  C   UNL A   1      29.925  28.627  23.280  1.00  0.00     0.015 A 
ATOM     23  C   UNL A   1      28.122  26.895  23.935  1.00  0.00     0.045 C 
ATOM     24  C   UNL A   1      28.605  28.112  23.192  1.00  0.00    -0.042 A 
ATOM     25  C   UNL A   1      27.644  28.805  22.430  1.00  0.00     0.004 A 
ATOM     26  C   UNL A   1      27.974  29.961  21.728  1.00  0.00     0.000 A 
ATOM     27  C   UNL A   1      30.237  29.788  22.541  1.00  0.00     0.010 A 
ATOM     28  C   UNL A   1      29.274  30.445  21.773  1.00  0.00     0.001 A 
ENDBRANCH   8  22
ENDBRANCH   4   7
ENDBRANCH   2   3
ENDBRANCH   1   2
BRANCH   1  29
ATOM     29  C   UNL A   1      34.965  32.342  29.794  1.00  0.00     0.118 C 
BRANCH  29  30
ATOM     30  N   UNL A   1      34.050  33.158  30.599  1.00  0.00    -0.352 N 
ATOM     31  C   UNL A   1      34.314  33.846  31.777  1.00  0.00     0.251 C 
ATOM     32  H   UNL A   1      33.128  33.227  30.261  1.00  0.00     0.163 HD
ATOM     33  O   UNL A   1      33.488  34.598  32.266  1.00  0.00    -0.269 OA
BRANCH  31  34
ATOM     34  C   UNL A   1      35.675  33.740  32.349  1.00  0.00     0.039 A 
ATOM     35  C   UNL A   1      36.680  34.517  31.771  1.00  0.00     0.014 A 
ATOM     36  C   UNL A   1      35.985  32.668  33.177  1.00  0.00     0.014 A 
ATOM     37  C   UNL A   1      37.985  34.038  31.786  1.00  0.00     0.010 A 
ATOM     38  C   UNL A   1      37.255  32.131  33.092  1.00  0.00     0.010 A 
ATOM     39  C   UNL A   1      38.233  32.774  32.325  1.00  0.00    -0.014 A 
BRANCH  39  40
ATOM     40  C   UNL A   1      39.415  31.991  31.970  1.00  0.00     0.031 A 
ATOM     41  C   UNL A   1      39.312  30.785  31.128  1.00  0.00     0.074 A 
ATOM     42  C   UNL A   1      40.641  32.403  32.369  1.00  0.00     0.049 A 
ATOM     43  N   UNL A   1      40.172  29.821  31.147  1.00  0.00    -0.248 NA
ATOM     44  C   UNL A   1      38.208  30.559  30.204  1.00  0.00     0.031 C 
ATOM     45  C   UNL A   1      41.938  31.900  31.917  1.00  0.00     0.029 A 
ATOM     46  N   UNL A   1      40.953  33.227  33.461  1.00  0.00    -0.354 N 
ATOM     47  C   UNL A   1      39.903  29.004  30.078  1.00  0.00     0.074 A 
ATOM     48  C   UNL A   1      38.639  29.474  29.554  1.00  0.00     0.031 C 
ATOM     49  C   UNL A   1      42.849  32.144  32.872  1.00  0.00     0.029 A 
ATOM     50  C   UNL A   1      42.140  32.690  34.014  1.00  0.00     0.049 A 
ATOM     51  H   UNL A   1      40.451  34.013  33.776  1.00  0.00     0.167 HD
ATOM     52  C   UNL A   1      40.830  28.095  29.663  1.00  0.00     0.037 A 
ATOM     53  C   UNL A   1      42.164  32.186  35.282  1.00  0.00     0.037 A 
ATOM     54  C   UNL A   1      42.025  28.091  30.502  1.00  0.00     0.049 A 
ATOM     55  C   UNL A   1      42.567  30.728  35.381  1.00  0.00     0.074 A 
ATOM     56  C   UNL A   1      43.300  28.620  30.380  1.00  0.00     0.029 A 
ATOM     57  N   UNL A   1      41.909  27.693  31.821  1.00  0.00    -0.354 N 
ATOM     58  N   UNL A   1      42.813  29.955  34.361  1.00  0.00    -0.248 NA
ATOM     59  C   UNL A   1      42.608  29.999  36.652  1.00  0.00     0.031 C 
ATOM     60  C   UNL A   1      43.955  28.512  31.638  1.00  0.00     0.029 A 
ATOM     61  C   UNL A   1      43.073  27.926  32.527  1.00  0.00     0.049 A 
ATOM     62  H   UNL A   1      41.097  27.294  32.208  1.00  0.00     0.167 HD
ATOM     63  C   UNL A   1      42.955  28.662  34.796  1.00  0.00     0.074 A 
ATOM     64  C   UNL A   1      42.828  28.740  36.238  1.00  0.00     0.031 C 
ATOM     65  C   UNL A   1      43.106  27.610  33.943  1.00  0.00     0.037 A 
BRANCH  52  66
ATOM     66  C   UNL A   1      40.722  27.393  28.335  1.00  0.00     0.057 A 
ATOM     67  C   UNL A   1      39.993  26.199  28.196  1.00  0.00     0.134 A 
ATOM     68  C   UNL A   1      41.364  27.830  27.164  1.00  0.00     0.134 A 
ATOM     69  F   UNL A   1      39.238  25.712  29.188  1.00  0.00    -0.206 F 
ATOM     70  C   UNL A   1      40.013  25.431  27.026  1.00  0.00     0.040 A 
ATOM     71  C   UNL A   1      41.443  27.044  26.006  1.00  0.00     0.040 A 
ATOM     72  F   UNL A   1      41.917  29.049  27.088  1.00  0.00    -0.206 F 
ATOM     73  C   UNL A   1      40.779  25.828  25.941  1.00  0.00     0.006 A 
ENDBRANCH  52  66
BRANCH  53  74
ATOM     74  C   UNL A   1      41.207  32.860  36.198  1.00  0.00     0.057 A 
ATOM     75  C   UNL A   1      41.580  34.075  36.803  1.00  0.00     0.134 A 
ATOM     76  C   UNL A   1      39.851  32.526  36.227  1.00  0.00     0.134 A 
ATOM     77  F   UNL A   1      42.866  34.463  36.806  1.00  0.00    -0.206 F 
ATOM     78  C   UNL A   1      40.634  34.966  37.313  1.00  0.00     0.040 A 
ATOM     79  C   UNL A   1      38.896  33.401  36.754  1.00  0.00     0.040 A 
ATOM     80  F   UNL A   1      39.410  31.400  35.645  1.00  0.00    -0.206 F 
ATOM     81  C   UNL A   1      39.283  34.640  37.265  1.00  0.00     0.006 A 
ENDBRANCH  53  74
BRANCH  65  82
ATOM     82  C   UNL A   1      43.274  26.185  34.389  1.00  0.00     0.057 A 
ATOM     83  C   UNL A   1      44.455  25.460  34.181  1.00  0.00     0.134 A 
ATOM     84  C   UNL A   1      42.201  25.455  34.940  1.00  0.00     0.134 A 
ATOM     85  F   UNL A   1      45.520  26.027  33.596  1.00  0.00    -0.206 F 
ATOM     86  C   UNL A   1      44.579  24.113  34.545  1.00  0.00     0.040 A 
ATOM     87  C   UNL A   1      42.297  24.099  35.262  1.00  0.00     0.040 A 
ATOM     88  F   UNL A   1      41.020  26.032  35.208  1.00  0.00    -0.206 F 
ATOM     89  C   UNL A   1      43.493  23.425  35.078  1.00  0.00     0.006 A 
ENDBRANCH  65  82
ENDBRANCH  39  40
ENDBRANCH  31  34
ENDBRANCH  29  30
ENDBRANCH   1  29
TORSDOF 11
ENDMDL
