MODEL 1
REMARK VINA RESULT:     -14.1      0.000      0.000
REMARK SMILES O=C(NCCCNC(=O)[C@H]1Cc2c([nH]c3ccccc23)[C@H](c2c[nH]c3ccccc23)[NH2+]1)c1ccc(-c2c3nc(c(-c4c(F)cccc4F)c4ccc([nH]4)c(-c4c(F)cccc4F)c4nc(c(-c5c(F)cccc5F)c5ccc2[nH]5)C=C4)C=C3)cc1
REMARK SMILES IDX 4 1 3 2 1 3 2 4 32 6 33 7 85 8 34 9 84 10 35 11 36 12 37 13
REMARK SMILES IDX 78 14 38 15 83 16 77 17 79 18 39 19 82 20 76 21 75 22 40 24
REMARK SMILES IDX 66 25 49 26 65 27 50 28 53 29 64 30 80 31 51 32 52 33 63 35
REMARK SMILES IDX 81 36 54 37 41 38 42 39 47 40 43 41 44 42 46 43 48 44 45 45
REMARK SMILES IDX 67 46 68 47 73 48 69 49 70 50 72 51 74 52 71 53 55 54 56 55
REMARK SMILES IDX 61 56 57 57 58 58 60 59 62 60 59 61 5 62 6 63 7 64 8 65 9 67
REMARK SMILES IDX 10 68 11 69 31 70 12 71 21 72 13 75 20 76 14 77 15 78 19 79
REMARK SMILES IDX 16 81 18 82 17 83 22 84 23 85 30 86 24 87 25 88 29 89 26 91
REMARK SMILES IDX 28 92 27 93
REMARK H PARENT 3 5 79 23 53 34 7 66 31 73 31 74 14 80 24 90
REMARK Flexibility Score: inf
ROOT
ATOM      1  C   UNL A   1      40.295  23.291  27.138  1.00  0.00     0.118 C 
ENDROOT
BRANCH   1   2
ATOM      2  N   UNL A   1      41.044  24.046  26.134  1.00  0.00    -0.352 N 
ATOM      3  O   UNL A   1      41.658  25.886  24.985  1.00  0.00    -0.269 OA
ATOM      4  C   UNL A   1      41.275  25.395  26.039  1.00  0.00     0.251 C 
ATOM      5  H   UNL A   1      41.445  23.503  25.417  1.00  0.00     0.163 HD
BRANCH   4   6
ATOM      6  C   UNL A   1      41.069  26.241  27.228  1.00  0.00     0.039 A 
ATOM      7  C   UNL A   1      41.897  27.346  27.428  1.00  0.00     0.014 A 
ATOM      8  C   UNL A   1      40.034  25.961  28.122  1.00  0.00     0.014 A 
ATOM      9  C   UNL A   1      41.809  28.068  28.601  1.00  0.00     0.010 A 
ATOM     10  C   UNL A   1      39.851  26.782  29.235  1.00  0.00     0.010 A 
ATOM     11  C   UNL A   1      40.744  27.835  29.482  1.00  0.00    -0.014 A 
BRANCH  11  12
ATOM     12  C   UNL A   1      40.520  28.820  30.563  1.00  0.00     0.031 A 
ATOM     13  C   UNL A   1      39.446  29.856  30.467  1.00  0.00     0.074 A 
ATOM     14  C   UNL A   1      41.301  28.722  31.658  1.00  0.00     0.049 A 
ATOM     15  N   UNL A   1      39.125  30.779  31.335  1.00  0.00    -0.248 NA
ATOM     16  C   UNL A   1      38.628  29.871  29.244  1.00  0.00     0.031 C 
ATOM     17  C   UNL A   1      42.385  27.747  31.837  1.00  0.00     0.029 A 
ATOM     18  N   UNL A   1      41.297  29.424  32.833  1.00  0.00    -0.354 N 
ATOM     19  C   UNL A   1      38.088  31.499  30.760  1.00  0.00     0.074 A 
ATOM     20  C   UNL A   1      37.839  30.916  29.459  1.00  0.00     0.031 C 
ATOM     21  C   UNL A   1      42.900  27.876  33.067  1.00  0.00     0.029 A 
ATOM     22  C   UNL A   1      42.253  29.000  33.724  1.00  0.00     0.049 A 
ATOM     23  H   UNL A   1      40.671  30.160  33.021  1.00  0.00     0.167 HD
ATOM     24  C   UNL A   1      37.414  32.551  31.281  1.00  0.00     0.037 A 
ATOM     25  C   UNL A   1      42.600  29.489  34.927  1.00  0.00     0.037 A 
ATOM     26  C   UNL A   1      37.670  33.103  32.588  1.00  0.00     0.049 A 
ATOM     27  C   UNL A   1      41.854  30.678  35.452  1.00  0.00     0.074 A 
ATOM     28  C   UNL A   1      37.009  34.137  33.227  1.00  0.00     0.029 A 
ATOM     29  N   UNL A   1      38.670  32.674  33.449  1.00  0.00    -0.354 N 
ATOM     30  N   UNL A   1      40.844  31.320  34.917  1.00  0.00    -0.248 NA
ATOM     31  C   UNL A   1      42.299  31.217  36.742  1.00  0.00     0.031 C 
ATOM     32  C   UNL A   1      37.648  34.375  34.447  1.00  0.00     0.029 A 
ATOM     33  C   UNL A   1      38.668  33.449  34.597  1.00  0.00     0.049 A 
ATOM     34  H   UNL A   1      39.290  31.931  33.269  1.00  0.00     0.167 HD
ATOM     35  C   UNL A   1      40.523  32.330  35.810  1.00  0.00     0.074 A 
ATOM     36  C   UNL A   1      41.425  32.193  36.935  1.00  0.00     0.031 C 
ATOM     37  C   UNL A   1      39.575  33.293  35.705  1.00  0.00     0.037 A 
BRANCH  24  38
ATOM     38  C   UNL A   1      36.351  33.198  30.442  1.00  0.00     0.057 A 
ATOM     39  C   UNL A   1      36.661  34.062  29.385  1.00  0.00     0.134 A 
ATOM     40  C   UNL A   1      35.002  32.874  30.639  1.00  0.00     0.134 A 
ATOM     41  F   UNL A   1      37.931  34.421  29.149  1.00  0.00    -0.206 F 
ATOM     42  C   UNL A   1      35.665  34.583  28.555  1.00  0.00     0.040 A 
ATOM     43  C   UNL A   1      34.001  33.369  29.802  1.00  0.00     0.040 A 
ATOM     44  F   UNL A   1      34.638  32.048  31.632  1.00  0.00    -0.206 F 
ATOM     45  C   UNL A   1      34.333  34.228  28.755  1.00  0.00     0.006 A 
ENDBRANCH  24  38
BRANCH  25  46
ATOM     46  C   UNL A   1      43.731  28.893  35.680  1.00  0.00     0.057 A 
ATOM     47  C   UNL A   1      45.048  29.320  35.478  1.00  0.00     0.134 A 
ATOM     48  C   UNL A   1      43.524  27.862  36.606  1.00  0.00     0.134 A 
ATOM     49  F   UNL A   1      45.313  30.295  34.596  1.00  0.00    -0.206 F 
ATOM     50  C   UNL A   1      46.119  28.724  36.144  1.00  0.00     0.040 A 
ATOM     51  C   UNL A   1      44.582  27.281  37.306  1.00  0.00     0.040 A 
ATOM     52  F   UNL A   1      42.285  27.413  36.857  1.00  0.00    -0.206 F 
ATOM     53  C   UNL A   1      45.887  27.704  37.065  1.00  0.00     0.006 A 
ENDBRANCH  25  46
BRANCH  37  54
ATOM     54  C   UNL A   1      39.456  34.249  36.854  1.00  0.00     0.057 A 
ATOM     55  C   UNL A   1      38.766  33.910  38.026  1.00  0.00     0.134 A 
ATOM     56  C   UNL A   1      40.052  35.514  36.794  1.00  0.00     0.134 A 
ATOM     57  F   UNL A   1      38.158  32.720  38.138  1.00  0.00    -0.206 F 
ATOM     58  C   UNL A   1      38.648  34.810  39.085  1.00  0.00     0.040 A 
ATOM     59  C   UNL A   1      39.969  36.409  37.859  1.00  0.00     0.040 A 
ATOM     60  F   UNL A   1      40.733  35.896  35.703  1.00  0.00    -0.206 F 
ATOM     61  C   UNL A   1      39.257  36.061  39.006  1.00  0.00     0.006 A 
ENDBRANCH  37  54
ENDBRANCH  11  12
ENDBRANCH   4   6
ENDBRANCH   1   2
BRANCH   1  62
ATOM     62  C   UNL A   1      39.399  22.255  26.492  1.00  0.00     0.042 C 
BRANCH  62  63
ATOM     63  C   UNL A   1      38.008  22.815  26.270  1.00  0.00     0.118 C 
BRANCH  63  64
ATOM     64  N   UNL A   1      37.812  23.251  24.895  1.00  0.00    -0.351 N 
ATOM     65  C   UNL A   1      36.835  23.105  23.963  1.00  0.00     0.278 C 
ATOM     66  H   UNL A   1      38.573  23.778  24.559  1.00  0.00     0.163 HD
ATOM     67  O   UNL A   1      37.070  23.645  22.871  1.00  0.00    -0.268 OA
BRANCH  65  68
ATOM     68  C   UNL A   1      35.514  22.317  24.152  1.00  0.00     0.277 C 
ATOM     69  C   UNL A   1      35.699  20.816  24.301  1.00  0.00     0.114 C 
ATOM     70  N   UNL A   1      34.795  22.901  25.328  1.00  0.00    -0.324 N 
ATOM     71  C   UNL A   1      34.480  20.144  24.758  1.00  0.00    -0.006 A 
ATOM     72  C   UNL A   1      33.454  22.343  25.582  1.00  0.00     0.264 C 
ATOM     73  H   UNL A   1      34.696  23.905  25.171  1.00  0.00     0.347 HD
ATOM     74  H   UNL A   1      35.357  22.672  26.148  1.00  0.00     0.347 HD
ATOM     75  C   UNL A   1      33.480  20.848  25.384  1.00  0.00     0.083 A 
ATOM     76  C   UNL A   1      34.176  18.770  24.771  1.00  0.00     0.003 A 
ATOM     77  N   UNL A   1      32.574  19.919  25.832  1.00  0.00    -0.353 N 
ATOM     78  C   UNL A   1      32.975  18.645  25.466  1.00  0.00     0.046 A 
ATOM     79  C   UNL A   1      34.836  17.624  24.291  1.00  0.00     0.010 A 
ATOM     80  H   UNL A   1      31.756  20.129  26.340  1.00  0.00     0.166 HD
ATOM     81  C   UNL A   1      32.396  17.392  25.704  1.00  0.00     0.026 A 
ATOM     82  C   UNL A   1      34.265  16.372  24.514  1.00  0.00     0.001 A 
ATOM     83  C   UNL A   1      33.065  16.261  25.212  1.00  0.00     0.002 A 
BRANCH  72  84
ATOM     84  C   UNL A   1      32.339  23.010  24.793  1.00  0.00     0.041 A 
ATOM     85  C   UNL A   1      31.872  22.487  23.592  1.00  0.00     0.093 A 
ATOM     86  C   UNL A   1      31.533  24.194  25.035  1.00  0.00     0.009 A 
ATOM     87  N   UNL A   1      30.937  23.326  23.064  1.00  0.00    -0.361 N 
ATOM     88  C   UNL A   1      30.715  24.378  23.913  1.00  0.00     0.046 A 
ATOM     89  C   UNL A   1      31.398  25.146  26.073  1.00  0.00     0.011 A 
ATOM     90  H   UNL A   1      30.488  23.195  22.198  1.00  0.00     0.166 HD
ATOM     91  C   UNL A   1      29.845  25.466  23.757  1.00  0.00     0.026 A 
ATOM     92  C   UNL A   1      30.531  26.240  25.937  1.00  0.00     0.001 A 
ATOM     93  C   UNL A   1      29.774  26.402  24.786  1.00  0.00     0.002 A 
ENDBRANCH  72  84
ENDBRANCH  65  68
ENDBRANCH  63  64
ENDBRANCH  62  63
ENDBRANCH   1  62
TORSDOF 11
ENDMDL
MODEL 2
REMARK VINA RESULT:     -14.1      4.358      6.037
REMARK SMILES O=C(NCCCNC(=O)[C@H]1Cc2c([nH]c3ccccc23)[C@H](c2c[nH]c3ccccc23)[NH2+]1)c1ccc(-c2c3nc(c(-c4c(F)cccc4F)c4ccc([nH]4)c(-c4c(F)cccc4F)c4nc(c(-c5c(F)cccc5F)c5ccc2[nH]5)C=C4)C=C3)cc1
REMARK SMILES IDX 4 1 3 2 1 3 2 4 32 6 33 7 85 8 34 9 84 10 35 11 36 12 37 13
REMARK SMILES IDX 78 14 38 15 83 16 77 17 79 18 39 19 82 20 76 21 75 22 40 24
REMARK SMILES IDX 66 25 49 26 65 27 50 28 53 29 64 30 80 31 51 32 52 33 63 35
REMARK SMILES IDX 81 36 54 37 41 38 42 39 47 40 43 41 44 42 46 43 48 44 45 45
REMARK SMILES IDX 67 46 68 47 73 48 69 49 70 50 72 51 74 52 71 53 55 54 56 55
REMARK SMILES IDX 61 56 57 57 58 58 60 59 62 60 59 61 5 62 6 63 7 64 8 65 9 67
REMARK SMILES IDX 10 68 11 69 31 70 12 71 21 72 13 75 20 76 14 77 15 78 19 79
REMARK SMILES IDX 16 81 18 82 17 83 22 84 23 85 30 86 24 87 25 88 29 89 26 91
REMARK SMILES IDX 28 92 27 93
REMARK H PARENT 3 5 79 23 53 34 7 66 31 73 31 74 14 80 24 90
REMARK Flexibility Score: inf
ROOT
ATOM      1  C   UNL A   1      39.616  20.070  26.519  1.00  0.00     0.118 C 
ENDROOT
BRANCH   1   2
ATOM      2  N   UNL A   1      40.829  19.386  26.072  1.00  0.00    -0.352 N 
ATOM      3  O   UNL A   1      42.897  19.244  25.185  1.00  0.00    -0.269 OA
ATOM      4  C   UNL A   1      42.085  19.885  25.841  1.00  0.00     0.251 C 
ATOM      5  H   UNL A   1      40.728  18.419  25.913  1.00  0.00     0.163 HD
BRANCH   4   6
ATOM      6  C   UNL A   1      42.449  21.197  26.404  1.00  0.00     0.039 A 
ATOM      7  C   UNL A   1      42.673  22.270  25.541  1.00  0.00     0.014 A 
ATOM      8  C   UNL A   1      42.533  21.371  27.787  1.00  0.00     0.014 A 
ATOM      9  C   UNL A   1      43.146  23.467  26.040  1.00  0.00     0.010 A 
ATOM     10  C   UNL A   1      42.868  22.625  28.299  1.00  0.00     0.010 A 
ATOM     11  C   UNL A   1      43.184  23.676  27.425  1.00  0.00    -0.014 A 
BRANCH  11  12
ATOM     12  C   UNL A   1      43.410  25.057  27.904  1.00  0.00     0.031 A 
ATOM     13  C   UNL A   1      42.269  25.976  28.208  1.00  0.00     0.074 A 
ATOM     14  C   UNL A   1      44.687  25.444  28.093  1.00  0.00     0.049 A 
ATOM     15  N   UNL A   1      42.310  27.209  28.642  1.00  0.00    -0.248 NA
ATOM     16  C   UNL A   1      40.908  25.459  27.994  1.00  0.00     0.031 C 
ATOM     17  C   UNL A   1      45.869  24.617  27.813  1.00  0.00     0.029 A 
ATOM     18  N   UNL A   1      45.213  26.609  28.583  1.00  0.00    -0.354 N 
ATOM     19  C   UNL A   1      40.989  27.624  28.732  1.00  0.00     0.074 A 
ATOM     20  C   UNL A   1      40.166  26.517  28.294  1.00  0.00     0.031 C 
ATOM     21  C   UNL A   1      46.972  25.278  28.188  1.00  0.00     0.029 A 
ATOM     22  C   UNL A   1      46.586  26.605  28.641  1.00  0.00     0.049 A 
ATOM     23  H   UNL A   1      44.662  27.374  28.865  1.00  0.00     0.167 HD
ATOM     24  C   UNL A   1      40.519  28.825  29.143  1.00  0.00     0.037 A 
ATOM     25  C   UNL A   1      47.447  27.579  28.984  1.00  0.00     0.037 A 
ATOM     26  C   UNL A   1      41.359  29.907  29.591  1.00  0.00     0.049 A 
ATOM     27  C   UNL A   1      46.886  28.906  29.398  1.00  0.00     0.074 A 
ATOM     28  C   UNL A   1      40.978  31.146  30.075  1.00  0.00     0.029 A 
ATOM     29  N   UNL A   1      42.747  29.883  29.602  1.00  0.00    -0.354 N 
ATOM     30  N   UNL A   1      45.633  29.271  29.523  1.00  0.00    -0.248 NA
ATOM     31  C   UNL A   1      47.858  29.961  29.710  1.00  0.00     0.031 C 
ATOM     32  C   UNL A   1      42.133  31.894  30.319  1.00  0.00     0.029 A 
ATOM     33  C   UNL A   1      43.236  31.100  30.047  1.00  0.00     0.049 A 
ATOM     34  H   UNL A   1      43.300  29.115  29.331  1.00  0.00     0.167 HD
ATOM     35  C   UNL A   1      45.664  30.591  29.940  1.00  0.00     0.074 A 
ATOM     36  C   UNL A   1      47.060  30.951  30.080  1.00  0.00     0.031 C 
ATOM     37  C   UNL A   1      44.631  31.436  30.178  1.00  0.00     0.037 A 
BRANCH  24  38
ATOM     38  C   UNL A   1      39.036  29.055  29.112  1.00  0.00     0.057 A 
ATOM     39  C   UNL A   1      38.241  28.939  30.258  1.00  0.00     0.134 A 
ATOM     40  C   UNL A   1      38.415  29.492  27.934  1.00  0.00     0.134 A 
ATOM     41  F   UNL A   1      38.771  28.515  31.414  1.00  0.00    -0.206 F 
ATOM     42  C   UNL A   1      36.878  29.246  30.233  1.00  0.00     0.040 A 
ATOM     43  C   UNL A   1      37.059  29.824  27.902  1.00  0.00     0.040 A 
ATOM     44  F   UNL A   1      39.120  29.629  26.802  1.00  0.00    -0.206 F 
ATOM     45  C   UNL A   1      36.287  29.701  29.056  1.00  0.00     0.006 A 
ENDBRANCH  24  38
BRANCH  25  46
ATOM     46  C   UNL A   1      48.910  27.351  28.896  1.00  0.00     0.057 A 
ATOM     47  C   UNL A   1      49.648  26.918  30.002  1.00  0.00     0.134 A 
ATOM     48  C   UNL A   1      49.611  27.583  27.705  1.00  0.00     0.134 A 
ATOM     49  F   UNL A   1      49.037  26.689  31.174  1.00  0.00    -0.206 F 
ATOM     50  C   UNL A   1      51.032  26.755  29.938  1.00  0.00     0.040 A 
ATOM     51  C   UNL A   1      50.989  27.390  27.616  1.00  0.00     0.040 A 
ATOM     52  F   UNL A   1      48.962  27.988  26.603  1.00  0.00    -0.206 F 
ATOM     53  C   UNL A   1      51.706  26.987  28.740  1.00  0.00     0.006 A 
ENDBRANCH  25  46
BRANCH  37  54
ATOM     54  C   UNL A   1      44.984  32.818  30.639  1.00  0.00     0.057 A 
ATOM     55  C   UNL A   1      45.144  33.877  29.736  1.00  0.00     0.134 A 
ATOM     56  C   UNL A   1      45.148  33.095  32.001  1.00  0.00     0.134 A 
ATOM     57  F   UNL A   1      45.019  33.671  28.416  1.00  0.00    -0.206 F 
ATOM     58  C   UNL A   1      45.486  35.158  30.172  1.00  0.00     0.040 A 
ATOM     59  C   UNL A   1      45.457  34.378  32.451  1.00  0.00     0.040 A 
ATOM     60  F   UNL A   1      45.001  32.127  32.917  1.00  0.00    -0.206 F 
ATOM     61  C   UNL A   1      45.635  35.412  31.533  1.00  0.00     0.006 A 
ENDBRANCH  37  54
ENDBRANCH  11  12
ENDBRANCH   4   6
ENDBRANCH   1   2
BRANCH   1  62
ATOM     62  C   UNL A   1      38.948  20.810  25.378  1.00  0.00     0.042 C 
BRANCH  62  63
ATOM     63  C   UNL A   1      38.346  22.113  25.866  1.00  0.00     0.118 C 
BRANCH  63  64
ATOM     64  N   UNL A   1      37.807  22.904  24.769  1.00  0.00    -0.351 N 
ATOM     65  C   UNL A   1      36.599  23.013  24.157  1.00  0.00     0.278 C 
ATOM     66  H   UNL A   1      38.480  23.505  24.375  1.00  0.00     0.163 HD
ATOM     67  O   UNL A   1      36.559  23.830  23.223  1.00  0.00    -0.268 OA
BRANCH  65  68
ATOM     68  C   UNL A   1      35.328  22.201  24.510  1.00  0.00     0.277 C 
ATOM     69  C   UNL A   1      35.461  20.704  24.282  1.00  0.00     0.114 C 
ATOM     70  N   UNL A   1      34.965  22.510  25.930  1.00  0.00    -0.324 N 
ATOM     71  C   UNL A   1      34.363  19.946  24.886  1.00  0.00    -0.006 A 
ATOM     72  C   UNL A   1      33.703  21.907  26.398  1.00  0.00     0.264 C 
ATOM     73  H   UNL A   1      34.884  23.523  26.022  1.00  0.00     0.347 HD
ATOM     74  H   UNL A   1      35.703  22.107  26.506  1.00  0.00     0.347 HD
ATOM     75  C   UNL A   1      33.596  20.492  25.885  1.00  0.00     0.083 A 
ATOM     76  C   UNL A   1      33.996  18.602  24.684  1.00  0.00     0.003 A 
ATOM     77  N   UNL A   1      32.783  19.486  26.345  1.00  0.00    -0.353 N 
ATOM     78  C   UNL A   1      33.006  18.324  25.624  1.00  0.00     0.046 A 
ATOM     79  C   UNL A   1      34.448  17.591  23.816  1.00  0.00     0.010 A 
ATOM     80  H   UNL A   1      32.134  19.577  27.081  1.00  0.00     0.166 HD
ATOM     81  C   UNL A   1      32.438  17.049  25.731  1.00  0.00     0.026 A 
ATOM     82  C   UNL A   1      33.885  16.319  23.907  1.00  0.00     0.001 A 
ATOM     83  C   UNL A   1      32.897  16.055  24.853  1.00  0.00     0.002 A 
BRANCH  72  84
ATOM     84  C   UNL A   1      32.464  22.729  26.088  1.00  0.00     0.041 A 
ATOM     85  C   UNL A   1      31.230  22.136  25.839  1.00  0.00     0.093 A 
ATOM     86  C   UNL A   1      32.225  24.159  26.000  1.00  0.00     0.009 A 
ATOM     87  N   UNL A   1      30.322  23.097  25.510  1.00  0.00    -0.361 N 
ATOM     88  C   UNL A   1      30.899  24.337  25.589  1.00  0.00     0.046 A 
ATOM     89  C   UNL A   1      32.980  25.338  26.213  1.00  0.00     0.011 A 
ATOM     90  H   UNL A   1      29.388  22.924  25.252  1.00  0.00     0.166 HD
ATOM     91  C   UNL A   1      30.328  25.591  25.330  1.00  0.00     0.026 A 
ATOM     92  C   UNL A   1      32.427  26.601  25.961  1.00  0.00     0.001 A 
ATOM     93  C   UNL A   1      31.120  26.723  25.513  1.00  0.00     0.002 A 
ENDBRANCH  72  84
ENDBRANCH  65  68
ENDBRANCH  63  64
ENDBRANCH  62  63
ENDBRANCH   1  62
TORSDOF 11
ENDMDL
MODEL 3
REMARK VINA RESULT:     -14.0      3.842      7.777
REMARK SMILES O=C(NCCCNC(=O)[C@H]1Cc2c([nH]c3ccccc23)[C@H](c2c[nH]c3ccccc23)[NH2+]1)c1ccc(-c2c3nc(c(-c4c(F)cccc4F)c4ccc([nH]4)c(-c4c(F)cccc4F)c4nc(c(-c5c(F)cccc5F)c5ccc2[nH]5)C=C4)C=C3)cc1
REMARK SMILES IDX 4 1 3 2 1 3 2 4 32 6 33 7 85 8 34 9 84 10 35 11 36 12 37 13
REMARK SMILES IDX 78 14 38 15 83 16 77 17 79 18 39 19 82 20 76 21 75 22 40 24
REMARK SMILES IDX 66 25 49 26 65 27 50 28 53 29 64 30 80 31 51 32 52 33 63 35
REMARK SMILES IDX 81 36 54 37 41 38 42 39 47 40 43 41 44 42 46 43 48 44 45 45
REMARK SMILES IDX 67 46 68 47 73 48 69 49 70 50 72 51 74 52 71 53 55 54 56 55
REMARK SMILES IDX 61 56 57 57 58 58 60 59 62 60 59 61 5 62 6 63 7 64 8 65 9 67
REMARK SMILES IDX 10 68 11 69 31 70 12 71 21 72 13 75 20 76 14 77 15 78 19 79
REMARK SMILES IDX 16 81 18 82 17 83 22 84 23 85 30 86 24 87 25 88 29 89 26 91
REMARK SMILES IDX 28 92 27 93
REMARK H PARENT 3 5 79 23 53 34 7 66 31 73 31 74 14 80 24 90
REMARK Flexibility Score: inf
ROOT
ATOM      1  C   UNL A   1      39.762  19.528  26.409  1.00  0.00     0.118 C 
ENDROOT
BRANCH   1   2
ATOM      2  N   UNL A   1      41.059  19.034  25.946  1.00  0.00    -0.352 N 
ATOM      3  O   UNL A   1      43.113  19.202  25.031  1.00  0.00    -0.269 OA
ATOM      4  C   UNL A   1      42.222  19.717  25.696  1.00  0.00     0.251 C 
ATOM      5  H   UNL A   1      41.104  18.062  25.790  1.00  0.00     0.163 HD
BRANCH   4   6
ATOM      6  C   UNL A   1      42.391  21.071  26.252  1.00  0.00     0.039 A 
ATOM      7  C   UNL A   1      42.351  21.249  27.635  1.00  0.00     0.014 A 
ATOM      8  C   UNL A   1      42.624  22.155  25.404  1.00  0.00     0.014 A 
ATOM      9  C   UNL A   1      42.371  22.523  28.165  1.00  0.00     0.010 A 
ATOM     10  C   UNL A   1      42.792  23.428  25.953  1.00  0.00     0.010 A 
ATOM     11  C   UNL A   1      42.658  23.616  27.337  1.00  0.00    -0.014 A 
BRANCH  11  12
ATOM     12  C   UNL A   1      42.961  24.909  27.988  1.00  0.00     0.031 A 
ATOM     13  C   UNL A   1      44.352  25.266  28.408  1.00  0.00     0.074 A 
ATOM     14  C   UNL A   1      41.938  25.771  28.154  1.00  0.00     0.049 A 
ATOM     15  N   UNL A   1      44.772  26.363  28.982  1.00  0.00    -0.248 NA
ATOM     16  C   UNL A   1      45.408  24.271  28.165  1.00  0.00     0.031 C 
ATOM     17  C   UNL A   1      40.541  25.505  27.783  1.00  0.00     0.029 A 
ATOM     18  N   UNL A   1      41.906  27.047  28.649  1.00  0.00    -0.354 N 
ATOM     19  C   UNL A   1      46.132  26.185  29.190  1.00  0.00     0.074 A 
ATOM     20  C   UNL A   1      46.469  24.868  28.695  1.00  0.00     0.031 C 
ATOM     21  C   UNL A   1      39.805  26.600  28.011  1.00  0.00     0.029 A 
ATOM     22  C   UNL A   1      40.652  27.608  28.631  1.00  0.00     0.049 A 
ATOM     23  H   UNL A   1      42.703  27.516  28.986  1.00  0.00     0.167 HD
ATOM     24  C   UNL A   1      47.010  27.052  29.749  1.00  0.00     0.037 A 
ATOM     25  C   UNL A   1      40.219  28.791  29.100  1.00  0.00     0.037 A 
ATOM     26  C   UNL A   1      46.654  28.366  30.220  1.00  0.00     0.049 A 
ATOM     27  C   UNL A   1      41.216  29.705  29.744  1.00  0.00     0.074 A 
ATOM     28  C   UNL A   1      47.479  29.339  30.756  1.00  0.00     0.029 A 
ATOM     29  N   UNL A   1      45.368  28.888  30.221  1.00  0.00    -0.354 N 
ATOM     30  N   UNL A   1      42.509  29.544  29.893  1.00  0.00    -0.248 NA
ATOM     31  C   UNL A   1      40.696  30.963  30.293  1.00  0.00     0.031 C 
ATOM     32  C   UNL A   1      46.685  30.424  31.138  1.00  0.00     0.029 A 
ATOM     33  C   UNL A   1      45.373  30.154  30.784  1.00  0.00     0.049 A 
ATOM     34  H   UNL A   1      44.571  28.426  29.874  1.00  0.00     0.167 HD
ATOM     35  C   UNL A   1      42.959  30.683  30.541  1.00  0.00     0.074 A 
ATOM     36  C   UNL A   1      41.806  31.541  30.725  1.00  0.00     0.031 C 
ATOM     37  C   UNL A   1      44.212  30.990  30.956  1.00  0.00     0.037 A 
BRANCH  24  38
ATOM     38  C   UNL A   1      48.436  26.612  29.908  1.00  0.00     0.057 A 
ATOM     39  C   UNL A   1      49.426  26.946  28.976  1.00  0.00     0.134 A 
ATOM     40  C   UNL A   1      48.839  25.925  31.061  1.00  0.00     0.134 A 
ATOM     41  F   UNL A   1      49.106  27.594  27.845  1.00  0.00    -0.206 F 
ATOM     42  C   UNL A   1      50.767  26.609  29.183  1.00  0.00     0.040 A 
ATOM     43  C   UNL A   1      50.178  25.604  31.291  1.00  0.00     0.040 A 
ATOM     44  F   UNL A   1      47.941  25.578  31.995  1.00  0.00    -0.206 F 
ATOM     45  C   UNL A   1      51.146  25.947  30.349  1.00  0.00     0.006 A 
ENDBRANCH  24  38
BRANCH  25  46
ATOM     46  C   UNL A   1      38.780  29.145  29.025  1.00  0.00     0.057 A 
ATOM     47  C   UNL A   1      38.204  29.609  27.839  1.00  0.00     0.134 A 
ATOM     48  C   UNL A   1      37.949  29.048  30.150  1.00  0.00     0.134 A 
ATOM     49  F   UNL A   1      38.949  29.735  26.730  1.00  0.00    -0.206 F 
ATOM     50  C   UNL A   1      36.864  29.995  27.780  1.00  0.00     0.040 A 
ATOM     51  C   UNL A   1      36.600  29.395  30.097  1.00  0.00     0.040 A 
ATOM     52  F   UNL A   1      38.435  28.598  31.317  1.00  0.00    -0.206 F 
ATOM     53  C   UNL A   1      36.057  29.884  28.911  1.00  0.00     0.006 A 
ENDBRANCH  25  46
BRANCH  37  54
ATOM     54  C   UNL A   1      44.394  32.320  31.624  1.00  0.00     0.057 A 
ATOM     55  C   UNL A   1      44.303  32.465  33.014  1.00  0.00     0.134 A 
ATOM     56  C   UNL A   1      44.678  33.463  30.868  1.00  0.00     0.134 A 
ATOM     57  F   UNL A   1      44.014  31.410  33.791  1.00  0.00    -0.206 F 
ATOM     58  C   UNL A   1      44.460  33.708  33.626  1.00  0.00     0.040 A 
ATOM     59  C   UNL A   1      44.869  34.705  31.472  1.00  0.00     0.040 A 
ATOM     60  F   UNL A   1      44.785  33.390  29.533  1.00  0.00    -0.206 F 
ATOM     61  C   UNL A   1      44.752  34.832  32.855  1.00  0.00     0.006 A 
ENDBRANCH  37  54
ENDBRANCH  11  12
ENDBRANCH   4   6
ENDBRANCH   1   2
BRANCH   1  62
ATOM     62  C   UNL A   1      39.097  20.395  25.360  1.00  0.00     0.042 C 
BRANCH  62  63
ATOM     63  C   UNL A   1      38.547  21.663  25.985  1.00  0.00     0.118 C 
BRANCH  63  64
ATOM     64  N   UNL A   1      38.061  22.595  24.978  1.00  0.00    -0.351 N 
ATOM     65  C   UNL A   1      36.865  22.840  24.383  1.00  0.00     0.278 C 
ATOM     66  H   UNL A   1      38.771  23.193  24.648  1.00  0.00     0.163 HD
ATOM     67  O   UNL A   1      36.878  23.751  23.540  1.00  0.00    -0.268 OA
BRANCH  65  68
ATOM     68  C   UNL A   1      35.546  22.072  24.651  1.00  0.00     0.277 C 
ATOM     69  C   UNL A   1      35.637  20.574  24.411  1.00  0.00     0.114 C 
ATOM     70  N   UNL A   1      35.113  22.379  26.052  1.00  0.00    -0.324 N 
ATOM     71  C   UNL A   1      34.478  19.851  24.940  1.00  0.00    -0.006 A 
ATOM     72  C   UNL A   1      33.805  21.818  26.438  1.00  0.00     0.264 C 
ATOM     73  H   UNL A   1      35.065  23.393  26.153  1.00  0.00     0.347 HD
ATOM     74  H   UNL A   1      35.801  21.942  26.665  1.00  0.00     0.347 HD
ATOM     75  C   UNL A   1      33.675  20.415  25.901  1.00  0.00     0.083 A 
ATOM     76  C   UNL A   1      34.074  18.525  24.700  1.00  0.00     0.003 A 
ATOM     77  N   UNL A   1      32.800  19.435  26.300  1.00  0.00    -0.353 N 
ATOM     78  C   UNL A   1      33.021  18.274  25.577  1.00  0.00     0.046 A 
ATOM     79  C   UNL A   1      34.538  17.507  23.845  1.00  0.00     0.010 A 
ATOM     80  H   UNL A   1      32.113  19.542  26.998  1.00  0.00     0.166 HD
ATOM     81  C   UNL A   1      32.401  17.020  25.634  1.00  0.00     0.026 A 
ATOM     82  C   UNL A   1      33.923  16.257  23.887  1.00  0.00     0.001 A 
ATOM     83  C   UNL A   1      32.872  16.020  24.770  1.00  0.00     0.002 A 
BRANCH  72  84
ATOM     84  C   UNL A   1      32.617  22.691  26.068  1.00  0.00     0.041 A 
ATOM     85  C   UNL A   1      31.359  22.153  25.816  1.00  0.00     0.093 A 
ATOM     86  C   UNL A   1      32.456  24.126  25.919  1.00  0.00     0.009 A 
ATOM     87  N   UNL A   1      30.510  23.145  25.429  1.00  0.00    -0.361 N 
ATOM     88  C   UNL A   1      31.149  24.356  25.472  1.00  0.00     0.046 A 
ATOM     89  C   UNL A   1      33.268  25.272  26.102  1.00  0.00     0.011 A 
ATOM     90  H   UNL A   1      29.573  23.011  25.158  1.00  0.00     0.166 HD
ATOM     91  C   UNL A   1      30.651  25.627  25.151  1.00  0.00     0.026 A 
ATOM     92  C   UNL A   1      32.787  26.551  25.788  1.00  0.00     0.001 A 
ATOM     93  C   UNL A   1      31.497  26.722  25.306  1.00  0.00     0.002 A 
ENDBRANCH  72  84
ENDBRANCH  65  68
ENDBRANCH  63  64
ENDBRANCH  62  63
ENDBRANCH   1  62
TORSDOF 11
ENDMDL
