MODEL 1
REMARK VINA RESULT:     -11.6      0.000      0.000
REMARK SMILES O=C(NCCCNC(=O)[C@@H]1C[C@@H]2CC[C@H]1N2C(=O)C[C@H]1CCCCO1)c1ccc(-c2c3nc(c(-c4c(F)cccc4F)c4ccc([nH]4)c(-c4c(F)cccc4F)c4nc(c(-c5c(F)cccc5F)c5ccc2[nH]5)C=C4)C=C3)cc1
REMARK SMILES IDX 5 1 4 2 3 3 1 4 2 5 26 7 27 8 79 9 28 10 78 11 29 12 30 13
REMARK SMILES IDX 31 14 72 15 32 16 77 17 71 18 73 19 33 20 76 21 70 22 69 23
REMARK SMILES IDX 34 25 60 26 43 27 59 28 44 29 47 30 58 31 74 32 45 33 46 34
REMARK SMILES IDX 57 36 75 37 48 38 35 39 36 40 41 41 37 42 38 43 40 44 42 45
REMARK SMILES IDX 39 46 61 47 62 48 67 49 63 50 64 51 66 52 68 53 65 54 49 55
REMARK SMILES IDX 50 56 55 57 51 58 52 59 54 60 56 61 53 62 6 63 7 64 8 65
REMARK SMILES IDX 9 67 10 68 11 69 15 70 12 71 14 72 16 73 13 74 17 75 18 76
REMARK SMILES IDX 19 77 20 78 21 79 25 80 22 81 24 82 23 83
REMARK H PARENT 3 6 73 24 47 35 7 66
REMARK Flexibility Score: inf
ROOT
ATOM      1  C   UNL A   1      37.721  19.728  24.878  1.00  0.00     0.042 C 
ENDROOT
BRANCH   1   2
ATOM      2  C   UNL A   1      38.860  20.271  25.728  1.00  0.00     0.118 C 
BRANCH   2   3
ATOM      3  N   UNL A   1      39.973  19.345  25.816  1.00  0.00    -0.352 N 
ATOM      4  O   UNL A   1      42.125  18.703  25.890  1.00  0.00    -0.269 OA
ATOM      5  C   UNL A   1      41.298  19.588  26.084  1.00  0.00     0.251 C 
ATOM      6  H   UNL A   1      39.745  18.400  25.658  1.00  0.00     0.163 HD
BRANCH   5   7
ATOM      7  C   UNL A   1      41.737  20.906  26.596  1.00  0.00     0.039 A 
ATOM      8  C   UNL A   1      42.146  21.922  25.728  1.00  0.00     0.014 A 
ATOM      9  C   UNL A   1      41.673  21.153  27.971  1.00  0.00     0.014 A 
ATOM     10  C   UNL A   1      42.606  23.132  26.238  1.00  0.00     0.010 A 
ATOM     11  C   UNL A   1      42.046  22.402  28.476  1.00  0.00     0.010 A 
ATOM     12  C   UNL A   1      42.530  23.398  27.613  1.00  0.00    -0.014 A 
BRANCH  12  13
ATOM     13  C   UNL A   1      42.866  24.754  28.114  1.00  0.00     0.031 A 
ATOM     14  C   UNL A   1      41.802  25.788  28.344  1.00  0.00     0.074 A 
ATOM     15  C   UNL A   1      44.159  25.045  28.357  1.00  0.00     0.049 A 
ATOM     16  N   UNL A   1      41.932  27.020  28.770  1.00  0.00    -0.248 NA
ATOM     17  C   UNL A   1      40.417  25.395  28.050  1.00  0.00     0.031 C 
ATOM     18  C   UNL A   1      45.282  24.130  28.145  1.00  0.00     0.029 A 
ATOM     19  N   UNL A   1      44.749  26.186  28.838  1.00  0.00    -0.354 N 
ATOM     20  C   UNL A   1      40.650  27.555  28.779  1.00  0.00     0.074 A 
ATOM     21  C   UNL A   1      39.760  26.522  28.290  1.00  0.00     0.031 C 
ATOM     22  C   UNL A   1      46.419  24.731  28.521  1.00  0.00     0.029 A 
ATOM     23  C   UNL A   1      46.114  26.094  28.944  1.00  0.00     0.049 A 
ATOM     24  H   UNL A   1      44.241  26.994  29.083  1.00  0.00     0.167 HD
ATOM     25  C   UNL A   1      40.255  28.792  29.165  1.00  0.00     0.037 A 
ATOM     26  C   UNL A   1      47.028  27.008  29.315  1.00  0.00     0.037 A 
ATOM     27  C   UNL A   1      41.148  29.812  29.656  1.00  0.00     0.049 A 
ATOM     28  C   UNL A   1      46.566  28.376  29.720  1.00  0.00     0.074 A 
ATOM     29  C   UNL A   1      40.838  31.079  30.119  1.00  0.00     0.029 A 
ATOM     30  N   UNL A   1      42.527  29.684  29.738  1.00  0.00    -0.354 N 
ATOM     31  N   UNL A   1      45.345  28.851  29.774  1.00  0.00    -0.248 NA
ATOM     32  C   UNL A   1      47.605  29.336  30.114  1.00  0.00     0.031 C 
ATOM     33  C   UNL A   1      42.034  31.736  30.434  1.00  0.00     0.029 A 
ATOM     34  C   UNL A   1      43.086  30.860  30.216  1.00  0.00     0.049 A 
ATOM     35  H   UNL A   1      43.035  28.877  29.493  1.00  0.00     0.167 HD
ATOM     36  C   UNL A   1      45.466  30.159  30.221  1.00  0.00     0.074 A 
ATOM     37  C   UNL A   1      46.878  30.395  30.442  1.00  0.00     0.031 C 
ATOM     38  C   UNL A   1      44.494  31.081  30.425  1.00  0.00     0.037 A 
BRANCH  25  39
ATOM     39  C   UNL A   1      38.794  29.122  29.050  1.00  0.00     0.057 A 
ATOM     40  C   UNL A   1      37.923  29.032  30.144  1.00  0.00     0.134 A 
ATOM     41  C   UNL A   1      38.257  29.568  27.835  1.00  0.00     0.134 A 
ATOM     42  F   UNL A   1      38.369  28.602  31.334  1.00  0.00    -0.206 F 
ATOM     43  C   UNL A   1      36.568  29.349  30.028  1.00  0.00     0.040 A 
ATOM     44  C   UNL A   1      36.910  29.912  27.713  1.00  0.00     0.040 A 
ATOM     45  F   UNL A   1      39.036  29.686  26.748  1.00  0.00    -0.206 F 
ATOM     46  C   UNL A   1      36.059  29.796  28.810  1.00  0.00     0.006 A 
ENDBRANCH  25  39
BRANCH  26  47
ATOM     47  C   UNL A   1      48.468  26.651  29.303  1.00  0.00     0.057 A 
ATOM     48  C   UNL A   1      49.277  26.933  28.198  1.00  0.00     0.134 A 
ATOM     49  C   UNL A   1      49.074  26.047  30.412  1.00  0.00     0.134 A 
ATOM     50  F   UNL A   1      48.751  27.497  27.102  1.00  0.00    -0.206 F 
ATOM     51  C   UNL A   1      50.637  26.617  28.190  1.00  0.00     0.040 A 
ATOM     52  C   UNL A   1      50.438  25.751  30.429  1.00  0.00     0.040 A 
ATOM     53  F   UNL A   1      48.354  25.763  31.507  1.00  0.00    -0.206 F 
ATOM     54  C   UNL A   1      51.221  26.031  29.312  1.00  0.00     0.006 A 
ENDBRANCH  26  47
BRANCH  38  55
ATOM     55  C   UNL A   1      44.928  32.424  30.934  1.00  0.00     0.057 A 
ATOM     56  C   UNL A   1      45.059  32.686  32.304  1.00  0.00     0.134 A 
ATOM     57  C   UNL A   1      45.246  33.457  30.044  1.00  0.00     0.134 A 
ATOM     58  F   UNL A   1      44.754  31.743  33.209  1.00  0.00    -0.206 F 
ATOM     59  C   UNL A   1      45.469  33.936  32.771  1.00  0.00     0.040 A 
ATOM     60  C   UNL A   1      45.682  34.702  30.497  1.00  0.00     0.040 A 
ATOM     61  F   UNL A   1      45.147  33.268  28.719  1.00  0.00    -0.206 F 
ATOM     62  C   UNL A   1      45.789  34.945  31.864  1.00  0.00     0.006 A 
ENDBRANCH  38  55
ENDBRANCH  12  13
ENDBRANCH   5   7
ENDBRANCH   2   3
ENDBRANCH   1   2
BRANCH   1  63
ATOM     63  C   UNL A   1      36.409  20.494  25.031  1.00  0.00     0.117 C 
BRANCH  63  64
ATOM     64  N   UNL A   1      36.349  21.628  24.132  1.00  0.00    -0.356 N 
ATOM     65  C   UNL A   1      35.532  22.706  24.090  1.00  0.00     0.225 C 
ATOM     66  H   UNL A   1      37.030  21.612  23.420  1.00  0.00     0.163 HD
ATOM     67  O   UNL A   1      35.724  23.493  23.156  1.00  0.00    -0.275 OA
BRANCH  65  68
ATOM     68  C   UNL A   1      34.527  23.040  25.181  1.00  0.00     0.103 C 
ATOM     69  C   UNL A   1      34.412  22.256  26.514  1.00  0.00     0.040 C 
ATOM     70  C   UNL A   1      33.074  22.927  24.634  1.00  0.00     0.098 C 
ATOM     71  C   UNL A   1      32.965  21.737  26.502  1.00  0.00     0.086 C 
ATOM     72  C   UNL A   1      32.817  21.495  24.115  1.00  0.00     0.028 C 
ATOM     73  N   UNL A   1      32.315  22.849  25.870  1.00  0.00    -0.336 N 
ATOM     74  C   UNL A   1      32.844  20.658  25.414  1.00  0.00     0.027 C 
BRANCH  73  75
ATOM     75  C   UNL A   1      31.400  23.675  26.455  1.00  0.00     0.225 C 
ATOM     76  O   UNL A   1      30.731  23.325  27.428  1.00  0.00    -0.275 OA
BRANCH  75  77
ATOM     77  C   UNL A   1      31.210  25.037  25.832  1.00  0.00     0.132 C 
BRANCH  77  78
ATOM     78  C   UNL A   1      31.970  26.170  26.538  1.00  0.00     0.127 C 
ATOM     79  C   UNL A   1      33.091  26.726  25.653  1.00  0.00     0.033 C 
ATOM     80  O   UNL A   1      31.094  27.234  26.918  1.00  0.00    -0.378 OA
ATOM     81  C   UNL A   1      33.823  27.865  26.358  1.00  0.00     0.005 C 
ATOM     82  C   UNL A   1      31.738  28.255  27.675  1.00  0.00     0.160 C 
ATOM     83  C   UNL A   1      32.836  28.913  26.858  1.00  0.00     0.029 C 
ENDBRANCH  77  78
ENDBRANCH  75  77
ENDBRANCH  73  75
ENDBRANCH  65  68
ENDBRANCH  63  64
ENDBRANCH   1  63
TORSDOF 13
ENDMDL
MODEL 2
REMARK VINA RESULT:     -11.6      0.326      6.386
REMARK SMILES O=C(NCCCNC(=O)[C@@H]1C[C@@H]2CC[C@H]1N2C(=O)C[C@H]1CCCCO1)c1ccc(-c2c3nc(c(-c4c(F)cccc4F)c4ccc([nH]4)c(-c4c(F)cccc4F)c4nc(c(-c5c(F)cccc5F)c5ccc2[nH]5)C=C4)C=C3)cc1
REMARK SMILES IDX 5 1 4 2 3 3 1 4 2 5 26 7 27 8 79 9 28 10 78 11 29 12 30 13
REMARK SMILES IDX 31 14 72 15 32 16 77 17 71 18 73 19 33 20 76 21 70 22 69 23
REMARK SMILES IDX 34 25 60 26 43 27 59 28 44 29 47 30 58 31 74 32 45 33 46 34
REMARK SMILES IDX 57 36 75 37 48 38 35 39 36 40 41 41 37 42 38 43 40 44 42 45
REMARK SMILES IDX 39 46 61 47 62 48 67 49 63 50 64 51 66 52 68 53 65 54 49 55
REMARK SMILES IDX 50 56 55 57 51 58 52 59 54 60 56 61 53 62 6 63 7 64 8 65
REMARK SMILES IDX 9 67 10 68 11 69 15 70 12 71 14 72 16 73 13 74 17 75 18 76
REMARK SMILES IDX 19 77 20 78 21 79 25 80 22 81 24 82 23 83
REMARK H PARENT 3 6 73 24 47 35 7 66
REMARK Flexibility Score: inf
ROOT
ATOM      1  C   UNL A   1      37.761  19.675  24.896  1.00  0.00     0.042 C 
ENDROOT
BRANCH   1   2
ATOM      2  C   UNL A   1      38.905  20.247  25.721  1.00  0.00     0.118 C 
BRANCH   2   3
ATOM      3  N   UNL A   1      40.031  19.336  25.809  1.00  0.00    -0.352 N 
ATOM      4  O   UNL A   1      42.192  18.725  25.889  1.00  0.00    -0.269 OA
ATOM      5  C   UNL A   1      41.351  19.596  26.085  1.00  0.00     0.251 C 
ATOM      6  H   UNL A   1      39.817  18.389  25.645  1.00  0.00     0.163 HD
BRANCH   5   7
ATOM      7  C   UNL A   1      41.769  20.918  26.606  1.00  0.00     0.039 A 
ATOM      8  C   UNL A   1      42.188  21.937  25.747  1.00  0.00     0.014 A 
ATOM      9  C   UNL A   1      41.675  21.164  27.979  1.00  0.00     0.014 A 
ATOM     10  C   UNL A   1      42.628  23.150  26.266  1.00  0.00     0.010 A 
ATOM     11  C   UNL A   1      42.027  22.416  28.492  1.00  0.00     0.010 A 
ATOM     12  C   UNL A   1      42.522  23.415  27.640  1.00  0.00    -0.014 A 
BRANCH  12  13
ATOM     13  C   UNL A   1      42.837  24.774  28.148  1.00  0.00     0.031 A 
ATOM     14  C   UNL A   1      44.239  25.166  28.512  1.00  0.00     0.074 A 
ATOM     15  C   UNL A   1      41.829  25.658  28.280  1.00  0.00     0.049 A 
ATOM     16  N   UNL A   1      44.678  26.309  28.978  1.00  0.00    -0.248 NA
ATOM     17  C   UNL A   1      45.281  24.144  28.345  1.00  0.00     0.031 C 
ATOM     18  C   UNL A   1      40.422  25.381  27.982  1.00  0.00     0.029 A 
ATOM     19  N   UNL A   1      41.828  26.966  28.693  1.00  0.00    -0.354 N 
ATOM     20  C   UNL A   1      46.042  26.140  29.175  1.00  0.00     0.074 A 
ATOM     21  C   UNL A   1      46.354  24.775  28.804  1.00  0.00     0.031 C 
ATOM     22  C   UNL A   1      39.699  26.490  28.192  1.00  0.00     0.029 A 
ATOM     23  C   UNL A   1      40.580  27.538  28.696  1.00  0.00     0.049 A 
ATOM     24  H   UNL A   1      42.644  27.447  28.962  1.00  0.00     0.167 HD
ATOM     25  C   UNL A   1      46.949  27.044  29.619  1.00  0.00     0.037 A 
ATOM     26  C   UNL A   1      40.178  28.762  29.084  1.00  0.00     0.037 A 
ATOM     27  C   UNL A   1      46.630  28.403  29.978  1.00  0.00     0.049 A 
ATOM     28  C   UNL A   1      41.200  29.737  29.589  1.00  0.00     0.074 A 
ATOM     29  C   UNL A   1      47.486  29.409  30.391  1.00  0.00     0.029 A 
ATOM     30  N   UNL A   1      45.352  28.942  29.979  1.00  0.00    -0.354 N 
ATOM     31  N   UNL A   1      42.494  29.580  29.719  1.00  0.00    -0.248 NA
ATOM     32  C   UNL A   1      40.707  31.057  30.001  1.00  0.00     0.031 C 
ATOM     33  C   UNL A   1      46.720  30.542  30.689  1.00  0.00     0.029 A 
ATOM     34  C   UNL A   1      45.392  30.259  30.413  1.00  0.00     0.049 A 
ATOM     35  H   UNL A   1      44.536  28.461  29.710  1.00  0.00     0.167 HD
ATOM     36  C   UNL A   1      42.975  30.783  30.215  1.00  0.00     0.074 A 
ATOM     37  C   UNL A   1      41.833  31.667  30.342  1.00  0.00     0.031 C 
ATOM     38  C   UNL A   1      44.246  31.123  30.540  1.00  0.00     0.037 A 
BRANCH  25  39
ATOM     39  C   UNL A   1      48.373  26.586  29.762  1.00  0.00     0.057 A 
ATOM     40  C   UNL A   1      49.323  26.783  28.751  1.00  0.00     0.134 A 
ATOM     41  C   UNL A   1      48.807  25.970  30.943  1.00  0.00     0.134 A 
ATOM     42  F   UNL A   1      48.971  27.358  27.591  1.00  0.00    -0.206 F 
ATOM     43  C   UNL A   1      50.646  26.360  28.899  1.00  0.00     0.040 A 
ATOM     44  C   UNL A   1      50.133  25.565  31.112  1.00  0.00     0.040 A 
ATOM     45  F   UNL A   1      47.953  25.757  31.955  1.00  0.00    -0.206 F 
ATOM     46  C   UNL A   1      51.055  25.754  30.085  1.00  0.00     0.006 A 
ENDBRANCH  25  39
BRANCH  26  47
ATOM     47  C   UNL A   1      38.739  29.115  29.018  1.00  0.00     0.057 A 
ATOM     48  C   UNL A   1      37.914  29.012  30.142  1.00  0.00     0.134 A 
ATOM     49  C   UNL A   1      38.163  29.594  27.834  1.00  0.00     0.134 A 
ATOM     50  F   UNL A   1      38.404  28.546  31.300  1.00  0.00    -0.206 F 
ATOM     51  C   UNL A   1      36.563  29.362  30.090  1.00  0.00     0.040 A 
ATOM     52  C   UNL A   1      36.822  29.974  27.775  1.00  0.00     0.040 A 
ATOM     53  F   UNL A   1      38.906  29.727  26.725  1.00  0.00    -0.206 F 
ATOM     54  C   UNL A   1      36.017  29.853  28.905  1.00  0.00     0.006 A 
ENDBRANCH  26  47
BRANCH  38  55
ATOM     55  C   UNL A   1      44.469  32.519  31.042  1.00  0.00     0.057 A 
ATOM     56  C   UNL A   1      44.711  33.587  30.169  1.00  0.00     0.134 A 
ATOM     57  C   UNL A   1      44.413  32.802  32.412  1.00  0.00     0.134 A 
ATOM     58  F   UNL A   1      44.793  33.379  28.846  1.00  0.00    -0.206 F 
ATOM     59  C   UNL A   1      44.912  34.885  30.643  1.00  0.00     0.040 A 
ATOM     60  C   UNL A   1      44.585  34.099  32.897  1.00  0.00     0.040 A 
ATOM     61  F   UNL A   1      44.179  31.825  33.301  1.00  0.00    -0.206 F 
ATOM     62  C   UNL A   1      44.841  35.143  32.011  1.00  0.00     0.006 A 
ENDBRANCH  38  55
ENDBRANCH  12  13
ENDBRANCH   5   7
ENDBRANCH   2   3
ENDBRANCH   1   2
BRANCH   1  63
ATOM     63  C   UNL A   1      36.447  20.438  25.041  1.00  0.00     0.117 C 
BRANCH  63  64
ATOM     64  N   UNL A   1      36.390  21.573  24.143  1.00  0.00    -0.356 N 
ATOM     65  C   UNL A   1      35.574  22.652  24.100  1.00  0.00     0.225 C 
ATOM     66  H   UNL A   1      37.072  21.557  23.433  1.00  0.00     0.163 HD
ATOM     67  O   UNL A   1      35.769  23.440  23.167  1.00  0.00    -0.275 OA
BRANCH  65  68
ATOM     68  C   UNL A   1      34.568  22.987  25.190  1.00  0.00     0.103 C 
ATOM     69  C   UNL A   1      34.429  22.184  26.509  1.00  0.00     0.040 C 
ATOM     70  C   UNL A   1      33.116  22.906  24.630  1.00  0.00     0.098 C 
ATOM     71  C   UNL A   1      32.975  21.690  26.479  1.00  0.00     0.086 C 
ATOM     72  C   UNL A   1      32.839  21.487  24.088  1.00  0.00     0.028 C 
ATOM     73  N   UNL A   1      32.348  22.823  25.860  1.00  0.00    -0.336 N 
ATOM     74  C   UNL A   1      32.843  20.630  25.374  1.00  0.00     0.027 C 
BRANCH  73  75
ATOM     75  C   UNL A   1      31.442  23.654  26.451  1.00  0.00     0.225 C 
ATOM     76  O   UNL A   1      30.782  23.311  27.433  1.00  0.00    -0.275 OA
BRANCH  75  77
ATOM     77  C   UNL A   1      31.253  25.016  25.826  1.00  0.00     0.132 C 
BRANCH  77  78
ATOM     78  C   UNL A   1      31.997  26.153  26.541  1.00  0.00     0.127 C 
ATOM     79  C   UNL A   1      33.117  26.725  25.666  1.00  0.00     0.033 C 
ATOM     80  O   UNL A   1      31.108  27.206  26.921  1.00  0.00    -0.378 OA
ATOM     81  C   UNL A   1      33.834  27.868  26.381  1.00  0.00     0.005 C 
ATOM     82  C   UNL A   1      31.736  28.230  27.687  1.00  0.00     0.160 C 
ATOM     83  C   UNL A   1      32.833  28.903  26.880  1.00  0.00     0.029 C 
ENDBRANCH  77  78
ENDBRANCH  75  77
ENDBRANCH  73  75
ENDBRANCH  65  68
ENDBRANCH  63  64
ENDBRANCH   1  63
TORSDOF 13
ENDMDL
MODEL 3
REMARK VINA RESULT:     -11.5      2.009      7.292
REMARK SMILES O=C(NCCCNC(=O)[C@@H]1C[C@@H]2CC[C@H]1N2C(=O)C[C@H]1CCCCO1)c1ccc(-c2c3nc(c(-c4c(F)cccc4F)c4ccc([nH]4)c(-c4c(F)cccc4F)c4nc(c(-c5c(F)cccc5F)c5ccc2[nH]5)C=C4)C=C3)cc1
REMARK SMILES IDX 5 1 4 2 3 3 1 4 2 5 26 7 27 8 79 9 28 10 78 11 29 12 30 13
REMARK SMILES IDX 31 14 72 15 32 16 77 17 71 18 73 19 33 20 76 21 70 22 69 23
REMARK SMILES IDX 34 25 60 26 43 27 59 28 44 29 47 30 58 31 74 32 45 33 46 34
REMARK SMILES IDX 57 36 75 37 48 38 35 39 36 40 41 41 37 42 38 43 40 44 42 45
REMARK SMILES IDX 39 46 61 47 62 48 67 49 63 50 64 51 66 52 68 53 65 54 49 55
REMARK SMILES IDX 50 56 55 57 51 58 52 59 54 60 56 61 53 62 6 63 7 64 8 65
REMARK SMILES IDX 9 67 10 68 11 69 15 70 12 71 14 72 16 73 13 74 17 75 18 76
REMARK SMILES IDX 19 77 20 78 21 79 25 80 22 81 24 82 23 83
REMARK H PARENT 3 6 73 24 47 35 7 66
REMARK Flexibility Score: inf
ROOT
ATOM      1  C   UNL A   1      33.996  28.095  25.808  1.00  0.00     0.042 C 
ENDROOT
BRANCH   1   2
ATOM      2  C   UNL A   1      33.614  28.365  27.256  1.00  0.00     0.118 C 
BRANCH   2   3
ATOM      3  N   UNL A   1      33.553  29.783  27.556  1.00  0.00    -0.352 N 
ATOM      4  O   UNL A   1      34.157  31.717  28.527  1.00  0.00    -0.269 OA
ATOM      5  C   UNL A   1      34.484  30.595  28.156  1.00  0.00     0.251 C 
ATOM      6  H   UNL A   1      32.717  30.231  27.289  1.00  0.00     0.163 HD
BRANCH   5   7
ATOM      7  C   UNL A   1      35.873  30.125  28.367  1.00  0.00     0.039 A 
ATOM      8  C   UNL A   1      36.834  30.226  27.358  1.00  0.00     0.014 A 
ATOM      9  C   UNL A   1      36.238  29.637  29.626  1.00  0.00     0.014 A 
ATOM     10  C   UNL A   1      38.116  29.728  27.564  1.00  0.00     0.010 A 
ATOM     11  C   UNL A   1      37.552  29.223  29.862  1.00  0.00     0.010 A 
ATOM     12  C   UNL A   1      38.499  29.251  28.827  1.00  0.00    -0.014 A 
BRANCH  12  13
ATOM     13  C   UNL A   1      39.916  28.884  29.070  1.00  0.00     0.031 A 
ATOM     14  C   UNL A   1      40.867  29.834  29.737  1.00  0.00     0.074 A 
ATOM     15  C   UNL A   1      40.340  27.668  28.673  1.00  0.00     0.049 A 
ATOM     16  N   UNL A   1      42.136  29.669  30.013  1.00  0.00    -0.248 NA
ATOM     17  C   UNL A   1      40.329  31.143  30.136  1.00  0.00     0.031 C 
ATOM     18  C   UNL A   1      39.514  26.670  27.990  1.00  0.00     0.029 A 
ATOM     19  N   UNL A   1      41.565  27.061  28.787  1.00  0.00    -0.354 N 
ATOM     20  C   UNL A   1      42.554  30.855  30.602  1.00  0.00     0.074 A 
ATOM     21  C   UNL A   1      41.410  31.742  30.618  1.00  0.00     0.031 C 
ATOM     22  C   UNL A   1      40.243  25.566  27.773  1.00  0.00     0.029 A 
ATOM     23  C   UNL A   1      41.603  25.800  28.246  1.00  0.00     0.049 A 
ATOM     24  H   UNL A   1      42.342  27.490  29.214  1.00  0.00     0.167 HD
ATOM     25  C   UNL A   1      43.780  31.170  31.088  1.00  0.00     0.037 A 
ATOM     26  C   UNL A   1      42.622  24.932  28.119  1.00  0.00     0.037 A 
ATOM     27  C   UNL A   1      44.911  30.277  31.074  1.00  0.00     0.049 A 
ATOM     28  C   UNL A   1      43.973  25.312  28.649  1.00  0.00     0.074 A 
ATOM     29  C   UNL A   1      46.180  30.485  31.588  1.00  0.00     0.029 A 
ATOM     30  N   UNL A   1      44.913  29.011  30.507  1.00  0.00    -0.354 N 
ATOM     31  N   UNL A   1      44.340  26.417  29.251  1.00  0.00    -0.248 NA
ATOM     32  C   UNL A   1      45.050  24.328  28.482  1.00  0.00     0.031 C 
ATOM     33  C   UNL A   1      46.964  29.365  31.288  1.00  0.00     0.029 A 
ATOM     34  C   UNL A   1      46.170  28.437  30.632  1.00  0.00     0.049 A 
ATOM     35  H   UNL A   1      44.137  28.583  30.080  1.00  0.00     0.167 HD
ATOM     36  C   UNL A   1      45.685  26.258  29.548  1.00  0.00     0.074 A 
ATOM     37  C   UNL A   1      46.064  24.941  29.078  1.00  0.00     0.031 C 
ATOM     38  C   UNL A   1      46.532  27.127  30.153  1.00  0.00     0.037 A 
BRANCH  25  39
ATOM     39  C   UNL A   1      43.968  32.547  31.658  1.00  0.00     0.057 A 
ATOM     40  C   UNL A   1      43.766  32.824  33.017  1.00  0.00     0.134 A 
ATOM     41  C   UNL A   1      44.389  33.605  30.842  1.00  0.00     0.134 A 
ATOM     42  F   UNL A   1      43.353  31.859  33.853  1.00  0.00    -0.206 F 
ATOM     43  C   UNL A   1      43.952  34.107  33.537  1.00  0.00     0.040 A 
ATOM     44  C   UNL A   1      44.603  34.886  31.355  1.00  0.00     0.040 A 
ATOM     45  F   UNL A   1      44.608  33.410  29.532  1.00  0.00    -0.206 F 
ATOM     46  C   UNL A   1      44.377  35.141  32.705  1.00  0.00     0.006 A 
ENDBRANCH  25  39
BRANCH  26  47
ATOM     47  C   UNL A   1      42.395  23.628  27.448  1.00  0.00     0.057 A 
ATOM     48  C   UNL A   1      42.551  23.485  26.066  1.00  0.00     0.134 A 
ATOM     49  C   UNL A   1      42.046  22.486  28.181  1.00  0.00     0.134 A 
ATOM     50  F   UNL A   1      42.870  24.545  25.309  1.00  0.00    -0.206 F 
ATOM     51  C   UNL A   1      42.357  22.256  25.433  1.00  0.00     0.040 A 
ATOM     52  C   UNL A   1      41.877  21.246  27.566  1.00  0.00     0.040 A 
ATOM     53  F   UNL A   1      41.894  22.556  29.512  1.00  0.00    -0.206 F 
ATOM     54  C   UNL A   1      42.027  21.131  26.186  1.00  0.00     0.006 A 
ENDBRANCH  26  47
BRANCH  38  55
ATOM     55  C   UNL A   1      47.945  26.668  30.358  1.00  0.00     0.057 A 
ATOM     56  C   UNL A   1      48.327  25.942  31.493  1.00  0.00     0.134 A 
ATOM     57  C   UNL A   1      48.928  26.931  29.396  1.00  0.00     0.134 A 
ATOM     58  F   UNL A   1      47.436  25.671  32.459  1.00  0.00    -0.206 F 
ATOM     59  C   UNL A   1      49.642  25.512  31.675  1.00  0.00     0.040 A 
ATOM     60  C   UNL A   1      50.241  26.485  29.554  1.00  0.00     0.040 A 
ATOM     61  F   UNL A   1      48.626  27.617  28.284  1.00  0.00    -0.206 F 
ATOM     62  C   UNL A   1      50.601  25.778  30.699  1.00  0.00     0.006 A 
ENDBRANCH  38  55
ENDBRANCH  12  13
ENDBRANCH   5   7
ENDBRANCH   2   3
ENDBRANCH   1   2
BRANCH   1  63
ATOM     63  C   UNL A   1      32.860  28.316  24.812  1.00  0.00     0.117 C 
BRANCH  63  64
ATOM     64  N   UNL A   1      31.628  27.705  25.268  1.00  0.00    -0.356 N 
ATOM     65  C   UNL A   1      31.048  26.516  24.980  1.00  0.00     0.225 C 
ATOM     66  H   UNL A   1      31.120  28.255  25.907  1.00  0.00     0.163 HD
ATOM     67  O   UNL A   1      29.957  26.303  25.520  1.00  0.00    -0.275 OA
BRANCH  65  68
ATOM     68  C   UNL A   1      31.728  25.426  24.165  1.00  0.00     0.103 C 
ATOM     69  C   UNL A   1      30.967  24.254  23.494  1.00  0.00     0.040 C 
ATOM     70  C   UNL A   1      32.761  24.659  25.041  1.00  0.00     0.098 C 
ATOM     71  C   UNL A   1      31.596  23.005  24.133  1.00  0.00     0.086 C 
ATOM     72  C   UNL A   1      32.054  24.027  26.260  1.00  0.00     0.028 C 
ATOM     73  N   UNL A   1      32.954  23.454  24.253  1.00  0.00    -0.336 N 
ATOM     74  C   UNL A   1      31.166  22.943  25.607  1.00  0.00     0.027 C 
BRANCH  73  75
ATOM     75  C   UNL A   1      34.025  22.939  23.584  1.00  0.00     0.225 C 
ATOM     76  O   UNL A   1      34.329  23.312  22.450  1.00  0.00    -0.275 OA
BRANCH  75  77
ATOM     77  C   UNL A   1      34.813  21.857  24.282  1.00  0.00     0.132 C 
BRANCH  77  78
ATOM     78  C   UNL A   1      36.277  22.220  24.569  1.00  0.00     0.127 C 
ATOM     79  C   UNL A   1      36.382  23.504  25.399  1.00  0.00     0.033 C 
ATOM     80  O   UNL A   1      36.959  21.161  25.245  1.00  0.00    -0.378 OA
ATOM     81  C   UNL A   1      37.841  23.841  25.695  1.00  0.00     0.005 C 
ATOM     82  C   UNL A   1      38.350  21.411  25.431  1.00  0.00     0.160 C 
ATOM     83  C   UNL A   1      38.560  22.641  26.297  1.00  0.00     0.029 C 
ENDBRANCH  77  78
ENDBRANCH  75  77
ENDBRANCH  73  75
ENDBRANCH  65  68
ENDBRANCH  63  64
ENDBRANCH   1  63
TORSDOF 13
ENDMDL
