MODEL 1
REMARK VINA RESULT:     -12.8      0.000      0.000
REMARK SMILES Nc1c(Nc2ncc(C(F)(F)F)cc2Cl)ncnc1N1CCC(C(=O)NCCCNC(=O)c2ccc(-c3c4nc(c(-c5c(F)cccc5F)c5ccc([nH]5)c(-c5c(F)cccc5F)c5nc(c(-c6c(F)cccc6F)c6ccc3[nH]6)C=C5)C=C4)cc2)CC1
REMARK SMILES IDX 27 1 26 2 24 3 25 4 23 6 20 7 21 8 88 9 22 10 87 11 19 12
REMARK SMILES IDX 2 13 3 14 16 15 18 16 17 17 1 18 4 21 5 23 6 24 14 25 7 26
REMARK SMILES IDX 13 27 15 28 8 29 9 30 10 31 11 32 12 33 28 34 29 35 30 36
REMARK SMILES IDX 31 37 32 39 33 40 34 41 86 42 35 43 85 44 36 45 37 46 38 47
REMARK SMILES IDX 79 48 39 49 84 50 78 51 80 52 40 53 83 54 77 55 76 56 41 58
REMARK SMILES IDX 67 59 50 60 66 61 51 62 54 63 65 64 81 65 52 66 53 67 64 69
REMARK SMILES IDX 82 70 55 71 42 72 43 73 48 74 44 75 45 76 47 77 49 78 46 79
REMARK SMILES IDX 68 80 69 81 74 82 70 83 71 84 73 85 75 86 72 87 56 88 57 89
REMARK SMILES IDX 62 90 58 91 59 92 61 93 63 94 60 95
REMARK H PARENT 26 5 1 19 1 20 4 22 30 38 80 57 54 68
REMARK Flexibility Score: inf
ROOT
ATOM      1  C   UNL A   1      35.879  20.581  25.069  1.00  0.00     0.117 C 
ENDROOT
BRANCH   1   2
ATOM      2  N   UNL A   1      35.170  19.311  24.994  1.00  0.00    -0.356 N 
ATOM      3  C   UNL A   1      33.854  19.025  24.817  1.00  0.00     0.223 C 
ATOM      4  O   UNL A   1      33.524  17.835  24.826  1.00  0.00    -0.275 OA
ATOM      5  H   UNL A   1      35.748  18.520  25.088  1.00  0.00     0.163 HD
BRANCH   3   6
ATOM      6  C   UNL A   1      32.812  20.108  24.596  1.00  0.00     0.082 C 
ATOM      7  N   UNL A   1      32.079  22.846  24.312  1.00  0.00    -0.355 N 
ATOM      8  C   UNL A   1      31.730  22.183  25.556  1.00  0.00     0.119 C 
ATOM      9  C   UNL A   1      32.134  22.050  23.096  1.00  0.00     0.119 C 
ATOM     10  C   UNL A   1      32.660  21.011  25.824  1.00  0.00     0.035 C 
ATOM     11  C   UNL A   1      33.047  20.845  23.270  1.00  0.00     0.035 C 
BRANCH   7  12
ATOM     12  C   UNL A   1      32.728  24.074  24.370  1.00  0.00     0.157 A 
ATOM     13  C   UNL A   1      32.390  25.082  23.452  1.00  0.00     0.118 A 
ATOM     14  C   UNL A   1      33.025  26.320  23.626  1.00  0.00     0.160 A 
ATOM     15  N   UNL A   1      33.963  26.523  24.567  1.00  0.00    -0.217 NA
ATOM     16  N   UNL A   1      33.644  24.272  25.337  1.00  0.00    -0.217 NA
ATOM     17  C   UNL A   1      34.223  25.483  25.370  1.00  0.00     0.226 A 
BRANCH  13  18
ATOM     18  N   UNL A   1      31.322  24.937  22.542  1.00  0.00    -0.393 N 
ATOM     19  H   UNL A   1      30.393  25.036  22.854  1.00  0.00     0.156 HD
ATOM     20  H   UNL A   1      31.505  24.738  21.596  1.00  0.00     0.156 HD
ENDBRANCH  13  18
BRANCH  14  21
ATOM     21  N   UNL A   1      32.583  27.390  22.808  1.00  0.00    -0.322 N 
ATOM     22  H   UNL A   1      33.118  27.551  21.998  1.00  0.00     0.170 HD
BRANCH  21  23
ATOM     23  C   UNL A   1      31.500  28.243  22.990  1.00  0.00     0.150 A 
ATOM     24  N   UNL A   1      30.495  28.045  22.099  1.00  0.00    -0.237 NA
ATOM     25  C   UNL A   1      31.421  29.247  23.964  1.00  0.00     0.084 A 
ATOM     26  C   UNL A   1      29.369  28.786  22.220  1.00  0.00     0.126 A 
ATOM     27  C   UNL A   1      30.250  30.005  24.058  1.00  0.00     0.039 A 
ATOM     28  Cl  UNL A   1      32.741  29.696  24.984  1.00  0.00    -0.080 Cl
ATOM     29  C   UNL A   1      29.188  29.765  23.182  1.00  0.00     0.075 A 
BRANCH  29  30
ATOM     30  C   UNL A   1      27.897  30.514  23.243  1.00  0.00     0.417 C 
ATOM     31  F   UNL A   1      27.558  31.069  22.047  1.00  0.00    -0.166 F 
ATOM     32  F   UNL A   1      26.851  29.716  23.591  1.00  0.00    -0.166 F 
ATOM     33  F   UNL A   1      27.902  31.537  24.140  1.00  0.00    -0.166 F 
ENDBRANCH  29  30
ENDBRANCH  21  23
ENDBRANCH  14  21
ENDBRANCH   7  12
ENDBRANCH   3   6
ENDBRANCH   1   2
BRANCH   1  34
ATOM     34  C   UNL A   1      37.310  20.472  24.564  1.00  0.00     0.042 C 
BRANCH  34  35
ATOM     35  C   UNL A   1      38.357  20.691  25.646  1.00  0.00     0.118 C 
BRANCH  35  36
ATOM     36  N   UNL A   1      39.377  19.651  25.661  1.00  0.00    -0.352 N 
ATOM     37  C   UNL A   1      40.710  19.725  25.978  1.00  0.00     0.251 C 
ATOM     38  H   UNL A   1      39.059  18.754  25.405  1.00  0.00     0.163 HD
ATOM     39  O   UNL A   1      41.450  18.773  25.746  1.00  0.00    -0.269 OA
BRANCH  37  40
ATOM     40  C   UNL A   1      41.265  20.960  26.570  1.00  0.00     0.039 A 
ATOM     41  C   UNL A   1      41.858  21.905  25.730  1.00  0.00     0.014 A 
ATOM     42  C   UNL A   1      41.203  21.186  27.947  1.00  0.00     0.014 A 
ATOM     43  C   UNL A   1      42.314  23.113  26.262  1.00  0.00     0.010 A 
ATOM     44  C   UNL A   1      41.575  22.424  28.463  1.00  0.00     0.010 A 
ATOM     45  C   UNL A   1      42.135  23.399  27.626  1.00  0.00    -0.014 A 
BRANCH  45  46
ATOM     46  C   UNL A   1      42.524  24.717  28.187  1.00  0.00     0.031 A 
ATOM     47  C   UNL A   1      41.494  25.795  28.375  1.00  0.00     0.074 A 
ATOM     48  C   UNL A   1      43.817  24.957  28.484  1.00  0.00     0.049 A 
ATOM     49  N   UNL A   1      41.650  27.013  28.827  1.00  0.00    -0.248 NA
ATOM     50  C   UNL A   1      40.111  25.472  27.984  1.00  0.00     0.031 C 
ATOM     51  C   UNL A   1      44.918  24.009  28.298  1.00  0.00     0.029 A 
ATOM     52  N   UNL A   1      44.424  26.070  29.008  1.00  0.00    -0.354 N 
ATOM     53  C   UNL A   1      40.392  27.599  28.773  1.00  0.00     0.074 A 
ATOM     54  C   UNL A   1      39.495  26.627  28.186  1.00  0.00     0.031 C 
ATOM     55  C   UNL A   1      46.056  24.565  28.740  1.00  0.00     0.029 A 
ATOM     56  C   UNL A   1      45.776  25.918  29.208  1.00  0.00     0.049 A 
ATOM     57  H   UNL A   1      43.938  26.900  29.220  1.00  0.00     0.167 HD
ATOM     58  C   UNL A   1      40.011  28.824  29.202  1.00  0.00     0.037 A 
ATOM     59  C   UNL A   1      46.684  26.772  29.718  1.00  0.00     0.037 A 
ATOM     60  C   UNL A   1      40.898  29.779  29.810  1.00  0.00     0.049 A 
ATOM     61  C   UNL A   1      46.238  28.133  30.175  1.00  0.00     0.074 A 
ATOM     62  C   UNL A   1      40.595  31.028  30.324  1.00  0.00     0.029 A 
ATOM     63  N   UNL A   1      42.259  29.588  29.991  1.00  0.00    -0.354 N 
ATOM     64  N   UNL A   1      45.033  28.649  30.173  1.00  0.00    -0.248 NA
ATOM     65  C   UNL A   1      47.275  29.028  30.708  1.00  0.00     0.031 C 
ATOM     66  C   UNL A   1      41.781  31.608  30.783  1.00  0.00     0.029 A 
ATOM     67  C   UNL A   1      42.814  30.704  30.593  1.00  0.00     0.049 A 
ATOM     68  H   UNL A   1      42.757  28.779  29.731  1.00  0.00     0.167 HD
ATOM     69  C   UNL A   1      45.162  29.918  30.723  1.00  0.00     0.074 A 
ATOM     70  C   UNL A   1      46.560  30.090  31.059  1.00  0.00     0.031 C 
ATOM     71  C   UNL A   1      44.205  30.853  30.931  1.00  0.00     0.037 A 
BRANCH  58  72
ATOM     72  C   UNL A   1      38.565  29.196  29.056  1.00  0.00     0.057 A 
ATOM     73  C   UNL A   1      37.682  29.134  30.141  1.00  0.00     0.134 A 
ATOM     74  C   UNL A   1      38.065  29.678  27.840  1.00  0.00     0.134 A 
ATOM     75  F   UNL A   1      38.097  28.671  31.330  1.00  0.00    -0.206 F 
ATOM     76  C   UNL A   1      36.348  29.526  30.019  1.00  0.00     0.040 A 
ATOM     77  C   UNL A   1      36.740  30.096  27.713  1.00  0.00     0.040 A 
ATOM     78  F   UNL A   1      38.861  29.768  26.763  1.00  0.00    -0.206 F 
ATOM     79  C   UNL A   1      35.877  30.017  28.804  1.00  0.00     0.006 A 
ENDBRANCH  58  72
BRANCH  59  80
ATOM     80  C   UNL A   1      48.098  26.345  29.866  1.00  0.00     0.057 A 
ATOM     81  C   UNL A   1      48.545  25.744  31.048  1.00  0.00     0.134 A 
ATOM     82  C   UNL A   1      49.029  26.512  28.834  1.00  0.00     0.134 A 
ATOM     83  F   UNL A   1      47.702  25.572  32.078  1.00  0.00    -0.206 F 
ATOM     84  C   UNL A   1      49.869  25.332  31.204  1.00  0.00     0.040 A 
ATOM     85  C   UNL A   1      50.351  26.085  28.968  1.00  0.00     0.040 A 
ATOM     86  F   UNL A   1      48.661  27.075  27.674  1.00  0.00    -0.206 F 
ATOM     87  C   UNL A   1      50.775  25.497  30.158  1.00  0.00     0.006 A 
ENDBRANCH  59  80
BRANCH  71  88
ATOM     88  C   UNL A   1      44.623  32.145  31.569  1.00  0.00     0.057 A 
ATOM     89  C   UNL A   1      44.658  32.299  32.959  1.00  0.00     0.134 A 
ATOM     90  C   UNL A   1      45.081  33.210  30.783  1.00  0.00     0.134 A 
ATOM     91  F   UNL A   1      44.223  31.317  33.763  1.00  0.00    -0.206 F 
ATOM     92  C   UNL A   1      45.133  33.472  33.548  1.00  0.00     0.040 A 
ATOM     93  C   UNL A   1      45.579  34.378  31.361  1.00  0.00     0.040 A 
ATOM     94  F   UNL A   1      45.082  33.121  29.445  1.00  0.00    -0.206 F 
ATOM     95  C   UNL A   1      45.605  34.511  32.748  1.00  0.00     0.006 A 
ENDBRANCH  71  88
ENDBRANCH  45  46
ENDBRANCH  37  40
ENDBRANCH  35  36
ENDBRANCH  34  35
ENDBRANCH   1  34
TORSDOF 15
ENDMDL
MODEL 2
REMARK VINA RESULT:     -12.8      5.265      9.726
REMARK SMILES Nc1c(Nc2ncc(C(F)(F)F)cc2Cl)ncnc1N1CCC(C(=O)NCCCNC(=O)c2ccc(-c3c4nc(c(-c5c(F)cccc5F)c5ccc([nH]5)c(-c5c(F)cccc5F)c5nc(c(-c6c(F)cccc6F)c6ccc3[nH]6)C=C5)C=C4)cc2)CC1
REMARK SMILES IDX 27 1 26 2 24 3 25 4 23 6 20 7 21 8 88 9 22 10 87 11 19 12
REMARK SMILES IDX 2 13 3 14 16 15 18 16 17 17 1 18 4 21 5 23 6 24 14 25 7 26
REMARK SMILES IDX 13 27 15 28 8 29 9 30 10 31 11 32 12 33 28 34 29 35 30 36
REMARK SMILES IDX 31 37 32 39 33 40 34 41 86 42 35 43 85 44 36 45 37 46 38 47
REMARK SMILES IDX 79 48 39 49 84 50 78 51 80 52 40 53 83 54 77 55 76 56 41 58
REMARK SMILES IDX 67 59 50 60 66 61 51 62 54 63 65 64 81 65 52 66 53 67 64 69
REMARK SMILES IDX 82 70 55 71 42 72 43 73 48 74 44 75 45 76 47 77 49 78 46 79
REMARK SMILES IDX 68 80 69 81 74 82 70 83 71 84 73 85 75 86 72 87 56 88 57 89
REMARK SMILES IDX 62 90 58 91 59 92 61 93 63 94 60 95
REMARK H PARENT 26 5 1 19 1 20 4 22 30 38 80 57 54 68
REMARK Flexibility Score: inf
ROOT
ATOM      1  C   UNL A   1      31.436  30.741  26.253  1.00  0.00     0.117 C 
ENDROOT
BRANCH   1   2
ATOM      2  N   UNL A   1      32.781  30.237  26.494  1.00  0.00    -0.356 N 
ATOM      3  C   UNL A   1      33.430  29.142  26.017  1.00  0.00     0.223 C 
ATOM      4  O   UNL A   1      34.578  28.939  26.424  1.00  0.00    -0.275 OA
ATOM      5  H   UNL A   1      33.315  30.787  27.112  1.00  0.00     0.163 HD
BRANCH   3   6
ATOM      6  C   UNL A   1      32.796  28.200  25.008  1.00  0.00     0.082 C 
ATOM      7  N   UNL A   1      32.483  25.611  23.862  1.00  0.00    -0.355 N 
ATOM      8  C   UNL A   1      33.224  26.599  23.098  1.00  0.00     0.119 C 
ATOM      9  C   UNL A   1      31.422  26.072  24.745  1.00  0.00     0.119 C 
ATOM     10  C   UNL A   1      33.824  27.653  24.014  1.00  0.00     0.035 C 
ATOM     11  C   UNL A   1      31.933  27.138  25.704  1.00  0.00     0.035 C 
BRANCH   7  12
ATOM     12  C   UNL A   1      33.045  24.353  24.047  1.00  0.00     0.157 A 
ATOM     13  C   UNL A   1      32.285  23.205  23.768  1.00  0.00     0.118 A 
ATOM     14  C   UNL A   1      32.945  21.975  23.897  1.00  0.00     0.160 A 
ATOM     15  N   UNL A   1      34.211  21.880  24.335  1.00  0.00    -0.217 NA
ATOM     16  N   UNL A   1      34.324  24.274  24.459  1.00  0.00    -0.217 NA
ATOM     17  C   UNL A   1      34.831  23.038  24.596  1.00  0.00     0.226 A 
BRANCH  13  18
ATOM     18  N   UNL A   1      31.002  23.281  23.185  1.00  0.00    -0.393 N 
ATOM     19  H   UNL A   1      30.245  22.806  23.599  1.00  0.00     0.156 HD
ATOM     20  H   UNL A   1      30.864  23.809  22.366  1.00  0.00     0.156 HD
ENDBRANCH  13  18
BRANCH  14  21
ATOM     21  N   UNL A   1      32.242  20.821  23.471  1.00  0.00    -0.322 N 
ATOM     22  H   UNL A   1      31.530  20.980  22.811  1.00  0.00     0.170 HD
BRANCH  21  23
ATOM     23  C   UNL A   1      32.416  19.496  23.856  1.00  0.00     0.150 A 
ATOM     24  N   UNL A   1      32.589  19.336  25.194  1.00  0.00    -0.237 NA
ATOM     25  C   UNL A   1      32.450  18.401  22.983  1.00  0.00     0.084 A 
ATOM     26  C   UNL A   1      32.713  18.081  25.684  1.00  0.00     0.126 A 
ATOM     27  C   UNL A   1      32.591  17.116  23.517  1.00  0.00     0.039 A 
ATOM     28  Cl  UNL A   1      32.453  18.550  21.262  1.00  0.00    -0.080 Cl
ATOM     29  C   UNL A   1      32.709  16.941  24.898  1.00  0.00     0.075 A 
BRANCH  29  30
ATOM     30  C   UNL A   1      32.833  15.598  25.541  1.00  0.00     0.417 C 
ATOM     31  F   UNL A   1      32.074  14.651  24.924  1.00  0.00    -0.166 F 
ATOM     32  F   UNL A   1      34.109  15.127  25.515  1.00  0.00    -0.166 F 
ATOM     33  F   UNL A   1      32.457  15.584  26.849  1.00  0.00    -0.166 F 
ENDBRANCH  29  30
ENDBRANCH  21  23
ENDBRANCH  14  21
ENDBRANCH   7  12
ENDBRANCH   3   6
ENDBRANCH   1   2
BRANCH   1  34
ATOM     34  C   UNL A   1      31.326  32.235  26.524  1.00  0.00     0.042 C 
BRANCH  34  35
ATOM     35  C   UNL A   1      32.551  32.823  27.208  1.00  0.00     0.118 C 
BRANCH  35  36
ATOM     36  N   UNL A   1      32.353  34.205  27.624  1.00  0.00    -0.352 N 
ATOM     37  C   UNL A   1      33.012  34.944  28.575  1.00  0.00     0.251 C 
ATOM     38  H   UNL A   1      31.636  34.684  27.148  1.00  0.00     0.163 HD
ATOM     39  O   UNL A   1      32.571  36.038  28.914  1.00  0.00    -0.269 OA
BRANCH  37  40
ATOM     40  C   UNL A   1      34.234  34.412  29.213  1.00  0.00     0.039 A 
ATOM     41  C   UNL A   1      34.119  33.720  30.421  1.00  0.00     0.014 A 
ATOM     42  C   UNL A   1      35.488  34.595  28.627  1.00  0.00     0.014 A 
ATOM     43  C   UNL A   1      35.252  33.142  30.997  1.00  0.00     0.010 A 
ATOM     44  C   UNL A   1      36.601  33.944  29.152  1.00  0.00     0.010 A 
ATOM     45  C   UNL A   1      36.493  33.212  30.343  1.00  0.00    -0.014 A 
BRANCH  45  46
ATOM     46  C   UNL A   1      37.686  32.518  30.891  1.00  0.00     0.031 A 
ATOM     47  C   UNL A   1      38.332  33.007  32.156  1.00  0.00     0.074 A 
ATOM     48  C   UNL A   1      38.212  31.473  30.221  1.00  0.00     0.049 A 
ATOM     49  N   UNL A   1      39.391  32.545  32.771  1.00  0.00    -0.248 NA
ATOM     50  C   UNL A   1      37.726  34.182  32.805  1.00  0.00     0.031 C 
ATOM     51  C   UNL A   1      37.705  30.937  28.956  1.00  0.00     0.029 A 
ATOM     52  N   UNL A   1      39.288  30.673  30.512  1.00  0.00    -0.354 N 
ATOM     53  C   UNL A   1      39.577  33.371  33.872  1.00  0.00     0.074 A 
ATOM     54  C   UNL A   1      38.562  34.400  33.809  1.00  0.00     0.031 C 
ATOM     55  C   UNL A   1      38.442  29.873  28.603  1.00  0.00     0.029 A 
ATOM     56  C   UNL A   1      39.495  29.672  29.594  1.00  0.00     0.049 A 
ATOM     57  H   UNL A   1      39.859  30.805  31.303  1.00  0.00     0.167 HD
ATOM     58  C   UNL A   1      40.491  33.264  34.864  1.00  0.00     0.037 A 
ATOM     59  C   UNL A   1      40.423  28.696  29.559  1.00  0.00     0.037 A 
ATOM     60  C   UNL A   1      41.482  32.225  34.941  1.00  0.00     0.049 A 
ATOM     61  C   UNL A   1      41.436  28.607  30.666  1.00  0.00     0.074 A 
ATOM     62  C   UNL A   1      42.420  32.002  35.934  1.00  0.00     0.029 A 
ATOM     63  N   UNL A   1      41.660  31.232  33.989  1.00  0.00    -0.354 N 
ATOM     64  N   UNL A   1      41.561  29.359  31.733  1.00  0.00    -0.248 NA
ATOM     65  C   UNL A   1      42.435  27.533  30.568  1.00  0.00     0.031 C 
ATOM     66  C   UNL A   1      43.190  30.896  35.565  1.00  0.00     0.029 A 
ATOM     67  C   UNL A   1      42.704  30.404  34.364  1.00  0.00     0.049 A 
ATOM     68  H   UNL A   1      41.123  31.130  33.170  1.00  0.00     0.167 HD
ATOM     69  C   UNL A   1      42.633  28.838  32.443  1.00  0.00     0.074 A 
ATOM     70  C   UNL A   1      43.119  27.698  31.693  1.00  0.00     0.031 C 
ATOM     71  C   UNL A   1      43.166  29.267  33.612  1.00  0.00     0.037 A 
BRANCH  58  72
ATOM     72  C   UNL A   1      40.447  34.281  35.966  1.00  0.00     0.057 A 
ATOM     73  C   UNL A   1      41.173  35.476  35.887  1.00  0.00     0.134 A 
ATOM     74  C   UNL A   1      39.626  34.093  37.085  1.00  0.00     0.134 A 
ATOM     75  F   UNL A   1      41.986  35.710  34.846  1.00  0.00    -0.206 F 
ATOM     76  C   UNL A   1      41.095  36.444  36.889  1.00  0.00     0.040 A 
ATOM     77  C   UNL A   1      39.522  35.065  38.081  1.00  0.00     0.040 A 
ATOM     78  F   UNL A   1      38.900  32.973  37.219  1.00  0.00    -0.206 F 
ATOM     79  C   UNL A   1      40.260  36.243  37.986  1.00  0.00     0.006 A 
ENDBRANCH  58  72
BRANCH  59  80
ATOM     80  C   UNL A   1      40.406  27.699  28.460  1.00  0.00     0.057 A 
ATOM     81  C   UNL A   1      41.121  27.924  27.278  1.00  0.00     0.134 A 
ATOM     82  C   UNL A   1      39.693  26.499  28.566  1.00  0.00     0.134 A 
ATOM     83  F   UNL A   1      41.810  29.063  27.113  1.00  0.00    -0.206 F 
ATOM     84  C   UNL A   1      41.121  26.996  26.235  1.00  0.00     0.040 A 
ATOM     85  C   UNL A   1      39.702  25.552  27.540  1.00  0.00     0.040 A 
ATOM     86  F   UNL A   1      38.995  26.221  29.676  1.00  0.00    -0.206 F 
ATOM     87  C   UNL A   1      40.414  25.803  26.368  1.00  0.00     0.006 A 
ENDBRANCH  59  80
BRANCH  71  88
ATOM     88  C   UNL A   1      44.324  28.496  34.173  1.00  0.00     0.057 A 
ATOM     89  C   UNL A   1      44.132  27.346  34.948  1.00  0.00     0.134 A 
ATOM     90  C   UNL A   1      45.639  28.857  33.856  1.00  0.00     0.134 A 
ATOM     91  F   UNL A   1      42.896  26.956  35.292  1.00  0.00    -0.206 F 
ATOM     92  C   UNL A   1      45.213  26.583  35.392  1.00  0.00     0.040 A 
ATOM     93  C   UNL A   1      46.725  28.088  34.275  1.00  0.00     0.040 A 
ATOM     94  F   UNL A   1      45.888  29.943  33.108  1.00  0.00    -0.206 F 
ATOM     95  C   UNL A   1      46.513  26.947  35.046  1.00  0.00     0.006 A 
ENDBRANCH  71  88
ENDBRANCH  45  46
ENDBRANCH  37  40
ENDBRANCH  35  36
ENDBRANCH  34  35
ENDBRANCH   1  34
TORSDOF 15
ENDMDL
MODEL 3
REMARK VINA RESULT:     -12.7      0.894      6.076
REMARK SMILES Nc1c(Nc2ncc(C(F)(F)F)cc2Cl)ncnc1N1CCC(C(=O)NCCCNC(=O)c2ccc(-c3c4nc(c(-c5c(F)cccc5F)c5ccc([nH]5)c(-c5c(F)cccc5F)c5nc(c(-c6c(F)cccc6F)c6ccc3[nH]6)C=C5)C=C4)cc2)CC1
REMARK SMILES IDX 27 1 26 2 24 3 25 4 23 6 20 7 21 8 88 9 22 10 87 11 19 12
REMARK SMILES IDX 2 13 3 14 16 15 18 16 17 17 1 18 4 21 5 23 6 24 14 25 7 26
REMARK SMILES IDX 13 27 15 28 8 29 9 30 10 31 11 32 12 33 28 34 29 35 30 36
REMARK SMILES IDX 31 37 32 39 33 40 34 41 86 42 35 43 85 44 36 45 37 46 38 47
REMARK SMILES IDX 79 48 39 49 84 50 78 51 80 52 40 53 83 54 77 55 76 56 41 58
REMARK SMILES IDX 67 59 50 60 66 61 51 62 54 63 65 64 81 65 52 66 53 67 64 69
REMARK SMILES IDX 82 70 55 71 42 72 43 73 48 74 44 75 45 76 47 77 49 78 46 79
REMARK SMILES IDX 68 80 69 81 74 82 70 83 71 84 73 85 75 86 72 87 56 88 57 89
REMARK SMILES IDX 62 90 58 91 59 92 61 93 63 94 60 95
REMARK H PARENT 26 5 1 19 1 20 4 22 30 38 80 57 54 68
REMARK Flexibility Score: inf
ROOT
ATOM      1  C   UNL A   1      36.196  20.390  25.013  1.00  0.00     0.117 C 
ENDROOT
BRANCH   1   2
ATOM      2  N   UNL A   1      35.344  19.218  24.864  1.00  0.00    -0.356 N 
ATOM      3  C   UNL A   1      34.035  19.013  25.166  1.00  0.00     0.223 C 
ATOM      4  O   UNL A   1      33.572  17.888  24.958  1.00  0.00    -0.275 OA
ATOM      5  H   UNL A   1      35.797  18.435  24.474  1.00  0.00     0.163 HD
BRANCH   3   6
ATOM      6  C   UNL A   1      33.151  20.116  25.722  1.00  0.00     0.082 C 
ATOM      7  N   UNL A   1      32.389  22.855  25.899  1.00  0.00    -0.355 N 
ATOM      8  C   UNL A   1      33.095  22.280  27.030  1.00  0.00     0.119 C 
ATOM      9  C   UNL A   1      31.539  21.986  25.100  1.00  0.00     0.119 C 
ATOM     10  C   UNL A   1      33.942  21.097  26.594  1.00  0.00     0.035 C 
ATOM     11  C   UNL A   1      32.306  20.764  24.617  1.00  0.00     0.035 C 
BRANCH   7  12
ATOM     12  C   UNL A   1      32.839  24.062  25.375  1.00  0.00     0.157 A 
ATOM     13  C   UNL A   1      32.133  25.245  25.650  1.00  0.00     0.118 A 
ATOM     14  C   UNL A   1      32.693  26.433  25.159  1.00  0.00     0.160 A 
ATOM     15  N   UNL A   1      33.803  26.446  24.401  1.00  0.00    -0.217 NA
ATOM     16  N   UNL A   1      33.968  24.064  24.642  1.00  0.00    -0.217 NA
ATOM     17  C   UNL A   1      34.378  25.256  24.182  1.00  0.00     0.226 A 
BRANCH  13  18
ATOM     18  N   UNL A   1      31.043  25.274  26.546  1.00  0.00    -0.393 N 
ATOM     19  H   UNL A   1      30.442  26.054  26.564  1.00  0.00     0.156 HD
ATOM     20  H   UNL A   1      30.884  24.515  27.152  1.00  0.00     0.156 HD
ENDBRANCH  13  18
BRANCH  14  21
ATOM     21  N   UNL A   1      32.079  27.646  25.558  1.00  0.00    -0.322 N 
ATOM     22  H   UNL A   1      32.270  27.933  26.479  1.00  0.00     0.170 HD
BRANCH  21  23
ATOM     23  C   UNL A   1      31.244  28.486  24.830  1.00  0.00     0.150 A 
ATOM     24  N   UNL A   1      30.581  27.858  23.824  1.00  0.00    -0.237 NA
ATOM     25  C   UNL A   1      31.092  29.860  25.053  1.00  0.00     0.084 A 
ATOM     26  C   UNL A   1      29.699  28.572  23.087  1.00  0.00     0.126 A 
ATOM     27  C   UNL A   1      30.182  30.575  24.267  1.00  0.00     0.039 A 
ATOM     28  Cl  UNL A   1      32.059  30.761  26.165  1.00  0.00    -0.080 Cl
ATOM     29  C   UNL A   1      29.453  29.922  23.271  1.00  0.00     0.075 A 
BRANCH  29  30
ATOM     30  C   UNL A   1      28.443  30.614  22.414  1.00  0.00     0.417 C 
ATOM     31  F   UNL A   1      27.379  31.073  23.128  1.00  0.00    -0.166 F 
ATOM     32  F   UNL A   1      28.960  31.699  21.778  1.00  0.00    -0.166 F 
ATOM     33  F   UNL A   1      27.923  29.821  21.438  1.00  0.00    -0.166 F 
ENDBRANCH  29  30
ENDBRANCH  21  23
ENDBRANCH  14  21
ENDBRANCH   7  12
ENDBRANCH   3   6
ENDBRANCH   1   2
BRANCH   1  34
ATOM     34  C   UNL A   1      37.639  20.105  24.619  1.00  0.00     0.042 C 
BRANCH  34  35
ATOM     35  C   UNL A   1      38.638  20.354  25.739  1.00  0.00     0.118 C 
BRANCH  35  36
ATOM     36  N   UNL A   1      39.720  19.378  25.753  1.00  0.00    -0.352 N 
ATOM     37  C   UNL A   1      41.053  19.543  26.034  1.00  0.00     0.251 C 
ATOM     38  H   UNL A   1      39.452  18.457  25.528  1.00  0.00     0.163 HD
ATOM     39  O   UNL A   1      41.844  18.631  25.806  1.00  0.00    -0.269 OA
BRANCH  37  40
ATOM     40  C   UNL A   1      41.545  20.824  26.581  1.00  0.00     0.039 A 
ATOM     41  C   UNL A   1      42.105  21.761  25.709  1.00  0.00     0.014 A 
ATOM     42  C   UNL A   1      41.456  21.103  27.947  1.00  0.00     0.014 A 
ATOM     43  C   UNL A   1      42.500  23.008  26.196  1.00  0.00     0.010 A 
ATOM     44  C   UNL A   1      41.765  22.376  28.416  1.00  0.00     0.010 A 
ATOM     45  C   UNL A   1      42.291  23.341  27.545  1.00  0.00    -0.014 A 
BRANCH  45  46
ATOM     46  C   UNL A   1      42.614  24.697  28.056  1.00  0.00     0.031 A 
ATOM     47  C   UNL A   1      44.033  25.065  28.385  1.00  0.00     0.074 A 
ATOM     48  C   UNL A   1      41.619  25.581  28.267  1.00  0.00     0.049 A 
ATOM     49  N   UNL A   1      44.502  26.190  28.863  1.00  0.00    -0.248 NA
ATOM     50  C   UNL A   1      45.059  24.030  28.171  1.00  0.00     0.031 C 
ATOM     51  C   UNL A   1      40.195  25.324  28.035  1.00  0.00     0.029 A 
ATOM     52  N   UNL A   1      41.651  26.875  28.721  1.00  0.00    -0.354 N 
ATOM     53  C   UNL A   1      45.870  25.996  29.008  1.00  0.00     0.074 A 
ATOM     54  C   UNL A   1      46.148  24.628  28.628  1.00  0.00     0.031 C 
ATOM     55  C   UNL A   1      39.498  26.437  28.307  1.00  0.00     0.029 A 
ATOM     56  C   UNL A   1      40.415  27.475  28.766  1.00  0.00     0.049 A 
ATOM     57  H   UNL A   1      42.481  27.331  28.990  1.00  0.00     0.167 HD
ATOM     58  C   UNL A   1      46.813  26.886  29.392  1.00  0.00     0.037 A 
ATOM     59  C   UNL A   1      40.063  28.723  29.129  1.00  0.00     0.037 A 
ATOM     60  C   UNL A   1      46.539  28.254  29.743  1.00  0.00     0.049 A 
ATOM     61  C   UNL A   1      41.128  29.689  29.565  1.00  0.00     0.074 A 
ATOM     62  C   UNL A   1      47.434  29.248  30.097  1.00  0.00     0.029 A 
ATOM     63  N   UNL A   1      45.273  28.820  29.779  1.00  0.00    -0.354 N 
ATOM     64  N   UNL A   1      42.425  29.509  29.639  1.00  0.00    -0.248 NA
ATOM     65  C   UNL A   1      40.685  31.032  29.967  1.00  0.00     0.031 C 
ATOM     66  C   UNL A   1      46.708  30.406  30.382  1.00  0.00     0.029 A 
ATOM     67  C   UNL A   1      45.364  30.147  30.166  1.00  0.00     0.049 A 
ATOM     68  H   UNL A   1      44.436  28.351  29.561  1.00  0.00     0.167 HD
ATOM     69  C   UNL A   1      42.953  30.718  30.071  1.00  0.00     0.074 A 
ATOM     70  C   UNL A   1      41.839  31.629  30.233  1.00  0.00     0.031 C 
ATOM     71  C   UNL A   1      44.246  31.042  30.310  1.00  0.00     0.037 A 
BRANCH  58  72
ATOM     72  C   UNL A   1      48.238  26.421  29.428  1.00  0.00     0.057 A 
ATOM     73  C   UNL A   1      49.090  26.591  28.329  1.00  0.00     0.134 A 
ATOM     74  C   UNL A   1      48.782  25.855  30.588  1.00  0.00     0.134 A 
ATOM     75  F   UNL A   1      48.627  27.116  27.185  1.00  0.00    -0.206 F 
ATOM     76  C   UNL A   1      50.429  26.202  28.377  1.00  0.00     0.040 A 
ATOM     77  C   UNL A   1      50.126  25.485  30.656  1.00  0.00     0.040 A 
ATOM     78  F   UNL A   1      48.021  25.670  31.678  1.00  0.00    -0.206 F 
ATOM     79  C   UNL A   1      50.953  25.656  29.547  1.00  0.00     0.006 A 
ENDBRANCH  58  72
BRANCH  59  80
ATOM     80  C   UNL A   1      38.641  29.142  29.051  1.00  0.00     0.057 A 
ATOM     81  C   UNL A   1      38.099  29.614  27.849  1.00  0.00     0.134 A 
ATOM     82  C   UNL A   1      37.790  29.070  30.160  1.00  0.00     0.134 A 
ATOM     83  F   UNL A   1      38.870  29.721  26.757  1.00  0.00    -0.206 F 
ATOM     84  C   UNL A   1      36.764  30.009  27.755  1.00  0.00     0.040 A 
ATOM     85  C   UNL A   1      36.447  29.441  30.073  1.00  0.00     0.040 A 
ATOM     86  F   UNL A   1      38.247  28.621  31.337  1.00  0.00    -0.206 F 
ATOM     87  C   UNL A   1      35.932  29.917  28.868  1.00  0.00     0.006 A 
ENDBRANCH  59  80
BRANCH  71  88
ATOM     88  C   UNL A   1      44.541  32.444  30.754  1.00  0.00     0.057 A 
ATOM     89  C   UNL A   1      44.640  32.778  32.109  1.00  0.00     0.134 A 
ATOM     90  C   UNL A   1      44.821  33.444  29.814  1.00  0.00     0.134 A 
ATOM     91  F   UNL A   1      44.374  31.866  33.056  1.00  0.00    -0.206 F 
ATOM     92  C   UNL A   1      45.003  34.063  32.515  1.00  0.00     0.040 A 
ATOM     93  C   UNL A   1      45.208  34.725  30.208  1.00  0.00     0.040 A 
ATOM     94  F   UNL A   1      44.754  33.183  28.500  1.00  0.00    -0.206 F 
ATOM     95  C   UNL A   1      45.299  35.037  31.563  1.00  0.00     0.006 A 
ENDBRANCH  71  88
ENDBRANCH  45  46
ENDBRANCH  37  40
ENDBRANCH  35  36
ENDBRANCH  34  35
ENDBRANCH   1  34
TORSDOF 15
ENDMDL
