MODEL 1
REMARK VINA RESULT:     -12.3      0.000      0.000
REMARK SMILES CCc1cccc2c3c([nH]c12)[C@](CC)(CC(=O)NCCCNC(=O)c1ccc(-c2c4nc(c(-c5c(F)cccc5F)c5ccc([nH]5)c(-c5c(F)cccc5F)c5nc(c(-c6c(F)cccc6F)c6ccc2[nH]6)C=C5)C=C4)cc1)OCC3
REMARK SMILES IDX 20 1 19 2 18 3 16 4 17 5 15 7 12 8 3 9 4 10 11 11 5 12 7 13
REMARK SMILES IDX 10 14 6 15 8 16 9 17 81 19 80 20 79 21 2 22 1 23 13 24 14 25
REMARK SMILES IDX 21 26 22 27 23 28 24 30 25 31 26 32 78 33 27 34 77 35 28 36
REMARK SMILES IDX 29 37 30 38 71 39 31 40 76 41 70 42 72 43 32 44 75 45 69 46
REMARK SMILES IDX 68 47 33 49 59 50 42 51 58 52 43 53 46 54 57 55 73 56 44 57
REMARK SMILES IDX 45 58 56 60 74 61 47 62 34 63 35 64 40 65 36 66 37 67 39 68
REMARK SMILES IDX 41 69 38 70 60 71 61 72 66 73 62 74 63 75 65 76 67 77 64 78
REMARK SMILES IDX 48 79 49 80 54 81 50 82 51 83 53 84 55 85 52 86
REMARK H PARENT 18 6 10 18 22 29 72 48 46 59
REMARK Flexibility Score: inf
ROOT
ATOM      1  C   UNL A   1      38.723  21.704  25.899  1.00  0.00     0.042 C 
ENDROOT
BRANCH   1   2
ATOM      2  C   UNL A   1      37.980  23.048  25.745  1.00  0.00     0.117 C 
BRANCH   2   3
ATOM      3  N   UNL A   1      37.481  23.319  24.399  1.00  0.00    -0.356 N 
ATOM      4  C   UNL A   1      36.379  22.895  23.709  1.00  0.00     0.223 C 
ATOM      5  O   UNL A   1      36.325  23.168  22.509  1.00  0.00    -0.275 OA
ATOM      6  H   UNL A   1      38.054  23.932  23.884  1.00  0.00     0.163 HD
BRANCH   4   7
ATOM      7  C   UNL A   1      35.234  22.200  24.412  1.00  0.00     0.142 C 
BRANCH   7   8
ATOM      8  C   UNL A   1      33.857  22.894  24.547  1.00  0.00     0.117 C 
ATOM      9  C   UNL A   1      33.735  27.925  25.331  1.00  0.00    -0.024 A 
ATOM     10  C   UNL A   1      33.546  29.003  24.434  1.00  0.00     0.006 A 
ATOM     11  C   UNL A   1      33.804  26.641  24.740  1.00  0.00     0.049 A 
ATOM     12  C   UNL A   1      33.365  28.820  23.066  1.00  0.00     0.001 A 
ATOM     13  C   UNL A   1      33.572  26.441  23.380  1.00  0.00     0.003 A 
ATOM     14  N   UNL A   1      34.054  25.387  25.287  1.00  0.00    -0.356 N 
ATOM     15  C   UNL A   1      33.352  27.538  22.531  1.00  0.00     0.010 A 
ATOM     16  C   UNL A   1      33.503  25.046  23.181  1.00  0.00    -0.014 A 
ATOM     17  C   UNL A   1      33.864  24.400  24.344  1.00  0.00     0.052 A 
ATOM     18  H   UNL A   1      34.329  25.226  26.218  1.00  0.00     0.166 HD
ATOM     19  C   UNL A   1      32.992  24.332  22.004  1.00  0.00     0.066 C 
ATOM     20  C   UNL A   1      32.963  22.833  22.263  1.00  0.00     0.166 C 
ATOM     21  O   UNL A   1      32.868  22.380  23.620  1.00  0.00    -0.368 OA
BRANCH   9  22
ATOM     22  C   UNL A   1      33.844  28.163  26.818  1.00  0.00     0.034 C 
ATOM     23  C   UNL A   1      34.797  29.289  27.217  1.00  0.00     0.009 C 
ENDBRANCH   9  22
BRANCH   8  24
ATOM     24  C   UNL A   1      33.279  22.555  25.960  1.00  0.00     0.039 C 
ATOM     25  C   UNL A   1      34.323  22.197  27.020  1.00  0.00     0.007 C 
ENDBRANCH   8  24
ENDBRANCH   7   8
ENDBRANCH   4   7
ENDBRANCH   2   3
ENDBRANCH   1   2
BRANCH   1  26
ATOM     26  C   UNL A   1      40.058  21.756  26.651  1.00  0.00     0.118 C 
BRANCH  26  27
ATOM     27  N   UNL A   1      41.200  22.177  25.877  1.00  0.00    -0.352 N 
ATOM     28  C   UNL A   1      41.976  23.301  25.905  1.00  0.00     0.251 C 
ATOM     29  H   UNL A   1      41.476  21.524  25.193  1.00  0.00     0.163 HD
ATOM     30  O   UNL A   1      42.982  23.319  25.191  1.00  0.00    -0.269 OA
BRANCH  28  31
ATOM     31  C   UNL A   1      41.606  24.526  26.650  1.00  0.00     0.039 A 
ATOM     32  C   UNL A   1      40.722  25.510  26.202  1.00  0.00     0.014 A 
ATOM     33  C   UNL A   1      42.229  24.686  27.896  1.00  0.00     0.014 A 
ATOM     34  C   UNL A   1      40.621  26.718  26.881  1.00  0.00     0.010 A 
ATOM     35  C   UNL A   1      42.072  25.859  28.616  1.00  0.00     0.010 A 
ATOM     36  C   UNL A   1      41.342  26.909  28.061  1.00  0.00    -0.014 A 
BRANCH  36  37
ATOM     37  C   UNL A   1      41.286  28.221  28.701  1.00  0.00     0.031 A 
ATOM     38  C   UNL A   1      42.403  29.163  28.386  1.00  0.00     0.074 A 
ATOM     39  C   UNL A   1      40.225  28.601  29.442  1.00  0.00     0.049 A 
ATOM     40  N   UNL A   1      43.202  29.780  29.197  1.00  0.00    -0.248 NA
ATOM     41  C   UNL A   1      42.707  29.390  26.964  1.00  0.00     0.031 C 
ATOM     42  C   UNL A   1      38.947  27.899  29.612  1.00  0.00     0.029 A 
ATOM     43  N   UNL A   1      40.029  29.763  30.126  1.00  0.00    -0.354 N 
ATOM     44  C   UNL A   1      44.009  30.596  28.402  1.00  0.00     0.074 A 
ATOM     45  C   UNL A   1      43.732  30.240  27.036  1.00  0.00     0.031 C 
ATOM     46  C   UNL A   1      38.039  28.742  30.149  1.00  0.00     0.029 A 
ATOM     47  C   UNL A   1      38.712  29.979  30.503  1.00  0.00     0.049 A 
ATOM     48  H   UNL A   1      40.756  30.393  30.333  1.00  0.00     0.167 HD
ATOM     49  C   UNL A   1      44.728  31.635  28.911  1.00  0.00     0.037 A 
ATOM     50  C   UNL A   1      38.189  31.111  31.024  1.00  0.00     0.037 A 
ATOM     51  C   UNL A   1      44.899  31.520  30.332  1.00  0.00     0.049 A 
ATOM     52  C   UNL A   1      39.299  31.928  31.555  1.00  0.00     0.074 A 
ATOM     53  C   UNL A   1      45.603  30.694  31.182  1.00  0.00     0.029 A 
ATOM     54  N   UNL A   1      44.028  32.225  31.119  1.00  0.00    -0.354 N 
ATOM     55  N   UNL A   1      40.015  31.601  32.593  1.00  0.00    -0.248 NA
ATOM     56  C   UNL A   1      39.876  32.953  30.699  1.00  0.00     0.031 C 
ATOM     57  C   UNL A   1      44.828  30.637  32.377  1.00  0.00     0.029 A 
ATOM     58  C   UNL A   1      43.705  31.445  32.197  1.00  0.00     0.049 A 
ATOM     59  H   UNL A   1      43.693  33.133  30.941  1.00  0.00     0.167 HD
ATOM     60  C   UNL A   1      41.291  32.061  32.303  1.00  0.00     0.074 A 
ATOM     61  C   UNL A   1      41.111  33.001  31.204  1.00  0.00     0.031 C 
ATOM     62  C   UNL A   1      42.392  31.427  32.802  1.00  0.00     0.037 A 
BRANCH  49  63
ATOM     63  C   UNL A   1      44.985  32.939  28.189  1.00  0.00     0.057 A 
ATOM     64  C   UNL A   1      46.152  33.202  27.443  1.00  0.00     0.134 A 
ATOM     65  C   UNL A   1      43.921  33.835  27.967  1.00  0.00     0.134 A 
ATOM     66  F   UNL A   1      47.219  32.395  27.482  1.00  0.00    -0.206 F 
ATOM     67  C   UNL A   1      46.247  34.257  26.531  1.00  0.00     0.040 A 
ATOM     68  C   UNL A   1      43.990  34.866  27.021  1.00  0.00     0.040 A 
ATOM     69  F   UNL A   1      42.751  33.688  28.606  1.00  0.00    -0.206 F 
ATOM     70  C   UNL A   1      45.153  35.074  26.291  1.00  0.00     0.006 A 
ENDBRANCH  49  63
BRANCH  50  71
ATOM     71  C   UNL A   1      36.828  31.640  30.820  1.00  0.00     0.057 A 
ATOM     72  C   UNL A   1      36.434  32.138  29.565  1.00  0.00     0.134 A 
ATOM     73  C   UNL A   1      35.965  31.895  31.890  1.00  0.00     0.134 A 
ATOM     74  F   UNL A   1      37.233  32.018  28.494  1.00  0.00    -0.206 F 
ATOM     75  C   UNL A   1      35.246  32.850  29.382  1.00  0.00     0.040 A 
ATOM     76  C   UNL A   1      34.772  32.612  31.722  1.00  0.00     0.040 A 
ATOM     77  F   UNL A   1      36.282  31.496  33.130  1.00  0.00    -0.206 F 
ATOM     78  C   UNL A   1      34.414  33.098  30.466  1.00  0.00     0.006 A 
ENDBRANCH  50  71
BRANCH  62  79
ATOM     79  C   UNL A   1      42.165  30.433  33.906  1.00  0.00     0.057 A 
ATOM     80  C   UNL A   1      42.346  30.837  35.232  1.00  0.00     0.134 A 
ATOM     81  C   UNL A   1      41.885  29.077  33.686  1.00  0.00     0.134 A 
ATOM     82  F   UNL A   1      42.679  32.106  35.513  1.00  0.00    -0.206 F 
ATOM     83  C   UNL A   1      42.235  29.937  36.295  1.00  0.00     0.040 A 
ATOM     84  C   UNL A   1      41.737  28.174  34.742  1.00  0.00     0.040 A 
ATOM     85  F   UNL A   1      41.798  28.580  32.447  1.00  0.00    -0.206 F 
ATOM     86  C   UNL A   1      41.915  28.604  36.054  1.00  0.00     0.006 A 
ENDBRANCH  62  79
ENDBRANCH  36  37
ENDBRANCH  28  31
ENDBRANCH  26  27
ENDBRANCH   1  26
TORSDOF 13
ENDMDL
MODEL 2
REMARK VINA RESULT:     -12.3      2.758      7.980
REMARK SMILES CCc1cccc2c3c([nH]c12)[C@](CC)(CC(=O)NCCCNC(=O)c1ccc(-c2c4nc(c(-c5c(F)cccc5F)c5ccc([nH]5)c(-c5c(F)cccc5F)c5nc(c(-c6c(F)cccc6F)c6ccc2[nH]6)C=C5)C=C4)cc1)OCC3
REMARK SMILES IDX 20 1 19 2 18 3 16 4 17 5 15 7 12 8 3 9 4 10 11 11 5 12 7 13
REMARK SMILES IDX 10 14 6 15 8 16 9 17 81 19 80 20 79 21 2 22 1 23 13 24 14 25
REMARK SMILES IDX 21 26 22 27 23 28 24 30 25 31 26 32 78 33 27 34 77 35 28 36
REMARK SMILES IDX 29 37 30 38 71 39 31 40 76 41 70 42 72 43 32 44 75 45 69 46
REMARK SMILES IDX 68 47 33 49 59 50 42 51 58 52 43 53 46 54 57 55 73 56 44 57
REMARK SMILES IDX 45 58 56 60 74 61 47 62 34 63 35 64 40 65 36 66 37 67 39 68
REMARK SMILES IDX 41 69 38 70 60 71 61 72 66 73 62 74 63 75 65 76 67 77 64 78
REMARK SMILES IDX 48 79 49 80 54 81 50 82 51 83 53 84 55 85 52 86
REMARK H PARENT 18 6 10 18 22 29 72 48 46 59
REMARK Flexibility Score: inf
ROOT
ATOM      1  C   UNL A   1      32.172  29.481  26.981  1.00  0.00     0.042 C 
ENDROOT
BRANCH   1   2
ATOM      2  C   UNL A   1      32.018  28.041  27.515  1.00  0.00     0.117 C 
BRANCH   2   3
ATOM      3  N   UNL A   1      31.027  27.230  26.811  1.00  0.00    -0.356 N 
ATOM      4  C   UNL A   1      31.106  26.050  26.124  1.00  0.00     0.223 C 
ATOM      5  O   UNL A   1      30.112  25.704  25.484  1.00  0.00    -0.275 OA
ATOM      6  H   UNL A   1      30.120  27.610  26.836  1.00  0.00     0.163 HD
BRANCH   4   7
ATOM      7  C   UNL A   1      32.329  25.166  26.222  1.00  0.00     0.142 C 
BRANCH   7   8
ATOM      8  C   UNL A   1      33.311  25.047  25.030  1.00  0.00     0.117 C 
ATOM      9  C   UNL A   1      38.002  23.271  25.913  1.00  0.00    -0.024 A 
ATOM     10  C   UNL A   1      38.554  21.978  25.751  1.00  0.00     0.006 A 
ATOM     11  C   UNL A   1      36.615  23.382  25.654  1.00  0.00     0.049 A 
ATOM     12  C   UNL A   1      37.808  20.894  25.298  1.00  0.00     0.001 A 
ATOM     13  C   UNL A   1      35.871  22.317  25.148  1.00  0.00     0.003 A 
ATOM     14  N   UNL A   1      35.737  24.453  25.781  1.00  0.00    -0.356 N 
ATOM     15  C   UNL A   1      36.469  21.059  24.969  1.00  0.00     0.010 A 
ATOM     16  C   UNL A   1      34.603  22.833  24.808  1.00  0.00    -0.014 A 
ATOM     17  C   UNL A   1      34.502  24.133  25.258  1.00  0.00     0.052 A 
ATOM     18  H   UNL A   1      35.964  25.320  26.188  1.00  0.00     0.166 HD
ATOM     19  C   UNL A   1      33.570  22.200  23.978  1.00  0.00     0.066 C 
ATOM     20  C   UNL A   1      32.416  23.162  23.741  1.00  0.00     0.166 C 
ATOM     21  O   UNL A   1      32.677  24.569  23.817  1.00  0.00    -0.368 OA
BRANCH   9  22
ATOM     22  C   UNL A   1      38.866  24.438  26.328  1.00  0.00     0.034 C 
ATOM     23  C   UNL A   1      38.896  24.706  27.832  1.00  0.00     0.009 C 
ENDBRANCH   9  22
BRANCH   8  24
ATOM     24  C   UNL A   1      33.811  26.484  24.668  1.00  0.00     0.039 C 
ATOM     25  C   UNL A   1      33.422  26.974  23.271  1.00  0.00     0.007 C 
ENDBRANCH   8  24
ENDBRANCH   7   8
ENDBRANCH   4   7
ENDBRANCH   2   3
ENDBRANCH   1   2
BRANCH   1  26
ATOM     26  C   UNL A   1      33.589  30.064  27.021  1.00  0.00     0.118 C 
BRANCH  26  27
ATOM     27  N   UNL A   1      33.816  31.100  28.000  1.00  0.00    -0.352 N 
ATOM     28  C   UNL A   1      34.942  31.556  28.622  1.00  0.00     0.251 C 
ATOM     29  H   UNL A   1      32.996  31.572  28.272  1.00  0.00     0.163 HD
ATOM     30  O   UNL A   1      34.837  32.561  29.330  1.00  0.00    -0.269 OA
BRANCH  28  31
ATOM     31  C   UNL A   1      36.240  30.843  28.582  1.00  0.00     0.039 A 
ATOM     32  C   UNL A   1      36.421  29.513  28.194  1.00  0.00     0.014 A 
ATOM     33  C   UNL A   1      37.353  31.590  28.993  1.00  0.00     0.014 A 
ATOM     34  C   UNL A   1      37.642  28.886  28.406  1.00  0.00     0.010 A 
ATOM     35  C   UNL A   1      38.592  30.987  29.135  1.00  0.00     0.010 A 
ATOM     36  C   UNL A   1      38.712  29.613  28.929  1.00  0.00    -0.014 A 
BRANCH  36  37
ATOM     37  C   UNL A   1      39.952  28.903  29.228  1.00  0.00     0.031 A 
ATOM     38  C   UNL A   1      40.308  28.761  30.672  1.00  0.00     0.074 A 
ATOM     39  C   UNL A   1      40.675  28.307  28.257  1.00  0.00     0.049 A 
ATOM     40  N   UNL A   1      41.396  29.109  31.281  1.00  0.00    -0.248 NA
ATOM     41  C   UNL A   1      39.274  28.215  31.566  1.00  0.00     0.031 C 
ATOM     42  C   UNL A   1      40.314  28.127  26.846  1.00  0.00     0.029 A 
ATOM     43  N   UNL A   1      41.858  27.638  28.357  1.00  0.00    -0.354 N 
ATOM     44  C   UNL A   1      41.253  28.687  32.605  1.00  0.00     0.074 A 
ATOM     45  C   UNL A   1      39.893  28.239  32.747  1.00  0.00     0.031 C 
ATOM     46  C   UNL A   1      41.133  27.212  26.286  1.00  0.00     0.029 A 
ATOM     47  C   UNL A   1      42.164  26.867  27.247  1.00  0.00     0.049 A 
ATOM     48  H   UNL A   1      42.443  27.697  29.146  1.00  0.00     0.167 HD
ATOM     49  C   UNL A   1      42.311  28.570  33.455  1.00  0.00     0.037 A 
ATOM     50  C   UNL A   1      43.164  25.963  27.133  1.00  0.00     0.037 A 
ATOM     51  C   UNL A   1      43.450  29.313  32.995  1.00  0.00     0.049 A 
ATOM     52  C   UNL A   1      44.157  26.241  28.191  1.00  0.00     0.074 A 
ATOM     53  C   UNL A   1      43.777  30.645  32.865  1.00  0.00     0.029 A 
ATOM     54  N   UNL A   1      44.406  28.615  32.306  1.00  0.00    -0.354 N 
ATOM     55  N   UNL A   1      44.913  27.301  28.223  1.00  0.00    -0.248 NA
ATOM     56  C   UNL A   1      44.054  25.511  29.445  1.00  0.00     0.031 C 
ATOM     57  C   UNL A   1      44.670  30.707  31.755  1.00  0.00     0.029 A 
ATOM     58  C   UNL A   1      44.851  29.407  31.281  1.00  0.00     0.049 A 
ATOM     59  H   UNL A   1      44.719  27.705  32.511  1.00  0.00     0.167 HD
ATOM     60  C   UNL A   1      45.043  27.604  29.569  1.00  0.00     0.074 A 
ATOM     61  C   UNL A   1      44.619  26.397  30.269  1.00  0.00     0.031 C 
ATOM     62  C   UNL A   1      45.220  28.893  29.981  1.00  0.00     0.037 A 
BRANCH  49  63
ATOM     63  C   UNL A   1      42.441  27.509  34.526  1.00  0.00     0.057 A 
ATOM     64  C   UNL A   1      41.866  27.619  35.808  1.00  0.00     0.134 A 
ATOM     65  C   UNL A   1      42.877  26.216  34.177  1.00  0.00     0.134 A 
ATOM     66  F   UNL A   1      41.332  28.762  36.254  1.00  0.00    -0.206 F 
ATOM     67  C   UNL A   1      41.716  26.526  36.667  1.00  0.00     0.040 A 
ATOM     68  C   UNL A   1      42.688  25.107  35.011  1.00  0.00     0.040 A 
ATOM     69  F   UNL A   1      43.432  25.975  32.978  1.00  0.00    -0.206 F 
ATOM     70  C   UNL A   1      42.097  25.258  36.258  1.00  0.00     0.006 A 
ENDBRANCH  49  63
BRANCH  50  71
ATOM     71  C   UNL A   1      43.150  24.714  26.350  1.00  0.00     0.057 A 
ATOM     72  C   UNL A   1      42.507  23.565  26.846  1.00  0.00     0.134 A 
ATOM     73  C   UNL A   1      43.961  24.536  25.225  1.00  0.00     0.134 A 
ATOM     74  F   UNL A   1      41.775  23.616  27.969  1.00  0.00    -0.206 F 
ATOM     75  C   UNL A   1      42.659  22.309  26.255  1.00  0.00     0.040 A 
ATOM     76  C   UNL A   1      44.126  23.280  24.625  1.00  0.00     0.040 A 
ATOM     77  F   UNL A   1      44.648  25.567  24.712  1.00  0.00    -0.206 F 
ATOM     78  C   UNL A   1      43.480  22.161  25.144  1.00  0.00     0.006 A 
ENDBRANCH  50  71
BRANCH  62  79
ATOM     79  C   UNL A   1      45.580  29.902  28.928  1.00  0.00     0.057 A 
ATOM     80  C   UNL A   1      46.923  30.243  28.743  1.00  0.00     0.134 A 
ATOM     81  C   UNL A   1      44.634  30.617  28.179  1.00  0.00     0.134 A 
ATOM     82  F   UNL A   1      47.879  29.645  29.470  1.00  0.00    -0.206 F 
ATOM     83  C   UNL A   1      47.311  31.237  27.841  1.00  0.00     0.040 A 
ATOM     84  C   UNL A   1      45.010  31.589  27.249  1.00  0.00     0.040 A 
ATOM     85  F   UNL A   1      43.321  30.432  28.365  1.00  0.00    -0.206 F 
ATOM     86  C   UNL A   1      46.355  31.903  27.079  1.00  0.00     0.006 A 
ENDBRANCH  62  79
ENDBRANCH  36  37
ENDBRANCH  28  31
ENDBRANCH  26  27
ENDBRANCH   1  26
TORSDOF 13
ENDMDL
MODEL 3
REMARK VINA RESULT:     -12.2      3.283      8.257
REMARK SMILES CCc1cccc2c3c([nH]c12)[C@](CC)(CC(=O)NCCCNC(=O)c1ccc(-c2c4nc(c(-c5c(F)cccc5F)c5ccc([nH]5)c(-c5c(F)cccc5F)c5nc(c(-c6c(F)cccc6F)c6ccc2[nH]6)C=C5)C=C4)cc1)OCC3
REMARK SMILES IDX 20 1 19 2 18 3 16 4 17 5 15 7 12 8 3 9 4 10 11 11 5 12 7 13
REMARK SMILES IDX 10 14 6 15 8 16 9 17 81 19 80 20 79 21 2 22 1 23 13 24 14 25
REMARK SMILES IDX 21 26 22 27 23 28 24 30 25 31 26 32 78 33 27 34 77 35 28 36
REMARK SMILES IDX 29 37 30 38 71 39 31 40 76 41 70 42 72 43 32 44 75 45 69 46
REMARK SMILES IDX 68 47 33 49 59 50 42 51 58 52 43 53 46 54 57 55 73 56 44 57
REMARK SMILES IDX 45 58 56 60 74 61 47 62 34 63 35 64 40 65 36 66 37 67 39 68
REMARK SMILES IDX 41 69 38 70 60 71 61 72 66 73 62 74 63 75 65 76 67 77 64 78
REMARK SMILES IDX 48 79 49 80 54 81 50 82 51 83 53 84 55 85 52 86
REMARK H PARENT 18 6 10 18 22 29 72 48 46 59
REMARK Flexibility Score: inf
ROOT
ATOM      1  C   UNL A   1      33.932  31.103  27.280  1.00  0.00     0.042 C 
ENDROOT
BRANCH   1   2
ATOM      2  C   UNL A   1      34.282  29.600  27.278  1.00  0.00     0.117 C 
BRANCH   2   3
ATOM      3  N   UNL A   1      33.228  28.726  27.788  1.00  0.00    -0.356 N 
ATOM      4  C   UNL A   1      32.066  28.252  27.246  1.00  0.00     0.223 C 
ATOM      5  O   UNL A   1      31.290  27.664  28.001  1.00  0.00    -0.275 OA
ATOM      6  H   UNL A   1      33.387  28.416  28.708  1.00  0.00     0.163 HD
BRANCH   4   7
ATOM      7  C   UNL A   1      31.790  28.365  25.763  1.00  0.00     0.142 C 
BRANCH   7   8
ATOM      8  C   UNL A   1      31.864  27.115  24.851  1.00  0.00     0.117 C 
ATOM      9  C   UNL A   1      35.279  23.502  25.952  1.00  0.00    -0.024 A 
ATOM     10  C   UNL A   1      35.147  22.277  26.647  1.00  0.00     0.006 A 
ATOM     11  C   UNL A   1      34.121  24.313  25.915  1.00  0.00     0.049 A 
ATOM     12  C   UNL A   1      33.943  21.852  27.200  1.00  0.00     0.001 A 
ATOM     13  C   UNL A   1      32.897  23.876  26.418  1.00  0.00     0.003 A 
ATOM     14  N   UNL A   1      33.904  25.587  25.402  1.00  0.00    -0.356 N 
ATOM     15  C   UNL A   1      32.803  22.634  27.070  1.00  0.00     0.010 A 
ATOM     16  C   UNL A   1      31.932  24.826  26.025  1.00  0.00    -0.014 A 
ATOM     17  C   UNL A   1      32.565  25.911  25.455  1.00  0.00     0.052 A 
ATOM     18  H   UNL A   1      34.609  26.178  25.050  1.00  0.00     0.166 HD
ATOM     19  C   UNL A   1      30.471  24.684  26.046  1.00  0.00     0.066 C 
ATOM     20  C   UNL A   1      29.809  25.890  25.398  1.00  0.00     0.166 C 
ATOM     21  O   UNL A   1      30.559  26.639  24.433  1.00  0.00    -0.368 OA
BRANCH   9  22
ATOM     22  C   UNL A   1      36.584  23.886  25.295  1.00  0.00     0.034 C 
ATOM     23  C   UNL A   1      37.830  23.578  26.124  1.00  0.00     0.009 C 
ENDBRANCH   9  22
BRANCH   8  24
ATOM     24  C   UNL A   1      32.573  27.527  23.520  1.00  0.00     0.039 C 
ATOM     25  C   UNL A   1      33.552  28.697  23.641  1.00  0.00     0.007 C 
ENDBRANCH   8  24
ENDBRANCH   7   8
ENDBRANCH   4   7
ENDBRANCH   2   3
ENDBRANCH   1   2
BRANCH   1  26
ATOM     26  C   UNL A   1      34.993  32.040  27.869  1.00  0.00     0.118 C 
BRANCH  26  27
ATOM     27  N   UNL A   1      34.972  32.191  29.303  1.00  0.00    -0.352 N 
ATOM     28  C   UNL A   1      35.827  31.791  30.290  1.00  0.00     0.251 C 
ATOM     29  H   UNL A   1      34.186  32.682  29.637  1.00  0.00     0.163 HD
ATOM     30  O   UNL A   1      35.602  32.188  31.437  1.00  0.00    -0.269 OA
BRANCH  28  31
ATOM     31  C   UNL A   1      36.924  30.821  30.073  1.00  0.00     0.039 A 
ATOM     32  C   UNL A   1      36.778  29.433  30.018  1.00  0.00     0.014 A 
ATOM     33  C   UNL A   1      38.203  31.377  29.931  1.00  0.00     0.014 A 
ATOM     34  C   UNL A   1      37.900  28.613  30.031  1.00  0.00     0.010 A 
ATOM     35  C   UNL A   1      39.322  30.563  29.868  1.00  0.00     0.010 A 
ATOM     36  C   UNL A   1      39.174  29.184  30.011  1.00  0.00    -0.014 A 
BRANCH  36  37
ATOM     37  C   UNL A   1      40.330  28.299  30.120  1.00  0.00     0.031 A 
ATOM     38  C   UNL A   1      40.973  28.205  31.465  1.00  0.00     0.074 A 
ATOM     39  C   UNL A   1      40.723  27.522  29.090  1.00  0.00     0.049 A 
ATOM     40  N   UNL A   1      42.209  28.410  31.794  1.00  0.00    -0.248 NA
ATOM     41  C   UNL A   1      40.095  27.907  32.608  1.00  0.00     0.031 C 
ATOM     42  C   UNL A   1      40.034  27.303  27.812  1.00  0.00     0.029 A 
ATOM     43  N   UNL A   1      41.787  26.674  29.013  1.00  0.00    -0.354 N 
ATOM     44  C   UNL A   1      42.303  28.115  33.156  1.00  0.00     0.074 A 
ATOM     45  C   UNL A   1      40.957  27.912  33.625  1.00  0.00     0.031 C 
ATOM     46  C   UNL A   1      40.564  26.225  27.195  1.00  0.00     0.029 A 
ATOM     47  C   UNL A   1      41.721  25.783  27.952  1.00  0.00     0.049 A 
ATOM     48  H   UNL A   1      42.534  26.691  29.652  1.00  0.00     0.167 HD
ATOM     49  C   UNL A   1      43.494  27.884  33.775  1.00  0.00     0.037 A 
ATOM     50  C   UNL A   1      42.525  24.719  27.731  1.00  0.00     0.037 A 
ATOM     51  C   UNL A   1      44.599  28.390  33.012  1.00  0.00     0.049 A 
ATOM     52  C   UNL A   1      43.758  24.903  28.523  1.00  0.00     0.074 A 
ATOM     53  C   UNL A   1      45.082  29.636  32.675  1.00  0.00     0.029 A 
ATOM     54  N   UNL A   1      45.264  27.495  32.218  1.00  0.00    -0.354 N 
ATOM     55  N   UNL A   1      44.651  25.820  28.283  1.00  0.00    -0.248 NA
ATOM     56  C   UNL A   1      43.831  24.294  29.842  1.00  0.00     0.031 C 
ATOM     57  C   UNL A   1      45.705  29.467  31.403  1.00  0.00     0.029 A 
ATOM     58  C   UNL A   1      45.582  28.124  31.044  1.00  0.00     0.049 A 
ATOM     59  H   UNL A   1      45.477  26.562  32.450  1.00  0.00     0.167 HD
ATOM     60  C   UNL A   1      45.120  26.194  29.533  1.00  0.00     0.074 A 
ATOM     61  C   UNL A   1      44.690  25.130  30.431  1.00  0.00     0.031 C 
ATOM     62  C   UNL A   1      45.573  27.462  29.759  1.00  0.00     0.037 A 
BRANCH  49  63
ATOM     63  C   UNL A   1      43.701  26.897  34.903  1.00  0.00     0.057 A 
ATOM     64  C   UNL A   1      43.714  27.259  36.265  1.00  0.00     0.134 A 
ATOM     65  C   UNL A   1      43.569  25.517  34.654  1.00  0.00     0.134 A 
ATOM     66  F   UNL A   1      43.752  28.536  36.662  1.00  0.00    -0.206 F 
ATOM     67  C   UNL A   1      43.586  26.326  37.298  1.00  0.00     0.040 A 
ATOM     68  C   UNL A   1      43.392  24.580  35.681  1.00  0.00     0.040 A 
ATOM     69  F   UNL A   1      43.530  25.042  33.399  1.00  0.00    -0.206 F 
ATOM     70  C   UNL A   1      43.390  24.985  37.009  1.00  0.00     0.006 A 
ENDBRANCH  49  63
BRANCH  50  71
ATOM     71  C   UNL A   1      42.154  23.436  27.106  1.00  0.00     0.057 A 
ATOM     72  C   UNL A   1      41.086  22.675  27.615  1.00  0.00     0.134 A 
ATOM     73  C   UNL A   1      42.972  22.807  26.163  1.00  0.00     0.134 A 
ATOM     74  F   UNL A   1      40.296  23.159  28.586  1.00  0.00    -0.206 F 
ATOM     75  C   UNL A   1      40.843  21.361  27.208  1.00  0.00     0.040 A 
ATOM     76  C   UNL A   1      42.742  21.489  25.747  1.00  0.00     0.040 A 
ATOM     77  F   UNL A   1      44.040  23.443  25.657  1.00  0.00    -0.206 F 
ATOM     78  C   UNL A   1      41.680  20.760  26.276  1.00  0.00     0.006 A 
ENDBRANCH  50  71
BRANCH  62  79
ATOM     79  C   UNL A   1      45.835  28.318  28.551  1.00  0.00     0.057 A 
ATOM     80  C   UNL A   1      44.803  29.116  28.047  1.00  0.00     0.134 A 
ATOM     81  C   UNL A   1      47.031  28.287  27.820  1.00  0.00     0.134 A 
ATOM     82  F   UNL A   1      43.610  29.145  28.659  1.00  0.00    -0.206 F 
ATOM     83  C   UNL A   1      44.959  29.865  26.878  1.00  0.00     0.040 A 
ATOM     84  C   UNL A   1      47.212  29.058  26.669  1.00  0.00     0.040 A 
ATOM     85  F   UNL A   1      48.034  27.473  28.169  1.00  0.00    -0.206 F 
ATOM     86  C   UNL A   1      46.171  29.849  26.193  1.00  0.00     0.006 A 
ENDBRANCH  62  79
ENDBRANCH  36  37
ENDBRANCH  28  31
ENDBRANCH  26  27
ENDBRANCH   1  26
TORSDOF 13
ENDMDL
