MODEL 1
REMARK VINA RESULT:     -11.8      0.000      0.000
REMARK SMILES COCC1CCN(C(=O)NC[C@H]2CC[C@H](C(=O)NCCCNC(=O)c3ccc(-c4c5nc(c(-c6c(F)cccc6F)c6ccc([nH]6)c(-c6c(F)cccc6F)c6nc(c(-c7c(F)cccc7F)c7ccc4[nH]7)C=C6)C=C5)cc3)O2)CC1
REMARK SMILES IDX 19 1 18 2 16 3 17 4 15 6 12 7 13 8 79 9 14 10 11 11 10 12
REMARK SMILES IDX 4 13 5 14 81 15 6 16 80 17 7 18 8 19 9 20 3 22 2 23 1 24
REMARK SMILES IDX 20 25 21 26 22 27 23 28 24 30 25 31 26 32 78 33 27 34 77 35
REMARK SMILES IDX 28 36 29 37 30 38 71 39 31 40 76 41 70 42 72 43 32 44 75 45
REMARK SMILES IDX 69 46 68 47 33 49 59 50 42 51 58 52 43 53 46 54 57 55 73 56
REMARK SMILES IDX 44 57 45 58 56 60 74 61 47 62 34 63 35 64 40 65 36 66 37 67
REMARK SMILES IDX 39 68 41 69 38 70 60 71 61 72 66 73 62 74 63 75 65 76 67 77
REMARK SMILES IDX 64 78 48 79 49 80 54 81 50 82 51 83 53 84 55 85 52 86
REMARK H PARENT 18 5 10 21 22 29 72 48 46 59
REMARK Flexibility Score: inf
ROOT
ATOM      1  C   UNL A   1      36.380  20.400  24.981  1.00  0.00     0.117 C 
ENDROOT
BRANCH   1   2
ATOM      2  N   UNL A   1      35.169  19.608  24.999  1.00  0.00    -0.354 N 
ATOM      3  C   UNL A   1      33.865  20.005  24.947  1.00  0.00     0.249 C 
ATOM      4  O   UNL A   1      33.004  19.120  24.978  1.00  0.00    -0.272 OA
ATOM      5  H   UNL A   1      35.308  18.635  25.056  1.00  0.00     0.163 HD
BRANCH   3   6
ATOM      6  C   UNL A   1      33.464  21.499  24.955  1.00  0.00     0.207 C 
ATOM      7  C   UNL A   1      31.427  22.629  24.645  1.00  0.00     0.138 C 
ATOM      8  C   UNL A   1      32.119  22.602  23.290  1.00  0.00     0.037 C 
ATOM      9  O   UNL A   1      32.204  21.818  25.540  1.00  0.00    -0.363 OA
ATOM     10  C   UNL A   1      33.514  22.093  23.556  1.00  0.00     0.045 C 
BRANCH   7  11
ATOM     11  C   UNL A   1      31.090  24.014  25.249  1.00  0.00     0.149 C 
BRANCH  11  12
ATOM     12  N   UNL A   1      32.245  24.829  25.610  1.00  0.00    -0.335 N 
ATOM     13  C   UNL A   1      30.148  29.006  23.605  1.00  0.00     0.018 C 
ATOM     14  C   UNL A   1      31.247  29.384  24.623  1.00  0.00     0.027 C 
ATOM     15  C   UNL A   1      29.786  27.532  23.801  1.00  0.00     0.027 C 
ATOM     16  C   UNL A   1      32.427  28.399  24.661  1.00  0.00     0.121 C 
ATOM     17  C   UNL A   1      31.036  26.689  23.637  1.00  0.00     0.121 C 
ATOM     18  N   UNL A   1      31.983  27.002  24.680  1.00  0.00    -0.325 N 
ATOM     19  C   UNL A   1      32.620  26.116  25.500  1.00  0.00     0.317 C 
ATOM     20  O   UNL A   1      33.588  26.449  26.191  1.00  0.00    -0.249 OA
ATOM     21  H   UNL A   1      32.938  24.290  26.054  1.00  0.00     0.165 HD
BRANCH  13  22
ATOM     22  C   UNL A   1      30.567  29.332  22.157  1.00  0.00     0.163 C 
BRANCH  22  23
ATOM     23  O   UNL A   1      29.448  29.723  21.357  1.00  0.00    -0.384 OA
ATOM     24  C   UNL A   1      28.759  30.874  21.831  1.00  0.00     0.194 C 
ENDBRANCH  22  23
ENDBRANCH  13  22
ENDBRANCH  11  12
ENDBRANCH   7  11
ENDBRANCH   3   6
ENDBRANCH   1   2
BRANCH   1  25
ATOM     25  C   UNL A   1      37.632  19.532  24.905  1.00  0.00     0.042 C 
BRANCH  25  26
ATOM     26  C   UNL A   1      38.801  20.102  25.696  1.00  0.00     0.118 C 
BRANCH  26  27
ATOM     27  N   UNL A   1      39.880  19.132  25.836  1.00  0.00    -0.352 N 
ATOM     28  C   UNL A   1      41.221  19.314  26.053  1.00  0.00     0.251 C 
ATOM     29  H   UNL A   1      39.600  18.192  25.762  1.00  0.00     0.163 HD
ATOM     30  O   UNL A   1      41.988  18.368  25.897  1.00  0.00    -0.269 OA
BRANCH  28  31
ATOM     31  C   UNL A   1      41.754  20.631  26.463  1.00  0.00     0.039 A 
ATOM     32  C   UNL A   1      42.158  21.528  25.468  1.00  0.00     0.014 A 
ATOM     33  C   UNL A   1      41.910  20.968  27.809  1.00  0.00     0.014 A 
ATOM     34  C   UNL A   1      42.666  22.779  25.823  1.00  0.00     0.010 A 
ATOM     35  C   UNL A   1      42.342  22.243  28.162  1.00  0.00     0.010 A 
ATOM     36  C   UNL A   1      42.730  23.159  27.173  1.00  0.00    -0.014 A 
BRANCH  36  37
ATOM     37  C   UNL A   1      43.203  24.507  27.570  1.00  0.00     0.031 A 
ATOM     38  C   UNL A   1      42.219  25.561  27.997  1.00  0.00     0.074 A 
ATOM     39  C   UNL A   1      44.515  24.800  27.483  1.00  0.00     0.049 A 
ATOM     40  N   UNL A   1      42.433  26.815  28.304  1.00  0.00    -0.248 NA
ATOM     41  C   UNL A   1      40.805  25.159  28.061  1.00  0.00     0.031 C 
ATOM     42  C   UNL A   1      45.561  23.876  27.038  1.00  0.00     0.029 A 
ATOM     43  N   UNL A   1      45.193  25.961  27.751  1.00  0.00    -0.354 N 
ATOM     44  C   UNL A   1      41.184  27.355  28.581  1.00  0.00     0.074 A 
ATOM     45  C   UNL A   1      40.211  26.307  28.357  1.00  0.00     0.031 C 
ATOM     46  C   UNL A   1      46.748  24.500  27.084  1.00  0.00     0.029 A 
ATOM     47  C   UNL A   1      46.544  25.876  27.525  1.00  0.00     0.049 A 
ATOM     48  H   UNL A   1      44.751  26.780  28.077  1.00  0.00     0.167 HD
ATOM     49  C   UNL A   1      40.877  28.604  29.003  1.00  0.00     0.037 A 
ATOM     50  C   UNL A   1      47.510  26.805  27.648  1.00  0.00     0.037 A 
ATOM     51  C   UNL A   1      41.850  29.635  29.251  1.00  0.00     0.049 A 
ATOM     52  C   UNL A   1      47.143  28.184  28.120  1.00  0.00     0.074 A 
ATOM     53  C   UNL A   1      41.647  30.914  29.739  1.00  0.00     0.029 A 
ATOM     54  N   UNL A   1      43.212  29.503  29.029  1.00  0.00    -0.354 N 
ATOM     55  N   UNL A   1      45.964  28.662  28.438  1.00  0.00    -0.248 NA
ATOM     56  C   UNL A   1      48.240  29.151  28.255  1.00  0.00     0.031 C 
ATOM     57  C   UNL A   1      42.882  31.570  29.774  1.00  0.00     0.029 A 
ATOM     58  C   UNL A   1      43.860  30.684  29.351  1.00  0.00     0.049 A 
ATOM     59  H   UNL A   1      43.654  28.690  28.692  1.00  0.00     0.167 HD
ATOM     60  C   UNL A   1      46.180  29.975  28.834  1.00  0.00     0.074 A 
ATOM     61  C   UNL A   1      47.605  30.213  28.731  1.00  0.00     0.031 C 
ATOM     62  C   UNL A   1      45.280  30.901  29.246  1.00  0.00     0.037 A 
BRANCH  49  63
ATOM     63  C   UNL A   1      39.428  28.923  29.232  1.00  0.00     0.057 A 
ATOM     64  C   UNL A   1      38.600  29.383  28.199  1.00  0.00     0.134 A 
ATOM     65  C   UNL A   1      38.842  28.731  30.491  1.00  0.00     0.134 A 
ATOM     66  F   UNL A   1      39.101  29.598  26.973  1.00  0.00    -0.206 F 
ATOM     67  C   UNL A   1      37.251  29.663  28.414  1.00  0.00     0.040 A 
ATOM     68  C   UNL A   1      37.487  28.983  30.711  1.00  0.00     0.040 A 
ATOM     69  F   UNL A   1      39.575  28.288  31.522  1.00  0.00    -0.206 F 
ATOM     70  C   UNL A   1      36.688  29.457  29.672  1.00  0.00     0.006 A 
ENDBRANCH  49  63
BRANCH  50  71
ATOM     71  C   UNL A   1      48.920  26.457  27.343  1.00  0.00     0.057 A 
ATOM     72  C   UNL A   1      49.450  26.656  26.063  1.00  0.00     0.134 A 
ATOM     73  C   UNL A   1      49.769  25.916  28.315  1.00  0.00     0.134 A 
ATOM     74  F   UNL A   1      48.680  27.156  25.084  1.00  0.00    -0.206 F 
ATOM     75  C   UNL A   1      50.766  26.311  25.754  1.00  0.00     0.040 A 
ATOM     76  C   UNL A   1      51.095  25.590  28.028  1.00  0.00     0.040 A 
ATOM     77  F   UNL A   1      49.324  25.711  29.564  1.00  0.00    -0.206 F 
ATOM     78  C   UNL A   1      51.594  25.780  26.741  1.00  0.00     0.006 A 
ENDBRANCH  50  71
BRANCH  62  79
ATOM     79  C   UNL A   1      45.815  32.245  29.644  1.00  0.00     0.057 A 
ATOM     80  C   UNL A   1      45.921  33.297  28.727  1.00  0.00     0.134 A 
ATOM     81  C   UNL A   1      46.196  32.496  30.968  1.00  0.00     0.134 A 
ATOM     82  F   UNL A   1      45.586  33.116  27.440  1.00  0.00    -0.206 F 
ATOM     83  C   UNL A   1      46.408  34.548  29.108  1.00  0.00     0.040 A 
ATOM     84  C   UNL A   1      46.660  33.750  31.366  1.00  0.00     0.040 A 
ATOM     85  F   UNL A   1      46.111  31.531  31.896  1.00  0.00    -0.206 F 
ATOM     86  C   UNL A   1      46.772  34.779  30.434  1.00  0.00     0.006 A 
ENDBRANCH  62  79
ENDBRANCH  36  37
ENDBRANCH  28  31
ENDBRANCH  26  27
ENDBRANCH  25  26
ENDBRANCH   1  25
TORSDOF 14
ENDMDL
MODEL 2
REMARK VINA RESULT:     -11.7      1.043      2.139
REMARK SMILES COCC1CCN(C(=O)NC[C@H]2CC[C@H](C(=O)NCCCNC(=O)c3ccc(-c4c5nc(c(-c6c(F)cccc6F)c6ccc([nH]6)c(-c6c(F)cccc6F)c6nc(c(-c7c(F)cccc7F)c7ccc4[nH]7)C=C6)C=C5)cc3)O2)CC1
REMARK SMILES IDX 19 1 18 2 16 3 17 4 15 6 12 7 13 8 79 9 14 10 11 11 10 12
REMARK SMILES IDX 4 13 5 14 81 15 6 16 80 17 7 18 8 19 9 20 3 22 2 23 1 24
REMARK SMILES IDX 20 25 21 26 22 27 23 28 24 30 25 31 26 32 78 33 27 34 77 35
REMARK SMILES IDX 28 36 29 37 30 38 71 39 31 40 76 41 70 42 72 43 32 44 75 45
REMARK SMILES IDX 69 46 68 47 33 49 59 50 42 51 58 52 43 53 46 54 57 55 73 56
REMARK SMILES IDX 44 57 45 58 56 60 74 61 47 62 34 63 35 64 40 65 36 66 37 67
REMARK SMILES IDX 39 68 41 69 38 70 60 71 61 72 66 73 62 74 63 75 65 76 67 77
REMARK SMILES IDX 64 78 48 79 49 80 54 81 50 82 51 83 53 84 55 85 52 86
REMARK H PARENT 18 5 10 21 22 29 72 48 46 59
REMARK Flexibility Score: inf
ROOT
ATOM      1  C   UNL A   1      36.387  20.404  24.995  1.00  0.00     0.117 C 
ENDROOT
BRANCH   1   2
ATOM      2  N   UNL A   1      35.185  19.600  25.002  1.00  0.00    -0.354 N 
ATOM      3  C   UNL A   1      33.876  19.986  25.001  1.00  0.00     0.249 C 
ATOM      4  O   UNL A   1      33.024  19.092  25.010  1.00  0.00    -0.272 OA
ATOM      5  H   UNL A   1      35.334  18.627  25.008  1.00  0.00     0.163 HD
BRANCH   3   6
ATOM      6  C   UNL A   1      33.462  21.473  25.093  1.00  0.00     0.207 C 
ATOM      7  C   UNL A   1      31.387  22.572  25.188  1.00  0.00     0.138 C 
ATOM      8  C   UNL A   1      31.803  22.557  23.724  1.00  0.00     0.037 C 
ATOM      9  O   UNL A   1      32.334  21.772  25.912  1.00  0.00    -0.363 OA
ATOM     10  C   UNL A   1      33.232  22.070  23.714  1.00  0.00     0.045 C 
BRANCH   7  11
ATOM     11  C   UNL A   1      31.152  23.951  25.851  1.00  0.00     0.149 C 
BRANCH  11  12
ATOM     12  N   UNL A   1      30.276  24.852  25.111  1.00  0.00    -0.335 N 
ATOM     13  C   UNL A   1      33.423  28.783  25.824  1.00  0.00     0.018 C 
ATOM     14  C   UNL A   1      32.488  29.045  24.623  1.00  0.00     0.027 C 
ATOM     15  C   UNL A   1      33.362  27.295  26.174  1.00  0.00     0.027 C 
ATOM     16  C   UNL A   1      31.081  28.447  24.783  1.00  0.00     0.121 C 
ATOM     17  C   UNL A   1      31.924  26.913  26.470  1.00  0.00     0.121 C 
ATOM     18  N   UNL A   1      31.118  27.069  25.283  1.00  0.00    -0.325 N 
ATOM     19  C   UNL A   1      30.273  26.145  24.741  1.00  0.00     0.317 C 
ATOM     20  O   UNL A   1      29.447  26.449  23.875  1.00  0.00    -0.249 OA
ATOM     21  H   UNL A   1      29.467  24.387  24.798  1.00  0.00     0.165 HD
BRANCH  13  22
ATOM     22  C   UNL A   1      33.088  29.695  27.023  1.00  0.00     0.163 C 
BRANCH  22  23
ATOM     23  O   UNL A   1      33.653  30.999  26.869  1.00  0.00    -0.384 OA
ATOM     24  C   UNL A   1      34.128  31.582  28.078  1.00  0.00     0.194 C 
ENDBRANCH  22  23
ENDBRANCH  13  22
ENDBRANCH  11  12
ENDBRANCH   7  11
ENDBRANCH   3   6
ENDBRANCH   1   2
BRANCH   1  25
ATOM     25  C   UNL A   1      37.646  19.554  24.851  1.00  0.00     0.042 C 
BRANCH  25  26
ATOM     26  C   UNL A   1      38.858  20.161  25.543  1.00  0.00     0.118 C 
BRANCH  26  27
ATOM     27  N   UNL A   1      39.909  19.173  25.752  1.00  0.00    -0.352 N 
ATOM     28  C   UNL A   1      41.246  19.333  26.008  1.00  0.00     0.251 C 
ATOM     29  H   UNL A   1      39.610  18.238  25.701  1.00  0.00     0.163 HD
ATOM     30  O   UNL A   1      41.995  18.366  25.911  1.00  0.00    -0.269 OA
BRANCH  28  31
ATOM     31  C   UNL A   1      41.795  20.652  26.391  1.00  0.00     0.039 A 
ATOM     32  C   UNL A   1      42.121  21.560  25.378  1.00  0.00     0.014 A 
ATOM     33  C   UNL A   1      42.043  20.979  27.726  1.00  0.00     0.014 A 
ATOM     34  C   UNL A   1      42.642  22.813  25.707  1.00  0.00     0.010 A 
ATOM     35  C   UNL A   1      42.488  22.255  28.059  1.00  0.00     0.010 A 
ATOM     36  C   UNL A   1      42.798  23.182  27.052  1.00  0.00    -0.014 A 
BRANCH  36  37
ATOM     37  C   UNL A   1      43.286  24.531  27.427  1.00  0.00     0.031 A 
ATOM     38  C   UNL A   1      42.319  25.591  27.878  1.00  0.00     0.074 A 
ATOM     39  C   UNL A   1      44.596  24.820  27.298  1.00  0.00     0.049 A 
ATOM     40  N   UNL A   1      42.545  26.846  28.170  1.00  0.00    -0.248 NA
ATOM     41  C   UNL A   1      40.906  25.194  27.987  1.00  0.00     0.031 C 
ATOM     42  C   UNL A   1      45.625  23.890  26.827  1.00  0.00     0.029 A 
ATOM     43  N   UNL A   1      45.284  25.981  27.539  1.00  0.00    -0.354 N 
ATOM     44  C   UNL A   1      41.306  27.391  28.481  1.00  0.00     0.074 A 
ATOM     45  C   UNL A   1      40.325  26.344  28.294  1.00  0.00     0.031 C 
ATOM     46  C   UNL A   1      46.815  24.511  26.833  1.00  0.00     0.029 A 
ATOM     47  C   UNL A   1      46.628  25.890  27.272  1.00  0.00     0.049 A 
ATOM     48  H   UNL A   1      44.855  26.802  27.872  1.00  0.00     0.167 HD
ATOM     49  C   UNL A   1      41.016  28.644  28.906  1.00  0.00     0.037 A 
ATOM     50  C   UNL A   1      47.600  26.817  27.360  1.00  0.00     0.037 A 
ATOM     51  C   UNL A   1      41.999  29.673  29.117  1.00  0.00     0.049 A 
ATOM     52  C   UNL A   1      47.251  28.200  27.835  1.00  0.00     0.074 A 
ATOM     53  C   UNL A   1      41.814  30.956  29.604  1.00  0.00     0.029 A 
ATOM     54  N   UNL A   1      43.354  29.536  28.855  1.00  0.00    -0.354 N 
ATOM     55  N   UNL A   1      46.083  28.683  28.186  1.00  0.00    -0.248 NA
ATOM     56  C   UNL A   1      48.355  29.165  27.930  1.00  0.00     0.031 C 
ATOM     57  C   UNL A   1      43.052  31.608  29.598  1.00  0.00     0.029 A 
ATOM     58  C   UNL A   1      44.014  30.717  29.150  1.00  0.00     0.049 A 
ATOM     59  H   UNL A   1      43.783  28.719  28.510  1.00  0.00     0.167 HD
ATOM     60  C   UNL A   1      46.315  29.998  28.567  1.00  0.00     0.074 A 
ATOM     61  C   UNL A   1      47.737  30.232  28.419  1.00  0.00     0.031 C 
ATOM     62  C   UNL A   1      45.431  30.929  29.000  1.00  0.00     0.037 A 
BRANCH  49  63
ATOM     63  C   UNL A   1      39.576  28.968  29.177  1.00  0.00     0.057 A 
ATOM     64  C   UNL A   1      39.018  28.842  30.457  1.00  0.00     0.134 A 
ATOM     65  C   UNL A   1      38.745  29.448  28.156  1.00  0.00     0.134 A 
ATOM     66  F   UNL A   1      39.756  28.377  31.477  1.00  0.00    -0.206 F 
ATOM     67  C   UNL A   1      37.682  29.158  30.706  1.00  0.00     0.040 A 
ATOM     68  C   UNL A   1      37.414  29.794  28.400  1.00  0.00     0.040 A 
ATOM     69  F   UNL A   1      39.215  29.598  26.910  1.00  0.00    -0.206 F 
ATOM     70  C   UNL A   1      36.877  29.643  29.677  1.00  0.00     0.006 A 
ENDBRANCH  49  63
BRANCH  50  71
ATOM     71  C   UNL A   1      48.998  26.464  27.014  1.00  0.00     0.057 A 
ATOM     72  C   UNL A   1      49.493  26.663  25.720  1.00  0.00     0.134 A 
ATOM     73  C   UNL A   1      49.872  25.916  27.960  1.00  0.00     0.134 A 
ATOM     74  F   UNL A   1      48.699  27.170  24.765  1.00  0.00    -0.206 F 
ATOM     75  C   UNL A   1      50.799  26.313  25.373  1.00  0.00     0.040 A 
ATOM     76  C   UNL A   1      51.188  25.584  27.635  1.00  0.00     0.040 A 
ATOM     77  F   UNL A   1      49.462  25.709  29.221  1.00  0.00    -0.206 F 
ATOM     78  C   UNL A   1      51.652  25.775  26.335  1.00  0.00     0.006 A 
ENDBRANCH  50  71
BRANCH  62  79
ATOM     79  C   UNL A   1      45.981  32.273  29.374  1.00  0.00     0.057 A 
ATOM     80  C   UNL A   1      46.446  32.547  30.666  1.00  0.00     0.134 A 
ATOM     81  C   UNL A   1      46.079  33.294  28.420  1.00  0.00     0.134 A 
ATOM     82  F   UNL A   1      46.367  31.616  31.629  1.00  0.00    -0.206 F 
ATOM     83  C   UNL A   1      46.968  33.797  31.002  1.00  0.00     0.040 A 
ATOM     84  C   UNL A   1      46.623  34.538  28.737  1.00  0.00     0.040 A 
ATOM     85  F   UNL A   1      45.658  33.092  27.161  1.00  0.00    -0.206 F 
ATOM     86  C   UNL A   1      47.064  34.794  30.033  1.00  0.00     0.006 A 
ENDBRANCH  62  79
ENDBRANCH  36  37
ENDBRANCH  28  31
ENDBRANCH  26  27
ENDBRANCH  25  26
ENDBRANCH   1  25
TORSDOF 14
ENDMDL
MODEL 3
REMARK VINA RESULT:     -11.6      4.602     10.228
REMARK SMILES COCC1CCN(C(=O)NC[C@H]2CC[C@H](C(=O)NCCCNC(=O)c3ccc(-c4c5nc(c(-c6c(F)cccc6F)c6ccc([nH]6)c(-c6c(F)cccc6F)c6nc(c(-c7c(F)cccc7F)c7ccc4[nH]7)C=C6)C=C5)cc3)O2)CC1
REMARK SMILES IDX 19 1 18 2 16 3 17 4 15 6 12 7 13 8 79 9 14 10 11 11 10 12
REMARK SMILES IDX 4 13 5 14 81 15 6 16 80 17 7 18 8 19 9 20 3 22 2 23 1 24
REMARK SMILES IDX 20 25 21 26 22 27 23 28 24 30 25 31 26 32 78 33 27 34 77 35
REMARK SMILES IDX 28 36 29 37 30 38 71 39 31 40 76 41 70 42 72 43 32 44 75 45
REMARK SMILES IDX 69 46 68 47 33 49 59 50 42 51 58 52 43 53 46 54 57 55 73 56
REMARK SMILES IDX 44 57 45 58 56 60 74 61 47 62 34 63 35 64 40 65 36 66 37 67
REMARK SMILES IDX 39 68 41 69 38 70 60 71 61 72 66 73 62 74 63 75 65 76 67 77
REMARK SMILES IDX 64 78 48 79 49 80 54 81 50 82 51 83 53 84 55 85 52 86
REMARK H PARENT 18 5 10 21 22 29 72 48 46 59
REMARK Flexibility Score: inf
ROOT
ATOM      1  C   UNL A   1      31.412  30.513  25.758  1.00  0.00     0.117 C 
ENDROOT
BRANCH   1   2
ATOM      2  N   UNL A   1      30.666  30.390  24.524  1.00  0.00    -0.354 N 
ATOM      3  C   UNL A   1      30.525  29.318  23.691  1.00  0.00     0.249 C 
ATOM      4  O   UNL A   1      29.825  29.472  22.686  1.00  0.00    -0.272 OA
ATOM      5  H   UNL A   1      30.187  31.202  24.243  1.00  0.00     0.163 HD
BRANCH   3   6
ATOM      6  C   UNL A   1      31.289  27.993  23.928  1.00  0.00     0.207 C 
ATOM      7  C   UNL A   1      31.046  25.814  23.083  1.00  0.00     0.138 C 
ATOM      8  C   UNL A   1      30.283  25.857  24.399  1.00  0.00     0.037 C 
ATOM      9  O   UNL A   1      31.474  27.152  22.791  1.00  0.00    -0.363 OA
ATOM     10  C   UNL A   1      30.648  27.175  25.037  1.00  0.00     0.045 C 
BRANCH   7  11
ATOM     11  C   UNL A   1      32.198  24.787  22.957  1.00  0.00     0.149 C 
BRANCH  11  12
ATOM     12  N   UNL A   1      33.276  24.945  23.926  1.00  0.00    -0.335 N 
ATOM     13  C   UNL A   1      33.689  19.915  24.554  1.00  0.00     0.018 C 
ATOM     14  C   UNL A   1      34.984  20.627  25.003  1.00  0.00     0.027 C 
ATOM     15  C   UNL A   1      32.854  20.895  23.726  1.00  0.00     0.027 C 
ATOM     16  C   UNL A   1      34.750  22.011  25.630  1.00  0.00     0.121 C 
ATOM     17  C   UNL A   1      32.572  22.131  24.558  1.00  0.00     0.121 C 
ATOM     18  N   UNL A   1      33.805  22.820  24.853  1.00  0.00    -0.325 N 
ATOM     19  C   UNL A   1      34.068  24.146  24.664  1.00  0.00     0.317 C 
ATOM     20  O   UNL A   1      35.054  24.691  25.168  1.00  0.00    -0.249 OA
ATOM     21  H   UNL A   1      33.480  25.895  24.084  1.00  0.00     0.165 HD
BRANCH  13  22
ATOM     22  C   UNL A   1      32.911  19.327  25.750  1.00  0.00     0.163 C 
BRANCH  22  23
ATOM     23  O   UNL A   1      32.153  18.175  25.372  1.00  0.00    -0.384 OA
ATOM     24  C   UNL A   1      32.854  16.943  25.494  1.00  0.00     0.194 C 
ENDBRANCH  22  23
ENDBRANCH  13  22
ENDBRANCH  11  12
ENDBRANCH   7  11
ENDBRANCH   3   6
ENDBRANCH   1   2
BRANCH   1  25
ATOM     25  C   UNL A   1      31.226  31.880  26.407  1.00  0.00     0.042 C 
BRANCH  25  26
ATOM     26  C   UNL A   1      32.514  32.441  26.993  1.00  0.00     0.118 C 
BRANCH  26  27
ATOM     27  N   UNL A   1      32.354  33.828  27.413  1.00  0.00    -0.352 N 
ATOM     28  C   UNL A   1      32.986  34.541  28.399  1.00  0.00     0.251 C 
ATOM     29  H   UNL A   1      31.681  34.336  26.906  1.00  0.00     0.163 HD
ATOM     30  O   UNL A   1      32.528  35.627  28.742  1.00  0.00    -0.269 OA
BRANCH  28  31
ATOM     31  C   UNL A   1      34.203  34.017  29.056  1.00  0.00     0.039 A 
ATOM     32  C   UNL A   1      34.055  33.182  30.169  1.00  0.00     0.014 A 
ATOM     33  C   UNL A   1      35.480  34.381  28.624  1.00  0.00     0.014 A 
ATOM     34  C   UNL A   1      35.185  32.673  30.812  1.00  0.00     0.010 A 
ATOM     35  C   UNL A   1      36.604  33.810  29.214  1.00  0.00     0.010 A 
ATOM     36  C   UNL A   1      36.467  32.956  30.318  1.00  0.00    -0.014 A 
BRANCH  36  37
ATOM     37  C   UNL A   1      37.678  32.372  30.943  1.00  0.00     0.031 A 
ATOM     38  C   UNL A   1      38.344  31.171  30.330  1.00  0.00     0.074 A 
ATOM     39  C   UNL A   1      38.138  32.884  32.101  1.00  0.00     0.049 A 
ATOM     40  N   UNL A   1      39.360  30.474  30.772  1.00  0.00    -0.248 NA
ATOM     41  C   UNL A   1      37.776  30.670  29.068  1.00  0.00     0.031 C 
ATOM     42  C   UNL A   1      37.549  34.019  32.817  1.00  0.00     0.029 A 
ATOM     43  N   UNL A   1      39.198  32.512  32.887  1.00  0.00    -0.354 N 
ATOM     44  C   UNL A   1      39.543  29.448  29.855  1.00  0.00     0.074 A 
ATOM     45  C   UNL A   1      38.502  29.581  28.858  1.00  0.00     0.031 C 
ATOM     46  C   UNL A   1      38.268  34.262  33.923  1.00  0.00     0.029 A 
ATOM     47  C   UNL A   1      39.344  33.280  34.016  1.00  0.00     0.049 A 
ATOM     48  H   UNL A   1      39.798  31.764  32.661  1.00  0.00     0.167 HD
ATOM     49  C   UNL A   1      40.503  28.493  29.833  1.00  0.00     0.037 A 
ATOM     50  C   UNL A   1      40.238  33.196  35.019  1.00  0.00     0.037 A 
ATOM     51  C   UNL A   1      41.552  28.381  30.811  1.00  0.00     0.049 A 
ATOM     52  C   UNL A   1      41.294  32.127  34.970  1.00  0.00     0.074 A 
ATOM     53  C   UNL A   1      42.609  27.487  30.845  1.00  0.00     0.029 A 
ATOM     54  N   UNL A   1      41.678  29.191  31.929  1.00  0.00    -0.354 N 
ATOM     55  N   UNL A   1      41.491  31.201  34.062  1.00  0.00    -0.248 NA
ATOM     56  C   UNL A   1      42.254  32.095  36.081  1.00  0.00     0.031 C 
ATOM     57  C   UNL A   1      43.351  27.731  32.005  1.00  0.00     0.029 A 
ATOM     58  C   UNL A   1      42.782  28.805  32.671  1.00  0.00     0.049 A 
ATOM     59  H   UNL A   1      41.071  29.931  32.163  1.00  0.00     0.167 HD
ATOM     60  C   UNL A   1      42.611  30.493  34.479  1.00  0.00     0.074 A 
ATOM     61  C   UNL A   1      43.058  31.107  35.713  1.00  0.00     0.031 C 
ATOM     62  C   UNL A   1      43.214  29.431  33.894  1.00  0.00     0.037 A 
BRANCH  49  63
ATOM     63  C   UNL A   1      40.467  27.498  28.710  1.00  0.00     0.057 A 
ATOM     64  C   UNL A   1      39.650  26.360  28.758  1.00  0.00     0.134 A 
ATOM     65  C   UNL A   1      41.227  27.698  27.550  1.00  0.00     0.134 A 
ATOM     66  F   UNL A   1      38.905  26.103  29.844  1.00  0.00    -0.206 F 
ATOM     67  C   UNL A   1      39.609  25.445  27.704  1.00  0.00     0.040 A 
ATOM     68  C   UNL A   1      41.173  26.804  26.479  1.00  0.00     0.040 A 
ATOM     69  F   UNL A   1      42.025  28.769  27.436  1.00  0.00    -0.206 F 
ATOM     70  C   UNL A   1      40.367  25.670  26.557  1.00  0.00     0.006 A 
ENDBRANCH  49  63
BRANCH  50  71
ATOM     71  C   UNL A   1      40.187  34.163  36.142  1.00  0.00     0.057 A 
ATOM     72  C   UNL A   1      40.912  35.360  36.097  1.00  0.00     0.134 A 
ATOM     73  C   UNL A   1      39.420  33.918  37.287  1.00  0.00     0.134 A 
ATOM     74  F   UNL A   1      41.679  35.643  35.033  1.00  0.00    -0.206 F 
ATOM     75  C   UNL A   1      40.894  36.268  37.155  1.00  0.00     0.040 A 
ATOM     76  C   UNL A   1      39.372  34.829  38.344  1.00  0.00     0.040 A 
ATOM     77  F   UNL A   1      38.694  32.795  37.388  1.00  0.00    -0.206 F 
ATOM     78  C   UNL A   1      40.117  36.004  38.282  1.00  0.00     0.006 A 
ENDBRANCH  50  71
BRANCH  62  79
ATOM     79  C   UNL A   1      44.440  28.886  34.565  1.00  0.00     0.057 A 
ATOM     80  C   UNL A   1      45.721  29.360  34.259  1.00  0.00     0.134 A 
ATOM     81  C   UNL A   1      44.333  27.899  35.554  1.00  0.00     0.134 A 
ATOM     82  F   UNL A   1      45.893  30.294  33.311  1.00  0.00    -0.206 F 
ATOM     83  C   UNL A   1      46.856  28.857  34.897  1.00  0.00     0.040 A 
ATOM     84  C   UNL A   1      45.457  27.407  36.217  1.00  0.00     0.040 A 
ATOM     85  F   UNL A   1      43.132  27.409  35.898  1.00  0.00    -0.206 F 
ATOM     86  C   UNL A   1      46.723  27.881  35.885  1.00  0.00     0.006 A 
ENDBRANCH  62  79
ENDBRANCH  36  37
ENDBRANCH  28  31
ENDBRANCH  26  27
ENDBRANCH  25  26
ENDBRANCH   1  25
TORSDOF 14
ENDMDL
