MODEL 1
REMARK VINA RESULT:     -11.9      0.000      0.000
REMARK SMILES Cc1nsc(NC(=O)c2ccc(N)cc2)c1C(=O)NCCCNC(=O)c1ccc(-c2c3nc(c(-c4c(F)cccc4F)c4ccc([nH]4)c(-c4c(F)cccc4F)c4nc(c(-c5c(F)cccc5F)c5ccc2[nH]5)C=C4)C=C3)cc1
REMARK SMILES IDX 20 1 19 2 17 3 18 4 16 6 1 7 2 8 3 9 4 10 5 11 6 12 7 13
REMARK SMILES IDX 8 15 9 16 10 17 15 18 11 19 14 20 12 21 13 22 21 25 22 26
REMARK SMILES IDX 23 27 24 28 25 30 26 31 27 32 79 33 28 34 78 35 29 36 30 37
REMARK SMILES IDX 31 38 72 39 32 40 77 41 71 42 73 43 33 44 76 45 70 46 69 47
REMARK SMILES IDX 34 49 60 50 43 51 59 52 44 53 47 54 58 55 74 56 45 57 46 58
REMARK SMILES IDX 57 60 75 61 48 62 35 63 36 64 41 65 37 66 38 67 40 68 42 69
REMARK SMILES IDX 39 70 61 71 62 72 67 73 63 74 64 75 66 76 68 77 65 78 49 79
REMARK SMILES IDX 50 80 55 81 51 82 52 83 54 84 56 85 53 86
REMARK H PARENT 19 5 6 14 13 23 13 24 23 29 73 48 47 59
REMARK Flexibility Score: inf
ROOT
ATOM      1  C   UNL A   1      33.322  27.715  26.480  1.00  0.00     0.118 C 
ENDROOT
BRANCH   1   2
ATOM      2  N   UNL A   1      31.987  27.548  25.968  1.00  0.00    -0.352 N 
ATOM      3  C   UNL A   1      31.507  26.937  24.834  1.00  0.00     0.256 C 
ATOM      4  O   UNL A   1      30.284  26.758  24.823  1.00  0.00    -0.269 OA
ATOM      5  H   UNL A   1      31.287  27.944  26.536  1.00  0.00     0.163 HD
BRANCH   3   6
ATOM      6  C   UNL A   1      32.313  26.650  23.638  1.00  0.00     0.097 A 
ATOM      7  C   UNL A   1      33.928  28.717  23.012  1.00  0.00     0.069 C 
ATOM      8  C   UNL A   1      33.223  27.421  22.789  1.00  0.00     0.066 A 
ATOM      9  N   UNL A   1      33.520  26.867  21.610  1.00  0.00    -0.195 NA
ATOM     10  S   UNL A   1      32.909  25.350  21.563  1.00  0.00    -0.017 S 
ATOM     11  C   UNL A   1      32.398  25.326  23.183  1.00  0.00     0.129 A 
BRANCH  11  12
ATOM     12  N   UNL A   1      32.009  24.158  23.825  1.00  0.00    -0.312 N 
ATOM     13  C   UNL A   1      32.764  23.128  24.354  1.00  0.00     0.256 C 
ATOM     14  H   UNL A   1      31.036  24.045  23.918  1.00  0.00     0.171 HD
ATOM     15  O   UNL A   1      32.222  22.089  24.733  1.00  0.00    -0.269 OA
BRANCH  13  16
ATOM     16  C   UNL A   1      34.225  23.254  24.537  1.00  0.00     0.040 A 
ATOM     17  C   UNL A   1      35.118  22.832  23.547  1.00  0.00     0.016 A 
ATOM     18  C   UNL A   1      34.704  23.747  25.751  1.00  0.00     0.016 A 
ATOM     19  C   UNL A   1      36.485  22.773  23.835  1.00  0.00     0.026 A 
ATOM     20  C   UNL A   1      36.075  23.702  26.020  1.00  0.00     0.026 A 
ATOM     21  C   UNL A   1      36.970  23.171  25.084  1.00  0.00     0.031 A 
BRANCH  21  22
ATOM     22  N   UNL A   1      38.316  23.073  25.378  1.00  0.00    -0.399 N 
ATOM     23  H   UNL A   1      38.953  22.793  24.682  1.00  0.00     0.156 HD
ATOM     24  H   UNL A   1      38.638  23.282  26.285  1.00  0.00     0.156 HD
ENDBRANCH  21  22
ENDBRANCH  13  16
ENDBRANCH  11  12
ENDBRANCH   3   6
ENDBRANCH   1   2
BRANCH   1  25
ATOM     25  C   UNL A   1      33.640  29.037  27.161  1.00  0.00     0.042 C 
BRANCH  25  26
ATOM     26  C   UNL A   1      35.112  29.149  27.484  1.00  0.00     0.118 C 
BRANCH  26  27
ATOM     27  N   UNL A   1      35.384  29.858  28.743  1.00  0.00    -0.352 N 
ATOM     28  C   UNL A   1      36.509  29.741  29.552  1.00  0.00     0.251 C 
ATOM     29  H   UNL A   1      34.690  30.488  29.047  1.00  0.00     0.163 HD
ATOM     30  O   UNL A   1      36.538  30.156  30.687  1.00  0.00    -0.269 OA
BRANCH  28  31
ATOM     31  C   UNL A   1      37.675  29.075  28.946  1.00  0.00     0.039 A 
ATOM     32  C   UNL A   1      38.314  29.602  27.825  1.00  0.00     0.014 A 
ATOM     33  C   UNL A   1      38.233  28.040  29.686  1.00  0.00     0.014 A 
ATOM     34  C   UNL A   1      39.596  29.149  27.531  1.00  0.00     0.010 A 
ATOM     35  C   UNL A   1      39.565  27.777  29.529  1.00  0.00     0.010 A 
ATOM     36  C   UNL A   1      40.241  28.271  28.422  1.00  0.00    -0.014 A 
BRANCH  36  37
ATOM     37  C   UNL A   1      41.654  27.941  28.270  1.00  0.00     0.031 A 
ATOM     38  C   UNL A   1      41.930  26.700  27.496  1.00  0.00     0.074 A 
ATOM     39  C   UNL A   1      42.657  28.764  28.652  1.00  0.00     0.049 A 
ATOM     40  N   UNL A   1      42.330  25.566  27.969  1.00  0.00    -0.248 NA
ATOM     41  C   UNL A   1      41.591  26.656  26.064  1.00  0.00     0.031 C 
ATOM     42  C   UNL A   1      42.590  30.141  29.160  1.00  0.00     0.029 A 
ATOM     43  N   UNL A   1      43.997  28.542  28.596  1.00  0.00    -0.354 N 
ATOM     44  C   UNL A   1      42.498  24.723  26.876  1.00  0.00     0.074 A 
ATOM     45  C   UNL A   1      41.871  25.384  25.761  1.00  0.00     0.031 C 
ATOM     46  C   UNL A   1      43.819  30.702  29.137  1.00  0.00     0.029 A 
ATOM     47  C   UNL A   1      44.782  29.668  28.819  1.00  0.00     0.049 A 
ATOM     48  H   UNL A   1      44.382  27.655  28.412  1.00  0.00     0.167 HD
ATOM     49  C   UNL A   1      43.343  23.655  26.941  1.00  0.00     0.037 A 
ATOM     50  C   UNL A   1      46.133  29.742  28.767  1.00  0.00     0.037 A 
ATOM     51  C   UNL A   1      43.711  23.372  28.307  1.00  0.00     0.049 A 
ATOM     52  C   UNL A   1      46.650  28.364  28.935  1.00  0.00     0.074 A 
ATOM     53  C   UNL A   1      43.018  23.010  29.447  1.00  0.00     0.029 A 
ATOM     54  N   UNL A   1      44.926  23.842  28.742  1.00  0.00    -0.354 N 
ATOM     55  N   UNL A   1      46.545  27.685  30.043  1.00  0.00    -0.248 NA
ATOM     56  C   UNL A   1      46.856  27.572  27.733  1.00  0.00     0.031 C 
ATOM     57  C   UNL A   1      43.647  23.735  30.502  1.00  0.00     0.029 A 
ATOM     58  C   UNL A   1      44.731  24.431  29.964  1.00  0.00     0.049 A 
ATOM     59  H   UNL A   1      45.782  23.769  28.263  1.00  0.00     0.167 HD
ATOM     60  C   UNL A   1      46.223  26.399  29.638  1.00  0.00     0.074 A 
ATOM     61  C   UNL A   1      46.518  26.368  28.205  1.00  0.00     0.031 C 
ATOM     62  C   UNL A   1      45.481  25.574  30.435  1.00  0.00     0.037 A 
BRANCH  49  63
ATOM     63  C   UNL A   1      44.139  23.112  25.783  1.00  0.00     0.057 A 
ATOM     64  C   UNL A   1      44.130  21.727  25.533  1.00  0.00     0.134 A 
ATOM     65  C   UNL A   1      45.136  23.837  25.103  1.00  0.00     0.134 A 
ATOM     66  F   UNL A   1      43.235  20.924  26.131  1.00  0.00    -0.206 F 
ATOM     67  C   UNL A   1      45.091  21.102  24.728  1.00  0.00     0.040 A 
ATOM     68  C   UNL A   1      46.071  23.230  24.258  1.00  0.00     0.040 A 
ATOM     69  F   UNL A   1      45.328  25.147  25.298  1.00  0.00    -0.206 F 
ATOM     70  C   UNL A   1      46.072  21.854  24.095  1.00  0.00     0.006 A 
ENDBRANCH  49  63
BRANCH  50  71
ATOM     71  C   UNL A   1      46.981  30.855  28.288  1.00  0.00     0.057 A 
ATOM     72  C   UNL A   1      46.975  31.240  26.940  1.00  0.00     0.134 A 
ATOM     73  C   UNL A   1      47.582  31.753  29.186  1.00  0.00     0.134 A 
ATOM     74  F   UNL A   1      46.393  30.463  26.014  1.00  0.00    -0.206 F 
ATOM     75  C   UNL A   1      47.501  32.467  26.514  1.00  0.00     0.040 A 
ATOM     76  C   UNL A   1      48.113  32.980  28.774  1.00  0.00     0.040 A 
ATOM     77  F   UNL A   1      47.587  31.512  30.507  1.00  0.00    -0.206 F 
ATOM     78  C   UNL A   1      48.058  33.348  27.435  1.00  0.00     0.006 A 
ENDBRANCH  50  71
BRANCH  62  79
ATOM     79  C   UNL A   1      45.247  25.998  31.862  1.00  0.00     0.057 A 
ATOM     80  C   UNL A   1      44.113  26.695  32.310  1.00  0.00     0.134 A 
ATOM     81  C   UNL A   1      46.140  25.557  32.844  1.00  0.00     0.134 A 
ATOM     82  F   UNL A   1      43.152  27.078  31.461  1.00  0.00    -0.206 F 
ATOM     83  C   UNL A   1      43.902  26.974  33.664  1.00  0.00     0.040 A 
ATOM     84  C   UNL A   1      45.925  25.800  34.203  1.00  0.00     0.040 A 
ATOM     85  F   UNL A   1      47.219  24.838  32.500  1.00  0.00    -0.206 F 
ATOM     86  C   UNL A   1      44.808  26.520  34.617  1.00  0.00     0.006 A 
ENDBRANCH  62  79
ENDBRANCH  36  37
ENDBRANCH  28  31
ENDBRANCH  26  27
ENDBRANCH  25  26
ENDBRANCH   1  25
TORSDOF 13
ENDMDL
MODEL 2
REMARK VINA RESULT:     -11.8      1.386      1.880
REMARK SMILES Cc1nsc(NC(=O)c2ccc(N)cc2)c1C(=O)NCCCNC(=O)c1ccc(-c2c3nc(c(-c4c(F)cccc4F)c4ccc([nH]4)c(-c4c(F)cccc4F)c4nc(c(-c5c(F)cccc5F)c5ccc2[nH]5)C=C4)C=C3)cc1
REMARK SMILES IDX 20 1 19 2 17 3 18 4 16 6 1 7 2 8 3 9 4 10 5 11 6 12 7 13
REMARK SMILES IDX 8 15 9 16 10 17 15 18 11 19 14 20 12 21 13 22 21 25 22 26
REMARK SMILES IDX 23 27 24 28 25 30 26 31 27 32 79 33 28 34 78 35 29 36 30 37
REMARK SMILES IDX 31 38 72 39 32 40 77 41 71 42 73 43 33 44 76 45 70 46 69 47
REMARK SMILES IDX 34 49 60 50 43 51 59 52 44 53 47 54 58 55 74 56 45 57 46 58
REMARK SMILES IDX 57 60 75 61 48 62 35 63 36 64 41 65 37 66 38 67 40 68 42 69
REMARK SMILES IDX 39 70 61 71 62 72 67 73 63 74 64 75 66 76 68 77 65 78 49 79
REMARK SMILES IDX 50 80 55 81 51 82 52 83 54 84 56 85 53 86
REMARK H PARENT 19 5 6 14 13 23 13 24 23 29 73 48 47 59
REMARK Flexibility Score: inf
ROOT
ATOM      1  C   UNL A   1      33.270  29.793  26.127  1.00  0.00     0.118 C 
ENDROOT
BRANCH   1   2
ATOM      2  N   UNL A   1      33.703  29.270  24.857  1.00  0.00    -0.352 N 
ATOM      3  C   UNL A   1      33.169  28.310  24.029  1.00  0.00     0.256 C 
ATOM      4  O   UNL A   1      33.660  28.279  22.894  1.00  0.00    -0.269 OA
ATOM      5  H   UNL A   1      34.534  29.674  24.518  1.00  0.00     0.163 HD
BRANCH   3   6
ATOM      6  C   UNL A   1      32.213  27.278  24.457  1.00  0.00     0.097 A 
ATOM      7  C   UNL A   1      29.860  27.512  23.159  1.00  0.00     0.069 C 
ATOM      8  C   UNL A   1      30.795  27.011  24.208  1.00  0.00     0.066 A 
ATOM      9  N   UNL A   1      30.221  26.133  25.036  1.00  0.00    -0.195 NA
ATOM     10  S   UNL A   1      31.373  25.456  25.981  1.00  0.00    -0.017 S 
ATOM     11  C   UNL A   1      32.688  26.176  25.181  1.00  0.00     0.129 A 
BRANCH  11  12
ATOM     12  N   UNL A   1      33.999  25.767  25.385  1.00  0.00    -0.312 N 
ATOM     13  C   UNL A   1      34.639  24.592  25.037  1.00  0.00     0.256 C 
ATOM     14  H   UNL A   1      34.565  26.421  25.854  1.00  0.00     0.171 HD
ATOM     15  O   UNL A   1      35.769  24.349  25.462  1.00  0.00    -0.269 OA
BRANCH  13  16
ATOM     16  C   UNL A   1      34.025  23.621  24.108  1.00  0.00     0.040 A 
ATOM     17  C   UNL A   1      33.828  23.934  22.758  1.00  0.00     0.016 A 
ATOM     18  C   UNL A   1      33.582  22.400  24.617  1.00  0.00     0.016 A 
ATOM     19  C   UNL A   1      33.062  23.080  21.960  1.00  0.00     0.026 A 
ATOM     20  C   UNL A   1      32.835  21.545  23.803  1.00  0.00     0.026 A 
ATOM     21  C   UNL A   1      32.528  21.899  22.485  1.00  0.00     0.031 A 
BRANCH  21  22
ATOM     22  N   UNL A   1      31.737  21.078  21.704  1.00  0.00    -0.399 N 
ATOM     23  H   UNL A   1      31.963  20.125  21.607  1.00  0.00     0.156 HD
ATOM     24  H   UNL A   1      30.949  21.447  21.243  1.00  0.00     0.156 HD
ENDBRANCH  21  22
ENDBRANCH  13  16
ENDBRANCH  11  12
ENDBRANCH   3   6
ENDBRANCH   1   2
BRANCH   1  25
ATOM     25  C   UNL A   1      33.751  29.065  27.373  1.00  0.00     0.042 C 
BRANCH  25  26
ATOM     26  C   UNL A   1      35.222  29.309  27.618  1.00  0.00     0.118 C 
BRANCH  26  27
ATOM     27  N   UNL A   1      35.505  29.927  28.922  1.00  0.00    -0.352 N 
ATOM     28  C   UNL A   1      36.617  29.720  29.730  1.00  0.00     0.251 C 
ATOM     29  H   UNL A   1      34.829  30.559  29.261  1.00  0.00     0.163 HD
ATOM     30  O   UNL A   1      36.649  30.061  30.890  1.00  0.00    -0.269 OA
BRANCH  28  31
ATOM     31  C   UNL A   1      37.767  29.056  29.092  1.00  0.00     0.039 A 
ATOM     32  C   UNL A   1      38.385  29.594  27.964  1.00  0.00     0.014 A 
ATOM     33  C   UNL A   1      38.335  28.009  29.807  1.00  0.00     0.014 A 
ATOM     34  C   UNL A   1      39.658  29.138  27.637  1.00  0.00     0.010 A 
ATOM     35  C   UNL A   1      39.662  27.741  29.619  1.00  0.00     0.010 A 
ATOM     36  C   UNL A   1      40.317  28.246  28.504  1.00  0.00    -0.014 A 
BRANCH  36  37
ATOM     37  C   UNL A   1      41.725  27.910  28.318  1.00  0.00     0.031 A 
ATOM     38  C   UNL A   1      41.977  26.661  27.548  1.00  0.00     0.074 A 
ATOM     39  C   UNL A   1      42.739  28.733  28.666  1.00  0.00     0.049 A 
ATOM     40  N   UNL A   1      42.386  25.530  28.020  1.00  0.00    -0.248 NA
ATOM     41  C   UNL A   1      41.600  26.605  26.126  1.00  0.00     0.031 C 
ATOM     42  C   UNL A   1      42.689  30.115  29.163  1.00  0.00     0.029 A 
ATOM     43  N   UNL A   1      44.077  28.507  28.577  1.00  0.00    -0.354 N 
ATOM     44  C   UNL A   1      42.524  24.677  26.931  1.00  0.00     0.074 A 
ATOM     45  C   UNL A   1      41.869  25.331  25.827  1.00  0.00     0.031 C 
ATOM     46  C   UNL A   1      43.919  30.672  29.104  1.00  0.00     0.029 A 
ATOM     47  C   UNL A   1      44.870  29.632  28.770  1.00  0.00     0.049 A 
ATOM     48  H   UNL A   1      44.455  27.617  28.391  1.00  0.00     0.167 HD
ATOM     49  C   UNL A   1      43.367  23.608  26.984  1.00  0.00     0.037 A 
ATOM     50  C   UNL A   1      46.220  29.702  28.682  1.00  0.00     0.037 A 
ATOM     51  C   UNL A   1      43.769  23.335  28.342  1.00  0.00     0.049 A 
ATOM     52  C   UNL A   1      46.737  28.324  28.849  1.00  0.00     0.074 A 
ATOM     53  C   UNL A   1      43.106  22.986  29.503  1.00  0.00     0.029 A 
ATOM     54  N   UNL A   1      44.997  23.805  28.741  1.00  0.00    -0.354 N 
ATOM     55  N   UNL A   1      46.660  27.655  29.965  1.00  0.00    -0.248 NA
ATOM     56  C   UNL A   1      46.909  27.521  27.649  1.00  0.00     0.031 C 
ATOM     57  C   UNL A   1      43.764  23.719  30.535  1.00  0.00     0.029 A 
ATOM     58  C   UNL A   1      44.835  24.407  29.962  1.00  0.00     0.049 A 
ATOM     59  H   UNL A   1      45.840  23.726  28.240  1.00  0.00     0.167 HD
ATOM     60  C   UNL A   1      46.324  26.366  29.580  1.00  0.00     0.074 A 
ATOM     61  C   UNL A   1      46.581  26.323  28.140  1.00  0.00     0.031 C 
ATOM     62  C   UNL A   1      45.601  25.551  30.404  1.00  0.00     0.037 A 
BRANCH  49  63
ATOM     63  C   UNL A   1      44.131  23.052  25.810  1.00  0.00     0.057 A 
ATOM     64  C   UNL A   1      44.089  21.668  25.556  1.00  0.00     0.134 A 
ATOM     65  C   UNL A   1      45.131  23.759  25.114  1.00  0.00     0.134 A 
ATOM     66  F   UNL A   1      43.188  20.882  26.167  1.00  0.00    -0.206 F 
ATOM     67  C   UNL A   1      45.022  21.026  24.732  1.00  0.00     0.040 A 
ATOM     68  C   UNL A   1      46.038  23.135  24.252  1.00  0.00     0.040 A 
ATOM     69  F   UNL A   1      45.354  25.063  25.310  1.00  0.00    -0.206 F 
ATOM     70  C   UNL A   1      46.007  21.760  24.084  1.00  0.00     0.006 A 
ENDBRANCH  49  63
BRANCH  50  71
ATOM     71  C   UNL A   1      47.057  30.808  28.171  1.00  0.00     0.057 A 
ATOM     72  C   UNL A   1      46.850  31.341  26.890  1.00  0.00     0.134 A 
ATOM     73  C   UNL A   1      47.873  31.563  29.031  1.00  0.00     0.134 A 
ATOM     74  F   UNL A   1      46.058  30.709  26.012  1.00  0.00    -0.206 F 
ATOM     75  C   UNL A   1      47.390  32.574  26.501  1.00  0.00     0.040 A 
ATOM     76  C   UNL A   1      48.421  32.794  28.654  1.00  0.00     0.040 A 
ATOM     77  F   UNL A   1      48.086  31.177  30.299  1.00  0.00    -0.206 F 
ATOM     78  C   UNL A   1      48.165  33.312  27.390  1.00  0.00     0.006 A 
ENDBRANCH  50  71
BRANCH  62  79
ATOM     79  C   UNL A   1      45.405  25.989  31.832  1.00  0.00     0.057 A 
ATOM     80  C   UNL A   1      44.277  26.678  32.307  1.00  0.00     0.134 A 
ATOM     81  C   UNL A   1      46.332  25.568  32.792  1.00  0.00     0.134 A 
ATOM     82  F   UNL A   1      43.287  27.041  31.484  1.00  0.00    -0.206 F 
ATOM     83  C   UNL A   1      44.105  26.970  33.664  1.00  0.00     0.040 A 
ATOM     84  C   UNL A   1      46.155  25.824  34.154  1.00  0.00     0.040 A 
ATOM     85  F   UNL A   1      47.409  24.857  32.422  1.00  0.00    -0.206 F 
ATOM     86  C   UNL A   1      45.044  26.537  34.594  1.00  0.00     0.006 A 
ENDBRANCH  62  79
ENDBRANCH  36  37
ENDBRANCH  28  31
ENDBRANCH  26  27
ENDBRANCH  25  26
ENDBRANCH   1  25
TORSDOF 13
ENDMDL
MODEL 3
REMARK VINA RESULT:     -11.8      2.295      6.489
REMARK SMILES Cc1nsc(NC(=O)c2ccc(N)cc2)c1C(=O)NCCCNC(=O)c1ccc(-c2c3nc(c(-c4c(F)cccc4F)c4ccc([nH]4)c(-c4c(F)cccc4F)c4nc(c(-c5c(F)cccc5F)c5ccc2[nH]5)C=C4)C=C3)cc1
REMARK SMILES IDX 20 1 19 2 17 3 18 4 16 6 1 7 2 8 3 9 4 10 5 11 6 12 7 13
REMARK SMILES IDX 8 15 9 16 10 17 15 18 11 19 14 20 12 21 13 22 21 25 22 26
REMARK SMILES IDX 23 27 24 28 25 30 26 31 27 32 79 33 28 34 78 35 29 36 30 37
REMARK SMILES IDX 31 38 72 39 32 40 77 41 71 42 73 43 33 44 76 45 70 46 69 47
REMARK SMILES IDX 34 49 60 50 43 51 59 52 44 53 47 54 58 55 74 56 45 57 46 58
REMARK SMILES IDX 57 60 75 61 48 62 35 63 36 64 41 65 37 66 38 67 40 68 42 69
REMARK SMILES IDX 39 70 61 71 62 72 67 73 63 74 64 75 66 76 68 77 65 78 49 79
REMARK SMILES IDX 50 80 55 81 51 82 52 83 54 84 56 85 53 86
REMARK H PARENT 19 5 6 14 13 23 13 24 23 29 73 48 47 59
REMARK Flexibility Score: inf
ROOT
ATOM      1  C   UNL A   1      32.466  30.129  25.897  1.00  0.00     0.118 C 
ENDROOT
BRANCH   1   2
ATOM      2  N   UNL A   1      33.340  29.405  25.011  1.00  0.00    -0.352 N 
ATOM      3  C   UNL A   1      33.216  28.181  24.396  1.00  0.00     0.256 C 
ATOM      4  O   UNL A   1      34.043  27.968  23.502  1.00  0.00    -0.269 OA
ATOM      5  H   UNL A   1      34.182  29.872  24.807  1.00  0.00     0.163 HD
BRANCH   3   6
ATOM      6  C   UNL A   1      32.301  27.117  24.835  1.00  0.00     0.097 A 
ATOM      7  C   UNL A   1      29.856  27.396  23.731  1.00  0.00     0.069 C 
ATOM      8  C   UNL A   1      30.871  26.847  24.678  1.00  0.00     0.066 A 
ATOM      9  N   UNL A   1      30.366  25.919  25.495  1.00  0.00    -0.195 NA
ATOM     10  S   UNL A   1      31.590  25.203  26.312  1.00  0.00    -0.017 S 
ATOM     11  C   UNL A   1      32.837  25.981  25.459  1.00  0.00     0.129 A 
BRANCH  11  12
ATOM     12  N   UNL A   1      34.162  25.576  25.541  1.00  0.00    -0.312 N 
ATOM     13  C   UNL A   1      34.782  24.428  25.085  1.00  0.00     0.256 C 
ATOM     14  H   UNL A   1      34.758  26.211  26.000  1.00  0.00     0.171 HD
ATOM     15  O   UNL A   1      35.942  24.175  25.410  1.00  0.00    -0.269 OA
BRANCH  13  16
ATOM     16  C   UNL A   1      34.105  23.500  24.155  1.00  0.00     0.040 A 
ATOM     17  C   UNL A   1      33.893  23.844  22.815  1.00  0.00     0.016 A 
ATOM     18  C   UNL A   1      33.622  22.291  24.655  1.00  0.00     0.016 A 
ATOM     19  C   UNL A   1      33.073  23.037  22.021  1.00  0.00     0.026 A 
ATOM     20  C   UNL A   1      32.820  21.483  23.845  1.00  0.00     0.026 A 
ATOM     21  C   UNL A   1      32.499  21.872  22.539  1.00  0.00     0.031 A 
BRANCH  21  22
ATOM     22  N   UNL A   1      31.657  21.099  21.764  1.00  0.00    -0.399 N 
ATOM     23  H   UNL A   1      31.071  21.527  21.098  1.00  0.00     0.156 HD
ATOM     24  H   UNL A   1      31.642  20.121  21.877  1.00  0.00     0.156 HD
ENDBRANCH  21  22
ENDBRANCH  13  16
ENDBRANCH  11  12
ENDBRANCH   3   6
ENDBRANCH   1   2
BRANCH   1  25
ATOM     25  C   UNL A   1      32.930  30.300  27.336  1.00  0.00     0.042 C 
BRANCH  25  26
ATOM     26  C   UNL A   1      34.007  31.355  27.444  1.00  0.00     0.118 C 
BRANCH  26  27
ATOM     27  N   UNL A   1      34.062  32.004  28.762  1.00  0.00    -0.352 N 
ATOM     28  C   UNL A   1      35.023  31.824  29.751  1.00  0.00     0.251 C 
ATOM     29  H   UNL A   1      33.336  32.637  28.967  1.00  0.00     0.163 HD
ATOM     30  O   UNL A   1      34.857  32.190  30.892  1.00  0.00    -0.269 OA
BRANCH  28  31
ATOM     31  C   UNL A   1      36.267  31.156  29.331  1.00  0.00     0.039 A 
ATOM     32  C   UNL A   1      37.476  31.847  29.257  1.00  0.00     0.014 A 
ATOM     33  C   UNL A   1      36.211  29.771  29.245  1.00  0.00     0.014 A 
ATOM     34  C   UNL A   1      38.652  31.103  29.219  1.00  0.00     0.010 A 
ATOM     35  C   UNL A   1      37.363  29.062  29.443  1.00  0.00     0.010 A 
ATOM     36  C   UNL A   1      38.590  29.705  29.367  1.00  0.00    -0.014 A 
BRANCH  36  37
ATOM     37  C   UNL A   1      39.801  28.909  29.548  1.00  0.00     0.031 A 
ATOM     38  C   UNL A   1      40.251  28.761  30.960  1.00  0.00     0.074 A 
ATOM     39  C   UNL A   1      40.393  28.216  28.550  1.00  0.00     0.049 A 
ATOM     40  N   UNL A   1      41.265  29.340  31.512  1.00  0.00    -0.248 NA
ATOM     41  C   UNL A   1      39.410  28.011  31.907  1.00  0.00     0.031 C 
ATOM     42  C   UNL A   1      39.940  28.000  27.169  1.00  0.00     0.029 A 
ATOM     43  N   UNL A   1      41.537  27.482  28.596  1.00  0.00    -0.354 N 
ATOM     44  C   UNL A   1      41.322  28.866  32.819  1.00  0.00     0.074 A 
ATOM     45  C   UNL A   1      40.070  28.193  33.055  1.00  0.00     0.031 C 
ATOM     46  C   UNL A   1      40.663  27.014  26.595  1.00  0.00     0.029 A 
ATOM     47  C   UNL A   1      41.756  26.678  27.483  1.00  0.00     0.049 A 
ATOM     48  H   UNL A   1      42.160  27.516  29.358  1.00  0.00     0.167 HD
ATOM     49  C   UNL A   1      42.494  28.876  33.514  1.00  0.00     0.037 A 
ATOM     50  C   UNL A   1      42.779  25.811  27.294  1.00  0.00     0.037 A 
ATOM     51  C   UNL A   1      43.474  29.708  32.861  1.00  0.00     0.049 A 
ATOM     52  C   UNL A   1      43.869  26.220  28.210  1.00  0.00     0.074 A 
ATOM     53  C   UNL A   1      43.551  31.049  32.534  1.00  0.00     0.029 A 
ATOM     54  N   UNL A   1      44.414  29.079  32.081  1.00  0.00    -0.354 N 
ATOM     55  N   UNL A   1      44.542  27.329  28.081  1.00  0.00    -0.248 NA
ATOM     56  C   UNL A   1      43.888  25.628  29.538  1.00  0.00     0.031 C 
ATOM     57  C   UNL A   1      44.166  31.076  31.247  1.00  0.00     0.029 A 
ATOM     58  C   UNL A   1      44.501  29.766  30.898  1.00  0.00     0.049 A 
ATOM     59  H   UNL A   1      44.932  28.279  32.327  1.00  0.00     0.167 HD
ATOM     60  C   UNL A   1      44.687  27.805  29.375  1.00  0.00     0.074 A 
ATOM     61  C   UNL A   1      44.345  26.673  30.235  1.00  0.00     0.031 C 
ATOM     62  C   UNL A   1      44.788  29.144  29.625  1.00  0.00     0.037 A 
BRANCH  49  63
ATOM     63  C   UNL A   1      42.892  27.856  34.550  1.00  0.00     0.057 A 
ATOM     64  C   UNL A   1      43.202  26.546  34.140  1.00  0.00     0.134 A 
ATOM     65  C   UNL A   1      42.691  28.020  35.935  1.00  0.00     0.134 A 
ATOM     66  F   UNL A   1      43.403  26.258  32.845  1.00  0.00    -0.206 F 
ATOM     67  C   UNL A   1      43.233  25.467  35.033  1.00  0.00     0.040 A 
ATOM     68  C   UNL A   1      42.768  26.958  36.841  1.00  0.00     0.040 A 
ATOM     69  F   UNL A   1      42.309  29.184  36.471  1.00  0.00    -0.206 F 
ATOM     70  C   UNL A   1      43.006  25.670  36.388  1.00  0.00     0.006 A 
ENDBRANCH  49  63
BRANCH  50  71
ATOM     71  C   UNL A   1      42.766  24.500  26.611  1.00  0.00     0.057 A 
ATOM     72  C   UNL A   1      43.501  24.290  25.435  1.00  0.00     0.134 A 
ATOM     73  C   UNL A   1      42.281  23.348  27.253  1.00  0.00     0.134 A 
ATOM     74  F   UNL A   1      44.034  25.327  24.772  1.00  0.00    -0.206 F 
ATOM     75  C   UNL A   1      43.772  23.004  24.947  1.00  0.00     0.040 A 
ATOM     76  C   UNL A   1      42.541  22.059  26.774  1.00  0.00     0.040 A 
ATOM     77  F   UNL A   1      41.619  23.431  28.417  1.00  0.00    -0.206 F 
ATOM     78  C   UNL A   1      43.305  21.884  25.627  1.00  0.00     0.006 A 
ENDBRANCH  50  71
BRANCH  62  79
ATOM     79  C   UNL A   1      45.001  30.066  28.452  1.00  0.00     0.057 A 
ATOM     80  C   UNL A   1      43.969  30.663  27.711  1.00  0.00     0.134 A 
ATOM     81  C   UNL A   1      46.305  30.474  28.153  1.00  0.00     0.134 A 
ATOM     82  F   UNL A   1      42.683  30.412  27.981  1.00  0.00    -0.206 F 
ATOM     83  C   UNL A   1      44.227  31.590  26.695  1.00  0.00     0.040 A 
ATOM     84  C   UNL A   1      46.575  31.424  27.164  1.00  0.00     0.040 A 
ATOM     85  F   UNL A   1      47.341  29.989  28.854  1.00  0.00    -0.206 F 
ATOM     86  C   UNL A   1      45.535  31.978  26.423  1.00  0.00     0.006 A 
ENDBRANCH  62  79
ENDBRANCH  36  37
ENDBRANCH  28  31
ENDBRANCH  26  27
ENDBRANCH  25  26
ENDBRANCH   1  25
TORSDOF 13
ENDMDL
