MODEL 1
REMARK VINA RESULT:     -12.4      0.000      0.000
REMARK SMILES C[C@H](NC(=O)[C@H]1CC[C@H]2CCCC[C@@H]2[NH2+]1)C(=O)NCCCNC(=O)c1ccc(-c2c3nc(c(-c4c(F)cccc4F)c4ccc([nH]4)c(-c4c(F)cccc4F)c4nc(c(-c5c(F)cccc5F)c5ccc2[nH]5)C=C4)C=C3)cc1
REMARK SMILES IDX 20 1 19 2 18 3 16 4 17 5 2 7 1 8 3 9 4 10 5 12 6 13 7 14
REMARK SMILES IDX 15 15 8 16 14 17 9 20 13 21 10 22 12 23 11 24 21 25 22 26
REMARK SMILES IDX 23 27 24 29 25 30 26 31 78 32 27 33 77 34 28 35 29 36 30 37
REMARK SMILES IDX 71 38 31 39 76 40 70 41 72 42 32 43 75 44 69 45 68 46 33 48
REMARK SMILES IDX 59 49 42 50 58 51 43 52 46 53 57 54 73 55 44 56 45 57 56 59
REMARK SMILES IDX 74 60 47 61 34 62 35 63 40 64 36 65 37 66 39 67 41 68 38 69
REMARK SMILES IDX 60 70 61 71 66 72 62 73 63 74 65 75 67 76 64 77 48 78 49 79
REMARK SMILES IDX 54 80 50 81 51 82 53 83 55 84 52 85
REMARK H PARENT 18 6 3 11 15 18 15 19 22 28 72 47 46 58
REMARK Flexibility Score: inf
ROOT
ATOM      1  C   UNL A   1      31.570  32.047  26.858  1.00  0.00     0.042 C 
ENDROOT
BRANCH   1   2
ATOM      2  C   UNL A   1      31.809  30.549  26.821  1.00  0.00     0.117 C 
BRANCH   2   3
ATOM      3  N   UNL A   1      33.207  30.249  27.059  1.00  0.00    -0.354 N 
ATOM      4  C   UNL A   1      33.969  29.222  26.615  1.00  0.00     0.242 C 
ATOM      5  O   UNL A   1      35.033  29.007  27.202  1.00  0.00    -0.273 OA
ATOM      6  H   UNL A   1      33.677  30.895  27.635  1.00  0.00     0.163 HD
BRANCH   4   7
ATOM      7  C   UNL A   1      33.535  28.357  25.431  1.00  0.00     0.168 C 
ATOM      8  C   UNL A   1      33.580  26.858  25.740  1.00  0.00     0.041 C 
BRANCH   7   9
ATOM      9  N   UNL A   1      34.199  28.658  24.172  1.00  0.00    -0.339 N 
ATOM     10  C   UNL A   1      33.721  28.484  22.899  1.00  0.00     0.278 C 
ATOM     11  H   UNL A   1      35.107  29.033  24.243  1.00  0.00     0.164 HD
ATOM     12  O   UNL A   1      34.547  28.520  21.982  1.00  0.00    -0.268 OA
BRANCH  10  13
ATOM     13  C   UNL A   1      32.192  28.366  22.610  1.00  0.00     0.272 C 
ATOM     14  C   UNL A   1      31.622  26.931  22.654  1.00  0.00     0.076 C 
ATOM     15  N   UNL A   1      31.513  29.388  23.435  1.00  0.00    -0.333 N 
ATOM     16  C   UNL A   1      30.345  26.799  23.492  1.00  0.00     0.016 C 
ATOM     17  C   UNL A   1      30.061  29.274  23.570  1.00  0.00     0.186 C 
ATOM     18  H   UNL A   1      31.712  30.299  23.024  1.00  0.00     0.347 HD
ATOM     19  H   UNL A   1      31.878  29.253  24.378  1.00  0.00     0.347 HD
ATOM     20  C   UNL A   1      29.454  27.952  23.079  1.00  0.00     0.048 C 
ATOM     21  C   UNL A   1      29.328  30.424  22.866  1.00  0.00     0.065 C 
ATOM     22  C   UNL A   1      28.012  27.855  23.572  1.00  0.00     0.010 C 
ATOM     23  C   UNL A   1      27.820  30.364  23.152  1.00  0.00     0.006 C 
ATOM     24  C   UNL A   1      27.200  28.980  22.926  1.00  0.00     0.001 C 
ENDBRANCH  10  13
ENDBRANCH   7   9
ENDBRANCH   4   7
ENDBRANCH   2   3
ENDBRANCH   1   2
BRANCH   1  25
ATOM     25  C   UNL A   1      32.807  32.848  27.235  1.00  0.00     0.118 C 
BRANCH  25  26
ATOM     26  N   UNL A   1      32.501  34.235  27.561  1.00  0.00    -0.352 N 
ATOM     27  C   UNL A   1      33.013  35.024  28.564  1.00  0.00     0.251 C 
ATOM     28  H   UNL A   1      31.834  34.669  26.980  1.00  0.00     0.163 HD
ATOM     29  O   UNL A   1      32.503  36.099  28.833  1.00  0.00    -0.269 OA
BRANCH  27  30
ATOM     30  C   UNL A   1      34.177  34.530  29.323  1.00  0.00     0.039 A 
ATOM     31  C   UNL A   1      33.976  33.907  30.555  1.00  0.00     0.014 A 
ATOM     32  C   UNL A   1      35.461  34.648  28.783  1.00  0.00     0.014 A 
ATOM     33  C   UNL A   1      35.065  33.343  31.217  1.00  0.00     0.010 A 
ATOM     34  C   UNL A   1      36.517  33.986  29.385  1.00  0.00     0.010 A 
ATOM     35  C   UNL A   1      36.337  33.347  30.620  1.00  0.00    -0.014 A 
BRANCH  35  36
ATOM     36  C   UNL A   1      37.508  32.735  31.288  1.00  0.00     0.031 A 
ATOM     37  C   UNL A   1      38.182  31.546  30.657  1.00  0.00     0.074 A 
ATOM     38  C   UNL A   1      37.919  33.199  32.483  1.00  0.00     0.049 A 
ATOM     39  N   UNL A   1      39.168  30.816  31.111  1.00  0.00    -0.248 NA
ATOM     40  C   UNL A   1      37.652  31.095  29.359  1.00  0.00     0.031 C 
ATOM     41  C   UNL A   1      37.307  34.307  33.220  1.00  0.00     0.029 A 
ATOM     42  N   UNL A   1      38.948  32.790  33.292  1.00  0.00    -0.354 N 
ATOM     43  C   UNL A   1      39.356  29.813  30.169  1.00  0.00     0.074 A 
ATOM     44  C   UNL A   1      38.340  29.983  29.156  1.00  0.00     0.031 C 
ATOM     45  C   UNL A   1      37.993  34.509  34.357  1.00  0.00     0.029 A 
ATOM     46  C   UNL A   1      39.065  33.524  34.447  1.00  0.00     0.049 A 
ATOM     47  H   UNL A   1      39.545  32.041  33.067  1.00  0.00     0.167 HD
ATOM     48  C   UNL A   1      40.312  28.856  30.133  1.00  0.00     0.037 A 
ATOM     49  C   UNL A   1      39.941  33.409  35.464  1.00  0.00     0.037 A 
ATOM     50  C   UNL A   1      41.342  28.716  31.125  1.00  0.00     0.049 A 
ATOM     51  C   UNL A   1      40.998  32.341  35.397  1.00  0.00     0.074 A 
ATOM     52  C   UNL A   1      42.397  27.824  31.151  1.00  0.00     0.029 A 
ATOM     53  N   UNL A   1      41.444  29.496  32.267  1.00  0.00    -0.354 N 
ATOM     54  N   UNL A   1      41.212  31.446  34.463  1.00  0.00    -0.248 NA
ATOM     55  C   UNL A   1      41.941  32.274  36.521  1.00  0.00     0.031 C 
ATOM     56  C   UNL A   1      43.114  28.033  32.334  1.00  0.00     0.029 A 
ATOM     57  C   UNL A   1      42.535  29.093  33.017  1.00  0.00     0.049 A 
ATOM     58  H   UNL A   1      40.832  30.229  32.508  1.00  0.00     0.167 HD
ATOM     59  C   UNL A   1      42.330  30.730  34.871  1.00  0.00     0.074 A 
ATOM     60  C   UNL A   1      42.757  31.306  36.130  1.00  0.00     0.031 C 
ATOM     61  C   UNL A   1      42.948  29.689  34.261  1.00  0.00     0.037 A 
BRANCH  48  62
ATOM     62  C   UNL A   1      40.287  27.899  28.976  1.00  0.00     0.057 A 
ATOM     63  C   UNL A   1      41.000  28.145  27.795  1.00  0.00     0.134 A 
ATOM     64  C   UNL A   1      39.553  26.707  29.049  1.00  0.00     0.134 A 
ATOM     65  F   UNL A   1      41.710  29.274  27.653  1.00  0.00    -0.206 F 
ATOM     66  C   UNL A   1      40.961  27.257  26.718  1.00  0.00     0.040 A 
ATOM     67  C   UNL A   1      39.531  25.798  27.991  1.00  0.00     0.040 A 
ATOM     68  F   UNL A   1      38.849  26.407  30.151  1.00  0.00    -0.206 F 
ATOM     69  C   UNL A   1      40.231  26.076  26.819  1.00  0.00     0.006 A 
ENDBRANCH  48  62
BRANCH  49  70
ATOM     70  C   UNL A   1      39.876  34.347  36.614  1.00  0.00     0.057 A 
ATOM     71  C   UNL A   1      39.154  34.023  37.768  1.00  0.00     0.134 A 
ATOM     72  C   UNL A   1      40.523  35.588  36.585  1.00  0.00     0.134 A 
ATOM     73  F   UNL A   1      38.500  32.856  37.849  1.00  0.00    -0.206 F 
ATOM     74  C   UNL A   1      39.058  34.909  38.844  1.00  0.00     0.040 A 
ATOM     75  C   UNL A   1      40.458  36.471  37.664  1.00  0.00     0.040 A 
ATOM     76  F   UNL A   1      41.241  35.954  35.513  1.00  0.00    -0.206 F 
ATOM     77  C   UNL A   1      39.715  36.136  38.794  1.00  0.00     0.006 A 
ENDBRANCH  49  70
BRANCH  61  78
ATOM     78  C   UNL A   1      44.175  29.135  34.925  1.00  0.00     0.057 A 
ATOM     79  C   UNL A   1      44.110  28.070  35.831  1.00  0.00     0.134 A 
ATOM     80  C   UNL A   1      45.441  29.647  34.616  1.00  0.00     0.134 A 
ATOM     81  F   UNL A   1      42.926  27.543  36.179  1.00  0.00    -0.206 F 
ATOM     82  C   UNL A   1      45.259  27.549  36.426  1.00  0.00     0.040 A 
ATOM     83  C   UNL A   1      46.600  29.115  35.181  1.00  0.00     0.040 A 
ATOM     84  F   UNL A   1      45.574  30.660  33.746  1.00  0.00    -0.206 F 
ATOM     85  C   UNL A   1      46.511  28.067  36.094  1.00  0.00     0.006 A 
ENDBRANCH  61  78
ENDBRANCH  35  36
ENDBRANCH  27  30
ENDBRANCH  25  26
ENDBRANCH   1  25
TORSDOF 12
ENDMDL
MODEL 2
REMARK VINA RESULT:     -12.4      0.926      6.343
REMARK SMILES C[C@H](NC(=O)[C@H]1CC[C@H]2CCCC[C@@H]2[NH2+]1)C(=O)NCCCNC(=O)c1ccc(-c2c3nc(c(-c4c(F)cccc4F)c4ccc([nH]4)c(-c4c(F)cccc4F)c4nc(c(-c5c(F)cccc5F)c5ccc2[nH]5)C=C4)C=C3)cc1
REMARK SMILES IDX 20 1 19 2 18 3 16 4 17 5 2 7 1 8 3 9 4 10 5 12 6 13 7 14
REMARK SMILES IDX 15 15 8 16 14 17 9 20 13 21 10 22 12 23 11 24 21 25 22 26
REMARK SMILES IDX 23 27 24 29 25 30 26 31 78 32 27 33 77 34 28 35 29 36 30 37
REMARK SMILES IDX 71 38 31 39 76 40 70 41 72 42 32 43 75 44 69 45 68 46 33 48
REMARK SMILES IDX 59 49 42 50 58 51 43 52 46 53 57 54 73 55 44 56 45 57 56 59
REMARK SMILES IDX 74 60 47 61 34 62 35 63 40 64 36 65 37 66 39 67 41 68 38 69
REMARK SMILES IDX 60 70 61 71 66 72 62 73 63 74 65 75 67 76 64 77 48 78 49 79
REMARK SMILES IDX 54 80 50 81 51 82 53 83 55 84 52 85
REMARK H PARENT 18 6 3 11 15 18 15 19 22 28 72 47 46 58
REMARK Flexibility Score: inf
ROOT
ATOM      1  C   UNL A   1      31.544  32.086  26.880  1.00  0.00     0.042 C 
ENDROOT
BRANCH   1   2
ATOM      2  C   UNL A   1      31.762  30.588  26.763  1.00  0.00     0.117 C 
BRANCH   2   3
ATOM      3  N   UNL A   1      33.142  30.249  27.047  1.00  0.00    -0.354 N 
ATOM      4  C   UNL A   1      33.887  29.198  26.633  1.00  0.00     0.242 C 
ATOM      5  O   UNL A   1      34.925  28.955  27.254  1.00  0.00    -0.273 OA
ATOM      6  H   UNL A   1      33.612  30.884  27.634  1.00  0.00     0.163 HD
BRANCH   4   7
ATOM      7  C   UNL A   1      33.466  28.339  25.440  1.00  0.00     0.168 C 
ATOM      8  C   UNL A   1      33.504  26.838  25.743  1.00  0.00     0.041 C 
BRANCH   7   9
ATOM      9  N   UNL A   1      34.146  28.643  24.190  1.00  0.00    -0.339 N 
ATOM     10  C   UNL A   1      33.684  28.475  22.911  1.00  0.00     0.278 C 
ATOM     11  H   UNL A   1      35.053  29.017  24.273  1.00  0.00     0.164 HD
ATOM     12  O   UNL A   1      34.521  28.513  22.004  1.00  0.00    -0.268 OA
BRANCH  10  13
ATOM     13  C   UNL A   1      32.158  28.359  22.602  1.00  0.00     0.272 C 
ATOM     14  C   UNL A   1      31.590  26.922  22.617  1.00  0.00     0.076 C 
ATOM     15  N   UNL A   1      31.468  29.366  23.435  1.00  0.00    -0.333 N 
ATOM     16  C   UNL A   1      30.304  26.775  23.438  1.00  0.00     0.016 C 
ATOM     17  C   UNL A   1      30.015  29.248  23.551  1.00  0.00     0.186 C 
ATOM     18  H   UNL A   1      31.671  30.284  23.040  1.00  0.00     0.347 HD
ATOM     19  H   UNL A   1      31.822  29.218  24.380  1.00  0.00     0.347 HD
ATOM     20  C   UNL A   1      29.415  27.933  23.032  1.00  0.00     0.048 C 
ATOM     21  C   UNL A   1      29.288  30.407  22.857  1.00  0.00     0.065 C 
ATOM     22  C   UNL A   1      27.968  27.826  23.507  1.00  0.00     0.010 C 
ATOM     23  C   UNL A   1      27.776  30.341  23.124  1.00  0.00     0.006 C 
ATOM     24  C   UNL A   1      27.161  28.959  22.869  1.00  0.00     0.001 C 
ENDBRANCH  10  13
ENDBRANCH   7   9
ENDBRANCH   4   7
ENDBRANCH   2   3
ENDBRANCH   1   2
BRANCH   1  25
ATOM     25  C   UNL A   1      32.831  32.870  27.082  1.00  0.00     0.118 C 
BRANCH  25  26
ATOM     26  N   UNL A   1      32.599  34.201  27.628  1.00  0.00    -0.352 N 
ATOM     27  C   UNL A   1      33.147  34.789  28.743  1.00  0.00     0.251 C 
ATOM     28  H   UNL A   1      31.960  34.758  27.127  1.00  0.00     0.163 HD
ATOM     29  O   UNL A   1      32.695  35.833  29.183  1.00  0.00    -0.269 OA
BRANCH  27  30
ATOM     30  C   UNL A   1      34.279  34.116  29.409  1.00  0.00     0.039 A 
ATOM     31  C   UNL A   1      34.024  33.095  30.324  1.00  0.00     0.014 A 
ATOM     32  C   UNL A   1      35.590  34.476  29.086  1.00  0.00     0.014 A 
ATOM     33  C   UNL A   1      35.095  32.387  30.868  1.00  0.00     0.010 A 
ATOM     34  C   UNL A   1      36.642  33.696  29.536  1.00  0.00     0.010 A 
ATOM     35  C   UNL A   1      36.409  32.659  30.450  1.00  0.00    -0.014 A 
BRANCH  35  36
ATOM     36  C   UNL A   1      37.565  31.908  30.992  1.00  0.00     0.031 A 
ATOM     37  C   UNL A   1      38.069  32.223  32.374  1.00  0.00     0.074 A 
ATOM     38  C   UNL A   1      38.197  31.001  30.223  1.00  0.00     0.049 A 
ATOM     39  N   UNL A   1      39.109  31.741  33.005  1.00  0.00    -0.248 NA
ATOM     40  C   UNL A   1      37.329  33.244  33.134  1.00  0.00     0.031 C 
ATOM     41  C   UNL A   1      37.835  30.654  28.847  1.00  0.00     0.029 A 
ATOM     42  N   UNL A   1      39.283  30.208  30.491  1.00  0.00    -0.354 N 
ATOM     43  C   UNL A   1      39.156  32.414  34.218  1.00  0.00     0.074 A 
ATOM     44  C   UNL A   1      38.087  33.388  34.208  1.00  0.00     0.031 C 
ATOM     45  C   UNL A   1      38.665  29.696  28.403  1.00  0.00     0.029 A 
ATOM     46  C   UNL A   1      39.638  29.389  29.446  1.00  0.00     0.049 A 
ATOM     47  H   UNL A   1      39.764  30.225  31.350  1.00  0.00     0.167 HD
ATOM     48  C   UNL A   1      39.993  32.218  35.263  1.00  0.00     0.037 A 
ATOM     49  C   UNL A   1      40.639  28.494  29.346  1.00  0.00     0.037 A 
ATOM     50  C   UNL A   1      41.029  31.222  35.280  1.00  0.00     0.049 A 
ATOM     51  C   UNL A   1      41.552  28.288  30.524  1.00  0.00     0.074 A 
ATOM     52  C   UNL A   1      41.891  30.893  36.311  1.00  0.00     0.029 A 
ATOM     53  N   UNL A   1      41.341  30.393  34.214  1.00  0.00    -0.354 N 
ATOM     54  N   UNL A   1      41.539  28.879  31.694  1.00  0.00    -0.248 NA
ATOM     55  C   UNL A   1      42.613  27.284  30.369  1.00  0.00     0.031 C 
ATOM     56  C   UNL A   1      42.755  29.895  35.852  1.00  0.00     0.029 A 
ATOM     57  C   UNL A   1      42.396  29.565  34.553  1.00  0.00     0.049 A 
ATOM     58  H   UNL A   1      40.879  30.393  33.344  1.00  0.00     0.167 HD
ATOM     59  C   UNL A   1      42.567  28.299  32.425  1.00  0.00     0.074 A 
ATOM     60  C   UNL A   1      43.174  27.299  31.570  1.00  0.00     0.031 C 
ATOM     61  C   UNL A   1      42.975  28.568  33.689  1.00  0.00     0.037 A 
BRANCH  48  62
ATOM     62  C   UNL A   1      39.808  33.090  36.471  1.00  0.00     0.057 A 
ATOM     63  C   UNL A   1      40.524  34.283  36.640  1.00  0.00     0.134 A 
ATOM     64  C   UNL A   1      38.889  32.743  37.470  1.00  0.00     0.134 A 
ATOM     65  F   UNL A   1      41.430  34.667  35.729  1.00  0.00    -0.206 F 
ATOM     66  C   UNL A   1      40.356  35.083  37.773  1.00  0.00     0.040 A 
ATOM     67  C   UNL A   1      38.692  33.550  38.592  1.00  0.00     0.040 A 
ATOM     68  F   UNL A   1      38.169  31.616  37.372  1.00  0.00    -0.206 F 
ATOM     69  C   UNL A   1      39.432  34.719  38.748  1.00  0.00     0.006 A 
ENDBRANCH  48  62
BRANCH  49  70
ATOM     70  C   UNL A   1      40.811  27.704  28.101  1.00  0.00     0.057 A 
ATOM     71  C   UNL A   1      40.201  26.453  27.950  1.00  0.00     0.134 A 
ATOM     72  C   UNL A   1      41.593  28.172  27.037  1.00  0.00     0.134 A 
ATOM     73  F   UNL A   1      39.453  25.944  28.940  1.00  0.00    -0.206 F 
ATOM     74  C   UNL A   1      40.381  25.684  26.799  1.00  0.00     0.040 A 
ATOM     75  C   UNL A   1      41.759  27.426  25.870  1.00  0.00     0.040 A 
ATOM     76  F   UNL A   1      42.196  29.368  27.114  1.00  0.00    -0.206 F 
ATOM     77  C   UNL A   1      41.159  26.174  25.751  1.00  0.00     0.006 A 
ENDBRANCH  49  70
BRANCH  61  78
ATOM     78  C   UNL A   1      44.102  27.742  34.237  1.00  0.00     0.057 A 
ATOM     79  C   UNL A   1      45.434  28.169  34.172  1.00  0.00     0.134 A 
ATOM     80  C   UNL A   1      43.842  26.525  34.879  1.00  0.00     0.134 A 
ATOM     81  F   UNL A   1      45.750  29.320  33.559  1.00  0.00    -0.206 F 
ATOM     82  C   UNL A   1      46.471  27.402  34.704  1.00  0.00     0.040 A 
ATOM     83  C   UNL A   1      44.867  25.764  35.441  1.00  0.00     0.040 A 
ATOM     84  F   UNL A   1      42.587  26.064  34.986  1.00  0.00    -0.206 F 
ATOM     85  C   UNL A   1      46.188  26.199  35.349  1.00  0.00     0.006 A 
ENDBRANCH  61  78
ENDBRANCH  35  36
ENDBRANCH  27  30
ENDBRANCH  25  26
ENDBRANCH   1  25
TORSDOF 12
ENDMDL
MODEL 3
REMARK VINA RESULT:     -12.3      6.002     10.154
REMARK SMILES C[C@H](NC(=O)[C@H]1CC[C@H]2CCCC[C@@H]2[NH2+]1)C(=O)NCCCNC(=O)c1ccc(-c2c3nc(c(-c4c(F)cccc4F)c4ccc([nH]4)c(-c4c(F)cccc4F)c4nc(c(-c5c(F)cccc5F)c5ccc2[nH]5)C=C4)C=C3)cc1
REMARK SMILES IDX 20 1 19 2 18 3 16 4 17 5 2 7 1 8 3 9 4 10 5 12 6 13 7 14
REMARK SMILES IDX 15 15 8 16 14 17 9 20 13 21 10 22 12 23 11 24 21 25 22 26
REMARK SMILES IDX 23 27 24 29 25 30 26 31 78 32 27 33 77 34 28 35 29 36 30 37
REMARK SMILES IDX 71 38 31 39 76 40 70 41 72 42 32 43 75 44 69 45 68 46 33 48
REMARK SMILES IDX 59 49 42 50 58 51 43 52 46 53 57 54 73 55 44 56 45 57 56 59
REMARK SMILES IDX 74 60 47 61 34 62 35 63 40 64 36 65 37 66 39 67 41 68 38 69
REMARK SMILES IDX 60 70 61 71 66 72 62 73 63 74 65 75 67 76 64 77 48 78 49 79
REMARK SMILES IDX 54 80 50 81 51 82 53 83 55 84 52 85
REMARK H PARENT 18 6 3 11 15 18 15 19 22 28 72 47 46 58
REMARK Flexibility Score: inf
ROOT
ATOM      1  C   UNL A   1      38.174  19.623  25.004  1.00  0.00     0.042 C 
ENDROOT
BRANCH   1   2
ATOM      2  C   UNL A   1      37.364  20.844  24.612  1.00  0.00     0.117 C 
BRANCH   2   3
ATOM      3  N   UNL A   1      37.748  21.991  25.412  1.00  0.00    -0.354 N 
ATOM      4  C   UNL A   1      37.020  23.059  25.815  1.00  0.00     0.242 C 
ATOM      5  O   UNL A   1      37.637  24.051  26.212  1.00  0.00    -0.273 OA
ATOM      6  H   UNL A   1      38.686  21.992  25.708  1.00  0.00     0.163 HD
BRANCH   4   7
ATOM      7  C   UNL A   1      35.491  23.043  25.785  1.00  0.00     0.168 C 
ATOM      8  C   UNL A   1      34.897  24.275  25.096  1.00  0.00     0.041 C 
BRANCH   7   9
ATOM      9  N   UNL A   1      34.851  22.794  27.067  1.00  0.00    -0.339 N 
ATOM     10  C   UNL A   1      33.641  22.199  27.309  1.00  0.00     0.278 C 
ATOM     11  H   UNL A   1      35.351  23.091  27.863  1.00  0.00     0.164 HD
ATOM     12  O   UNL A   1      33.155  22.355  28.434  1.00  0.00    -0.268 OA
BRANCH  10  13
ATOM     13  C   UNL A   1      32.963  21.268  26.254  1.00  0.00     0.272 C 
ATOM     14  C   UNL A   1      32.046  21.984  25.237  1.00  0.00     0.076 C 
ATOM     15  N   UNL A   1      34.017  20.387  25.710  1.00  0.00    -0.333 N 
ATOM     16  C   UNL A   1      32.311  21.586  23.781  1.00  0.00     0.016 C 
ATOM     17  C   UNL A   1      33.695  19.640  24.495  1.00  0.00     0.186 C 
ATOM     18  H   UNL A   1      34.257  19.709  26.433  1.00  0.00     0.347 HD
ATOM     19  H   UNL A   1      34.776  21.015  25.442  1.00  0.00     0.347 HD
ATOM     20  C   UNL A   1      32.411  20.074  23.773  1.00  0.00     0.048 C 
ATOM     21  C   UNL A   1      33.604  18.131  24.757  1.00  0.00     0.065 C 
ATOM     22  C   UNL A   1      32.383  19.439  22.385  1.00  0.00     0.010 C 
ATOM     23  C   UNL A   1      33.417  17.360  23.441  1.00  0.00     0.006 C 
ATOM     24  C   UNL A   1      32.304  17.919  22.547  1.00  0.00     0.001 C 
ENDBRANCH  10  13
ENDBRANCH   7   9
ENDBRANCH   4   7
ENDBRANCH   2   3
ENDBRANCH   1   2
BRANCH   1  25
ATOM     25  C   UNL A   1      39.257  19.919  26.031  1.00  0.00     0.118 C 
BRANCH  25  26
ATOM     26  N   UNL A   1      40.351  18.958  25.988  1.00  0.00    -0.352 N 
ATOM     27  C   UNL A   1      41.706  19.183  26.052  1.00  0.00     0.251 C 
ATOM     28  H   UNL A   1      40.083  18.015  25.901  1.00  0.00     0.163 HD
ATOM     29  O   UNL A   1      42.498  18.293  25.795  1.00  0.00    -0.269 OA
BRANCH  27  30
ATOM     30  C   UNL A   1      42.179  20.532  26.416  1.00  0.00     0.039 A 
ATOM     31  C   UNL A   1      42.527  21.430  25.407  1.00  0.00     0.014 A 
ATOM     32  C   UNL A   1      42.230  20.913  27.760  1.00  0.00     0.014 A 
ATOM     33  C   UNL A   1      42.867  22.738  25.749  1.00  0.00     0.010 A 
ATOM     34  C   UNL A   1      42.453  22.240  28.085  1.00  0.00     0.010 A 
ATOM     35  C   UNL A   1      42.798  23.161  27.087  1.00  0.00    -0.014 A 
BRANCH  35  36
ATOM     36  C   UNL A   1      43.130  24.551  27.477  1.00  0.00     0.031 A 
ATOM     37  C   UNL A   1      44.569  24.989  27.499  1.00  0.00     0.074 A 
ATOM     38  C   UNL A   1      42.153  25.389  27.875  1.00  0.00     0.049 A 
ATOM     39  N   UNL A   1      45.081  26.131  27.882  1.00  0.00    -0.248 NA
ATOM     40  C   UNL A   1      45.571  23.999  27.068  1.00  0.00     0.031 C 
ATOM     41  C   UNL A   1      40.729  25.058  27.952  1.00  0.00     0.029 A 
ATOM     42  N   UNL A   1      42.215  26.693  28.295  1.00  0.00    -0.354 N 
ATOM     43  C   UNL A   1      46.456  25.985  27.760  1.00  0.00     0.074 A 
ATOM     44  C   UNL A   1      46.705  24.625  27.337  1.00  0.00     0.031 C 
ATOM     45  C   UNL A   1      40.048  26.141  28.362  1.00  0.00     0.029 A 
ATOM     46  C   UNL A   1      40.989  27.227  28.612  1.00  0.00     0.049 A 
ATOM     47  H   UNL A   1      43.057  27.198  28.363  1.00  0.00     0.167 HD
ATOM     48  C   UNL A   1      47.426  26.910  27.949  1.00  0.00     0.037 A 
ATOM     49  C   UNL A   1      40.667  28.456  29.058  1.00  0.00     0.037 A 
ATOM     50  C   UNL A   1      47.167  28.270  28.334  1.00  0.00     0.049 A 
ATOM     51  C   UNL A   1      41.761  29.469  29.255  1.00  0.00     0.074 A 
ATOM     52  C   UNL A   1      48.069  29.307  28.490  1.00  0.00     0.029 A 
ATOM     53  N   UNL A   1      45.911  28.782  28.620  1.00  0.00    -0.354 N 
ATOM     54  N   UNL A   1      43.052  29.341  29.063  1.00  0.00    -0.248 NA
ATOM     55  C   UNL A   1      41.353  30.801  29.720  1.00  0.00     0.031 C 
ATOM     56  C   UNL A   1      47.362  30.436  28.915  1.00  0.00     0.029 A 
ATOM     57  C   UNL A   1      46.014  30.116  28.972  1.00  0.00     0.049 A 
ATOM     58  H   UNL A   1      45.070  28.271  28.579  1.00  0.00     0.167 HD
ATOM     59  C   UNL A   1      43.606  30.580  29.355  1.00  0.00     0.074 A 
ATOM     60  C   UNL A   1      42.507  31.451  29.722  1.00  0.00     0.031 C 
ATOM     61  C   UNL A   1      44.905  30.966  29.323  1.00  0.00     0.037 A 
BRANCH  48  62
ATOM     62  C   UNL A   1      48.846  26.477  27.730  1.00  0.00     0.057 A 
ATOM     63  C   UNL A   1      49.646  26.001  28.779  1.00  0.00     0.134 A 
ATOM     64  C   UNL A   1      49.418  26.520  26.452  1.00  0.00     0.134 A 
ATOM     65  F   UNL A   1      49.166  25.949  30.030  1.00  0.00    -0.206 F 
ATOM     66  C   UNL A   1      50.971  25.613  28.570  1.00  0.00     0.040 A 
ATOM     67  C   UNL A   1      50.732  26.106  26.226  1.00  0.00     0.040 A 
ATOM     68  F   UNL A   1      48.709  26.962  25.403  1.00  0.00    -0.206 F 
ATOM     69  C   UNL A   1      51.514  25.658  27.289  1.00  0.00     0.006 A 
ENDBRANCH  48  62
BRANCH  49  70
ATOM     70  C   UNL A   1      39.248  28.807  29.318  1.00  0.00     0.057 A 
ATOM     71  C   UNL A   1      38.449  29.370  28.316  1.00  0.00     0.134 A 
ATOM     72  C   UNL A   1      38.658  28.599  30.571  1.00  0.00     0.134 A 
ATOM     73  F   UNL A   1      38.962  29.608  27.100  1.00  0.00    -0.206 F 
ATOM     74  C   UNL A   1      37.123  29.735  28.555  1.00  0.00     0.040 A 
ATOM     75  C   UNL A   1      37.326  28.934  30.816  1.00  0.00     0.040 A 
ATOM     76  F   UNL A   1      39.366  28.053  31.571  1.00  0.00    -0.206 F 
ATOM     77  C   UNL A   1      36.557  29.513  29.809  1.00  0.00     0.006 A 
ENDBRANCH  49  70
BRANCH  61  78
ATOM     78  C   UNL A   1      45.204  32.399  29.654  1.00  0.00     0.057 A 
ATOM     79  C   UNL A   1      45.540  32.805  30.951  1.00  0.00     0.134 A 
ATOM     80  C   UNL A   1      45.200  33.374  28.649  1.00  0.00     0.134 A 
ATOM     81  F   UNL A   1      45.549  31.921  31.960  1.00  0.00    -0.206 F 
ATOM     82  C   UNL A   1      45.837  34.137  31.243  1.00  0.00     0.040 A 
ATOM     83  C   UNL A   1      45.524  34.703  28.922  1.00  0.00     0.040 A 
ATOM     84  F   UNL A   1      44.898  33.049  27.383  1.00  0.00    -0.206 F 
ATOM     85  C   UNL A   1      45.838  35.089  30.224  1.00  0.00     0.006 A 
ENDBRANCH  61  78
ENDBRANCH  35  36
ENDBRANCH  27  30
ENDBRANCH  25  26
ENDBRANCH   1  25
TORSDOF 12
ENDMDL
