MODEL 1
REMARK VINA RESULT:     -10.8      0.000      0.000
REMARK SMILES COc1ccc(N2C[C@@H](C)Cn3c2nc2c3c(=O)n(CC(=O)NCCCNC(=O)c3ccc(-c4c5nc(c(-c6c(F)cccc6F)c6ccc([nH]6)c(-c6c(F)cccc6F)c6nc(c(-c7c(F)cccc7F)c7ccc4[nH]7)C=C6)C=C5)cc3)c(=O)n2C)cc1
REMARK SMILES IDX 24 1 23 2 21 3 22 4 20 6 19 7 7 8 8 9 13 10 9 11 12 12 14 13
REMARK SMILES IDX 11 14 10 15 16 16 15 17 17 18 86 19 18 20 84 21 87 22 85 23
REMARK SMILES IDX 6 24 3 25 4 26 89 27 5 28 88 29 2 30 1 31 25 32 26 33 27 34
REMARK SMILES IDX 28 35 29 37 30 38 31 39 83 40 32 41 82 42 33 43 34 44 35 45
REMARK SMILES IDX 76 46 36 47 81 48 75 49 77 50 37 51 80 52 74 53 73 54 38 56
REMARK SMILES IDX 64 57 47 58 63 59 48 60 51 61 62 62 78 63 49 64 50 65 61 67
REMARK SMILES IDX 79 68 52 69 39 70 40 71 45 72 41 73 42 74 44 75 46 76 43 77
REMARK SMILES IDX 65 78 66 79 71 80 67 81 68 82 70 83 72 84 69 85 53 86 54 87
REMARK SMILES IDX 59 88 55 89 56 90 58 91 60 92 57 93
REMARK H PARENT 23 5 27 36 77 55 51 66
REMARK Flexibility Score: inf
ROOT
ATOM      1  C   UNL A   1      44.581  27.186  36.181  1.00  0.00     0.117 C 
ENDROOT
BRANCH   1   2
ATOM      2  N   UNL A   1      43.478  27.005  35.255  1.00  0.00    -0.354 N 
ATOM      3  C   UNL A   1      42.824  27.918  34.477  1.00  0.00     0.240 C 
ATOM      4  O   UNL A   1      42.185  27.474  33.518  1.00  0.00    -0.273 OA
ATOM      5  H   UNL A   1      43.151  26.080  35.175  1.00  0.00     0.163 HD
BRANCH   3   6
ATOM      6  C   UNL A   1      42.973  29.432  34.680  1.00  0.00     0.230 C 
BRANCH   6   7
ATOM      7  N   UNL A   1      41.735  30.171  34.463  1.00  0.00    -0.249 N 
ATOM      8  N   UNL A   1      38.162  33.862  31.753  1.00  0.00    -0.312 N 
ATOM      9  C   UNL A   1      38.968  34.730  30.881  1.00  0.00     0.131 C 
ATOM     10  C   UNL A   1      38.799  32.997  32.589  1.00  0.00     0.212 A 
ATOM     11  C   UNL A   1      40.036  33.884  30.183  1.00  0.00     0.026 C 
ATOM     12  N   UNL A   1      40.125  32.693  32.343  1.00  0.00    -0.304 N 
ATOM     13  N   UNL A   1      38.358  32.290  33.618  1.00  0.00    -0.194 NA
ATOM     14  C   UNL A   1      40.912  33.230  31.250  1.00  0.00     0.131 C 
ATOM     15  C   UNL A   1      40.875  34.709  29.211  1.00  0.00     0.011 C 
ATOM     16  C   UNL A   1      40.532  31.788  33.271  1.00  0.00     0.154 A 
ATOM     17  C   UNL A   1      39.431  31.551  34.032  1.00  0.00     0.170 A 
ATOM     18  C   UNL A   1      41.779  31.157  33.481  1.00  0.00     0.283 A 
ATOM     19  N   UNL A   1      39.473  30.660  35.080  1.00  0.00    -0.279 N 
ATOM     20  O   UNL A   1      42.793  31.458  32.848  1.00  0.00    -0.267 OA
ATOM     21  C   UNL A   1      40.655  29.958  35.338  1.00  0.00     0.332 A 
ATOM     22  C   UNL A   1      38.301  30.453  35.911  1.00  0.00     0.157 C 
ATOM     23  O   UNL A   1      40.750  29.178  36.290  1.00  0.00    -0.247 OA
BRANCH   8  24
ATOM     24  C   UNL A   1      36.781  34.122  31.743  1.00  0.00     0.044 A 
ATOM     25  C   UNL A   1      34.027  34.741  31.566  1.00  0.00     0.119 A 
ATOM     26  C   UNL A   1      34.611  33.868  30.653  1.00  0.00     0.048 A 
ATOM     27  C   UNL A   1      34.805  35.273  32.595  1.00  0.00     0.048 A 
ATOM     28  C   UNL A   1      35.973  33.571  30.735  1.00  0.00     0.030 A 
ATOM     29  C   UNL A   1      36.169  34.952  32.689  1.00  0.00     0.030 A 
BRANCH  25  30
ATOM     30  O   UNL A   1      32.689  34.957  31.382  1.00  0.00    -0.497 OA
ATOM     31  C   UNL A   1      32.122  36.027  32.129  1.00  0.00     0.278 C 
ENDBRANCH  25  30
ENDBRANCH   8  24
ENDBRANCH   6   7
ENDBRANCH   3   6
ENDBRANCH   1   2
BRANCH   1  32
ATOM     32  C   UNL A   1      44.865  25.948  37.044  1.00  0.00     0.042 C 
BRANCH  32  33
ATOM     33  C   UNL A   1      43.898  24.760  36.843  1.00  0.00     0.118 C 
BRANCH  33  34
ATOM     34  N   UNL A   1      44.605  23.569  36.394  1.00  0.00    -0.352 N 
ATOM     35  C   UNL A   1      45.033  23.114  35.175  1.00  0.00     0.251 C 
ATOM     36  H   UNL A   1      44.826  22.954  37.130  1.00  0.00     0.163 HD
ATOM     37  O   UNL A   1      45.390  21.935  35.123  1.00  0.00    -0.269 OA
BRANCH  35  38
ATOM     38  C   UNL A   1      45.115  23.920  33.929  1.00  0.00     0.039 A 
ATOM     39  C   UNL A   1      46.189  24.824  33.829  1.00  0.00     0.014 A 
ATOM     40  C   UNL A   1      44.110  23.968  32.963  1.00  0.00     0.014 A 
ATOM     41  C   UNL A   1      46.277  25.740  32.774  1.00  0.00     0.010 A 
ATOM     42  C   UNL A   1      44.200  24.892  31.901  1.00  0.00     0.010 A 
ATOM     43  C   UNL A   1      45.289  25.778  31.785  1.00  0.00    -0.014 A 
BRANCH  43  44
ATOM     44  C   UNL A   1      45.542  26.593  30.566  1.00  0.00     0.031 A 
ATOM     45  C   UNL A   1      45.483  25.824  29.290  1.00  0.00     0.074 A 
ATOM     46  C   UNL A   1      45.410  27.936  30.462  1.00  0.00     0.049 A 
ATOM     47  N   UNL A   1      44.357  25.573  28.689  1.00  0.00    -0.248 NA
ATOM     48  C   UNL A   1      46.622  25.083  28.752  1.00  0.00     0.031 C 
ATOM     49  C   UNL A   1      44.463  28.731  31.249  1.00  0.00     0.029 A 
ATOM     50  N   UNL A   1      45.873  28.819  29.502  1.00  0.00    -0.354 N 
ATOM     51  C   UNL A   1      44.604  24.592  27.752  1.00  0.00     0.074 A 
ATOM     52  C   UNL A   1      46.028  24.337  27.804  1.00  0.00     0.031 C 
ATOM     53  C   UNL A   1      44.281  29.919  30.632  1.00  0.00     0.029 A 
ATOM     54  C   UNL A   1      45.210  30.048  29.506  1.00  0.00     0.049 A 
ATOM     55  H   UNL A   1      46.601  28.601  28.875  1.00  0.00     0.167 HD
ATOM     56  C   UNL A   1      43.613  24.029  27.012  1.00  0.00     0.037 A 
ATOM     57  C   UNL A   1      44.959  30.816  28.407  1.00  0.00     0.037 A 
ATOM     58  C   UNL A   1      42.292  24.525  27.259  1.00  0.00     0.049 A 
ATOM     59  C   UNL A   1      44.009  29.939  27.637  1.00  0.00     0.074 A 
ATOM     60  C   UNL A   1      41.211  24.186  28.045  1.00  0.00     0.029 A 
ATOM     61  N   UNL A   1      41.910  25.689  26.635  1.00  0.00    -0.354 N 
ATOM     62  N   UNL A   1      42.736  29.781  27.869  1.00  0.00    -0.248 NA
ATOM     63  C   UNL A   1      44.601  28.941  26.743  1.00  0.00     0.031 C 
ATOM     64  C   UNL A   1      40.463  25.397  28.209  1.00  0.00     0.029 A 
ATOM     65  C   UNL A   1      41.173  26.398  27.549  1.00  0.00     0.049 A 
ATOM     66  H   UNL A   1      42.123  25.959  25.712  1.00  0.00     0.167 HD
ATOM     67  C   UNL A   1      42.425  28.518  27.367  1.00  0.00     0.074 A 
ATOM     68  C   UNL A   1      43.606  28.072  26.654  1.00  0.00     0.031 C 
ATOM     69  C   UNL A   1      41.302  27.826  27.717  1.00  0.00     0.037 A 
BRANCH  56  70
ATOM     70  C   UNL A   1      43.813  23.053  25.929  1.00  0.00     0.057 A 
ATOM     71  C   UNL A   1      43.554  21.703  26.199  1.00  0.00     0.134 A 
ATOM     72  C   UNL A   1      44.472  23.371  24.742  1.00  0.00     0.134 A 
ATOM     73  F   UNL A   1      42.927  21.352  27.335  1.00  0.00    -0.206 F 
ATOM     74  C   UNL A   1      43.985  20.692  25.345  1.00  0.00     0.040 A 
ATOM     75  C   UNL A   1      44.903  22.366  23.871  1.00  0.00     0.040 A 
ATOM     76  F   UNL A   1      44.757  24.645  24.438  1.00  0.00    -0.206 F 
ATOM     77  C   UNL A   1      44.677  21.024  24.184  1.00  0.00     0.006 A 
ENDBRANCH  56  70
BRANCH  57  78
ATOM     78  C   UNL A   1      46.104  31.504  27.723  1.00  0.00     0.057 A 
ATOM     79  C   UNL A   1      45.932  32.800  27.203  1.00  0.00     0.134 A 
ATOM     80  C   UNL A   1      47.365  30.929  27.491  1.00  0.00     0.134 A 
ATOM     81  F   UNL A   1      44.730  33.394  27.241  1.00  0.00    -0.206 F 
ATOM     82  C   UNL A   1      46.978  33.519  26.612  1.00  0.00     0.040 A 
ATOM     83  C   UNL A   1      48.430  31.645  26.930  1.00  0.00     0.040 A 
ATOM     84  F   UNL A   1      47.614  29.648  27.801  1.00  0.00    -0.206 F 
ATOM     85  C   UNL A   1      48.243  32.954  26.504  1.00  0.00     0.006 A 
ENDBRANCH  57  78
BRANCH  69  86
ATOM     86  C   UNL A   1      40.328  28.577  28.560  1.00  0.00     0.057 A 
ATOM     87  C   UNL A   1      39.304  29.326  27.973  1.00  0.00     0.134 A 
ATOM     88  C   UNL A   1      40.394  28.556  29.960  1.00  0.00     0.134 A 
ATOM     89  F   UNL A   1      39.183  29.385  26.636  1.00  0.00    -0.206 F 
ATOM     90  C   UNL A   1      38.370  30.015  28.748  1.00  0.00     0.040 A 
ATOM     91  C   UNL A   1      39.450  29.221  30.745  1.00  0.00     0.040 A 
ATOM     92  F   UNL A   1      41.363  27.879  30.596  1.00  0.00    -0.206 F 
ATOM     93  C   UNL A   1      38.435  29.955  30.139  1.00  0.00     0.006 A 
ENDBRANCH  69  86
ENDBRANCH  43  44
ENDBRANCH  35  38
ENDBRANCH  33  34
ENDBRANCH  32  33
ENDBRANCH   1  32
TORSDOF 13
ENDMDL
MODEL 2
REMARK VINA RESULT:     -10.5      7.368     14.363
REMARK SMILES COc1ccc(N2C[C@@H](C)Cn3c2nc2c3c(=O)n(CC(=O)NCCCNC(=O)c3ccc(-c4c5nc(c(-c6c(F)cccc6F)c6ccc([nH]6)c(-c6c(F)cccc6F)c6nc(c(-c7c(F)cccc7F)c7ccc4[nH]7)C=C6)C=C5)cc3)c(=O)n2C)cc1
REMARK SMILES IDX 24 1 23 2 21 3 22 4 20 6 19 7 7 8 8 9 13 10 9 11 12 12 14 13
REMARK SMILES IDX 11 14 10 15 16 16 15 17 17 18 86 19 18 20 84 21 87 22 85 23
REMARK SMILES IDX 6 24 3 25 4 26 89 27 5 28 88 29 2 30 1 31 25 32 26 33 27 34
REMARK SMILES IDX 28 35 29 37 30 38 31 39 83 40 32 41 82 42 33 43 34 44 35 45
REMARK SMILES IDX 76 46 36 47 81 48 75 49 77 50 37 51 80 52 74 53 73 54 38 56
REMARK SMILES IDX 64 57 47 58 63 59 48 60 51 61 62 62 78 63 49 64 50 65 61 67
REMARK SMILES IDX 79 68 52 69 39 70 40 71 45 72 41 73 42 74 44 75 46 76 43 77
REMARK SMILES IDX 65 78 66 79 71 80 67 81 68 82 70 83 72 84 69 85 53 86 54 87
REMARK SMILES IDX 59 88 55 89 56 90 58 91 60 92 57 93
REMARK H PARENT 23 5 27 36 77 55 51 66
REMARK Flexibility Score: inf
ROOT
ATOM      1  C   UNL A   1      45.852  30.136  27.107  1.00  0.00     0.117 C 
ENDROOT
BRANCH   1   2
ATOM      2  N   UNL A   1      46.251  29.694  25.783  1.00  0.00    -0.354 N 
ATOM      3  C   UNL A   1      46.431  28.430  25.296  1.00  0.00     0.240 C 
ATOM      4  O   UNL A   1      46.407  28.300  24.068  1.00  0.00    -0.273 OA
ATOM      5  H   UNL A   1      46.417  30.417  25.136  1.00  0.00     0.163 HD
BRANCH   3   6
ATOM      6  C   UNL A   1      46.521  27.199  26.208  1.00  0.00     0.230 C 
BRANCH   6   7
ATOM      7  N   UNL A   1      45.371  26.310  26.097  1.00  0.00    -0.249 N 
ATOM      8  N   UNL A   1      39.969  24.462  27.163  1.00  0.00    -0.312 N 
ATOM      9  C   UNL A   1      39.488  25.120  28.386  1.00  0.00     0.131 C 
ATOM     10  C   UNL A   1      41.264  24.643  26.784  1.00  0.00     0.212 A 
ATOM     11  C   UNL A   1      39.914  26.591  28.364  1.00  0.00     0.026 C 
ATOM     12  N   UNL A   1      41.969  25.701  27.326  1.00  0.00    -0.304 N 
ATOM     13  N   UNL A   1      42.013  24.011  25.895  1.00  0.00    -0.194 NA
ATOM     14  C   UNL A   1      41.439  26.653  28.283  1.00  0.00     0.131 C 
ATOM     15  C   UNL A   1      39.395  27.356  29.578  1.00  0.00     0.011 C 
ATOM     16  C   UNL A   1      43.212  25.709  26.776  1.00  0.00     0.154 A 
ATOM     17  C   UNL A   1      43.210  24.671  25.897  1.00  0.00     0.170 A 
ATOM     18  C   UNL A   1      44.323  26.559  26.979  1.00  0.00     0.283 A 
ATOM     19  N   UNL A   1      44.321  24.382  25.140  1.00  0.00    -0.279 N 
ATOM     20  O   UNL A   1      44.344  27.429  27.851  1.00  0.00    -0.267 OA
ATOM     21  C   UNL A   1      45.454  25.195  25.244  1.00  0.00     0.332 A 
ATOM     22  C   UNL A   1      44.316  23.243  24.240  1.00  0.00     0.157 C 
ATOM     23  O   UNL A   1      46.487  24.951  24.613  1.00  0.00    -0.247 OA
BRANCH   8  24
ATOM     24  C   UNL A   1      39.061  23.568  26.569  1.00  0.00     0.044 A 
ATOM     25  C   UNL A   1      37.353  21.754  25.230  1.00  0.00     0.119 A 
ATOM     26  C   UNL A   1      38.566  21.319  25.756  1.00  0.00     0.048 A 
ATOM     27  C   UNL A   1      36.970  23.084  25.409  1.00  0.00     0.048 A 
ATOM     28  C   UNL A   1      39.414  22.218  26.408  1.00  0.00     0.030 A 
ATOM     29  C   UNL A   1      37.813  23.978  26.087  1.00  0.00     0.030 A 
BRANCH  25  30
ATOM     30  O   UNL A   1      36.613  20.784  24.613  1.00  0.00    -0.497 OA
ATOM     31  C   UNL A   1      35.277  20.631  25.076  1.00  0.00     0.278 C 
ENDBRANCH  25  30
ENDBRANCH   8  24
ENDBRANCH   6   7
ENDBRANCH   3   6
ENDBRANCH   1   2
BRANCH   1  32
ATOM     32  C   UNL A   1      44.693  31.143  27.091  1.00  0.00     0.042 C 
BRANCH  32  33
ATOM     33  C   UNL A   1      44.813  32.315  28.091  1.00  0.00     0.118 C 
BRANCH  33  34
ATOM     34  N   UNL A   1      43.575  32.509  28.834  1.00  0.00    -0.352 N 
ATOM     35  C   UNL A   1      42.912  33.606  29.317  1.00  0.00     0.251 C 
ATOM     36  H   UNL A   1      43.112  31.664  29.033  1.00  0.00     0.163 HD
ATOM     37  O   UNL A   1      42.002  33.388  30.120  1.00  0.00    -0.269 OA
BRANCH  35  38
ATOM     38  C   UNL A   1      43.187  35.018  28.944  1.00  0.00     0.039 A 
ATOM     39  C   UNL A   1      42.500  35.523  27.824  1.00  0.00     0.014 A 
ATOM     40  C   UNL A   1      44.200  35.791  29.510  1.00  0.00     0.014 A 
ATOM     41  C   UNL A   1      42.795  36.784  27.293  1.00  0.00     0.010 A 
ATOM     42  C   UNL A   1      44.497  37.061  28.973  1.00  0.00     0.010 A 
ATOM     43  C   UNL A   1      43.791  37.579  27.869  1.00  0.00    -0.014 A 
BRANCH  43  44
ATOM     44  C   UNL A   1      43.907  38.995  27.427  1.00  0.00     0.031 A 
ATOM     45  C   UNL A   1      43.433  39.993  28.429  1.00  0.00     0.074 A 
ATOM     46  C   UNL A   1      44.727  39.465  26.458  1.00  0.00     0.049 A 
ATOM     47  N   UNL A   1      44.191  40.405  29.401  1.00  0.00    -0.248 NA
ATOM     48  C   UNL A   1      42.032  40.387  28.560  1.00  0.00     0.031 C 
ATOM     49  C   UNL A   1      46.017  38.862  26.112  1.00  0.00     0.029 A 
ATOM     50  N   UNL A   1      44.725  40.669  25.776  1.00  0.00    -0.354 N 
ATOM     51  C   UNL A   1      43.377  41.043  30.314  1.00  0.00     0.074 A 
ATOM     52  C   UNL A   1      42.048  41.034  29.738  1.00  0.00     0.031 C 
ATOM     53  C   UNL A   1      46.751  39.773  25.437  1.00  0.00     0.029 A 
ATOM     54  C   UNL A   1      45.940  40.960  25.153  1.00  0.00     0.049 A 
ATOM     55  H   UNL A   1      43.942  41.264  25.735  1.00  0.00     0.167 HD
ATOM     56  C   UNL A   1      43.843  41.511  31.501  1.00  0.00     0.037 A 
ATOM     57  C   UNL A   1      46.466  42.207  24.984  1.00  0.00     0.037 A 
ATOM     58  C   UNL A   1      45.241  41.310  31.745  1.00  0.00     0.049 A 
ATOM     59  C   UNL A   1      46.726  42.619  26.408  1.00  0.00     0.074 A 
ATOM     60  C   UNL A   1      46.037  40.376  32.373  1.00  0.00     0.029 A 
ATOM     61  N   UNL A   1      46.129  42.205  31.198  1.00  0.00    -0.354 N 
ATOM     62  N   UNL A   1      47.732  42.251  27.151  1.00  0.00    -0.248 NA
ATOM     63  C   UNL A   1      45.617  43.238  27.136  1.00  0.00     0.031 C 
ATOM     64  C   UNL A   1      47.327  40.503  31.764  1.00  0.00     0.029 A 
ATOM     65  C   UNL A   1      47.208  41.473  30.772  1.00  0.00     0.049 A 
ATOM     66  H   UNL A   1      46.014  43.181  31.128  1.00  0.00     0.167 HD
ATOM     67  C   UNL A   1      47.274  42.348  28.465  1.00  0.00     0.074 A 
ATOM     68  C   UNL A   1      45.980  42.997  28.386  1.00  0.00     0.031 C 
ATOM     69  C   UNL A   1      47.878  41.728  29.519  1.00  0.00     0.037 A 
BRANCH  56  70
ATOM     70  C   UNL A   1      43.057  42.286  32.474  1.00  0.00     0.057 A 
ATOM     71  C   UNL A   1      42.788  43.630  32.185  1.00  0.00     0.134 A 
ATOM     72  C   UNL A   1      42.785  41.823  33.760  1.00  0.00     0.134 A 
ATOM     73  F   UNL A   1      43.041  44.120  30.959  1.00  0.00    -0.206 F 
ATOM     74  C   UNL A   1      42.315  44.505  33.159  1.00  0.00     0.040 A 
ATOM     75  C   UNL A   1      42.302  42.689  34.745  1.00  0.00     0.040 A 
ATOM     76  F   UNL A   1      43.036  40.550  34.096  1.00  0.00    -0.206 F 
ATOM     77  C   UNL A   1      42.085  44.037  34.449  1.00  0.00     0.006 A 
ENDBRANCH  56  70
BRANCH  57  78
ATOM     78  C   UNL A   1      45.811  43.148  24.015  1.00  0.00     0.057 A 
ATOM     79  C   UNL A   1      46.584  43.784  23.027  1.00  0.00     0.134 A 
ATOM     80  C   UNL A   1      44.454  43.513  24.040  1.00  0.00     0.134 A 
ATOM     81  F   UNL A   1      47.915  43.621  22.995  1.00  0.00    -0.206 F 
ATOM     82  C   UNL A   1      46.023  44.621  22.054  1.00  0.00     0.040 A 
ATOM     83  C   UNL A   1      43.872  44.322  23.057  1.00  0.00     0.040 A 
ATOM     84  F   UNL A   1      43.639  43.096  25.020  1.00  0.00    -0.206 F 
ATOM     85  C   UNL A   1      44.655  44.866  22.046  1.00  0.00     0.006 A 
ENDBRANCH  57  78
BRANCH  69  86
ATOM     86  C   UNL A   1      49.172  41.056  29.207  1.00  0.00     0.057 A 
ATOM     87  C   UNL A   1      50.386  41.725  29.393  1.00  0.00     0.134 A 
ATOM     88  C   UNL A   1      49.225  39.741  28.727  1.00  0.00     0.134 A 
ATOM     89  F   UNL A   1      50.407  42.986  29.854  1.00  0.00    -0.206 F 
ATOM     90  C   UNL A   1      51.608  41.103  29.128  1.00  0.00     0.040 A 
ATOM     91  C   UNL A   1      50.441  39.101  28.482  1.00  0.00     0.040 A 
ATOM     92  F   UNL A   1      48.101  39.043  28.500  1.00  0.00    -0.206 F 
ATOM     93  C   UNL A   1      51.638  39.783  28.682  1.00  0.00     0.006 A 
ENDBRANCH  69  86
ENDBRANCH  43  44
ENDBRANCH  35  38
ENDBRANCH  33  34
ENDBRANCH  32  33
ENDBRANCH   1  32
TORSDOF 13
ENDMDL
MODEL 3
REMARK VINA RESULT:     -10.3      8.139     13.272
REMARK SMILES COc1ccc(N2C[C@@H](C)Cn3c2nc2c3c(=O)n(CC(=O)NCCCNC(=O)c3ccc(-c4c5nc(c(-c6c(F)cccc6F)c6ccc([nH]6)c(-c6c(F)cccc6F)c6nc(c(-c7c(F)cccc7F)c7ccc4[nH]7)C=C6)C=C5)cc3)c(=O)n2C)cc1
REMARK SMILES IDX 24 1 23 2 21 3 22 4 20 6 19 7 7 8 8 9 13 10 9 11 12 12 14 13
REMARK SMILES IDX 11 14 10 15 16 16 15 17 17 18 86 19 18 20 84 21 87 22 85 23
REMARK SMILES IDX 6 24 3 25 4 26 89 27 5 28 88 29 2 30 1 31 25 32 26 33 27 34
REMARK SMILES IDX 28 35 29 37 30 38 31 39 83 40 32 41 82 42 33 43 34 44 35 45
REMARK SMILES IDX 76 46 36 47 81 48 75 49 77 50 37 51 80 52 74 53 73 54 38 56
REMARK SMILES IDX 64 57 47 58 63 59 48 60 51 61 62 62 78 63 49 64 50 65 61 67
REMARK SMILES IDX 79 68 52 69 39 70 40 71 45 72 41 73 42 74 44 75 46 76 43 77
REMARK SMILES IDX 65 78 66 79 71 80 67 81 68 82 70 83 72 84 69 85 53 86 54 87
REMARK SMILES IDX 59 88 55 89 56 90 58 91 60 92 57 93
REMARK H PARENT 23 5 27 36 77 55 51 66
REMARK Flexibility Score: inf
ROOT
ATOM      1  C   UNL A   1      44.218  40.031  28.990  1.00  0.00     0.117 C 
ENDROOT
BRANCH   1   2
ATOM      2  N   UNL A   1      44.805  41.307  28.625  1.00  0.00    -0.354 N 
ATOM      3  C   UNL A   1      45.040  41.846  27.392  1.00  0.00     0.240 C 
ATOM      4  O   UNL A   1      45.200  43.070  27.343  1.00  0.00    -0.273 OA
ATOM      5  H   UNL A   1      45.076  41.872  29.385  1.00  0.00     0.163 HD
BRANCH   3   6
ATOM      6  C   UNL A   1      44.976  41.015  26.103  1.00  0.00     0.230 C 
BRANCH   6   7
ATOM      7  N   UNL A   1      44.520  41.776  24.946  1.00  0.00    -0.249 N 
ATOM      8  N   UNL A   1      45.094  44.799  20.019  1.00  0.00    -0.312 N 
ATOM      9  C   UNL A   1      46.486  45.262  19.921  1.00  0.00     0.131 C 
ATOM     10  C   UNL A   1      44.688  44.174  21.159  1.00  0.00     0.212 A 
ATOM     11  C   UNL A   1      47.422  44.133  20.361  1.00  0.00     0.026 C 
ATOM     12  N   UNL A   1      45.649  43.671  22.015  1.00  0.00    -0.304 N 
ATOM     13  N   UNL A   1      43.480  43.872  21.609  1.00  0.00    -0.194 NA
ATOM     14  C   UNL A   1      47.081  43.754  21.802  1.00  0.00     0.131 C 
ATOM     15  C   UNL A   1      48.891  44.522  20.226  1.00  0.00     0.011 C 
ATOM     16  C   UNL A   1      45.016  43.061  23.051  1.00  0.00     0.154 A 
ATOM     17  C   UNL A   1      43.691  43.189  22.774  1.00  0.00     0.170 A 
ATOM     18  C   UNL A   1      45.515  42.398  24.196  1.00  0.00     0.283 A 
ATOM     19  N   UNL A   1      42.737  42.669  23.618  1.00  0.00    -0.279 N 
ATOM     20  O   UNL A   1      46.712  42.379  24.485  1.00  0.00    -0.267 OA
ATOM     21  C   UNL A   1      43.139  41.961  24.755  1.00  0.00     0.332 A 
ATOM     22  C   UNL A   1      41.326  42.856  23.330  1.00  0.00     0.157 C 
ATOM     23  O   UNL A   1      42.319  41.511  25.561  1.00  0.00    -0.247 OA
BRANCH   8  24
ATOM     24  C   UNL A   1      44.258  45.187  18.958  1.00  0.00     0.044 A 
ATOM     25  C   UNL A   1      42.463  46.046  16.948  1.00  0.00     0.119 A 
ATOM     26  C   UNL A   1      43.224  46.974  17.653  1.00  0.00     0.048 A 
ATOM     27  C   UNL A   1      42.627  44.686  17.214  1.00  0.00     0.048 A 
ATOM     28  C   UNL A   1      44.103  46.549  18.653  1.00  0.00     0.030 A 
ATOM     29  C   UNL A   1      43.530  44.262  18.201  1.00  0.00     0.030 A 
BRANCH  25  30
ATOM     30  O   UNL A   1      41.638  46.582  15.999  1.00  0.00    -0.497 OA
ATOM     31  C   UNL A   1      41.525  48.000  16.001  1.00  0.00     0.278 C 
ENDBRANCH  25  30
ENDBRANCH   8  24
ENDBRANCH   6   7
ENDBRANCH   3   6
ENDBRANCH   1   2
BRANCH   1  32
ATOM     32  C   UNL A   1      42.709  40.109  29.263  1.00  0.00     0.042 C 
BRANCH  32  33
ATOM     33  C   UNL A   1      41.802  39.465  28.191  1.00  0.00     0.118 C 
BRANCH  33  34
ATOM     34  N   UNL A   1      42.570  38.633  27.275  1.00  0.00    -0.352 N 
ATOM     35  C   UNL A   1      43.051  37.351  27.323  1.00  0.00     0.251 C 
ATOM     36  H   UNL A   1      42.794  39.094  26.435  1.00  0.00     0.163 HD
ATOM     37  O   UNL A   1      43.879  37.043  26.462  1.00  0.00    -0.269 OA
BRANCH  35  38
ATOM     38  C   UNL A   1      42.648  36.311  28.305  1.00  0.00     0.039 A 
ATOM     39  C   UNL A   1      43.642  35.861  29.194  1.00  0.00     0.014 A 
ATOM     40  C   UNL A   1      41.428  35.638  28.273  1.00  0.00     0.014 A 
ATOM     41  C   UNL A   1      43.419  34.779  30.054  1.00  0.00     0.010 A 
ATOM     42  C   UNL A   1      41.204  34.548  29.139  1.00  0.00     0.010 A 
ATOM     43  C   UNL A   1      42.189  34.114  30.049  1.00  0.00    -0.014 A 
BRANCH  43  44
ATOM     44  C   UNL A   1      41.911  33.135  31.135  1.00  0.00     0.031 A 
ATOM     45  C   UNL A   1      40.519  33.182  31.665  1.00  0.00     0.074 A 
ATOM     46  C   UNL A   1      42.608  32.002  31.385  1.00  0.00     0.049 A 
ATOM     47  N   UNL A   1      39.538  32.562  31.079  1.00  0.00    -0.248 NA
ATOM     48  C   UNL A   1      40.094  34.114  32.708  1.00  0.00     0.031 C 
ATOM     49  C   UNL A   1      43.311  31.228  30.358  1.00  0.00     0.029 A 
ATOM     50  N   UNL A   1      42.632  31.182  32.500  1.00  0.00    -0.354 N 
ATOM     51  C   UNL A   1      38.365  33.062  31.604  1.00  0.00     0.074 A 
ATOM     52  C   UNL A   1      38.757  34.003  32.633  1.00  0.00     0.031 C 
ATOM     53  C   UNL A   1      43.533  29.983  30.834  1.00  0.00     0.029 A 
ATOM     54  C   UNL A   1      43.146  29.909  32.246  1.00  0.00     0.049 A 
ATOM     55  H   UNL A   1      42.316  31.468  33.387  1.00  0.00     0.167 HD
ATOM     56  C   UNL A   1      37.144  32.693  31.137  1.00  0.00     0.037 A 
ATOM     57  C   UNL A   1      42.745  28.756  32.856  1.00  0.00     0.037 A 
ATOM     58  C   UNL A   1      37.149  31.740  30.066  1.00  0.00     0.049 A 
ATOM     59  C   UNL A   1      41.326  28.635  32.371  1.00  0.00     0.074 A 
ATOM     60  C   UNL A   1      37.112  31.761  28.688  1.00  0.00     0.029 A 
ATOM     61  N   UNL A   1      37.278  30.409  30.384  1.00  0.00    -0.354 N 
ATOM     62  N   UNL A   1      40.939  28.200  31.204  1.00  0.00    -0.248 NA
ATOM     63  C   UNL A   1      40.298  29.341  33.137  1.00  0.00     0.031 C 
ATOM     64  C   UNL A   1      37.698  30.523  28.271  1.00  0.00     0.029 A 
ATOM     65  C   UNL A   1      38.094  29.857  29.429  1.00  0.00     0.049 A 
ATOM     66  H   UNL A   1      36.866  29.943  31.148  1.00  0.00     0.167 HD
ATOM     67  C   UNL A   1      39.703  28.805  30.978  1.00  0.00     0.074 A 
ATOM     68  C   UNL A   1      39.350  29.462  32.221  1.00  0.00     0.031 C 
ATOM     69  C   UNL A   1      39.129  28.900  29.744  1.00  0.00     0.037 A 
BRANCH  56  70
ATOM     70  C   UNL A   1      35.854  33.107  31.712  1.00  0.00     0.057 A 
ATOM     71  C   UNL A   1      35.086  34.040  31.006  1.00  0.00     0.134 A 
ATOM     72  C   UNL A   1      35.483  32.805  33.022  1.00  0.00     0.134 A 
ATOM     73  F   UNL A   1      35.412  34.365  29.743  1.00  0.00    -0.206 F 
ATOM     74  C   UNL A   1      34.013  34.700  31.599  1.00  0.00     0.040 A 
ATOM     75  C   UNL A   1      34.403  33.453  33.626  1.00  0.00     0.040 A 
ATOM     76  F   UNL A   1      36.191  31.929  33.749  1.00  0.00    -0.206 F 
ATOM     77  C   UNL A   1      33.679  34.417  32.920  1.00  0.00     0.006 A 
ENDBRANCH  56  70
BRANCH  57  78
ATOM     78  C   UNL A   1      43.089  28.541  34.302  1.00  0.00     0.057 A 
ATOM     79  C   UNL A   1      43.519  27.275  34.738  1.00  0.00     0.134 A 
ATOM     80  C   UNL A   1      42.959  29.510  35.311  1.00  0.00     0.134 A 
ATOM     81  F   UNL A   1      43.547  26.237  33.889  1.00  0.00    -0.206 F 
ATOM     82  C   UNL A   1      43.916  27.028  36.058  1.00  0.00     0.040 A 
ATOM     83  C   UNL A   1      43.381  29.289  36.629  1.00  0.00     0.040 A 
ATOM     84  F   UNL A   1      42.419  30.711  35.059  1.00  0.00    -0.206 F 
ATOM     85  C   UNL A   1      43.880  28.047  37.002  1.00  0.00     0.006 A 
ENDBRANCH  57  78
BRANCH  69  86
ATOM     86  C   UNL A   1      39.835  28.168  28.654  1.00  0.00     0.057 A 
ATOM     87  C   UNL A   1      39.559  26.820  28.405  1.00  0.00     0.134 A 
ATOM     88  C   UNL A   1      40.786  28.796  27.839  1.00  0.00     0.134 A 
ATOM     89  F   UNL A   1      38.655  26.160  29.146  1.00  0.00    -0.206 F 
ATOM     90  C   UNL A   1      40.194  26.126  27.372  1.00  0.00     0.040 A 
ATOM     91  C   UNL A   1      41.408  28.119  26.789  1.00  0.00     0.040 A 
ATOM     92  F   UNL A   1      41.122  30.081  28.033  1.00  0.00    -0.206 F 
ATOM     93  C   UNL A   1      41.113  26.779  26.554  1.00  0.00     0.006 A 
ENDBRANCH  69  86
ENDBRANCH  43  44
ENDBRANCH  35  38
ENDBRANCH  33  34
ENDBRANCH  32  33
ENDBRANCH   1  32
TORSDOF 13
ENDMDL
