MODEL 1
REMARK VINA RESULT:     -11.7      0.000      0.000
REMARK SMILES COC(=O)C1CCN(C(=O)N[C@@H]2C=C[C@H](C(=O)NCCCNC(=O)c3ccc(-c4c5nc(c(-c6c(F)cccc6F)c6ccc([nH]6)c(-c6c(F)cccc6F)c6nc(c(-c7c(F)cccc7F)c7ccc4[nH]7)C=C6)C=C5)cc3)C2)CC1
REMARK SMILES IDX 19 1 18 2 16 3 17 4 15 6 12 7 13 8 79 9 14 10 11 11 5 12
REMARK SMILES IDX 6 13 81 14 7 15 80 16 8 17 9 18 10 19 3 21 4 22 2 23 1 24
REMARK SMILES IDX 20 25 21 26 22 27 23 28 24 30 25 31 26 32 78 33 27 34 77 35
REMARK SMILES IDX 28 36 29 37 30 38 71 39 31 40 76 41 70 42 72 43 32 44 75 45
REMARK SMILES IDX 69 46 68 47 33 49 59 50 42 51 58 52 43 53 46 54 57 55 73 56
REMARK SMILES IDX 44 57 45 58 56 60 74 61 47 62 34 63 35 64 40 65 36 66 37 67
REMARK SMILES IDX 39 68 41 69 38 70 60 71 61 72 66 73 62 74 63 75 65 76 67 77
REMARK SMILES IDX 64 78 48 79 49 80 54 81 50 82 51 83 53 84 55 85 52 86
REMARK H PARENT 18 5 11 20 22 29 72 48 46 59
REMARK Flexibility Score: inf
ROOT
ATOM      1  C   UNL A   1      37.008  20.250  24.920  1.00  0.00     0.117 C 
ENDROOT
BRANCH   1   2
ATOM      2  N   UNL A   1      37.039  21.502  24.190  1.00  0.00    -0.356 N 
ATOM      3  C   UNL A   1      35.981  22.314  23.882  1.00  0.00     0.227 C 
ATOM      4  O   UNL A   1      36.152  23.234  23.083  1.00  0.00    -0.274 OA
ATOM      5  H   UNL A   1      37.923  21.802  23.878  1.00  0.00     0.163 HD
BRANCH   3   6
ATOM      6  C   UNL A   1      34.650  22.062  24.590  1.00  0.00     0.103 C 
ATOM      7  C   UNL A   1      33.048  23.895  24.159  1.00  0.00     0.107 C 
ATOM      8  C   UNL A   1      33.689  23.979  25.510  1.00  0.00    -0.006 C 
ATOM      9  C   UNL A   1      33.420  22.452  23.755  1.00  0.00     0.047 C 
ATOM     10  C   UNL A   1      34.559  22.994  25.751  1.00  0.00    -0.016 C 
BRANCH   7  11
ATOM     11  N   UNL A   1      33.619  24.848  23.222  1.00  0.00    -0.332 N 
ATOM     12  C   UNL A   1      32.974  28.968  25.098  1.00  0.00     0.102 C 
ATOM     13  C   UNL A   1      33.183  29.165  23.584  1.00  0.00     0.037 C 
ATOM     14  C   UNL A   1      32.737  27.505  25.506  1.00  0.00     0.037 C 
ATOM     15  C   UNL A   1      32.319  28.250  22.701  1.00  0.00     0.122 C 
ATOM     16  C   UNL A   1      31.787  26.795  24.541  1.00  0.00     0.122 C 
ATOM     17  N   UNL A   1      32.362  26.880  23.218  1.00  0.00    -0.325 N 
ATOM     18  C   UNL A   1      33.262  26.017  22.655  1.00  0.00     0.317 C 
ATOM     19  O   UNL A   1      33.858  26.303  21.611  1.00  0.00    -0.249 OA
ATOM     20  H   UNL A   1      34.510  24.562  22.919  1.00  0.00     0.165 HD
BRANCH  12  21
ATOM     21  C   UNL A   1      31.874  29.814  25.700  1.00  0.00     0.308 C 
ATOM     22  O   UNL A   1      30.986  30.342  25.030  1.00  0.00    -0.252 OA
BRANCH  21  23
ATOM     23  O   UNL A   1      32.089  30.052  27.017  1.00  0.00    -0.469 OA
ATOM     24  C   UNL A   1      33.225  30.873  27.289  1.00  0.00     0.282 C 
ENDBRANCH  21  23
ENDBRANCH  12  21
ENDBRANCH   7  11
ENDBRANCH   3   6
ENDBRANCH   1   2
BRANCH   1  25
ATOM     25  C   UNL A   1      38.352  19.529  24.828  1.00  0.00     0.042 C 
BRANCH  25  26
ATOM     26  C   UNL A   1      39.293  19.868  25.982  1.00  0.00     0.118 C 
BRANCH  26  27
ATOM     27  N   UNL A   1      40.533  19.108  25.911  1.00  0.00    -0.352 N 
ATOM     28  C   UNL A   1      41.829  19.538  25.996  1.00  0.00     0.251 C 
ATOM     29  H   UNL A   1      40.423  18.139  25.782  1.00  0.00     0.163 HD
ATOM     30  O   UNL A   1      42.744  18.787  25.653  1.00  0.00    -0.269 OA
BRANCH  28  31
ATOM     31  C   UNL A   1      42.139  20.892  26.492  1.00  0.00     0.039 A 
ATOM     32  C   UNL A   1      42.492  21.887  25.577  1.00  0.00     0.014 A 
ATOM     33  C   UNL A   1      42.130  21.169  27.863  1.00  0.00     0.014 A 
ATOM     34  C   UNL A   1      42.788  23.172  26.031  1.00  0.00     0.010 A 
ATOM     35  C   UNL A   1      42.355  22.466  28.309  1.00  0.00     0.010 A 
ATOM     36  C   UNL A   1      42.698  23.477  27.398  1.00  0.00    -0.014 A 
BRANCH  36  37
ATOM     37  C   UNL A   1      42.976  24.843  27.904  1.00  0.00     0.031 A 
ATOM     38  C   UNL A   1      44.383  25.249  28.236  1.00  0.00     0.074 A 
ATOM     39  C   UNL A   1      41.953  25.687  28.131  1.00  0.00     0.049 A 
ATOM     40  N   UNL A   1      44.819  26.364  28.767  1.00  0.00    -0.248 NA
ATOM     41  C   UNL A   1      45.437  24.260  27.964  1.00  0.00     0.031 C 
ATOM     42  C   UNL A   1      40.539  25.389  27.891  1.00  0.00     0.029 A 
ATOM     43  N   UNL A   1      41.945  26.966  28.626  1.00  0.00    -0.354 N 
ATOM     44  C   UNL A   1      46.190  26.199  28.914  1.00  0.00     0.074 A 
ATOM     45  C   UNL A   1      46.508  24.863  28.461  1.00  0.00     0.031 C 
ATOM     46  C   UNL A   1      39.804  26.464  28.216  1.00  0.00     0.029 A 
ATOM     47  C   UNL A   1      40.689  27.510  28.718  1.00  0.00     0.049 A 
ATOM     48  H   UNL A   1      42.762  27.446  28.891  1.00  0.00     0.167 HD
ATOM     49  C   UNL A   1      47.104  27.089  29.367  1.00  0.00     0.037 A 
ATOM     50  C   UNL A   1      40.296  28.719  29.160  1.00  0.00     0.037 A 
ATOM     51  C   UNL A   1      46.789  28.430  29.785  1.00  0.00     0.049 A 
ATOM     52  C   UNL A   1      41.329  29.695  29.647  1.00  0.00     0.074 A 
ATOM     53  C   UNL A   1      47.649  29.432  30.193  1.00  0.00     0.029 A 
ATOM     54  N   UNL A   1      45.506  28.952  29.845  1.00  0.00    -0.354 N 
ATOM     55  N   UNL A   1      42.629  29.549  29.724  1.00  0.00    -0.248 NA
ATOM     56  C   UNL A   1      40.840  31.002  30.103  1.00  0.00     0.031 C 
ATOM     57  C   UNL A   1      46.883  30.554  30.533  1.00  0.00     0.029 A 
ATOM     58  C   UNL A   1      45.549  30.260  30.301  1.00  0.00     0.049 A 
ATOM     59  H   UNL A   1      44.685  28.466  29.602  1.00  0.00     0.167 HD
ATOM     60  C   UNL A   1      43.117  30.752  30.217  1.00  0.00     0.074 A 
ATOM     61  C   UNL A   1      41.972  31.620  30.410  1.00  0.00     0.031 C 
ATOM     62  C   UNL A   1      44.398  31.106  30.485  1.00  0.00     0.037 A 
BRANCH  49  63
ATOM     63  C   UNL A   1      48.532  26.632  29.429  1.00  0.00     0.057 A 
ATOM     64  C   UNL A   1      49.407  26.793  28.346  1.00  0.00     0.134 A 
ATOM     65  C   UNL A   1      49.042  26.028  30.585  1.00  0.00     0.134 A 
ATOM     66  F   UNL A   1      48.978  27.351  27.204  1.00  0.00    -0.206 F 
ATOM     67  C   UNL A   1      50.725  26.338  28.397  1.00  0.00     0.040 A 
ATOM     68  C   UNL A   1      50.365  25.592  30.658  1.00  0.00     0.040 A 
ATOM     69  F   UNL A   1      48.260  25.848  31.661  1.00  0.00    -0.206 F 
ATOM     70  C   UNL A   1      51.209  25.739  29.559  1.00  0.00     0.006 A 
ENDBRANCH  49  63
BRANCH  50  71
ATOM     71  C   UNL A   1      38.859  29.085  29.122  1.00  0.00     0.057 A 
ATOM     72  C   UNL A   1      38.273  29.555  27.942  1.00  0.00     0.134 A 
ATOM     73  C   UNL A   1      38.037  28.956  30.246  1.00  0.00     0.134 A 
ATOM     74  F   UNL A   1      39.015  29.712  26.836  1.00  0.00    -0.206 F 
ATOM     75  C   UNL A   1      36.920  29.892  27.882  1.00  0.00     0.040 A 
ATOM     76  C   UNL A   1      36.679  29.271  30.197  1.00  0.00     0.040 A 
ATOM     77  F   UNL A   1      38.540  28.501  31.404  1.00  0.00    -0.206 F 
ATOM     78  C   UNL A   1      36.118  29.746  29.013  1.00  0.00     0.006 A 
ENDBRANCH  50  71
BRANCH  62  79
ATOM     79  C   UNL A   1      44.627  32.499  30.989  1.00  0.00     0.057 A 
ATOM     80  C   UNL A   1      44.814  33.576  30.115  1.00  0.00     0.134 A 
ATOM     81  C   UNL A   1      44.623  32.770  32.363  1.00  0.00     0.134 A 
ATOM     82  F   UNL A   1      44.843  33.378  28.788  1.00  0.00    -0.206 F 
ATOM     83  C   UNL A   1      45.008  34.873  30.591  1.00  0.00     0.040 A 
ATOM     84  C   UNL A   1      44.794  34.066  32.850  1.00  0.00     0.040 A 
ATOM     85  F   UNL A   1      44.442  31.781  33.252  1.00  0.00    -0.206 F 
ATOM     86  C   UNL A   1      44.991  35.122  31.963  1.00  0.00     0.006 A 
ENDBRANCH  62  79
ENDBRANCH  36  37
ENDBRANCH  28  31
ENDBRANCH  26  27
ENDBRANCH  25  26
ENDBRANCH   1  25
TORSDOF 13
ENDMDL
MODEL 2
REMARK VINA RESULT:     -11.7      1.244      6.363
REMARK SMILES COC(=O)C1CCN(C(=O)N[C@@H]2C=C[C@H](C(=O)NCCCNC(=O)c3ccc(-c4c5nc(c(-c6c(F)cccc6F)c6ccc([nH]6)c(-c6c(F)cccc6F)c6nc(c(-c7c(F)cccc7F)c7ccc4[nH]7)C=C6)C=C5)cc3)C2)CC1
REMARK SMILES IDX 19 1 18 2 16 3 17 4 15 6 12 7 13 8 79 9 14 10 11 11 5 12
REMARK SMILES IDX 6 13 81 14 7 15 80 16 8 17 9 18 10 19 3 21 4 22 2 23 1 24
REMARK SMILES IDX 20 25 21 26 22 27 23 28 24 30 25 31 26 32 78 33 27 34 77 35
REMARK SMILES IDX 28 36 29 37 30 38 71 39 31 40 76 41 70 42 72 43 32 44 75 45
REMARK SMILES IDX 69 46 68 47 33 49 59 50 42 51 58 52 43 53 46 54 57 55 73 56
REMARK SMILES IDX 44 57 45 58 56 60 74 61 47 62 34 63 35 64 40 65 36 66 37 67
REMARK SMILES IDX 39 68 41 69 38 70 60 71 61 72 66 73 62 74 63 75 65 76 67 77
REMARK SMILES IDX 64 78 48 79 49 80 54 81 50 82 51 83 53 84 55 85 52 86
REMARK H PARENT 18 5 11 20 22 29 72 48 46 59
REMARK Flexibility Score: inf
ROOT
ATOM      1  C   UNL A   1      36.292  20.128  24.994  1.00  0.00     0.117 C 
ENDROOT
BRANCH   1   2
ATOM      2  N   UNL A   1      36.122  21.453  25.557  1.00  0.00    -0.356 N 
ATOM      3  C   UNL A   1      35.326  22.463  25.086  1.00  0.00     0.227 C 
ATOM      4  O   UNL A   1      35.453  23.589  25.565  1.00  0.00    -0.274 OA
ATOM      5  H   UNL A   1      36.638  21.650  26.372  1.00  0.00     0.163 HD
BRANCH   3   6
ATOM      6  C   UNL A   1      34.285  22.122  24.021  1.00  0.00     0.103 C 
ATOM      7  C   UNL A   1      32.670  23.971  23.727  1.00  0.00     0.107 C 
ATOM      8  C   UNL A   1      32.126  22.839  24.544  1.00  0.00    -0.006 C 
ATOM      9  C   UNL A   1      33.920  23.306  23.111  1.00  0.00     0.047 C 
ATOM     10  C   UNL A   1      32.993  21.836  24.710  1.00  0.00    -0.016 C 
BRANCH   7  11
ATOM     11  N   UNL A   1      33.053  25.106  24.551  1.00  0.00    -0.332 N 
ATOM     12  C   UNL A   1      30.021  28.398  23.613  1.00  0.00     0.102 C 
ATOM     13  C   UNL A   1      31.278  29.066  24.204  1.00  0.00     0.037 C 
ATOM     14  C   UNL A   1      30.227  26.924  23.225  1.00  0.00     0.037 C 
ATOM     15  C   UNL A   1      32.598  28.617  23.556  1.00  0.00     0.122 C 
ATOM     16  C   UNL A   1      31.567  26.706  22.522  1.00  0.00     0.122 C 
ATOM     17  N   UNL A   1      32.609  27.160  23.415  1.00  0.00    -0.325 N 
ATOM     18  C   UNL A   1      33.229  26.431  24.394  1.00  0.00     0.317 C 
ATOM     19  O   UNL A   1      33.941  26.976  25.244  1.00  0.00    -0.249 OA
ATOM     20  H   UNL A   1      33.232  24.829  25.479  1.00  0.00     0.165 HD
BRANCH  12  21
ATOM     21  C   UNL A   1      29.418  29.121  22.430  1.00  0.00     0.308 C 
ATOM     22  O   UNL A   1      30.092  29.677  21.563  1.00  0.00    -0.252 OA
BRANCH  21  23
ATOM     23  O   UNL A   1      28.071  29.225  22.542  1.00  0.00    -0.469 OA
ATOM     24  C   UNL A   1      27.618  30.466  23.082  1.00  0.00     0.282 C 
ENDBRANCH  21  23
ENDBRANCH  12  21
ENDBRANCH   7  11
ENDBRANCH   3   6
ENDBRANCH   1   2
BRANCH   1  25
ATOM     25  C   UNL A   1      37.751  19.878  24.614  1.00  0.00     0.042 C 
BRANCH  25  26
ATOM     26  C   UNL A   1      38.732  20.291  25.708  1.00  0.00     0.118 C 
BRANCH  26  27
ATOM     27  N   UNL A   1      39.857  19.371  25.803  1.00  0.00    -0.352 N 
ATOM     28  C   UNL A   1      41.175  19.623  26.070  1.00  0.00     0.251 C 
ATOM     29  H   UNL A   1      39.636  18.424  25.650  1.00  0.00     0.163 HD
ATOM     30  O   UNL A   1      42.020  18.752  25.851  1.00  0.00    -0.269 OA
BRANCH  28  31
ATOM     31  C   UNL A   1      41.592  20.928  26.618  1.00  0.00     0.039 A 
ATOM     32  C   UNL A   1      41.917  21.962  25.737  1.00  0.00     0.014 A 
ATOM     33  C   UNL A   1      41.711  21.117  27.999  1.00  0.00     0.014 A 
ATOM     34  C   UNL A   1      42.314  23.201  26.240  1.00  0.00     0.010 A 
ATOM     35  C   UNL A   1      42.037  22.372  28.500  1.00  0.00     0.010 A 
ATOM     36  C   UNL A   1      42.353  23.422  27.625  1.00  0.00    -0.014 A 
BRANCH  36  37
ATOM     37  C   UNL A   1      42.740  24.739  28.186  1.00  0.00     0.031 A 
ATOM     38  C   UNL A   1      41.697  25.796  28.410  1.00  0.00     0.074 A 
ATOM     39  C   UNL A   1      44.038  25.004  28.422  1.00  0.00     0.049 A 
ATOM     40  N   UNL A   1      41.846  27.034  28.809  1.00  0.00    -0.248 NA
ATOM     41  C   UNL A   1      40.304  25.423  28.116  1.00  0.00     0.031 C 
ATOM     42  C   UNL A   1      45.146  24.073  28.201  1.00  0.00     0.029 A 
ATOM     43  N   UNL A   1      44.645  26.140  28.892  1.00  0.00    -0.354 N 
ATOM     44  C   UNL A   1      40.574  27.591  28.791  1.00  0.00     0.074 A 
ATOM     45  C   UNL A   1      39.672  26.572  28.297  1.00  0.00     0.031 C 
ATOM     46  C   UNL A   1      46.295  24.668  28.558  1.00  0.00     0.029 A 
ATOM     47  C   UNL A   1      46.008  26.029  28.999  1.00  0.00     0.049 A 
ATOM     48  H   UNL A   1      44.150  26.957  29.129  1.00  0.00     0.167 HD
ATOM     49  C   UNL A   1      40.188  28.832  29.171  1.00  0.00     0.037 A 
ATOM     50  C   UNL A   1      46.924  26.927  29.407  1.00  0.00     0.037 A 
ATOM     51  C   UNL A   1      41.083  29.831  29.694  1.00  0.00     0.049 A 
ATOM     52  C   UNL A   1      46.473  28.294  29.835  1.00  0.00     0.074 A 
ATOM     53  C   UNL A   1      40.783  31.093  30.173  1.00  0.00     0.029 A 
ATOM     54  N   UNL A   1      42.456  29.674  29.805  1.00  0.00    -0.354 N 
ATOM     55  N   UNL A   1      45.259  28.788  29.870  1.00  0.00    -0.248 NA
ATOM     56  C   UNL A   1      47.517  29.225  30.282  1.00  0.00     0.031 C 
ATOM     57  C   UNL A   1      41.982  31.714  30.545  1.00  0.00     0.029 A 
ATOM     58  C   UNL A   1      43.022  30.824  30.331  1.00  0.00     0.049 A 
ATOM     59  H   UNL A   1      42.956  28.866  29.549  1.00  0.00     0.167 HD
ATOM     60  C   UNL A   1      45.390  30.080  30.364  1.00  0.00     0.074 A 
ATOM     61  C   UNL A   1      46.801  30.287  30.624  1.00  0.00     0.031 C 
ATOM     62  C   UNL A   1      44.428  31.009  30.582  1.00  0.00     0.037 A 
BRANCH  49  63
ATOM     63  C   UNL A   1      38.733  29.170  29.032  1.00  0.00     0.057 A 
ATOM     64  C   UNL A   1      38.185  29.586  27.811  1.00  0.00     0.134 A 
ATOM     65  C   UNL A   1      37.868  29.077  30.129  1.00  0.00     0.134 A 
ATOM     66  F   UNL A   1      38.961  29.710  26.725  1.00  0.00    -0.206 F 
ATOM     67  C   UNL A   1      36.837  29.931  27.695  1.00  0.00     0.040 A 
ATOM     68  C   UNL A   1      36.513  29.394  30.020  1.00  0.00     0.040 A 
ATOM     69  F   UNL A   1      38.326  28.681  31.327  1.00  0.00    -0.206 F 
ATOM     70  C   UNL A   1      35.996  29.832  28.802  1.00  0.00     0.006 A 
ENDBRANCH  49  63
BRANCH  50  71
ATOM     71  C   UNL A   1      48.355  26.543  29.466  1.00  0.00     0.057 A 
ATOM     72  C   UNL A   1      49.218  26.836  28.405  1.00  0.00     0.134 A 
ATOM     73  C   UNL A   1      48.897  25.898  30.582  1.00  0.00     0.134 A 
ATOM     74  F   UNL A   1      48.751  27.440  27.302  1.00  0.00    -0.206 F 
ATOM     75  C   UNL A   1      50.570  26.493  28.446  1.00  0.00     0.040 A 
ATOM     76  C   UNL A   1      50.252  25.566  30.647  1.00  0.00     0.040 A 
ATOM     77  F   UNL A   1      48.121  25.599  31.635  1.00  0.00    -0.206 F 
ATOM     78  C   UNL A   1      51.091  25.860  29.574  1.00  0.00     0.006 A 
ENDBRANCH  50  71
BRANCH  62  79
ATOM     79  C   UNL A   1      44.869  32.323  31.154  1.00  0.00     0.057 A 
ATOM     80  C   UNL A   1      44.983  32.523  32.535  1.00  0.00     0.134 A 
ATOM     81  C   UNL A   1      45.220  33.385  30.313  1.00  0.00     0.134 A 
ATOM     82  F   UNL A   1      44.648  31.547  33.394  1.00  0.00    -0.206 F 
ATOM     83  C   UNL A   1      45.412  33.742  33.061  1.00  0.00     0.040 A 
ATOM     84  C   UNL A   1      45.672  34.602  30.825  1.00  0.00     0.040 A 
ATOM     85  F   UNL A   1      45.138  33.254  28.980  1.00  0.00    -0.206 F 
ATOM     86  C   UNL A   1      45.765  34.784  32.203  1.00  0.00     0.006 A 
ENDBRANCH  62  79
ENDBRANCH  36  37
ENDBRANCH  28  31
ENDBRANCH  26  27
ENDBRANCH  25  26
ENDBRANCH   1  25
TORSDOF 13
ENDMDL
MODEL 3
REMARK VINA RESULT:     -11.7      4.408      9.553
REMARK SMILES COC(=O)C1CCN(C(=O)N[C@@H]2C=C[C@H](C(=O)NCCCNC(=O)c3ccc(-c4c5nc(c(-c6c(F)cccc6F)c6ccc([nH]6)c(-c6c(F)cccc6F)c6nc(c(-c7c(F)cccc7F)c7ccc4[nH]7)C=C6)C=C5)cc3)C2)CC1
REMARK SMILES IDX 19 1 18 2 16 3 17 4 15 6 12 7 13 8 79 9 14 10 11 11 5 12
REMARK SMILES IDX 6 13 81 14 7 15 80 16 8 17 9 18 10 19 3 21 4 22 2 23 1 24
REMARK SMILES IDX 20 25 21 26 22 27 23 28 24 30 25 31 26 32 78 33 27 34 77 35
REMARK SMILES IDX 28 36 29 37 30 38 71 39 31 40 76 41 70 42 72 43 32 44 75 45
REMARK SMILES IDX 69 46 68 47 33 49 59 50 42 51 58 52 43 53 46 54 57 55 73 56
REMARK SMILES IDX 44 57 45 58 56 60 74 61 47 62 34 63 35 64 40 65 36 66 37 67
REMARK SMILES IDX 39 68 41 69 38 70 60 71 61 72 66 73 62 74 63 75 65 76 67 77
REMARK SMILES IDX 64 78 48 79 49 80 54 81 50 82 51 83 53 84 55 85 52 86
REMARK H PARENT 18 5 11 20 22 29 72 48 46 59
REMARK Flexibility Score: inf
ROOT
ATOM      1  C   UNL A   1      31.058  31.176  26.453  1.00  0.00     0.117 C 
ENDROOT
BRANCH   1   2
ATOM      2  N   UNL A   1      31.419  30.471  25.238  1.00  0.00    -0.356 N 
ATOM      3  C   UNL A   1      32.319  29.449  25.104  1.00  0.00     0.227 C 
ATOM      4  O   UNL A   1      32.657  29.102  23.972  1.00  0.00    -0.274 OA
ATOM      5  H   UNL A   1      30.965  30.763  24.415  1.00  0.00     0.163 HD
BRANCH   3   6
ATOM      6  C   UNL A   1      32.820  28.758  26.372  1.00  0.00     0.103 C 
ATOM      7  C   UNL A   1      33.469  26.417  25.917  1.00  0.00     0.107 C 
ATOM      8  C   UNL A   1      32.129  26.539  26.577  1.00  0.00    -0.006 C 
ATOM      9  C   UNL A   1      34.029  27.838  26.140  1.00  0.00     0.047 C 
ATOM     10  C   UNL A   1      31.769  27.801  26.824  1.00  0.00    -0.016 C 
BRANCH   7  11
ATOM     11  N   UNL A   1      33.355  26.132  24.496  1.00  0.00    -0.332 N 
ATOM     12  C   UNL A   1      32.571  21.638  24.189  1.00  0.00     0.102 C 
ATOM     13  C   UNL A   1      33.130  22.115  22.835  1.00  0.00     0.037 C 
ATOM     14  C   UNL A   1      32.712  22.673  25.317  1.00  0.00     0.037 C 
ATOM     15  C   UNL A   1      34.404  22.969  22.941  1.00  0.00     0.122 C 
ATOM     16  C   UNL A   1      34.082  23.353  25.292  1.00  0.00     0.122 C 
ATOM     17  N   UNL A   1      34.241  23.971  23.996  1.00  0.00    -0.325 N 
ATOM     18  C   UNL A   1      33.832  25.223  23.625  1.00  0.00     0.317 C 
ATOM     19  O   UNL A   1      33.815  25.566  22.438  1.00  0.00    -0.249 OA
ATOM     20  H   UNL A   1      32.767  26.782  24.048  1.00  0.00     0.165 HD
BRANCH  12  21
ATOM     21  C   UNL A   1      33.134  20.322  24.678  1.00  0.00     0.308 C 
ATOM     22  O   UNL A   1      34.331  20.041  24.630  1.00  0.00    -0.252 OA
BRANCH  21  23
ATOM     23  O   UNL A   1      32.151  19.448  25.006  1.00  0.00    -0.469 OA
ATOM     24  C   UNL A   1      32.610  18.129  25.300  1.00  0.00     0.282 C 
ENDBRANCH  21  23
ENDBRANCH  12  21
ENDBRANCH   7  11
ENDBRANCH   3   6
ENDBRANCH   1   2
BRANCH   1  25
ATOM     25  C   UNL A   1      31.395  32.662  26.345  1.00  0.00     0.042 C 
BRANCH  25  26
ATOM     26  C   UNL A   1      32.567  33.074  27.232  1.00  0.00     0.118 C 
BRANCH  26  27
ATOM     27  N   UNL A   1      32.451  34.455  27.677  1.00  0.00    -0.352 N 
ATOM     28  C   UNL A   1      33.046  35.089  28.734  1.00  0.00     0.251 C 
ATOM     29  H   UNL A   1      31.852  35.020  27.136  1.00  0.00     0.163 HD
ATOM     30  O   UNL A   1      32.624  36.186  29.104  1.00  0.00    -0.269 OA
BRANCH  28  31
ATOM     31  C   UNL A   1      34.186  34.468  29.434  1.00  0.00     0.039 A 
ATOM     32  C   UNL A   1      33.960  33.790  30.635  1.00  0.00     0.014 A 
ATOM     33  C   UNL A   1      35.486  34.595  28.933  1.00  0.00     0.014 A 
ATOM     34  C   UNL A   1      35.028  33.198  31.308  1.00  0.00     0.010 A 
ATOM     35  C   UNL A   1      36.539  33.945  29.567  1.00  0.00     0.010 A 
ATOM     36  C   UNL A   1      36.322  33.251  30.766  1.00  0.00    -0.014 A 
BRANCH  36  37
ATOM     37  C   UNL A   1      37.470  32.603  31.445  1.00  0.00     0.031 A 
ATOM     38  C   UNL A   1      38.183  31.457  30.786  1.00  0.00     0.074 A 
ATOM     39  C   UNL A   1      37.819  33.000  32.683  1.00  0.00     0.049 A 
ATOM     40  N   UNL A   1      39.150  30.707  31.251  1.00  0.00    -0.248 NA
ATOM     41  C   UNL A   1      37.729  31.085  29.437  1.00  0.00     0.031 C 
ATOM     42  C   UNL A   1      37.171  34.071  33.443  1.00  0.00     0.029 A 
ATOM     43  N   UNL A   1      38.799  32.540  33.523  1.00  0.00    -0.354 N 
ATOM     44  C   UNL A   1      39.401  29.763  30.265  1.00  0.00     0.074 A 
ATOM     45  C   UNL A   1      38.457  30.004  29.196  1.00  0.00     0.031 C 
ATOM     46  C   UNL A   1      37.788  34.201  34.627  1.00  0.00     0.029 A 
ATOM     47  C   UNL A   1      38.849  33.204  34.723  1.00  0.00     0.049 A 
ATOM     48  H   UNL A   1      39.409  31.804  33.288  1.00  0.00     0.167 HD
ATOM     49  C   UNL A   1      40.348  28.795  30.242  1.00  0.00     0.037 A 
ATOM     50  C   UNL A   1      39.659  33.024  35.782  1.00  0.00     0.037 A 
ATOM     51  C   UNL A   1      41.309  28.580  31.292  1.00  0.00     0.049 A 
ATOM     52  C   UNL A   1      40.710  31.953  35.731  1.00  0.00     0.074 A 
ATOM     53  C   UNL A   1      42.352  27.674  31.336  1.00  0.00     0.029 A 
ATOM     54  N   UNL A   1      41.339  29.286  32.485  1.00  0.00    -0.354 N 
ATOM     55  N   UNL A   1      40.977  31.105  34.767  1.00  0.00    -0.248 NA
ATOM     56  C   UNL A   1      41.573  31.815  36.911  1.00  0.00     0.031 C 
ATOM     57  C   UNL A   1      42.997  27.809  32.572  1.00  0.00     0.029 A 
ATOM     58  C   UNL A   1      42.375  28.825  33.281  1.00  0.00     0.049 A 
ATOM     59  H   UNL A   1      40.717  30.008  32.731  1.00  0.00     0.167 HD
ATOM     60  C   UNL A   1      42.052  30.348  35.214  1.00  0.00     0.074 A 
ATOM     61  C   UNL A   1      42.393  30.846  36.532  1.00  0.00     0.031 C 
ATOM     62  C   UNL A   1      42.698  29.334  34.589  1.00  0.00     0.037 A 
BRANCH  49  63
ATOM     63  C   UNL A   1      40.384  27.900  29.039  1.00  0.00     0.057 A 
ATOM     64  C   UNL A   1      41.148  28.215  27.907  1.00  0.00     0.134 A 
ATOM     65  C   UNL A   1      39.651  26.707  29.011  1.00  0.00     0.134 A 
ATOM     66  F   UNL A   1      41.862  29.350  27.863  1.00  0.00    -0.206 F 
ATOM     67  C   UNL A   1      41.153  27.395  26.777  1.00  0.00     0.040 A 
ATOM     68  C   UNL A   1      39.668  25.866  27.897  1.00  0.00     0.040 A 
ATOM     69  F   UNL A   1      38.902  26.343  30.063  1.00  0.00    -0.206 F 
ATOM     70  C   UNL A   1      40.414  26.213  26.772  1.00  0.00     0.006 A 
ENDBRANCH  49  63
BRANCH  50  71
ATOM     71  C   UNL A   1      39.531  33.911  36.964  1.00  0.00     0.057 A 
ATOM     72  C   UNL A   1      38.748  33.532  38.060  1.00  0.00     0.134 A 
ATOM     73  C   UNL A   1      40.198  35.138  37.038  1.00  0.00     0.134 A 
ATOM     74  F   UNL A   1      38.074  32.373  38.039  1.00  0.00    -0.206 F 
ATOM     75  C   UNL A   1      38.624  34.347  39.186  1.00  0.00     0.040 A 
ATOM     76  C   UNL A   1      40.100  35.955  38.166  1.00  0.00     0.040 A 
ATOM     77  F   UNL A   1      40.972  35.551  36.023  1.00  0.00    -0.206 F 
ATOM     78  C   UNL A   1      39.306  35.561  39.242  1.00  0.00     0.006 A 
ENDBRANCH  50  71
BRANCH  62  79
ATOM     79  C   UNL A   1      43.854  28.715  35.315  1.00  0.00     0.057 A 
ATOM     80  C   UNL A   1      45.164  29.179  35.143  1.00  0.00     0.134 A 
ATOM     81  C   UNL A   1      43.649  27.669  36.223  1.00  0.00     0.134 A 
ATOM     82  F   UNL A   1      45.427  30.169  34.276  1.00  0.00    -0.206 F 
ATOM     83  C   UNL A   1      46.234  28.611  35.836  1.00  0.00     0.040 A 
ATOM     84  C   UNL A   1      44.708  27.108  36.938  1.00  0.00     0.040 A 
ATOM     85  F   UNL A   1      42.417  27.184  36.437  1.00  0.00    -0.206 F 
ATOM     86  C   UNL A   1      46.005  27.576  36.742  1.00  0.00     0.006 A 
ENDBRANCH  62  79
ENDBRANCH  36  37
ENDBRANCH  28  31
ENDBRANCH  26  27
ENDBRANCH  25  26
ENDBRANCH   1  25
TORSDOF 13
ENDMDL
