MODEL 1
REMARK VINA RESULT:     -11.6      0.000      0.000
REMARK SMILES CCC[C@]1(C(=O)NCCCNC(=O)c2ccc(-c3c4nc(c(-c5c(F)cccc5F)c5ccc([nH]5)c(-c5c(F)cccc5F)c5nc(c(-c6c(F)cccc6F)c6ccc3[nH]6)C=C5)C=C4)cc2)CCN(c2cncc(C(=O)OC)n2)C1
REMARK SMILES IDX 8 1 7 2 5 3 6 4 4 6 68 7 81 8 69 9 70 10 3 11 2 12 1 13
REMARK SMILES IDX 71 14 72 15 80 16 73 17 75 18 74 19 76 20 77 21 78 22 79 23
REMARK SMILES IDX 9 24 10 25 11 26 12 27 13 29 14 30 15 31 67 32 16 33 66 34
REMARK SMILES IDX 17 35 18 36 19 37 60 38 20 39 65 40 59 41 61 42 21 43 64 44
REMARK SMILES IDX 58 45 57 46 22 48 48 49 31 50 47 51 32 52 35 53 46 54 62 55
REMARK SMILES IDX 33 56 34 57 45 59 63 60 36 61 23 62 24 63 29 64 25 65 26 66
REMARK SMILES IDX 28 67 30 68 27 69 49 70 50 71 55 72 51 73 52 74 54 75 56 76
REMARK SMILES IDX 53 77 37 78 38 79 43 80 39 81 40 82 42 83 44 84 41 85
REMARK H PARENT 7 5 11 28 61 47 35 58
REMARK Flexibility Score: inf
ROOT
ATOM      1  C   UNL A   1      36.825  21.287  24.834  1.00  0.00     0.117 C 
ENDROOT
BRANCH   1   2
ATOM      2  N   UNL A   1      36.019  21.523  26.019  1.00  0.00    -0.355 N 
ATOM      3  C   UNL A   1      34.683  21.480  26.261  1.00  0.00     0.228 C 
ATOM      4  O   UNL A   1      34.382  21.557  27.456  1.00  0.00    -0.274 OA
ATOM      5  H   UNL A   1      36.552  21.764  26.811  1.00  0.00     0.163 HD
BRANCH   3   6
ATOM      6  C   UNL A   1      33.607  21.304  25.169  1.00  0.00     0.068 C 
ATOM      7  C   UNL A   1      32.168  21.643  25.634  1.00  0.00     0.040 C 
ATOM      8  C   UNL A   1      33.903  22.329  24.023  1.00  0.00     0.135 C 
ATOM      9  C   UNL A   1      31.577  22.538  24.555  1.00  0.00     0.119 C 
ATOM     10  N   UNL A   1      32.738  23.203  24.017  1.00  0.00    -0.354 N 
BRANCH   6  11
ATOM     11  C   UNL A   1      33.638  19.858  24.579  1.00  0.00     0.018 C 
BRANCH  11  12
ATOM     12  C   UNL A   1      32.512  18.857  24.922  1.00  0.00    -0.002 C 
ATOM     13  C   UNL A   1      32.902  17.566  25.618  1.00  0.00     0.004 C 
ENDBRANCH  11  12
ENDBRANCH   6  11
BRANCH  10  14
ATOM     14  C   UNL A   1      32.698  24.405  23.364  1.00  0.00     0.148 A 
ATOM     15  C   UNL A   1      33.647  24.714  22.373  1.00  0.00     0.157 A 
ATOM     16  N   UNL A   1      31.704  25.281  23.627  1.00  0.00    -0.221 NA
ATOM     17  N   UNL A   1      33.653  25.847  21.630  1.00  0.00    -0.258 NA
ATOM     18  C   UNL A   1      31.724  26.451  22.918  1.00  0.00     0.169 A 
ATOM     19  C   UNL A   1      32.664  26.714  21.933  1.00  0.00     0.147 A 
BRANCH  18  20
ATOM     20  C   UNL A   1      30.757  27.531  23.237  1.00  0.00     0.358 C 
ATOM     21  O   UNL A   1      30.417  27.802  24.381  1.00  0.00    -0.244 OA
BRANCH  20  22
ATOM     22  O   UNL A   1      30.266  28.109  22.113  1.00  0.00    -0.464 OA
ATOM     23  C   UNL A   1      29.355  29.178  22.373  1.00  0.00     0.282 C 
ENDBRANCH  20  22
ENDBRANCH  18  20
ENDBRANCH  10  14
ENDBRANCH   3   6
ENDBRANCH   1   2
BRANCH   1  24
ATOM     24  C   UNL A   1      37.805  20.133  25.000  1.00  0.00     0.042 C 
BRANCH  24  25
ATOM     25  C   UNL A   1      39.082  20.499  25.748  1.00  0.00     0.118 C 
BRANCH  25  26
ATOM     26  N   UNL A   1      40.010  19.383  25.862  1.00  0.00    -0.352 N 
ATOM     27  C   UNL A   1      41.367  19.374  26.073  1.00  0.00     0.251 C 
ATOM     28  H   UNL A   1      39.599  18.493  25.776  1.00  0.00     0.163 HD
ATOM     29  O   UNL A   1      41.997  18.328  25.954  1.00  0.00    -0.269 OA
BRANCH  27  30
ATOM     30  C   UNL A   1      42.077  20.624  26.413  1.00  0.00     0.039 A 
ATOM     31  C   UNL A   1      42.573  21.424  25.378  1.00  0.00     0.014 A 
ATOM     32  C   UNL A   1      42.259  21.009  27.743  1.00  0.00     0.014 A 
ATOM     33  C   UNL A   1      43.164  22.654  25.676  1.00  0.00     0.010 A 
ATOM     34  C   UNL A   1      42.776  22.268  28.034  1.00  0.00     0.010 A 
ATOM     35  C   UNL A   1      43.221  23.109  27.002  1.00  0.00    -0.014 A 
BRANCH  35  36
ATOM     36  C   UNL A   1      43.707  24.472  27.337  1.00  0.00     0.031 A 
ATOM     37  C   UNL A   1      42.736  25.547  27.735  1.00  0.00     0.074 A 
ATOM     38  C   UNL A   1      45.014  24.764  27.187  1.00  0.00     0.049 A 
ATOM     39  N   UNL A   1      42.953  26.821  27.941  1.00  0.00    -0.248 NA
ATOM     40  C   UNL A   1      41.330  25.142  27.895  1.00  0.00     0.031 C 
ATOM     41  C   UNL A   1      46.050  23.818  26.766  1.00  0.00     0.029 A 
ATOM     42  N   UNL A   1      45.692  25.946  27.351  1.00  0.00    -0.354 N 
ATOM     43  C   UNL A   1      41.713  27.371  28.239  1.00  0.00     0.074 A 
ATOM     44  C   UNL A   1      40.742  26.303  28.142  1.00  0.00     0.031 C 
ATOM     45  C   UNL A   1      47.232  24.453  26.717  1.00  0.00     0.029 A 
ATOM     46  C   UNL A   1      47.032  25.858  27.057  1.00  0.00     0.049 A 
ATOM     47  H   UNL A   1      45.260  26.778  27.651  1.00  0.00     0.167 HD
ATOM     48  C   UNL A   1      41.415  28.647  28.581  1.00  0.00     0.037 A 
ATOM     49  C   UNL A   1      47.987  26.806  27.041  1.00  0.00     0.037 A 
ATOM     50  C   UNL A   1      42.389  29.702  28.700  1.00  0.00     0.049 A 
ATOM     51  C   UNL A   1      47.626  28.221  27.397  1.00  0.00     0.074 A 
ATOM     52  C   UNL A   1      42.196  31.009  29.112  1.00  0.00     0.029 A 
ATOM     53  N   UNL A   1      43.736  29.571  28.400  1.00  0.00    -0.354 N 
ATOM     54  N   UNL A   1      46.462  28.712  27.744  1.00  0.00    -0.248 NA
ATOM     55  C   UNL A   1      48.709  29.214  27.353  1.00  0.00     0.031 C 
ATOM     56  C   UNL A   1      43.418  31.682  29.013  1.00  0.00     0.029 A 
ATOM     57  C   UNL A   1      44.381  30.783  28.586  1.00  0.00     0.049 A 
ATOM     58  H   UNL A   1      44.171  28.740  28.100  1.00  0.00     0.167 HD
ATOM     59  C   UNL A   1      46.675  30.064  27.981  1.00  0.00     0.074 A 
ATOM     60  C   UNL A   1      48.083  30.312  27.752  1.00  0.00     0.031 C 
ATOM     61  C   UNL A   1      45.783  31.014  28.354  1.00  0.00     0.037 A 
BRANCH  48  62
ATOM     62  C   UNL A   1      39.976  28.977  28.853  1.00  0.00     0.057 A 
ATOM     63  C   UNL A   1      39.457  28.999  30.153  1.00  0.00     0.134 A 
ATOM     64  C   UNL A   1      39.111  29.317  27.806  1.00  0.00     0.134 A 
ATOM     65  F   UNL A   1      40.229  28.673  31.200  1.00  0.00    -0.206 F 
ATOM     66  C   UNL A   1      38.121  29.325  30.401  1.00  0.00     0.040 A 
ATOM     67  C   UNL A   1      37.781  29.671  28.042  1.00  0.00     0.040 A 
ATOM     68  F   UNL A   1      39.546  29.323  26.536  1.00  0.00    -0.206 F 
ATOM     69  C   UNL A   1      37.282  29.669  29.343  1.00  0.00     0.006 A 
ENDBRANCH  48  62
BRANCH  49  70
ATOM     70  C   UNL A   1      49.382  26.449  26.674  1.00  0.00     0.057 A 
ATOM     71  C   UNL A   1      49.833  26.571  25.355  1.00  0.00     0.134 A 
ATOM     72  C   UNL A   1      50.292  25.977  27.627  1.00  0.00     0.134 A 
ATOM     73  F   UNL A   1      49.002  26.999  24.394  1.00  0.00    -0.206 F 
ATOM     74  C   UNL A   1      51.135  26.220  24.992  1.00  0.00     0.040 A 
ATOM     75  C   UNL A   1      51.603  25.645  27.283  1.00  0.00     0.040 A 
ATOM     76  F   UNL A   1      49.923  25.845  28.910  1.00  0.00    -0.206 F 
ATOM     77  C   UNL A   1      52.026  25.760  25.960  1.00  0.00     0.006 A 
ENDBRANCH  49  70
BRANCH  61  78
ATOM     78  C   UNL A   1      46.304  32.406  28.554  1.00  0.00     0.057 A 
ATOM     79  C   UNL A   1      46.819  32.830  29.785  1.00  0.00     0.134 A 
ATOM     80  C   UNL A   1      46.344  33.314  27.488  1.00  0.00     0.134 A 
ATOM     81  F   UNL A   1      46.796  32.013  30.849  1.00  0.00    -0.206 F 
ATOM     82  C   UNL A   1      47.341  34.113  29.953  1.00  0.00     0.040 A 
ATOM     83  C   UNL A   1      46.887  34.591  27.636  1.00  0.00     0.040 A 
ATOM     84  F   UNL A   1      45.874  32.967  26.280  1.00  0.00    -0.206 F 
ATOM     85  C   UNL A   1      47.386  34.994  28.873  1.00  0.00     0.006 A 
ENDBRANCH  61  78
ENDBRANCH  35  36
ENDBRANCH  27  30
ENDBRANCH  25  26
ENDBRANCH  24  25
ENDBRANCH   1  24
TORSDOF 15
ENDMDL
MODEL 2
REMARK VINA RESULT:     -11.5      5.417     10.104
REMARK SMILES CCC[C@]1(C(=O)NCCCNC(=O)c2ccc(-c3c4nc(c(-c5c(F)cccc5F)c5ccc([nH]5)c(-c5c(F)cccc5F)c5nc(c(-c6c(F)cccc6F)c6ccc3[nH]6)C=C5)C=C4)cc2)CCN(c2cncc(C(=O)OC)n2)C1
REMARK SMILES IDX 8 1 7 2 5 3 6 4 4 6 68 7 81 8 69 9 70 10 3 11 2 12 1 13
REMARK SMILES IDX 71 14 72 15 80 16 73 17 75 18 74 19 76 20 77 21 78 22 79 23
REMARK SMILES IDX 9 24 10 25 11 26 12 27 13 29 14 30 15 31 67 32 16 33 66 34
REMARK SMILES IDX 17 35 18 36 19 37 60 38 20 39 65 40 59 41 61 42 21 43 64 44
REMARK SMILES IDX 58 45 57 46 22 48 48 49 31 50 47 51 32 52 35 53 46 54 62 55
REMARK SMILES IDX 33 56 34 57 45 59 63 60 36 61 23 62 24 63 29 64 25 65 26 66
REMARK SMILES IDX 28 67 30 68 27 69 49 70 50 71 55 72 51 73 52 74 54 75 56 76
REMARK SMILES IDX 53 77 37 78 38 79 43 80 39 81 40 82 42 83 44 84 41 85
REMARK H PARENT 7 5 11 28 61 47 35 58
REMARK Flexibility Score: inf
ROOT
ATOM      1  C   UNL A   1      31.375  30.892  26.480  1.00  0.00     0.117 C 
ENDROOT
BRANCH   1   2
ATOM      2  N   UNL A   1      31.973  30.359  25.269  1.00  0.00    -0.355 N 
ATOM      3  C   UNL A   1      32.447  29.133  24.925  1.00  0.00     0.228 C 
ATOM      4  O   UNL A   1      32.712  29.012  23.724  1.00  0.00    -0.274 OA
ATOM      5  H   UNL A   1      32.052  31.025  24.548  1.00  0.00     0.163 HD
BRANCH   3   6
ATOM      6  C   UNL A   1      32.610  27.956  25.909  1.00  0.00     0.068 C 
ATOM      7  C   UNL A   1      31.278  27.271  26.306  1.00  0.00     0.040 C 
ATOM      8  C   UNL A   1      33.434  26.833  25.194  1.00  0.00     0.135 C 
ATOM      9  C   UNL A   1      31.515  25.775  26.160  1.00  0.00     0.119 C 
ATOM     10  N   UNL A   1      32.514  25.707  25.123  1.00  0.00    -0.354 N 
BRANCH   6  11
ATOM     11  C   UNL A   1      33.370  28.404  27.198  1.00  0.00     0.018 C 
BRANCH  11  12
ATOM     12  C   UNL A   1      34.765  29.059  27.086  1.00  0.00    -0.002 C 
ATOM     13  C   UNL A   1      34.928  30.470  27.622  1.00  0.00     0.004 C 
ENDBRANCH  11  12
ENDBRANCH   6  11
BRANCH  10  14
ATOM     14  C   UNL A   1      32.721  24.611  24.330  1.00  0.00     0.148 A 
ATOM     15  C   UNL A   1      33.012  24.759  22.963  1.00  0.00     0.157 A 
ATOM     16  N   UNL A   1      32.707  23.375  24.875  1.00  0.00    -0.221 NA
ATOM     17  N   UNL A   1      33.294  23.741  22.113  1.00  0.00    -0.258 NA
ATOM     18  C   UNL A   1      32.943  22.333  24.021  1.00  0.00     0.169 A 
ATOM     19  C   UNL A   1      33.247  22.517  22.680  1.00  0.00     0.147 A 
BRANCH  18  20
ATOM     20  C   UNL A   1      32.811  20.934  24.498  1.00  0.00     0.358 C 
ATOM     21  O   UNL A   1      31.784  20.499  25.004  1.00  0.00    -0.244 OA
BRANCH  20  22
ATOM     22  O   UNL A   1      33.972  20.247  24.362  1.00  0.00    -0.464 OA
ATOM     23  C   UNL A   1      34.996  20.675  25.261  1.00  0.00     0.282 C 
ENDBRANCH  20  22
ENDBRANCH  18  20
ENDBRANCH  10  14
ENDBRANCH   3   6
ENDBRANCH   1   2
BRANCH   1  24
ATOM     24  C   UNL A   1      31.407  32.414  26.540  1.00  0.00     0.042 C 
BRANCH  24  25
ATOM     25  C   UNL A   1      32.595  32.984  27.304  1.00  0.00     0.118 C 
BRANCH  25  26
ATOM     26  N   UNL A   1      32.431  34.393  27.635  1.00  0.00    -0.352 N 
ATOM     27  C   UNL A   1      33.041  35.156  28.602  1.00  0.00     0.251 C 
ATOM     28  H   UNL A   1      31.781  34.876  27.076  1.00  0.00     0.163 HD
ATOM     29  O   UNL A   1      32.627  36.286  28.839  1.00  0.00    -0.269 OA
BRANCH  27  30
ATOM     30  C   UNL A   1      34.173  34.610  29.379  1.00  0.00     0.039 A 
ATOM     31  C   UNL A   1      33.936  34.122  30.668  1.00  0.00     0.014 A 
ATOM     32  C   UNL A   1      35.463  34.580  28.845  1.00  0.00     0.014 A 
ATOM     33  C   UNL A   1      34.974  33.518  31.381  1.00  0.00     0.010 A 
ATOM     34  C   UNL A   1      36.476  33.908  29.523  1.00  0.00     0.010 A 
ATOM     35  C   UNL A   1      36.238  33.359  30.792  1.00  0.00    -0.014 A 
BRANCH  35  36
ATOM     36  C   UNL A   1      37.318  32.591  31.463  1.00  0.00     0.031 A 
ATOM     37  C   UNL A   1      37.863  33.046  32.786  1.00  0.00     0.074 A 
ATOM     38  C   UNL A   1      37.871  31.538  30.830  1.00  0.00     0.049 A 
ATOM     39  N   UNL A   1      38.882  32.582  33.463  1.00  0.00    -0.248 NA
ATOM     40  C   UNL A   1      37.190  34.191  33.420  1.00  0.00     0.031 C 
ATOM     41  C   UNL A   1      37.460  31.023  29.522  1.00  0.00     0.029 A 
ATOM     42  N   UNL A   1      38.916  30.723  31.191  1.00  0.00    -0.354 N 
ATOM     43  C   UNL A   1      38.984  33.386  34.591  1.00  0.00     0.074 A 
ATOM     44  C   UNL A   1      37.951  34.395  34.485  1.00  0.00     0.031 C 
ATOM     45  C   UNL A   1      38.233  29.975  29.198  1.00  0.00     0.029 A 
ATOM     46  C   UNL A   1      39.224  29.772  30.249  1.00  0.00     0.049 A 
ATOM     47  H   UNL A   1      39.399  30.813  32.045  1.00  0.00     0.167 HD
ATOM     48  C   UNL A   1      39.847  33.281  35.629  1.00  0.00     0.037 A 
ATOM     49  C   UNL A   1      40.208  28.853  30.224  1.00  0.00     0.037 A 
ATOM     50  C   UNL A   1      40.857  32.261  35.742  1.00  0.00     0.049 A 
ATOM     51  C   UNL A   1      41.171  28.774  31.375  1.00  0.00     0.074 A 
ATOM     52  C   UNL A   1      41.731  32.027  36.789  1.00  0.00     0.029 A 
ATOM     53  N   UNL A   1      41.133  31.312  34.770  1.00  0.00    -0.354 N 
ATOM     54  N   UNL A   1      41.211  29.497  32.468  1.00  0.00    -0.248 NA
ATOM     55  C   UNL A   1      42.229  27.757  31.288  1.00  0.00     0.031 C 
ATOM     56  C   UNL A   1      42.569  30.967  36.429  1.00  0.00     0.029 A 
ATOM     57  C   UNL A   1      42.187  30.510  35.178  1.00  0.00     0.049 A 
ATOM     58  H   UNL A   1      40.652  31.220  33.916  1.00  0.00     0.167 HD
ATOM     59  C   UNL A   1      42.281  29.010  33.207  1.00  0.00     0.074 A 
ATOM     60  C   UNL A   1      42.855  27.921  32.445  1.00  0.00     0.031 C 
ATOM     61  C   UNL A   1      42.746  29.429  34.408  1.00  0.00     0.037 A 
BRANCH  48  62
ATOM     62  C   UNL A   1      39.738  34.296  36.730  1.00  0.00     0.057 A 
ATOM     63  C   UNL A   1      38.985  34.053  37.886  1.00  0.00     0.134 A 
ATOM     64  C   UNL A   1      40.428  35.511  36.652  1.00  0.00     0.134 A 
ATOM     65  F   UNL A   1      38.292  32.912  38.019  1.00  0.00    -0.206 F 
ATOM     66  C   UNL A   1      38.903  34.993  38.915  1.00  0.00     0.040 A 
ATOM     67  C   UNL A   1      40.376  36.449  37.686  1.00  0.00     0.040 A 
ATOM     68  F   UNL A   1      41.174  35.805  35.575  1.00  0.00    -0.206 F 
ATOM     69  C   UNL A   1      39.606  36.193  38.819  1.00  0.00     0.006 A 
ENDBRANCH  48  62
BRANCH  49  70
ATOM     70  C   UNL A   1      40.332  27.930  29.067  1.00  0.00     0.057 A 
ATOM     71  C   UNL A   1      39.660  26.703  29.049  1.00  0.00     0.134 A 
ATOM     72  C   UNL A   1      41.126  28.246  27.958  1.00  0.00     0.134 A 
ATOM     73  F   UNL A   1      38.900  26.334  30.091  1.00  0.00    -0.206 F 
ATOM     74  C   UNL A   1      39.784  25.816  27.978  1.00  0.00     0.040 A 
ATOM     75  C   UNL A   1      41.240  27.381  26.870  1.00  0.00     0.040 A 
ATOM     76  F   UNL A   1      41.791  29.411  27.911  1.00  0.00    -0.206 F 
ATOM     77  C   UNL A   1      40.573  26.158  26.881  1.00  0.00     0.006 A 
ENDBRANCH  49  70
BRANCH  61  78
ATOM     78  C   UNL A   1      43.924  28.699  34.983  1.00  0.00     0.057 A 
ATOM     79  C   UNL A   1      43.764  27.580  35.809  1.00  0.00     0.134 A 
ATOM     80  C   UNL A   1      45.231  29.085  34.660  1.00  0.00     0.134 A 
ATOM     81  F   UNL A   1      42.539  27.168  36.167  1.00  0.00    -0.206 F 
ATOM     82  C   UNL A   1      44.864  26.879  36.306  1.00  0.00     0.040 A 
ATOM     83  C   UNL A   1      46.338  28.378  35.130  1.00  0.00     0.040 A 
ATOM     84  F   UNL A   1      45.452  30.145  33.867  1.00  0.00    -0.206 F 
ATOM     85  C   UNL A   1      46.156  27.272  35.958  1.00  0.00     0.006 A 
ENDBRANCH  61  78
ENDBRANCH  35  36
ENDBRANCH  27  30
ENDBRANCH  25  26
ENDBRANCH  24  25
ENDBRANCH   1  24
TORSDOF 15
ENDMDL
MODEL 3
REMARK VINA RESULT:     -11.5      5.078     10.371
REMARK SMILES CCC[C@]1(C(=O)NCCCNC(=O)c2ccc(-c3c4nc(c(-c5c(F)cccc5F)c5ccc([nH]5)c(-c5c(F)cccc5F)c5nc(c(-c6c(F)cccc6F)c6ccc3[nH]6)C=C5)C=C4)cc2)CCN(c2cncc(C(=O)OC)n2)C1
REMARK SMILES IDX 8 1 7 2 5 3 6 4 4 6 68 7 81 8 69 9 70 10 3 11 2 12 1 13
REMARK SMILES IDX 71 14 72 15 80 16 73 17 75 18 74 19 76 20 77 21 78 22 79 23
REMARK SMILES IDX 9 24 10 25 11 26 12 27 13 29 14 30 15 31 67 32 16 33 66 34
REMARK SMILES IDX 17 35 18 36 19 37 60 38 20 39 65 40 59 41 61 42 21 43 64 44
REMARK SMILES IDX 58 45 57 46 22 48 48 49 31 50 47 51 32 52 35 53 46 54 62 55
REMARK SMILES IDX 33 56 34 57 45 59 63 60 36 61 23 62 24 63 29 64 25 65 26 66
REMARK SMILES IDX 28 67 30 68 27 69 49 70 50 71 55 72 51 73 52 74 54 75 56 76
REMARK SMILES IDX 53 77 37 78 38 79 43 80 39 81 40 82 42 83 44 84 41 85
REMARK H PARENT 7 5 11 28 61 47 35 58
REMARK Flexibility Score: inf
ROOT
ATOM      1  C   UNL A   1      31.339  31.055  26.574  1.00  0.00     0.117 C 
ENDROOT
BRANCH   1   2
ATOM      2  N   UNL A   1      31.909  30.462  25.378  1.00  0.00    -0.355 N 
ATOM      3  C   UNL A   1      32.393  29.226  25.090  1.00  0.00     0.228 C 
ATOM      4  O   UNL A   1      32.623  29.038  23.891  1.00  0.00    -0.274 OA
ATOM      5  H   UNL A   1      31.956  31.086  24.617  1.00  0.00     0.163 HD
BRANCH   3   6
ATOM      6  C   UNL A   1      32.605  28.110  26.136  1.00  0.00     0.068 C 
ATOM      7  C   UNL A   1      31.323  27.310  26.479  1.00  0.00     0.040 C 
ATOM      8  C   UNL A   1      33.581  27.049  25.525  1.00  0.00     0.135 C 
ATOM      9  C   UNL A   1      31.716  25.841  26.417  1.00  0.00     0.119 C 
ATOM     10  N   UNL A   1      32.782  25.834  25.448  1.00  0.00    -0.354 N 
BRANCH   6  11
ATOM     11  C   UNL A   1      33.231  28.682  27.447  1.00  0.00     0.018 C 
BRANCH  11  12
ATOM     12  C   UNL A   1      34.723  29.080  27.484  1.00  0.00    -0.002 C 
ATOM     13  C   UNL A   1      35.063  30.557  27.398  1.00  0.00     0.004 C 
ENDBRANCH  11  12
ENDBRANCH   6  11
BRANCH  10  14
ATOM     14  C   UNL A   1      33.149  24.734  24.720  1.00  0.00     0.148 A 
ATOM     15  C   UNL A   1      32.175  23.887  24.161  1.00  0.00     0.157 A 
ATOM     16  N   UNL A   1      34.456  24.488  24.484  1.00  0.00    -0.221 NA
ATOM     17  N   UNL A   1      32.437  22.814  23.376  1.00  0.00    -0.258 NA
ATOM     18  C   UNL A   1      34.739  23.381  23.732  1.00  0.00     0.169 A 
ATOM     19  C   UNL A   1      33.751  22.579  23.178  1.00  0.00     0.147 A 
BRANCH  18  20
ATOM     20  C   UNL A   1      36.146  22.953  23.537  1.00  0.00     0.358 C 
ATOM     21  O   UNL A   1      36.681  22.911  22.437  1.00  0.00    -0.244 OA
BRANCH  20  22
ATOM     22  O   UNL A   1      36.715  22.560  24.704  1.00  0.00    -0.464 OA
ATOM     23  C   UNL A   1      36.510  21.179  25.002  1.00  0.00     0.282 C 
ENDBRANCH  20  22
ENDBRANCH  18  20
ENDBRANCH  10  14
ENDBRANCH   3   6
ENDBRANCH   1   2
BRANCH   1  24
ATOM     24  C   UNL A   1      31.361  32.578  26.552  1.00  0.00     0.042 C 
BRANCH  24  25
ATOM     25  C   UNL A   1      32.692  33.191  26.969  1.00  0.00     0.118 C 
BRANCH  25  26
ATOM     26  N   UNL A   1      32.538  34.307  27.891  1.00  0.00    -0.352 N 
ATOM     27  C   UNL A   1      33.220  34.607  29.045  1.00  0.00     0.251 C 
ATOM     28  H   UNL A   1      31.833  34.949  27.648  1.00  0.00     0.163 HD
ATOM     29  O   UNL A   1      32.812  35.500  29.781  1.00  0.00    -0.269 OA
BRANCH  27  30
ATOM     30  C   UNL A   1      34.425  33.839  29.421  1.00  0.00     0.039 A 
ATOM     31  C   UNL A   1      35.671  34.262  28.948  1.00  0.00     0.014 A 
ATOM     32  C   UNL A   1      34.331  32.707  30.233  1.00  0.00     0.014 A 
ATOM     33  C   UNL A   1      36.830  33.605  29.367  1.00  0.00     0.010 A 
ATOM     34  C   UNL A   1      35.490  32.103  30.712  1.00  0.00     0.010 A 
ATOM     35  C   UNL A   1      36.751  32.555  30.295  1.00  0.00    -0.014 A 
BRANCH  35  36
ATOM     36  C   UNL A   1      37.971  31.935  30.874  1.00  0.00     0.031 A 
ATOM     37  C   UNL A   1      38.693  30.846  30.134  1.00  0.00     0.074 A 
ATOM     38  C   UNL A   1      38.368  32.289  32.112  1.00  0.00     0.049 A 
ATOM     39  N   UNL A   1      39.695  30.103  30.529  1.00  0.00    -0.248 NA
ATOM     40  C   UNL A   1      38.208  30.532  28.780  1.00  0.00     0.031 C 
ATOM     41  C   UNL A   1      37.725  33.303  32.951  1.00  0.00     0.029 A 
ATOM     42  N   UNL A   1      39.396  31.820  32.891  1.00  0.00    -0.354 N 
ATOM     43  C   UNL A   1      39.949  29.225  29.483  1.00  0.00     0.074 A 
ATOM     44  C   UNL A   1      38.969  29.497  28.455  1.00  0.00     0.031 C 
ATOM     45  C   UNL A   1      38.380  33.388  34.119  1.00  0.00     0.029 A 
ATOM     46  C   UNL A   1      39.458  32.405  34.133  1.00  0.00     0.049 A 
ATOM     47  H   UNL A   1      40.030  31.129  32.589  1.00  0.00     0.167 HD
ATOM     48  C   UNL A   1      40.925  28.291  29.382  1.00  0.00     0.037 A 
ATOM     49  C   UNL A   1      40.276  32.162  35.174  1.00  0.00     0.037 A 
ATOM     50  C   UNL A   1      41.913  28.039  30.398  1.00  0.00     0.049 A 
ATOM     51  C   UNL A   1      41.332  31.100  35.048  1.00  0.00     0.074 A 
ATOM     52  C   UNL A   1      42.985  27.165  30.359  1.00  0.00     0.029 A 
ATOM     53  N   UNL A   1      41.946  28.657  31.638  1.00  0.00    -0.354 N 
ATOM     54  N   UNL A   1      41.605  30.326  34.026  1.00  0.00    -0.248 NA
ATOM     55  C   UNL A   1      42.190  30.873  36.220  1.00  0.00     0.031 C 
ATOM     56  C   UNL A   1      43.638  27.218  31.595  1.00  0.00     0.029 A 
ATOM     57  C   UNL A   1      43.000  28.159  32.387  1.00  0.00     0.049 A 
ATOM     58  H   UNL A   1      41.314  29.348  31.944  1.00  0.00     0.167 HD
ATOM     59  C   UNL A   1      42.677  29.536  34.423  1.00  0.00     0.074 A 
ATOM     60  C   UNL A   1      43.014  29.936  35.773  1.00  0.00     0.031 C 
ATOM     61  C   UNL A   1      43.323  28.568  33.730  1.00  0.00     0.037 A 
BRANCH  48  62
ATOM     62  C   UNL A   1      40.972  27.467  28.128  1.00  0.00     0.057 A 
ATOM     63  C   UNL A   1      41.720  27.863  27.012  1.00  0.00     0.134 A 
ATOM     64  C   UNL A   1      40.296  26.243  28.050  1.00  0.00     0.134 A 
ATOM     65  F   UNL A   1      42.383  29.030  27.017  1.00  0.00    -0.206 F 
ATOM     66  C   UNL A   1      41.775  27.084  25.855  1.00  0.00     0.040 A 
ATOM     67  C   UNL A   1      40.364  25.442  26.909  1.00  0.00     0.040 A 
ATOM     68  F   UNL A   1      39.566  25.800  29.086  1.00  0.00    -0.206 F 
ATOM     69  C   UNL A   1      41.100  25.865  25.805  1.00  0.00     0.006 A 
ENDBRANCH  48  62
BRANCH  49  70
ATOM     70  C   UNL A   1      40.130  32.940  36.431  1.00  0.00     0.057 A 
ATOM     71  C   UNL A   1      40.967  34.027  36.705  1.00  0.00     0.134 A 
ATOM     72  C   UNL A   1      39.159  32.617  37.386  1.00  0.00     0.134 A 
ATOM     73  F   UNL A   1      41.930  34.374  35.839  1.00  0.00    -0.206 F 
ATOM     74  C   UNL A   1      40.856  34.755  37.891  1.00  0.00     0.040 A 
ATOM     75  C   UNL A   1      39.020  33.350  38.564  1.00  0.00     0.040 A 
ATOM     76  F   UNL A   1      38.321  31.590  37.178  1.00  0.00    -0.206 F 
ATOM     77  C   UNL A   1      39.875  34.419  38.823  1.00  0.00     0.006 A 
ENDBRANCH  49  70
BRANCH  61  78
ATOM     78  C   UNL A   1      44.470  27.882  34.412  1.00  0.00     0.057 A 
ATOM     79  C   UNL A   1      45.768  28.404  34.373  1.00  0.00     0.134 A 
ATOM     80  C   UNL A   1      44.262  26.717  35.162  1.00  0.00     0.134 A 
ATOM     81  F   UNL A   1      46.035  29.509  33.661  1.00  0.00    -0.206 F 
ATOM     82  C   UNL A   1      46.822  27.785  35.046  1.00  0.00     0.040 A 
ATOM     83  C   UNL A   1      45.302  26.103  35.859  1.00  0.00     0.040 A 
ATOM     84  F   UNL A   1      43.039  26.170  35.245  1.00  0.00    -0.206 F 
ATOM     85  C   UNL A   1      46.589  26.636  35.800  1.00  0.00     0.006 A 
ENDBRANCH  61  78
ENDBRANCH  35  36
ENDBRANCH  27  30
ENDBRANCH  25  26
ENDBRANCH  24  25
ENDBRANCH   1  24
TORSDOF 15
ENDMDL
