MODEL 1
REMARK VINA RESULT:     -10.8      0.000      0.000
REMARK SMILES O=C(C[S@](=O)c1c([N+](=O)[O-])cc(C(F)(F)F)cc1[N+](=O)[O-])NCCCNC(=O)c1ccc(-c2c3nc(c(-c4c(F)cccc4F)c4ccc([nH]4)c(-c4c(F)cccc4F)c4nc(c(-c5c(F)cccc5F)c5ccc2[nH]5)C=C4)C=C3)cc1
REMARK SMILES IDX 23 1 22 2 1 3 2 4 3 6 4 7 5 8 6 9 7 10 18 11 11 12 17 13
REMARK SMILES IDX 12 14 8 15 9 16 10 17 19 18 20 19 21 20 13 21 14 22 15 23
REMARK SMILES IDX 16 24 24 25 25 26 26 27 27 28 28 30 29 31 30 32 82 33 31 34
REMARK SMILES IDX 81 35 32 36 33 37 34 38 75 39 35 40 80 41 74 42 76 43 36 44
REMARK SMILES IDX 79 45 73 46 72 47 37 49 63 50 46 51 62 52 47 53 50 54 61 55
REMARK SMILES IDX 77 56 48 57 49 58 60 60 78 61 51 62 38 63 39 64 44 65 40 66
REMARK SMILES IDX 41 67 43 68 45 69 42 70 64 71 65 72 70 73 66 74 67 75 69 76
REMARK SMILES IDX 71 77 68 78 52 79 53 80 58 81 54 82 55 83 57 84 59 85 56 86
REMARK H PARENT 22 5 26 29 76 48 50 59
REMARK Flexibility Score: inf
ROOT
ATOM      1  C   UNL A   1      36.185  19.585  24.900  1.00  0.00     0.117 C 
ENDROOT
BRANCH   1   2
ATOM      2  N   UNL A   1      35.278  20.723  24.887  1.00  0.00    -0.355 N 
ATOM      3  O   UNL A   1      33.488  19.508  24.191  1.00  0.00    -0.274 OA
ATOM      4  C   UNL A   1      33.962  20.605  24.493  1.00  0.00     0.233 C 
ATOM      5  H   UNL A   1      35.613  21.606  25.168  1.00  0.00     0.163 HD
BRANCH   4   6
ATOM      6  C   UNL A   1      33.146  21.863  24.279  1.00  0.00     0.210 C 
BRANCH   6   7
ATOM      7  S   UNL A   1      33.750  23.111  23.133  1.00  0.00     0.077 S 
ATOM      8  O   UNL A   1      35.185  22.818  22.824  1.00  0.00    -0.253 OA
BRANCH   7   9
ATOM      9  C   UNL A   1      33.826  24.689  24.014  1.00  0.00     0.194 A 
ATOM     10  C   UNL A   1      33.180  25.807  23.451  1.00  0.00     0.293 A 
ATOM     11  C   UNL A   1      34.446  24.928  25.246  1.00  0.00     0.293 A 
ATOM     12  C   UNL A   1      32.977  27.012  24.152  1.00  0.00     0.100 A 
ATOM     13  C   UNL A   1      34.223  26.108  25.990  1.00  0.00     0.100 A 
ATOM     14  C   UNL A   1      33.437  27.141  25.466  1.00  0.00     0.069 A 
BRANCH  10  15
ATOM     15  N   UNL A   1      32.729  25.793  22.068  1.00  0.00     0.064 N 
ATOM     16  O   UNL A   1      33.586  26.012  21.205  1.00  0.00    -0.258 OA
ATOM     17  O   UNL A   1      31.518  25.633  21.879  1.00  0.00    -0.258 OA
ENDBRANCH  10  15
BRANCH  11  18
ATOM     18  N   UNL A   1      35.400  24.001  25.819  1.00  0.00     0.064 N 
ATOM     19  O   UNL A   1      36.554  24.061  25.377  1.00  0.00    -0.258 OA
ATOM     20  O   UNL A   1      34.988  23.220  26.677  1.00  0.00    -0.258 OA
ENDBRANCH  11  18
BRANCH  14  21
ATOM     21  C   UNL A   1      33.151  28.393  26.269  1.00  0.00     0.416 C 
ATOM     22  F   UNL A   1      32.098  29.088  25.769  1.00  0.00    -0.166 F 
ATOM     23  F   UNL A   1      32.856  28.120  27.565  1.00  0.00    -0.166 F 
ATOM     24  F   UNL A   1      34.206  29.251  26.280  1.00  0.00    -0.166 F 
ENDBRANCH  14  21
ENDBRANCH   7   9
ENDBRANCH   6   7
ENDBRANCH   4   6
ENDBRANCH   1   2
BRANCH   1  25
ATOM     25  C   UNL A   1      37.630  19.961  24.557  1.00  0.00     0.042 C 
BRANCH  25  26
ATOM     26  C   UNL A   1      38.593  20.123  25.736  1.00  0.00     0.118 C 
BRANCH  26  27
ATOM     27  N   UNL A   1      39.795  19.313  25.651  1.00  0.00    -0.352 N 
ATOM     28  C   UNL A   1      41.083  19.580  26.037  1.00  0.00     0.251 C 
ATOM     29  H   UNL A   1      39.662  18.423  25.249  1.00  0.00     0.163 HD
ATOM     30  O   UNL A   1      41.935  18.708  25.835  1.00  0.00    -0.269 OA
BRANCH  28  31
ATOM     31  C   UNL A   1      41.494  20.873  26.636  1.00  0.00     0.039 A 
ATOM     32  C   UNL A   1      41.888  21.895  25.762  1.00  0.00     0.014 A 
ATOM     33  C   UNL A   1      41.548  21.097  28.015  1.00  0.00     0.014 A 
ATOM     34  C   UNL A   1      42.281  23.142  26.258  1.00  0.00     0.010 A 
ATOM     35  C   UNL A   1      41.901  22.360  28.510  1.00  0.00     0.010 A 
ATOM     36  C   UNL A   1      42.267  23.396  27.637  1.00  0.00    -0.014 A 
BRANCH  36  37
ATOM     37  C   UNL A   1      42.605  24.750  28.154  1.00  0.00     0.031 A 
ATOM     38  C   UNL A   1      44.023  25.121  28.489  1.00  0.00     0.074 A 
ATOM     39  C   UNL A   1      41.622  25.652  28.344  1.00  0.00     0.049 A 
ATOM     40  N   UNL A   1      44.496  26.262  28.928  1.00  0.00    -0.248 NA
ATOM     41  C   UNL A   1      45.040  24.073  28.326  1.00  0.00     0.031 C 
ATOM     42  C   UNL A   1      40.199  25.413  28.100  1.00  0.00     0.029 A 
ATOM     43  N   UNL A   1      41.670  26.952  28.785  1.00  0.00    -0.354 N 
ATOM     44  C   UNL A   1      45.862  26.069  29.095  1.00  0.00     0.074 A 
ATOM     45  C   UNL A   1      46.134  24.689  28.753  1.00  0.00     0.031 C 
ATOM     46  C   UNL A   1      39.512  26.534  28.375  1.00  0.00     0.029 A 
ATOM     47  C   UNL A   1      40.441  27.563  28.833  1.00  0.00     0.049 A 
ATOM     48  H   UNL A   1      42.507  27.403  29.043  1.00  0.00     0.167 HD
ATOM     49  C   UNL A   1      46.806  26.962  29.480  1.00  0.00     0.037 A 
ATOM     50  C   UNL A   1      40.099  28.814  29.198  1.00  0.00     0.037 A 
ATOM     51  C   UNL A   1      46.545  28.341  29.809  1.00  0.00     0.049 A 
ATOM     52  C   UNL A   1      41.165  29.788  29.613  1.00  0.00     0.074 A 
ATOM     53  C   UNL A   1      47.449  29.330  30.161  1.00  0.00     0.029 A 
ATOM     54  N   UNL A   1      45.290  28.926  29.827  1.00  0.00    -0.354 N 
ATOM     55  N   UNL A   1      42.460  29.609  29.695  1.00  0.00    -0.248 NA
ATOM     56  C   UNL A   1      40.721  31.142  29.975  1.00  0.00     0.031 C 
ATOM     57  C   UNL A   1      46.737  30.505  30.425  1.00  0.00     0.029 A 
ATOM     58  C   UNL A   1      45.393  30.257  30.198  1.00  0.00     0.049 A 
ATOM     59  H   UNL A   1      44.448  28.464  29.608  1.00  0.00     0.167 HD
ATOM     60  C   UNL A   1      42.988  30.833  30.085  1.00  0.00     0.074 A 
ATOM     61  C   UNL A   1      41.875  31.748  30.215  1.00  0.00     0.031 C 
ATOM     62  C   UNL A   1      44.282  31.166  30.312  1.00  0.00     0.037 A 
BRANCH  49  63
ATOM     63  C   UNL A   1      48.223  26.474  29.563  1.00  0.00     0.057 A 
ATOM     64  C   UNL A   1      49.109  26.608  28.487  1.00  0.00     0.134 A 
ATOM     65  C   UNL A   1      48.719  25.905  30.743  1.00  0.00     0.134 A 
ATOM     66  F   UNL A   1      48.694  27.137  27.326  1.00  0.00    -0.206 F 
ATOM     67  C   UNL A   1      50.433  26.172  28.573  1.00  0.00     0.040 A 
ATOM     68  C   UNL A   1      50.046  25.486  30.848  1.00  0.00     0.040 A 
ATOM     69  F   UNL A   1      47.924  25.757  31.814  1.00  0.00    -0.206 F 
ATOM     70  C   UNL A   1      50.905  25.614  29.758  1.00  0.00     0.006 A 
ENDBRANCH  49  63
BRANCH  50  71
ATOM     71  C   UNL A   1      38.676  29.234  29.149  1.00  0.00     0.057 A 
ATOM     72  C   UNL A   1      37.865  29.165  30.288  1.00  0.00     0.134 A 
ATOM     73  C   UNL A   1      38.093  29.702  27.965  1.00  0.00     0.134 A 
ATOM     74  F   UNL A   1      38.365  28.706  31.444  1.00  0.00    -0.206 F 
ATOM     75  C   UNL A   1      36.519  29.529  30.248  1.00  0.00     0.040 A 
ATOM     76  C   UNL A   1      36.754  30.090  27.917  1.00  0.00     0.040 A 
ATOM     77  F   UNL A   1      38.822  29.797  26.843  1.00  0.00    -0.206 F 
ATOM     78  C   UNL A   1      35.961  29.997  29.060  1.00  0.00     0.006 A 
ENDBRANCH  50  71
BRANCH  62  79
ATOM     79  C   UNL A   1      44.569  32.591  30.684  1.00  0.00     0.057 A 
ATOM     80  C   UNL A   1      44.631  33.010  32.019  1.00  0.00     0.134 A 
ATOM     81  C   UNL A   1      44.814  33.550  29.693  1.00  0.00     0.134 A 
ATOM     82  F   UNL A   1      44.392  32.144  33.015  1.00  0.00    -0.206 F 
ATOM     83  C   UNL A   1      44.905  34.337  32.354  1.00  0.00     0.040 A 
ATOM     84  C   UNL A   1      45.111  34.874  30.017  1.00  0.00     0.040 A 
ATOM     85  F   UNL A   1      44.776  33.212  28.395  1.00  0.00    -0.206 F 
ATOM     86  C   UNL A   1      45.152  35.272  31.351  1.00  0.00     0.006 A 
ENDBRANCH  62  79
ENDBRANCH  36  37
ENDBRANCH  28  31
ENDBRANCH  26  27
ENDBRANCH  25  26
ENDBRANCH   1  25
TORSDOF 15
ENDMDL
MODEL 2
REMARK VINA RESULT:     -10.6      2.529      3.752
REMARK SMILES O=C(C[S@](=O)c1c([N+](=O)[O-])cc(C(F)(F)F)cc1[N+](=O)[O-])NCCCNC(=O)c1ccc(-c2c3nc(c(-c4c(F)cccc4F)c4ccc([nH]4)c(-c4c(F)cccc4F)c4nc(c(-c5c(F)cccc5F)c5ccc2[nH]5)C=C4)C=C3)cc1
REMARK SMILES IDX 23 1 22 2 1 3 2 4 3 6 4 7 5 8 6 9 7 10 18 11 11 12 17 13
REMARK SMILES IDX 12 14 8 15 9 16 10 17 19 18 20 19 21 20 13 21 14 22 15 23
REMARK SMILES IDX 16 24 24 25 25 26 26 27 27 28 28 30 29 31 30 32 82 33 31 34
REMARK SMILES IDX 81 35 32 36 33 37 34 38 75 39 35 40 80 41 74 42 76 43 36 44
REMARK SMILES IDX 79 45 73 46 72 47 37 49 63 50 46 51 62 52 47 53 50 54 61 55
REMARK SMILES IDX 77 56 48 57 49 58 60 60 78 61 51 62 38 63 39 64 44 65 40 66
REMARK SMILES IDX 41 67 43 68 45 69 42 70 64 71 65 72 70 73 66 74 67 75 69 76
REMARK SMILES IDX 71 77 68 78 52 79 53 80 58 81 54 82 55 83 57 84 59 85 56 86
REMARK H PARENT 22 5 26 29 76 48 50 59
REMARK Flexibility Score: inf
ROOT
ATOM      1  C   UNL A   1      34.318  22.252  25.151  1.00  0.00     0.117 C 
ENDROOT
BRANCH   1   2
ATOM      2  N   UNL A   1      33.545  23.189  24.349  1.00  0.00    -0.355 N 
ATOM      3  O   UNL A   1      35.071  23.277  22.668  1.00  0.00    -0.274 OA
ATOM      4  C   UNL A   1      34.004  23.671  23.143  1.00  0.00     0.233 C 
ATOM      5  H   UNL A   1      32.666  23.488  24.678  1.00  0.00     0.163 HD
BRANCH   4   6
ATOM      6  C   UNL A   1      33.262  24.815  22.481  1.00  0.00     0.210 C 
BRANCH   6   7
ATOM      7  S   UNL A   1      31.887  25.582  23.349  1.00  0.00     0.077 S 
ATOM      8  O   UNL A   1      31.041  26.310  22.352  1.00  0.00    -0.253 OA
BRANCH   7   9
ATOM      9  C   UNL A   1      32.549  26.910  24.383  1.00  0.00     0.194 A 
ATOM     10  C   UNL A   1      32.426  26.800  25.783  1.00  0.00     0.293 A 
ATOM     11  C   UNL A   1      33.221  28.057  23.941  1.00  0.00     0.293 A 
ATOM     12  C   UNL A   1      33.101  27.647  26.683  1.00  0.00     0.100 A 
ATOM     13  C   UNL A   1      33.942  28.896  24.818  1.00  0.00     0.100 A 
ATOM     14  C   UNL A   1      33.931  28.662  26.198  1.00  0.00     0.069 A 
BRANCH  10  15
ATOM     15  N   UNL A   1      31.531  25.821  26.380  1.00  0.00     0.064 N 
ATOM     16  O   UNL A   1      32.024  24.723  26.663  1.00  0.00    -0.258 OA
ATOM     17  O   UNL A   1      30.344  26.145  26.489  1.00  0.00    -0.258 OA
ENDBRANCH  10  15
BRANCH  11  18
ATOM     18  N   UNL A   1      33.177  28.487  22.560  1.00  0.00     0.064 N 
ATOM     19  O   UNL A   1      34.095  28.087  21.833  1.00  0.00    -0.258 OA
ATOM     20  O   UNL A   1      32.251  29.226  22.224  1.00  0.00    -0.258 OA
ENDBRANCH  11  18
BRANCH  14  21
ATOM     21  C   UNL A   1      34.736  29.526  27.147  1.00  0.00     0.416 C 
ATOM     22  F   UNL A   1      34.216  30.774  27.262  1.00  0.00    -0.166 F 
ATOM     23  F   UNL A   1      34.787  29.008  28.400  1.00  0.00    -0.166 F 
ATOM     24  F   UNL A   1      36.022  29.683  26.736  1.00  0.00    -0.166 F 
ENDBRANCH  14  21
ENDBRANCH   7   9
ENDBRANCH   6   7
ENDBRANCH   4   6
ENDBRANCH   1   2
BRANCH   1  25
ATOM     25  C   UNL A   1      35.061  22.921  26.313  1.00  0.00     0.042 C 
BRANCH  25  26
ATOM     26  C   UNL A   1      36.400  23.582  25.978  1.00  0.00     0.118 C 
BRANCH  26  27
ATOM     27  N   UNL A   1      37.527  22.668  25.922  1.00  0.00    -0.352 N 
ATOM     28  C   UNL A   1      38.831  22.831  26.313  1.00  0.00     0.251 C 
ATOM     29  H   UNL A   1      37.320  21.784  25.540  1.00  0.00     0.163 HD
ATOM     30  O   UNL A   1      39.606  21.884  26.138  1.00  0.00    -0.269 OA
BRANCH  28  31
ATOM     31  C   UNL A   1      39.349  24.097  26.887  1.00  0.00     0.039 A 
ATOM     32  C   UNL A   1      39.943  25.011  26.006  1.00  0.00     0.014 A 
ATOM     33  C   UNL A   1      39.312  24.393  28.252  1.00  0.00     0.014 A 
ATOM     34  C   UNL A   1      40.447  26.228  26.478  1.00  0.00     0.010 A 
ATOM     35  C   UNL A   1      39.778  25.630  28.719  1.00  0.00     0.010 A 
ATOM     36  C   UNL A   1      40.346  26.561  27.836  1.00  0.00    -0.014 A 
BRANCH  36  37
ATOM     37  C   UNL A   1      40.807  27.891  28.318  1.00  0.00     0.031 A 
ATOM     38  C   UNL A   1      42.267  28.251  28.328  1.00  0.00     0.074 A 
ATOM     39  C   UNL A   1      39.903  28.782  28.772  1.00  0.00     0.049 A 
ATOM     40  N   UNL A   1      42.838  29.373  28.694  1.00  0.00    -0.248 NA
ATOM     41  C   UNL A   1      43.209  27.213  27.886  1.00  0.00     0.031 C 
ATOM     42  C   UNL A   1      38.460  28.551  28.858  1.00  0.00     0.029 A 
ATOM     43  N   UNL A   1      40.063  30.061  29.247  1.00  0.00    -0.354 N 
ATOM     44  C   UNL A   1      44.203  29.175  28.528  1.00  0.00     0.074 A 
ATOM     45  C   UNL A   1      44.377  27.812  28.072  1.00  0.00     0.031 C 
ATOM     46  C   UNL A   1      37.865  29.656  29.335  1.00  0.00     0.029 A 
ATOM     47  C   UNL A   1      38.884  30.667  29.607  1.00  0.00     0.049 A 
ATOM     48  H   UNL A   1      40.940  30.502  29.321  1.00  0.00     0.167 HD
ATOM     49  C   UNL A   1      45.219  30.053  28.720  1.00  0.00     0.037 A 
ATOM     50  C   UNL A   1      38.646  31.899  30.097  1.00  0.00     0.037 A 
ATOM     51  C   UNL A   1      45.053  31.414  29.161  1.00  0.00     0.049 A 
ATOM     52  C   UNL A   1      39.789  32.856  30.293  1.00  0.00     0.074 A 
ATOM     53  C   UNL A   1      46.022  32.389  29.335  1.00  0.00     0.029 A 
ATOM     54  N   UNL A   1      43.842  31.996  29.498  1.00  0.00    -0.354 N 
ATOM     55  N   UNL A   1      41.065  32.677  30.062  1.00  0.00    -0.248 NA
ATOM     56  C   UNL A   1      39.452  34.191  30.808  1.00  0.00     0.031 C 
ATOM     57  C   UNL A   1      45.401  33.549  29.810  1.00  0.00     0.029 A 
ATOM     58  C   UNL A   1      44.039  33.309  29.894  1.00  0.00     0.049 A 
ATOM     59  H   UNL A   1      42.968  31.541  29.462  1.00  0.00     0.167 HD
ATOM     60  C   UNL A   1      41.679  33.883  30.371  1.00  0.00     0.074 A 
ATOM     61  C   UNL A   1      40.635  34.790  30.798  1.00  0.00     0.031 C 
ATOM     62  C   UNL A   1      42.993  34.209  30.304  1.00  0.00     0.037 A 
BRANCH  49  63
ATOM     63  C   UNL A   1      46.612  29.565  28.448  1.00  0.00     0.057 A 
ATOM     64  C   UNL A   1      47.185  29.657  27.174  1.00  0.00     0.134 A 
ATOM     65  C   UNL A   1      47.402  29.039  29.477  1.00  0.00     0.134 A 
ATOM     66  F   UNL A   1      46.478  30.144  26.143  1.00  0.00    -0.206 F 
ATOM     67  C   UNL A   1      48.489  29.222  26.927  1.00  0.00     0.040 A 
ATOM     68  C   UNL A   1      48.714  28.621  29.248  1.00  0.00     0.040 A 
ATOM     69  F   UNL A   1      46.916  28.931  30.723  1.00  0.00    -0.206 F 
ATOM     70  C   UNL A   1      49.258  28.707  27.967  1.00  0.00     0.006 A 
ENDBRANCH  49  63
BRANCH  50  71
ATOM     71  C   UNL A   1      37.255  32.318  30.400  1.00  0.00     0.057 A 
ATOM     72  C   UNL A   1      36.731  32.191  31.692  1.00  0.00     0.134 A 
ATOM     73  C   UNL A   1      36.418  32.841  29.409  1.00  0.00     0.134 A 
ATOM     74  F   UNL A   1      37.482  31.678  32.677  1.00  0.00    -0.206 F 
ATOM     75  C   UNL A   1      35.415  32.553  31.984  1.00  0.00     0.040 A 
ATOM     76  C   UNL A   1      35.107  33.227  29.692  1.00  0.00     0.040 A 
ATOM     77  F   UNL A   1      36.866  32.992  28.154  1.00  0.00    -0.206 F 
ATOM     78  C   UNL A   1      34.600  33.077  30.982  1.00  0.00     0.006 A 
ENDBRANCH  50  71
BRANCH  62  79
ATOM     79  C   UNL A   1      43.371  35.617  30.660  1.00  0.00     0.057 A 
ATOM     80  C   UNL A   1      43.718  35.982  31.966  1.00  0.00     0.134 A 
ATOM     81  C   UNL A   1      43.413  36.613  29.676  1.00  0.00     0.134 A 
ATOM     82  F   UNL A   1      43.684  35.078  32.957  1.00  0.00    -0.206 F 
ATOM     83  C   UNL A   1      44.074  37.293  32.286  1.00  0.00     0.040 A 
ATOM     84  C   UNL A   1      43.789  37.923  29.980  1.00  0.00     0.040 A 
ATOM     85  F   UNL A   1      43.098  36.328  28.404  1.00  0.00    -0.206 F 
ATOM     86  C   UNL A   1      44.116  38.267  31.290  1.00  0.00     0.006 A 
ENDBRANCH  62  79
ENDBRANCH  36  37
ENDBRANCH  28  31
ENDBRANCH  26  27
ENDBRANCH  25  26
ENDBRANCH   1  25
TORSDOF 15
ENDMDL
MODEL 3
REMARK VINA RESULT:     -10.6      4.497      9.120
REMARK SMILES O=C(C[S@](=O)c1c([N+](=O)[O-])cc(C(F)(F)F)cc1[N+](=O)[O-])NCCCNC(=O)c1ccc(-c2c3nc(c(-c4c(F)cccc4F)c4ccc([nH]4)c(-c4c(F)cccc4F)c4nc(c(-c5c(F)cccc5F)c5ccc2[nH]5)C=C4)C=C3)cc1
REMARK SMILES IDX 23 1 22 2 1 3 2 4 3 6 4 7 5 8 6 9 7 10 18 11 11 12 17 13
REMARK SMILES IDX 12 14 8 15 9 16 10 17 19 18 20 19 21 20 13 21 14 22 15 23
REMARK SMILES IDX 16 24 24 25 25 26 26 27 27 28 28 30 29 31 30 32 82 33 31 34
REMARK SMILES IDX 81 35 32 36 33 37 34 38 75 39 35 40 80 41 74 42 76 43 36 44
REMARK SMILES IDX 79 45 73 46 72 47 37 49 63 50 46 51 62 52 47 53 50 54 61 55
REMARK SMILES IDX 77 56 48 57 49 58 60 60 78 61 51 62 38 63 39 64 44 65 40 66
REMARK SMILES IDX 41 67 43 68 45 69 42 70 64 71 65 72 70 73 66 74 67 75 69 76
REMARK SMILES IDX 71 77 68 78 52 79 53 80 58 81 54 82 55 83 57 84 59 85 56 86
REMARK H PARENT 22 5 26 29 76 48 50 59
REMARK Flexibility Score: inf
ROOT
ATOM      1  C   UNL A   1      31.774  30.308  26.867  1.00  0.00     0.117 C 
ENDROOT
BRANCH   1   2
ATOM      2  N   UNL A   1      31.465  29.627  25.618  1.00  0.00    -0.355 N 
ATOM      3  O   UNL A   1      33.637  29.456  24.974  1.00  0.00    -0.274 OA
ATOM      4  C   UNL A   1      32.447  29.265  24.721  1.00  0.00     0.233 C 
ATOM      5  H   UNL A   1      30.526  29.417  25.408  1.00  0.00     0.163 HD
BRANCH   4   6
ATOM      6  C   UNL A   1      32.038  28.776  23.346  1.00  0.00     0.210 C 
BRANCH   6   7
ATOM      7  S   UNL A   1      31.260  27.163  23.189  1.00  0.00     0.077 S 
ATOM      8  O   UNL A   1      30.022  27.146  24.031  1.00  0.00    -0.253 OA
BRANCH   7   9
ATOM      9  C   UNL A   1      32.328  25.946  23.995  1.00  0.00     0.194 A 
ATOM     10  C   UNL A   1      33.345  25.333  23.236  1.00  0.00     0.293 A 
ATOM     11  C   UNL A   1      32.281  25.552  25.338  1.00  0.00     0.293 A 
ATOM     12  C   UNL A   1      34.371  24.557  23.809  1.00  0.00     0.100 A 
ATOM     13  C   UNL A   1      33.318  24.812  25.947  1.00  0.00     0.100 A 
ATOM     14  C   UNL A   1      34.404  24.354  25.191  1.00  0.00     0.069 A 
BRANCH  10  15
ATOM     15  N   UNL A   1      33.355  25.429  21.784  1.00  0.00     0.064 N 
ATOM     16  O   UNL A   1      33.040  24.409  21.161  1.00  0.00    -0.258 OA
ATOM     17  O   UNL A   1      33.745  26.497  21.299  1.00  0.00    -0.258 OA
ENDBRANCH  10  15
BRANCH  11  18
ATOM     18  N   UNL A   1      31.139  25.835  26.181  1.00  0.00     0.064 N 
ATOM     19  O   UNL A   1      30.175  25.067  26.073  1.00  0.00    -0.258 OA
ATOM     20  O   UNL A   1      31.206  26.820  26.917  1.00  0.00    -0.258 OA
ENDBRANCH  11  18
BRANCH  14  21
ATOM     21  C   UNL A   1      35.546  23.598  25.838  1.00  0.00     0.416 C 
ATOM     22  F   UNL A   1      35.997  22.589  25.051  1.00  0.00    -0.166 F 
ATOM     23  F   UNL A   1      36.613  24.396  26.096  1.00  0.00    -0.166 F 
ATOM     24  F   UNL A   1      35.186  23.031  27.020  1.00  0.00    -0.166 F 
ENDBRANCH  14  21
ENDBRANCH   7   9
ENDBRANCH   6   7
ENDBRANCH   4   6
ENDBRANCH   1   2
BRANCH   1  25
ATOM     25  C   UNL A   1      31.449  31.805  26.834  1.00  0.00     0.042 C 
BRANCH  25  26
ATOM     26  C   UNL A   1      32.642  32.764  26.848  1.00  0.00     0.118 C 
BRANCH  26  27
ATOM     27  N   UNL A   1      32.417  33.997  27.581  1.00  0.00    -0.352 N 
ATOM     28  C   UNL A   1      33.139  34.584  28.588  1.00  0.00     0.251 C 
ATOM     29  H   UNL A   1      31.611  34.495  27.309  1.00  0.00     0.163 HD
ATOM     30  O   UNL A   1      32.714  35.645  29.057  1.00  0.00    -0.269 OA
BRANCH  28  31
ATOM     31  C   UNL A   1      34.368  33.979  29.157  1.00  0.00     0.039 A 
ATOM     32  C   UNL A   1      34.209  32.989  30.136  1.00  0.00     0.014 A 
ATOM     33  C   UNL A   1      35.658  34.380  28.798  1.00  0.00     0.014 A 
ATOM     34  C   UNL A   1      35.324  32.371  30.710  1.00  0.00     0.010 A 
ATOM     35  C   UNL A   1      36.775  33.731  29.343  1.00  0.00     0.010 A 
ATOM     36  C   UNL A   1      36.619  32.717  30.300  1.00  0.00    -0.014 A 
BRANCH  36  37
ATOM     37  C   UNL A   1      37.799  31.998  30.853  1.00  0.00     0.031 A 
ATOM     38  C   UNL A   1      38.339  32.326  32.218  1.00  0.00     0.074 A 
ATOM     39  C   UNL A   1      38.405  31.051  30.112  1.00  0.00     0.049 A 
ATOM     40  N   UNL A   1      39.343  31.782  32.861  1.00  0.00    -0.248 NA
ATOM     41  C   UNL A   1      37.677  33.415  32.950  1.00  0.00     0.031 C 
ATOM     42  C   UNL A   1      38.014  30.661  28.757  1.00  0.00     0.029 A 
ATOM     43  N   UNL A   1      39.481  30.243  30.392  1.00  0.00    -0.354 N 
ATOM     44  C   UNL A   1      39.435  32.462  34.069  1.00  0.00     0.074 A 
ATOM     45  C   UNL A   1      38.413  33.488  34.050  1.00  0.00     0.031 C 
ATOM     46  C   UNL A   1      38.822  29.676  28.331  1.00  0.00     0.029 A 
ATOM     47  C   UNL A   1      39.801  29.378  29.374  1.00  0.00     0.049 A 
ATOM     48  H   UNL A   1      39.975  30.280  31.243  1.00  0.00     0.167 HD
ATOM     49  C   UNL A   1      40.279  32.243  35.106  1.00  0.00     0.037 A 
ATOM     50  C   UNL A   1      40.769  28.446  29.289  1.00  0.00     0.037 A 
ATOM     51  C   UNL A   1      41.290  31.216  35.138  1.00  0.00     0.049 A 
ATOM     52  C   UNL A   1      41.688  28.217  30.456  1.00  0.00     0.074 A 
ATOM     53  C   UNL A   1      42.157  30.890  36.168  1.00  0.00     0.029 A 
ATOM     54  N   UNL A   1      41.570  30.349  34.095  1.00  0.00    -0.354 N 
ATOM     55  N   UNL A   1      41.713  28.820  31.618  1.00  0.00    -0.248 NA
ATOM     56  C   UNL A   1      42.705  27.166  30.302  1.00  0.00     0.031 C 
ATOM     57  C   UNL A   1      42.984  29.848  35.736  1.00  0.00     0.029 A 
ATOM     58  C   UNL A   1      42.605  29.499  34.449  1.00  0.00     0.049 A 
ATOM     59  H   UNL A   1      41.102  30.338  33.228  1.00  0.00     0.167 HD
ATOM     60  C   UNL A   1      42.723  28.202  32.344  1.00  0.00     0.074 A 
ATOM     61  C   UNL A   1      43.282  27.172  31.495  1.00  0.00     0.031 C 
ATOM     62  C   UNL A   1      43.147  28.467  33.604  1.00  0.00     0.037 A 
BRANCH  49  63
ATOM     63  C   UNL A   1      40.143  33.134  36.306  1.00  0.00     0.057 A 
ATOM     64  C   UNL A   1      40.922  34.289  36.454  1.00  0.00     0.134 A 
ATOM     65  C   UNL A   1      39.196  32.861  37.300  1.00  0.00     0.134 A 
ATOM     66  F   UNL A   1      41.854  34.602  35.540  1.00  0.00    -0.206 F 
ATOM     67  C   UNL A   1      40.780  35.128  37.560  1.00  0.00     0.040 A 
ATOM     68  C   UNL A   1      39.029  33.705  38.400  1.00  0.00     0.040 A 
ATOM     69  F   UNL A   1      38.411  31.776  37.214  1.00  0.00    -0.206 F 
ATOM     70  C   UNL A   1      39.827  34.839  38.534  1.00  0.00     0.006 A 
ENDBRANCH  49  63
BRANCH  50  71
ATOM     71  C   UNL A   1      40.897  27.624  28.060  1.00  0.00     0.057 A 
ATOM     72  C   UNL A   1      41.673  28.060  26.979  1.00  0.00     0.134 A 
ATOM     73  C   UNL A   1      40.240  26.395  27.932  1.00  0.00     0.134 A 
ATOM     74  F   UNL A   1      42.310  29.239  27.039  1.00  0.00    -0.206 F 
ATOM     75  C   UNL A   1      41.778  27.310  25.807  1.00  0.00     0.040 A 
ATOM     76  C   UNL A   1      40.354  25.626  26.773  1.00  0.00     0.040 A 
ATOM     77  F   UNL A   1      39.487  25.922  28.936  1.00  0.00    -0.206 F 
ATOM     78  C   UNL A   1      41.119  26.087  25.704  1.00  0.00     0.006 A 
ENDBRANCH  50  71
BRANCH  62  79
ATOM     79  C   UNL A   1      44.240  27.601  34.157  1.00  0.00     0.057 A 
ATOM     80  C   UNL A   1      43.968  26.413  34.846  1.00  0.00     0.134 A 
ATOM     81  C   UNL A   1      45.585  27.949  33.972  1.00  0.00     0.134 A 
ATOM     82  F   UNL A   1      42.701  26.031  35.069  1.00  0.00    -0.206 F 
ATOM     83  C   UNL A   1      44.993  25.612  35.350  1.00  0.00     0.040 A 
ATOM     84  C   UNL A   1      46.619  27.143  34.453  1.00  0.00     0.040 A 
ATOM     85  F   UNL A   1      45.914  29.071  33.315  1.00  0.00    -0.206 F 
ATOM     86  C   UNL A   1      46.324  25.974  35.149  1.00  0.00     0.006 A 
ENDBRANCH  62  79
ENDBRANCH  36  37
ENDBRANCH  28  31
ENDBRANCH  26  27
ENDBRANCH  25  26
ENDBRANCH   1  25
TORSDOF 15
ENDMDL
