MODEL 1
REMARK VINA RESULT:     -12.7      0.000      0.000
REMARK SMILES Cc1ccc([C@@H](CC(=O)NCCCNC(=O)c2ccc(-c3c4nc(c(-c5c(F)cccc5F)c5ccc([nH]5)c(-c5c(F)cccc5F)c5nc(c(-c6c(F)cccc6F)c6ccc3[nH]6)C=C5)C=C4)cc2)NC(=O)c2ccc(OC(F)F)cc2)cc1
REMARK SMILES IDX 8 1 9 2 10 3 7 5 6 6 5 7 1 8 2 9 3 10 85 11 4 12 84 13 71 14
REMARK SMILES IDX 72 15 73 17 74 18 75 19 83 20 76 21 82 22 77 23 78 24 79 25
REMARK SMILES IDX 80 26 81 27 11 28 12 29 13 30 14 31 15 32 16 34 17 35 18 36
REMARK SMILES IDX 70 37 19 38 69 39 20 40 21 41 22 42 63 43 23 44 68 45 62 46
REMARK SMILES IDX 64 47 24 48 67 49 61 50 60 51 25 53 51 54 34 55 50 56 35 57
REMARK SMILES IDX 38 58 49 59 65 60 36 61 37 62 48 64 66 65 39 66 26 67 27 68
REMARK SMILES IDX 32 69 28 70 29 71 31 72 33 73 30 74 52 75 53 76 58 77 54 78
REMARK SMILES IDX 55 79 57 80 59 81 56 82 40 83 41 84 46 85 42 86 43 87 45 88
REMARK SMILES IDX 47 89 44 90
REMARK H PARENT 10 4 71 16 14 33 64 52 38 63
REMARK Flexibility Score: inf
ROOT
ATOM      1  C   UNL A   1      36.419  23.273  23.954  1.00  0.00     0.222 C 
ATOM      2  O   UNL A   1      36.447  23.240  22.723  1.00  0.00    -0.275 OA
ATOM      3  N   UNL A   1      37.606  23.201  24.618  1.00  0.00    -0.356 N 
ATOM      4  H   UNL A   1      38.389  23.508  24.107  1.00  0.00     0.163 HD
ENDROOT
BRANCH   1   5
ATOM      5  C   UNL A   1      35.135  23.535  24.706  1.00  0.00     0.129 C 
BRANCH   5   6
ATOM      6  C   UNL A   1      33.836  23.694  23.887  1.00  0.00     0.122 C 
BRANCH   6   7
ATOM      7  C   UNL A   1      33.192  22.317  23.712  1.00  0.00    -0.025 A 
ATOM      8  C   UNL A   1      32.263  18.203  22.795  1.00  0.00     0.044 C 
ATOM      9  C   UNL A   1      32.473  19.637  23.184  1.00  0.00    -0.051 A 
ATOM     10  C   UNL A   1      32.060  20.663  22.335  1.00  0.00     0.004 A 
ATOM     11  C   UNL A   1      33.170  19.964  24.350  1.00  0.00     0.004 A 
ATOM     12  C   UNL A   1      32.390  21.992  22.612  1.00  0.00     0.006 A 
ATOM     13  C   UNL A   1      33.525  21.290  24.611  1.00  0.00     0.006 A 
ENDBRANCH   6   7
BRANCH   6  14
ATOM     14  N   UNL A   1      33.949  24.419  22.622  1.00  0.00    -0.345 N 
ATOM     15  C   UNL A   1      33.406  25.621  22.249  1.00  0.00     0.251 C 
ATOM     16  H   UNL A   1      34.497  23.976  21.935  1.00  0.00     0.164 HD
ATOM     17  O   UNL A   1      33.269  25.880  21.051  1.00  0.00    -0.269 OA
BRANCH  15  18
ATOM     18  C   UNL A   1      32.998  26.618  23.259  1.00  0.00     0.040 A 
ATOM     19  C   UNL A   1      31.760  26.501  23.894  1.00  0.00     0.017 A 
ATOM     20  C   UNL A   1      33.789  27.743  23.498  1.00  0.00     0.017 A 
ATOM     21  C   UNL A   1      31.357  27.475  24.814  1.00  0.00     0.047 A 
ATOM     22  C   UNL A   1      33.399  28.696  24.439  1.00  0.00     0.047 A 
ATOM     23  C   UNL A   1      32.185  28.566  25.109  1.00  0.00     0.126 A 
BRANCH  23  24
ATOM     24  O   UNL A   1      31.684  29.439  26.033  1.00  0.00    -0.435 OA
BRANCH  24  25
ATOM     25  C   UNL A   1      31.934  29.169  27.406  1.00  0.00     0.542 C 
ATOM     26  F   UNL A   1      30.920  28.433  27.926  1.00  0.00    -0.167 F 
ATOM     27  F   UNL A   1      33.084  28.466  27.544  1.00  0.00    -0.167 F 
ENDBRANCH  24  25
ENDBRANCH  23  24
ENDBRANCH  15  18
ENDBRANCH   6  14
ENDBRANCH   5   6
ENDBRANCH   1   5
BRANCH   3  28
ATOM     28  C   UNL A   1      37.887  22.737  25.967  1.00  0.00     0.117 C 
BRANCH  28  29
ATOM     29  C   UNL A   1      39.024  21.741  25.871  1.00  0.00     0.042 C 
BRANCH  29  30
ATOM     30  C   UNL A   1      40.064  21.777  26.972  1.00  0.00     0.118 C 
BRANCH  30  31
ATOM     31  N   UNL A   1      41.389  22.318  26.665  1.00  0.00    -0.352 N 
ATOM     32  C   UNL A   1      41.794  23.651  26.694  1.00  0.00     0.251 C 
ATOM     33  H   UNL A   1      42.076  21.662  26.405  1.00  0.00     0.163 HD
ATOM     34  O   UNL A   1      42.989  23.956  26.716  1.00  0.00    -0.269 OA
BRANCH  32  35
ATOM     35  C   UNL A   1      40.764  24.709  26.809  1.00  0.00     0.039 A 
ATOM     36  C   UNL A   1      40.880  25.793  25.931  1.00  0.00     0.014 A 
ATOM     37  C   UNL A   1      40.152  24.845  28.045  1.00  0.00     0.014 A 
ATOM     38  C   UNL A   1      40.787  27.076  26.452  1.00  0.00     0.010 A 
ATOM     39  C   UNL A   1      40.179  26.111  28.590  1.00  0.00     0.010 A 
ATOM     40  C   UNL A   1      40.626  27.202  27.823  1.00  0.00    -0.014 A 
BRANCH  40  41
ATOM     41  C   UNL A   1      40.973  28.389  28.595  1.00  0.00     0.031 A 
ATOM     42  C   UNL A   1      39.917  29.399  28.779  1.00  0.00     0.074 A 
ATOM     43  C   UNL A   1      42.130  28.450  29.300  1.00  0.00     0.049 A 
ATOM     44  N   UNL A   1      40.080  30.523  29.376  1.00  0.00    -0.248 NA
ATOM     45  C   UNL A   1      38.572  29.227  28.237  1.00  0.00     0.031 C 
ATOM     46  C   UNL A   1      42.420  29.301  30.455  1.00  0.00     0.029 A 
ATOM     47  N   UNL A   1      43.373  27.873  28.996  1.00  0.00    -0.354 N 
ATOM     48  C   UNL A   1      38.842  31.100  29.536  1.00  0.00     0.074 A 
ATOM     49  C   UNL A   1      37.955  30.300  28.735  1.00  0.00     0.031 C 
ATOM     50  C   UNL A   1      43.748  29.426  30.595  1.00  0.00     0.029 A 
ATOM     51  C   UNL A   1      44.354  28.804  29.436  1.00  0.00     0.049 A 
ATOM     52  H   UNL A   1      43.532  27.001  28.565  1.00  0.00     0.167 HD
ATOM     53  C   UNL A   1      38.734  32.134  30.414  1.00  0.00     0.037 A 
ATOM     54  C   UNL A   1      45.175  29.441  28.546  1.00  0.00     0.037 A 
ATOM     55  C   UNL A   1      40.067  32.603  30.802  1.00  0.00     0.049 A 
ATOM     56  C   UNL A   1      44.991  30.946  28.491  1.00  0.00     0.074 A 
ATOM     57  C   UNL A   1      40.909  32.406  31.881  1.00  0.00     0.029 A 
ATOM     58  N   UNL A   1      40.845  33.171  29.813  1.00  0.00    -0.354 N 
ATOM     59  N   UNL A   1      44.083  31.596  29.166  1.00  0.00    -0.248 NA
ATOM     60  C   UNL A   1      45.756  31.830  27.609  1.00  0.00     0.031 C 
ATOM     61  C   UNL A   1      42.222  32.823  31.492  1.00  0.00     0.029 A 
ATOM     62  C   UNL A   1      42.161  33.298  30.192  1.00  0.00     0.049 A 
ATOM     63  H   UNL A   1      40.497  33.453  28.937  1.00  0.00     0.167 HD
ATOM     64  C   UNL A   1      44.057  32.904  28.765  1.00  0.00     0.074 A 
ATOM     65  C   UNL A   1      45.136  33.009  27.798  1.00  0.00     0.031 C 
ATOM     66  C   UNL A   1      43.120  33.789  29.211  1.00  0.00     0.037 A 
BRANCH  53  67
ATOM     67  C   UNL A   1      37.460  32.666  31.031  1.00  0.00     0.057 A 
ATOM     68  C   UNL A   1      36.961  32.073  32.208  1.00  0.00     0.134 A 
ATOM     69  C   UNL A   1      36.626  33.672  30.504  1.00  0.00     0.134 A 
ATOM     70  F   UNL A   1      37.646  31.124  32.864  1.00  0.00    -0.206 F 
ATOM     71  C   UNL A   1      35.724  32.410  32.774  1.00  0.00     0.040 A 
ATOM     72  C   UNL A   1      35.391  34.025  31.065  1.00  0.00     0.040 A 
ATOM     73  F   UNL A   1      36.933  34.379  29.419  1.00  0.00    -0.206 F 
ATOM     74  C   UNL A   1      34.927  33.383  32.196  1.00  0.00     0.006 A 
ENDBRANCH  53  67
BRANCH  54  75
ATOM     75  C   UNL A   1      45.502  28.564  27.389  1.00  0.00     0.057 A 
ATOM     76  C   UNL A   1      46.522  27.609  27.566  1.00  0.00     0.134 A 
ATOM     77  C   UNL A   1      44.541  28.301  26.409  1.00  0.00     0.134 A 
ATOM     78  F   UNL A   1      47.490  27.819  28.472  1.00  0.00    -0.206 F 
ATOM     79  C   UNL A   1      46.468  26.360  26.946  1.00  0.00     0.040 A 
ATOM     80  C   UNL A   1      44.498  27.062  25.761  1.00  0.00     0.040 A 
ATOM     81  F   UNL A   1      43.540  29.164  26.187  1.00  0.00    -0.206 F 
ATOM     82  C   UNL A   1      45.421  26.066  26.079  1.00  0.00     0.006 A 
ENDBRANCH  54  75
BRANCH  66  83
ATOM     83  C   UNL A   1      43.019  35.207  28.720  1.00  0.00     0.057 A 
ATOM     84  C   UNL A   1      43.107  36.305  29.583  1.00  0.00     0.134 A 
ATOM     85  C   UNL A   1      42.706  35.509  27.379  1.00  0.00     0.134 A 
ATOM     86  F   UNL A   1      43.360  36.136  30.889  1.00  0.00    -0.206 F 
ATOM     87  C   UNL A   1      42.918  37.620  29.134  1.00  0.00     0.040 A 
ATOM     88  C   UNL A   1      42.453  36.807  26.932  1.00  0.00     0.040 A 
ATOM     89  F   UNL A   1      42.660  34.559  26.433  1.00  0.00    -0.206 F 
ATOM     90  C   UNL A   1      42.572  37.872  27.810  1.00  0.00     0.006 A 
ENDBRANCH  66  83
ENDBRANCH  40  41
ENDBRANCH  32  35
ENDBRANCH  30  31
ENDBRANCH  29  30
ENDBRANCH  28  29
ENDBRANCH   3  28
TORSDOF 16
ENDMDL
MODEL 2
REMARK VINA RESULT:     -12.3      3.913      8.994
REMARK SMILES Cc1ccc([C@@H](CC(=O)NCCCNC(=O)c2ccc(-c3c4nc(c(-c5c(F)cccc5F)c5ccc([nH]5)c(-c5c(F)cccc5F)c5nc(c(-c6c(F)cccc6F)c6ccc3[nH]6)C=C5)C=C4)cc2)NC(=O)c2ccc(OC(F)F)cc2)cc1
REMARK SMILES IDX 8 1 9 2 10 3 7 5 6 6 5 7 1 8 2 9 3 10 85 11 4 12 84 13 71 14
REMARK SMILES IDX 72 15 73 17 74 18 75 19 83 20 76 21 82 22 77 23 78 24 79 25
REMARK SMILES IDX 80 26 81 27 11 28 12 29 13 30 14 31 15 32 16 34 17 35 18 36
REMARK SMILES IDX 70 37 19 38 69 39 20 40 21 41 22 42 63 43 23 44 68 45 62 46
REMARK SMILES IDX 64 47 24 48 67 49 61 50 60 51 25 53 51 54 34 55 50 56 35 57
REMARK SMILES IDX 38 58 49 59 65 60 36 61 37 62 48 64 66 65 39 66 26 67 27 68
REMARK SMILES IDX 32 69 28 70 29 71 31 72 33 73 30 74 52 75 53 76 58 77 54 78
REMARK SMILES IDX 55 79 57 80 59 81 56 82 40 83 41 84 46 85 42 86 43 87 45 88
REMARK SMILES IDX 47 89 44 90
REMARK H PARENT 10 4 71 16 14 33 64 52 38 63
REMARK Flexibility Score: inf
ROOT
ATOM      1  C   UNL A   1      33.349  28.260  26.287  1.00  0.00     0.222 C 
ATOM      2  O   UNL A   1      34.466  27.752  26.182  1.00  0.00    -0.275 OA
ATOM      3  N   UNL A   1      33.260  29.617  26.212  1.00  0.00    -0.356 N 
ATOM      4  H   UNL A   1      33.986  30.056  25.713  1.00  0.00     0.163 HD
ENDROOT
BRANCH   1   5
ATOM      5  C   UNL A   1      32.100  27.413  26.346  1.00  0.00     0.129 C 
BRANCH   5   6
ATOM      6  C   UNL A   1      32.252  25.886  26.168  1.00  0.00     0.122 C 
BRANCH   6   7
ATOM      7  C   UNL A   1      32.250  25.562  24.673  1.00  0.00    -0.025 A 
ATOM      8  C   UNL A   1      32.588  25.593  20.371  1.00  0.00     0.044 C 
ATOM      9  C   UNL A   1      32.448  25.452  21.857  1.00  0.00    -0.051 A 
ATOM     10  C   UNL A   1      31.221  25.693  22.474  1.00  0.00     0.004 A 
ATOM     11  C   UNL A   1      33.560  25.172  22.654  1.00  0.00     0.004 A 
ATOM     12  C   UNL A   1      31.117  25.719  23.867  1.00  0.00     0.006 A 
ATOM     13  C   UNL A   1      33.462  25.226  24.047  1.00  0.00     0.006 A 
ENDBRANCH   6   7
BRANCH   6  14
ATOM     14  N   UNL A   1      31.320  25.048  26.920  1.00  0.00    -0.345 N 
ATOM     15  C   UNL A   1      31.154  23.687  26.902  1.00  0.00     0.251 C 
ATOM     16  H   UNL A   1      30.721  25.534  27.531  1.00  0.00     0.164 HD
ATOM     17  O   UNL A   1      30.085  23.200  27.277  1.00  0.00    -0.269 OA
BRANCH  15  18
ATOM     18  C   UNL A   1      32.241  22.793  26.455  1.00  0.00     0.040 A 
ATOM     19  C   UNL A   1      32.120  22.095  25.251  1.00  0.00     0.017 A 
ATOM     20  C   UNL A   1      33.337  22.549  27.283  1.00  0.00     0.017 A 
ATOM     21  C   UNL A   1      33.131  21.213  24.856  1.00  0.00     0.047 A 
ATOM     22  C   UNL A   1      34.359  21.692  26.872  1.00  0.00     0.047 A 
ATOM     23  C   UNL A   1      34.267  21.023  25.653  1.00  0.00     0.126 A 
BRANCH  23  24
ATOM     24  O   UNL A   1      35.186  20.147  25.151  1.00  0.00    -0.435 OA
BRANCH  24  25
ATOM     25  C   UNL A   1      36.535  20.585  25.047  1.00  0.00     0.542 C 
ATOM     26  F   UNL A   1      37.340  19.538  24.736  1.00  0.00    -0.167 F 
ATOM     27  F   UNL A   1      36.652  21.516  24.069  1.00  0.00    -0.167 F 
ENDBRANCH  24  25
ENDBRANCH  23  24
ENDBRANCH  15  18
ENDBRANCH   6  14
ENDBRANCH   5   6
ENDBRANCH   1   5
BRANCH   3  28
ATOM     28  C   UNL A   1      32.253  30.512  26.758  1.00  0.00     0.117 C 
BRANCH  28  29
ATOM     29  C   UNL A   1      32.974  31.521  27.628  1.00  0.00     0.042 C 
BRANCH  29  30
ATOM     30  C   UNL A   1      34.486  31.548  27.540  1.00  0.00     0.118 C 
BRANCH  30  31
ATOM     31  N   UNL A   1      35.241  32.122  28.656  1.00  0.00    -0.352 N 
ATOM     32  C   UNL A   1      36.351  31.581  29.301  1.00  0.00     0.251 C 
ATOM     33  H   UNL A   1      34.926  32.992  28.991  1.00  0.00     0.163 HD
ATOM     34  O   UNL A   1      37.081  32.279  30.010  1.00  0.00    -0.269 OA
BRANCH  32  35
ATOM     35  C   UNL A   1      36.714  30.169  29.039  1.00  0.00     0.039 A 
ATOM     36  C   UNL A   1      36.767  29.320  30.151  1.00  0.00     0.014 A 
ATOM     37  C   UNL A   1      37.480  29.927  27.910  1.00  0.00     0.014 A 
ATOM     38  C   UNL A   1      37.881  28.506  30.306  1.00  0.00     0.010 A 
ATOM     39  C   UNL A   1      38.642  29.214  28.117  1.00  0.00     0.010 A 
ATOM     40  C   UNL A   1      38.893  28.617  29.366  1.00  0.00    -0.014 A 
BRANCH  40  41
ATOM     41  C   UNL A   1      40.281  28.234  29.590  1.00  0.00     0.031 A 
ATOM     42  C   UNL A   1      40.712  26.933  29.050  1.00  0.00     0.074 A 
ATOM     43  C   UNL A   1      41.185  29.127  30.066  1.00  0.00     0.049 A 
ATOM     44  N   UNL A   1      41.877  26.424  29.216  1.00  0.00    -0.248 NA
ATOM     45  C   UNL A   1      39.808  26.063  28.302  1.00  0.00     0.031 C 
ATOM     46  C   UNL A   1      42.640  29.083  29.912  1.00  0.00     0.029 A 
ATOM     47  N   UNL A   1      40.981  30.186  30.964  1.00  0.00    -0.354 N 
ATOM     48  C   UNL A   1      41.976  25.319  28.404  1.00  0.00     0.074 A 
ATOM     49  C   UNL A   1      40.638  25.089  27.929  1.00  0.00     0.031 C 
ATOM     50  C   UNL A   1      43.212  29.839  30.861  1.00  0.00     0.029 A 
ATOM     51  C   UNL A   1      42.157  30.254  31.761  1.00  0.00     0.049 A 
ATOM     52  H   UNL A   1      40.185  30.764  31.029  1.00  0.00     0.167 HD
ATOM     53  C   UNL A   1      43.217  24.808  28.176  1.00  0.00     0.037 A 
ATOM     54  C   UNL A   1      42.120  29.982  33.101  1.00  0.00     0.037 A 
ATOM     55  C   UNL A   1      44.181  25.404  29.106  1.00  0.00     0.049 A 
ATOM     56  C   UNL A   1      42.927  28.767  33.516  1.00  0.00     0.074 A 
ATOM     57  C   UNL A   1      45.114  26.422  29.044  1.00  0.00     0.029 A 
ATOM     58  N   UNL A   1      44.016  25.122  30.447  1.00  0.00    -0.354 N 
ATOM     59  N   UNL A   1      43.549  27.983  32.679  1.00  0.00    -0.248 NA
ATOM     60  C   UNL A   1      43.028  28.286  34.896  1.00  0.00     0.031 C 
ATOM     61  C   UNL A   1      45.464  26.776  30.386  1.00  0.00     0.029 A 
ATOM     62  C   UNL A   1      44.765  25.951  31.251  1.00  0.00     0.049 A 
ATOM     63  H   UNL A   1      43.431  24.409  30.789  1.00  0.00     0.167 HD
ATOM     64  C   UNL A   1      44.028  26.885  33.342  1.00  0.00     0.074 A 
ATOM     65  C   UNL A   1      43.691  27.126  34.733  1.00  0.00     0.031 C 
ATOM     66  C   UNL A   1      44.613  25.836  32.696  1.00  0.00     0.037 A 
BRANCH  53  67
ATOM     67  C   UNL A   1      43.618  23.870  27.061  1.00  0.00     0.057 A 
ATOM     68  C   UNL A   1      44.238  24.392  25.908  1.00  0.00     0.134 A 
ATOM     69  C   UNL A   1      43.359  22.488  26.989  1.00  0.00     0.134 A 
ATOM     70  F   UNL A   1      44.590  25.683  25.820  1.00  0.00    -0.206 F 
ATOM     71  C   UNL A   1      44.522  23.621  24.772  1.00  0.00     0.040 A 
ATOM     72  C   UNL A   1      43.646  21.703  25.864  1.00  0.00     0.040 A 
ATOM     73  F   UNL A   1      42.812  21.796  27.987  1.00  0.00    -0.206 F 
ATOM     74  C   UNL A   1      44.216  22.272  24.741  1.00  0.00     0.006 A 
ENDBRANCH  53  67
BRANCH  54  75
ATOM     75  C   UNL A   1      40.830  30.415  33.705  1.00  0.00     0.057 A 
ATOM     76  C   UNL A   1      40.660  31.791  33.954  1.00  0.00     0.134 A 
ATOM     77  C   UNL A   1      39.677  29.647  33.531  1.00  0.00     0.134 A 
ATOM     78  F   UNL A   1      41.729  32.576  34.159  1.00  0.00    -0.206 F 
ATOM     79  C   UNL A   1      39.414  32.406  33.826  1.00  0.00     0.040 A 
ATOM     80  C   UNL A   1      38.419  30.254  33.431  1.00  0.00     0.040 A 
ATOM     81  F   UNL A   1      39.763  28.332  33.289  1.00  0.00    -0.206 F 
ATOM     82  C   UNL A   1      38.296  31.640  33.511  1.00  0.00     0.006 A 
ENDBRANCH  54  75
BRANCH  66  83
ATOM     83  C   UNL A   1      45.068  24.583  33.391  1.00  0.00     0.057 A 
ATOM     84  C   UNL A   1      44.167  23.633  33.884  1.00  0.00     0.134 A 
ATOM     85  C   UNL A   1      46.425  24.352  33.697  1.00  0.00     0.134 A 
ATOM     86  F   UNL A   1      42.847  23.770  33.689  1.00  0.00    -0.206 F 
ATOM     87  C   UNL A   1      44.591  22.514  34.613  1.00  0.00     0.040 A 
ATOM     88  C   UNL A   1      46.855  23.276  34.475  1.00  0.00     0.040 A 
ATOM     89  F   UNL A   1      47.400  25.145  33.227  1.00  0.00    -0.206 F 
ATOM     90  C   UNL A   1      45.936  22.343  34.927  1.00  0.00     0.006 A 
ENDBRANCH  66  83
ENDBRANCH  40  41
ENDBRANCH  32  35
ENDBRANCH  30  31
ENDBRANCH  29  30
ENDBRANCH  28  29
ENDBRANCH   3  28
TORSDOF 16
ENDMDL
MODEL 3
REMARK VINA RESULT:     -12.2      2.060      3.287
REMARK SMILES Cc1ccc([C@@H](CC(=O)NCCCNC(=O)c2ccc(-c3c4nc(c(-c5c(F)cccc5F)c5ccc([nH]5)c(-c5c(F)cccc5F)c5nc(c(-c6c(F)cccc6F)c6ccc3[nH]6)C=C5)C=C4)cc2)NC(=O)c2ccc(OC(F)F)cc2)cc1
REMARK SMILES IDX 8 1 9 2 10 3 7 5 6 6 5 7 1 8 2 9 3 10 85 11 4 12 84 13 71 14
REMARK SMILES IDX 72 15 73 17 74 18 75 19 83 20 76 21 82 22 77 23 78 24 79 25
REMARK SMILES IDX 80 26 81 27 11 28 12 29 13 30 14 31 15 32 16 34 17 35 18 36
REMARK SMILES IDX 70 37 19 38 69 39 20 40 21 41 22 42 63 43 23 44 68 45 62 46
REMARK SMILES IDX 64 47 24 48 67 49 61 50 60 51 25 53 51 54 34 55 50 56 35 57
REMARK SMILES IDX 38 58 49 59 65 60 36 61 37 62 48 64 66 65 39 66 26 67 27 68
REMARK SMILES IDX 32 69 28 70 29 71 31 72 33 73 30 74 52 75 53 76 58 77 54 78
REMARK SMILES IDX 55 79 57 80 59 81 56 82 40 83 41 84 46 85 42 86 43 87 45 88
REMARK SMILES IDX 47 89 44 90
REMARK H PARENT 10 4 71 16 14 33 64 52 38 63
REMARK Flexibility Score: inf
ROOT
ATOM      1  C   UNL A   1      36.519  23.081  23.899  1.00  0.00     0.222 C 
ATOM      2  O   UNL A   1      36.522  23.073  22.668  1.00  0.00    -0.275 OA
ATOM      3  N   UNL A   1      37.690  22.805  24.537  1.00  0.00    -0.356 N 
ATOM      4  H   UNL A   1      38.504  22.994  24.017  1.00  0.00     0.163 HD
ENDROOT
BRANCH   1   5
ATOM      5  C   UNL A   1      35.308  23.529  24.683  1.00  0.00     0.129 C 
BRANCH   5   6
ATOM      6  C   UNL A   1      33.969  23.672  23.925  1.00  0.00     0.122 C 
BRANCH   6   7
ATOM      7  C   UNL A   1      33.317  22.294  23.810  1.00  0.00    -0.025 A 
ATOM      8  C   UNL A   1      32.309  18.185  22.957  1.00  0.00     0.044 C 
ATOM      9  C   UNL A   1      32.556  19.615  23.337  1.00  0.00    -0.051 A 
ATOM     10  C   UNL A   1      32.038  20.649  22.557  1.00  0.00     0.004 A 
ATOM     11  C   UNL A   1      33.385  19.933  24.415  1.00  0.00     0.004 A 
ATOM     12  C   UNL A   1      32.392  21.976  22.810  1.00  0.00     0.006 A 
ATOM     13  C   UNL A   1      33.761  21.258  24.650  1.00  0.00     0.006 A 
ENDBRANCH   6   7
BRANCH   6  14
ATOM     14  N   UNL A   1      34.020  24.372  22.642  1.00  0.00    -0.345 N 
ATOM     15  C   UNL A   1      33.415  25.539  22.255  1.00  0.00     0.251 C 
ATOM     16  H   UNL A   1      34.572  23.938  21.952  1.00  0.00     0.164 HD
ATOM     17  O   UNL A   1      33.238  25.763  21.055  1.00  0.00    -0.269 OA
BRANCH  15  18
ATOM     18  C   UNL A   1      32.985  26.541  23.251  1.00  0.00     0.040 A 
ATOM     19  C   UNL A   1      31.676  26.523  23.738  1.00  0.00     0.017 A 
ATOM     20  C   UNL A   1      33.842  27.578  23.622  1.00  0.00     0.017 A 
ATOM     21  C   UNL A   1      31.260  27.503  24.645  1.00  0.00     0.047 A 
ATOM     22  C   UNL A   1      33.434  28.536  24.550  1.00  0.00     0.047 A 
ATOM     23  C   UNL A   1      32.144  28.502  25.074  1.00  0.00     0.126 A 
BRANCH  23  24
ATOM     24  O   UNL A   1      31.621  29.391  25.970  1.00  0.00    -0.435 OA
BRANCH  24  25
ATOM     25  C   UNL A   1      32.374  29.675  27.142  1.00  0.00     0.542 C 
ATOM     26  F   UNL A   1      33.044  28.566  27.543  1.00  0.00    -0.167 F 
ATOM     27  F   UNL A   1      33.280  30.651  26.892  1.00  0.00    -0.167 F 
ENDBRANCH  24  25
ENDBRANCH  23  24
ENDBRANCH  15  18
ENDBRANCH   6  14
ENDBRANCH   5   6
ENDBRANCH   1   5
BRANCH   3  28
ATOM     28  C   UNL A   1      37.916  22.271  25.871  1.00  0.00     0.117 C 
BRANCH  28  29
ATOM     29  C   UNL A   1      38.933  23.167  26.547  1.00  0.00     0.042 C 
BRANCH  29  30
ATOM     30  C   UNL A   1      40.264  22.542  26.911  1.00  0.00     0.118 C 
BRANCH  30  31
ATOM     31  N   UNL A   1      41.125  22.052  25.833  1.00  0.00    -0.352 N 
ATOM     32  C   UNL A   1      42.469  21.692  25.912  1.00  0.00     0.251 C 
ATOM     33  H   UNL A   1      40.706  21.968  24.946  1.00  0.00     0.163 HD
ATOM     34  O   UNL A   1      43.002  21.014  25.030  1.00  0.00    -0.269 OA
BRANCH  32  35
ATOM     35  C   UNL A   1      43.233  22.043  27.131  1.00  0.00     0.039 A 
ATOM     36  C   UNL A   1      42.535  21.990  28.344  1.00  0.00     0.014 A 
ATOM     37  C   UNL A   1      44.315  22.892  26.960  1.00  0.00     0.014 A 
ATOM     38  C   UNL A   1      42.635  23.069  29.210  1.00  0.00     0.010 A 
ATOM     39  C   UNL A   1      44.325  24.018  27.756  1.00  0.00     0.010 A 
ATOM     40  C   UNL A   1      43.390  24.156  28.798  1.00  0.00    -0.014 A 
BRANCH  40  41
ATOM     41  C   UNL A   1      43.241  25.513  29.309  1.00  0.00     0.031 A 
ATOM     42  C   UNL A   1      42.084  26.285  28.826  1.00  0.00     0.074 A 
ATOM     43  C   UNL A   1      43.994  25.956  30.346  1.00  0.00     0.049 A 
ATOM     44  N   UNL A   1      41.847  27.509  29.128  1.00  0.00    -0.248 NA
ATOM     45  C   UNL A   1      41.108  25.726  27.895  1.00  0.00     0.031 C 
ATOM     46  C   UNL A   1      43.680  27.052  31.265  1.00  0.00     0.029 A 
ATOM     47  N   UNL A   1      45.315  25.616  30.678  1.00  0.00    -0.354 N 
ATOM     48  C   UNL A   1      40.589  27.822  28.670  1.00  0.00     0.074 A 
ATOM     49  C   UNL A   1      40.212  26.712  27.836  1.00  0.00     0.031 C 
ATOM     50  C   UNL A   1      44.810  27.487  31.843  1.00  0.00     0.029 A 
ATOM     51  C   UNL A   1      45.907  26.805  31.189  1.00  0.00     0.049 A 
ATOM     52  H   UNL A   1      45.744  24.736  30.577  1.00  0.00     0.167 HD
ATOM     53  C   UNL A   1      40.004  28.954  29.148  1.00  0.00     0.037 A 
ATOM     54  C   UNL A   1      46.931  27.426  30.529  1.00  0.00     0.037 A 
ATOM     55  C   UNL A   1      40.994  29.767  29.861  1.00  0.00     0.049 A 
ATOM     56  C   UNL A   1      46.598  28.817  30.023  1.00  0.00     0.074 A 
ATOM     57  C   UNL A   1      41.343  29.964  31.184  1.00  0.00     0.029 A 
ATOM     58  N   UNL A   1      42.028  30.294  29.114  1.00  0.00    -0.354 N 
ATOM     59  N   UNL A   1      45.420  29.369  30.126  1.00  0.00    -0.248 NA
ATOM     60  C   UNL A   1      47.538  29.664  29.285  1.00  0.00     0.031 C 
ATOM     61  C   UNL A   1      42.637  30.576  31.208  1.00  0.00     0.029 A 
ATOM     62  C   UNL A   1      43.050  30.774  29.901  1.00  0.00     0.049 A 
ATOM     63  H   UNL A   1      42.034  30.323  28.130  1.00  0.00     0.167 HD
ATOM     64  C   UNL A   1      45.395  30.541  29.420  1.00  0.00     0.074 A 
ATOM     65  C   UNL A   1      46.751  30.694  28.922  1.00  0.00     0.031 C 
ATOM     66  C   UNL A   1      44.254  31.268  29.247  1.00  0.00     0.037 A 
BRANCH  53  67
ATOM     67  C   UNL A   1      38.534  29.303  29.097  1.00  0.00     0.057 A 
ATOM     68  C   UNL A   1      37.976  29.773  27.890  1.00  0.00     0.134 A 
ATOM     69  C   UNL A   1      37.629  29.299  30.176  1.00  0.00     0.134 A 
ATOM     70  F   UNL A   1      38.686  29.810  26.754  1.00  0.00    -0.206 F 
ATOM     71  C   UNL A   1      36.661  30.245  27.785  1.00  0.00     0.040 A 
ATOM     72  C   UNL A   1      36.309  29.759  30.082  1.00  0.00     0.040 A 
ATOM     73  F   UNL A   1      37.947  28.857  31.392  1.00  0.00    -0.206 F 
ATOM     74  C   UNL A   1      35.823  30.250  28.886  1.00  0.00     0.006 A 
ENDBRANCH  53  67
BRANCH  54  75
ATOM     75  C   UNL A   1      47.808  26.439  29.840  1.00  0.00     0.057 A 
ATOM     76  C   UNL A   1      47.657  26.298  28.448  1.00  0.00     0.134 A 
ATOM     77  C   UNL A   1      49.043  26.089  30.391  1.00  0.00     0.134 A 
ATOM     78  F   UNL A   1      46.485  26.592  27.864  1.00  0.00    -0.206 F 
ATOM     79  C   UNL A   1      48.747  26.023  27.620  1.00  0.00     0.040 A 
ATOM     80  C   UNL A   1      50.134  25.783  29.569  1.00  0.00     0.040 A 
ATOM     81  F   UNL A   1      49.259  26.198  31.709  1.00  0.00    -0.206 F 
ATOM     82  C   UNL A   1      50.003  25.816  28.181  1.00  0.00     0.006 A 
ENDBRANCH  54  75
BRANCH  66  83
ATOM     83  C   UNL A   1      44.183  32.511  28.404  1.00  0.00     0.057 A 
ATOM     84  C   UNL A   1      43.896  33.768  28.948  1.00  0.00     0.134 A 
ATOM     85  C   UNL A   1      44.282  32.464  26.998  1.00  0.00     0.134 A 
ATOM     86  F   UNL A   1      43.740  33.927  30.270  1.00  0.00    -0.206 F 
ATOM     87  C   UNL A   1      43.739  34.907  28.146  1.00  0.00     0.040 A 
ATOM     88  C   UNL A   1      44.065  33.576  26.184  1.00  0.00     0.040 A 
ATOM     89  F   UNL A   1      44.623  31.338  26.352  1.00  0.00    -0.206 F 
ATOM     90  C   UNL A   1      43.805  34.809  26.759  1.00  0.00     0.006 A 
ENDBRANCH  66  83
ENDBRANCH  40  41
ENDBRANCH  32  35
ENDBRANCH  30  31
ENDBRANCH  29  30
ENDBRANCH  28  29
ENDBRANCH   3  28
TORSDOF 16
ENDMDL
