MODEL 1
REMARK VINA RESULT:     -12.2      0.000      0.000
REMARK SMILES Cc1cc(Cl)c2c(c1)C=C(C(=O)NCCCNC(=O)c1ccc(-c3c4nc(c(-c5c(F)cccc5F)c5ccc([nH]5)c(-c5c(F)cccc5F)c5nc(c(-c6c(F)cccc6F)c6ccc3[nH]6)C=C5)C=C4)cc1)[C@@H](C(F)(F)F)O2
REMARK SMILES IDX 15 1 14 2 13 3 11 4 12 5 10 7 1 8 2 9 3 10 8 11 4 12 7 13
REMARK SMILES IDX 5 14 6 15 9 16 79 17 74 18 75 19 76 20 77 21 78 22 16 23
REMARK SMILES IDX 17 24 18 25 19 27 20 28 21 29 73 30 22 31 72 32 23 33 24 34
REMARK SMILES IDX 25 35 66 36 26 37 71 38 65 39 67 40 27 41 70 42 64 43 63 44
REMARK SMILES IDX 28 46 54 47 37 48 53 49 38 50 41 51 52 52 68 53 39 54 40 55
REMARK SMILES IDX 51 57 69 58 42 59 29 60 30 61 35 62 31 63 32 64 34 65 36 66
REMARK SMILES IDX 33 67 55 68 56 69 61 70 57 71 58 72 60 73 62 74 59 75 43 76
REMARK SMILES IDX 44 77 49 78 45 79 46 80 48 81 50 82 47 83
REMARK H PARENT 13 6 17 26 67 45 41 56
REMARK Flexibility Score: inf
ROOT
ATOM      1  C   UNL A   1      37.725  19.604  24.981  1.00  0.00     0.042 C 
ENDROOT
BRANCH   1   2
ATOM      2  C   UNL A   1      36.641  20.616  24.648  1.00  0.00     0.118 C 
BRANCH   2   3
ATOM      3  N   UNL A   1      35.667  20.739  25.722  1.00  0.00    -0.352 N 
ATOM      4  C   UNL A   1      34.662  21.581  26.059  1.00  0.00     0.251 C 
ATOM      5  O   UNL A   1      34.065  21.296  27.101  1.00  0.00    -0.270 OA
ATOM      6  H   UNL A   1      35.764  20.014  26.380  1.00  0.00     0.163 HD
BRANCH   4   7
ATOM      7  C   UNL A   1      34.256  22.785  25.278  1.00  0.00     0.067 C 
ATOM      8  C   UNL A   1      33.662  28.922  25.838  1.00  0.00     0.044 C 
ATOM      9  C   UNL A   1      33.654  27.590  25.149  1.00  0.00    -0.049 A 
ATOM     10  C   UNL A   1      33.357  27.514  23.782  1.00  0.00     0.028 A 
ATOM     11  C   UNL A   1      34.005  26.422  25.840  1.00  0.00     0.015 A 
ATOM     12  C   UNL A   1      33.392  26.287  23.122  1.00  0.00     0.084 A 
ATOM     13  C   UNL A   1      34.035  25.187  25.183  1.00  0.00     0.019 A 
ATOM     14  Cl  UNL A   1      33.018  26.242  21.436  1.00  0.00    -0.080 Cl
ATOM     15  C   UNL A   1      33.723  25.123  23.821  1.00  0.00     0.146 A 
ATOM     16  C   UNL A   1      34.430  23.972  25.887  1.00  0.00     0.025 C 
ATOM     17  O   UNL A   1      33.785  23.946  23.128  1.00  0.00    -0.474 OA
ATOM     18  C   UNL A   1      33.656  22.728  23.903  1.00  0.00     0.314 C 
BRANCH  18  19
ATOM     19  C   UNL A   1      32.181  22.280  23.916  1.00  0.00     0.429 C 
ATOM     20  F   UNL A   1      32.090  20.947  23.681  1.00  0.00    -0.167 F 
ATOM     21  F   UNL A   1      31.582  22.498  25.112  1.00  0.00    -0.167 F 
ATOM     22  F   UNL A   1      31.434  22.913  22.985  1.00  0.00    -0.167 F 
ENDBRANCH  18  19
ENDBRANCH   4   7
ENDBRANCH   2   3
ENDBRANCH   1   2
BRANCH   1  23
ATOM     23  C   UNL A   1      38.919  20.251  25.669  1.00  0.00     0.118 C 
BRANCH  23  24
ATOM     24  N   UNL A   1      40.035  19.318  25.808  1.00  0.00    -0.352 N 
ATOM     25  C   UNL A   1      41.358  19.554  26.069  1.00  0.00     0.251 C 
ATOM     26  H   UNL A   1      39.797  18.369  25.696  1.00  0.00     0.163 HD
ATOM     27  O   UNL A   1      42.191  18.673  25.861  1.00  0.00    -0.269 OA
BRANCH  25  28
ATOM     28  C   UNL A   1      41.785  20.862  26.597  1.00  0.00     0.039 A 
ATOM     29  C   UNL A   1      42.251  21.841  25.715  1.00  0.00     0.014 A 
ATOM     30  C   UNL A   1      41.752  21.110  27.971  1.00  0.00     0.014 A 
ATOM     31  C   UNL A   1      42.624  23.091  26.211  1.00  0.00     0.010 A 
ATOM     32  C   UNL A   1      42.022  22.383  28.450  1.00  0.00     0.010 A 
ATOM     33  C   UNL A   1      42.479  23.380  27.578  1.00  0.00    -0.014 A 
BRANCH  33  34
ATOM     34  C   UNL A   1      42.835  24.709  28.127  1.00  0.00     0.031 A 
ATOM     35  C   UNL A   1      41.761  25.744  28.327  1.00  0.00     0.074 A 
ATOM     36  C   UNL A   1      44.125  25.001  28.384  1.00  0.00     0.049 A 
ATOM     37  N   UNL A   1      41.876  26.985  28.722  1.00  0.00    -0.248 NA
ATOM     38  C   UNL A   1      40.378  25.341  28.017  1.00  0.00     0.031 C 
ATOM     39  C   UNL A   1      45.256  24.093  28.178  1.00  0.00     0.029 A 
ATOM     40  N   UNL A   1      44.704  26.148  28.865  1.00  0.00    -0.354 N 
ATOM     41  C   UNL A   1      40.591  27.509  28.692  1.00  0.00     0.074 A 
ATOM     42  C   UNL A   1      39.717  26.476  28.187  1.00  0.00     0.031 C 
ATOM     43  C   UNL A   1      46.387  24.707  28.557  1.00  0.00     0.029 A 
ATOM     44  C   UNL A   1      46.071  26.064  28.991  1.00  0.00     0.049 A 
ATOM     45  H   UNL A   1      44.190  26.954  29.098  1.00  0.00     0.167 HD
ATOM     46  C   UNL A   1      40.174  28.735  29.084  1.00  0.00     0.037 A 
ATOM     47  C   UNL A   1      46.964  26.981  29.405  1.00  0.00     0.037 A 
ATOM     48  C   UNL A   1      41.044  29.741  29.630  1.00  0.00     0.049 A 
ATOM     49  C   UNL A   1      46.471  28.336  29.834  1.00  0.00     0.074 A 
ATOM     50  C   UNL A   1      40.708  30.989  30.122  1.00  0.00     0.029 A 
ATOM     51  N   UNL A   1      42.418  29.612  29.758  1.00  0.00    -0.354 N 
ATOM     52  N   UNL A   1      45.243  28.794  29.869  1.00  0.00    -0.248 NA
ATOM     53  C   UNL A   1      47.484  29.301  30.287  1.00  0.00     0.031 C 
ATOM     54  C   UNL A   1      41.885  31.636  30.503  1.00  0.00     0.029 A 
ATOM     55  C   UNL A   1      42.948  30.771  30.300  1.00  0.00     0.049 A 
ATOM     56  H   UNL A   1      42.938  28.816  29.504  1.00  0.00     0.167 HD
ATOM     57  C   UNL A   1      45.332  30.088  30.366  1.00  0.00     0.074 A 
ATOM     58  C   UNL A   1      46.731  30.335  30.639  1.00  0.00     0.031 C 
ATOM     59  C   UNL A   1      44.344  30.991  30.573  1.00  0.00     0.037 A 
BRANCH  46  60
ATOM     60  C   UNL A   1      38.715  29.058  28.969  1.00  0.00     0.057 A 
ATOM     61  C   UNL A   1      37.855  28.972  30.073  1.00  0.00     0.134 A 
ATOM     62  C   UNL A   1      38.184  29.553  27.771  1.00  0.00     0.134 A 
ATOM     63  F   UNL A   1      38.298  28.493  31.245  1.00  0.00    -0.206 F 
ATOM     64  C   UNL A   1      36.519  29.367  29.987  1.00  0.00     0.040 A 
ATOM     65  C   UNL A   1      36.856  29.975  27.681  1.00  0.00     0.040 A 
ATOM     66  F   UNL A   1      38.954  29.661  26.679  1.00  0.00    -0.206 F 
ATOM     67  C   UNL A   1      36.020  29.883  28.793  1.00  0.00     0.006 A 
ENDBRANCH  46  60
BRANCH  47  68
ATOM     68  C   UNL A   1      48.411  26.646  29.450  1.00  0.00     0.057 A 
ATOM     69  C   UNL A   1      49.261  26.961  28.384  1.00  0.00     0.134 A 
ATOM     70  C   UNL A   1      48.980  26.000  30.556  1.00  0.00     0.134 A 
ATOM     71  F   UNL A   1      48.776  27.565  27.290  1.00  0.00    -0.206 F 
ATOM     72  C   UNL A   1      50.619  26.631  28.406  1.00  0.00     0.040 A 
ATOM     73  C   UNL A   1      50.339  25.689  30.603  1.00  0.00     0.040 A 
ATOM     74  F   UNL A   1      48.222  25.678  31.615  1.00  0.00    -0.206 F 
ATOM     75  C   UNL A   1      51.162  25.998  29.522  1.00  0.00     0.006 A 
ENDBRANCH  47  68
BRANCH  59  76
ATOM     76  C   UNL A   1      44.730  32.327  31.136  1.00  0.00     0.057 A 
ATOM     77  C   UNL A   1      45.012  33.419  30.308  1.00  0.00     0.134 A 
ATOM     78  C   UNL A   1      44.728  32.544  32.520  1.00  0.00     0.134 A 
ATOM     79  F   UNL A   1      45.037  33.273  28.975  1.00  0.00    -0.206 F 
ATOM     80  C   UNL A   1      45.293  34.680  30.837  1.00  0.00     0.040 A 
ATOM     81  C   UNL A   1      44.978  33.806  33.060  1.00  0.00     0.040 A 
ATOM     82  F   UNL A   1      44.452  31.542  33.368  1.00  0.00    -0.206 F 
ATOM     83  C   UNL A   1      45.263  34.878  32.216  1.00  0.00     0.006 A 
ENDBRANCH  59  76
ENDBRANCH  33  34
ENDBRANCH  25  28
ENDBRANCH  23  24
ENDBRANCH   1  23
TORSDOF 11
ENDMDL
MODEL 2
REMARK VINA RESULT:     -12.1      1.518      1.810
REMARK SMILES Cc1cc(Cl)c2c(c1)C=C(C(=O)NCCCNC(=O)c1ccc(-c3c4nc(c(-c5c(F)cccc5F)c5ccc([nH]5)c(-c5c(F)cccc5F)c5nc(c(-c6c(F)cccc6F)c6ccc3[nH]6)C=C5)C=C4)cc1)[C@@H](C(F)(F)F)O2
REMARK SMILES IDX 15 1 14 2 13 3 11 4 12 5 10 7 1 8 2 9 3 10 8 11 4 12 7 13
REMARK SMILES IDX 5 14 6 15 9 16 79 17 74 18 75 19 76 20 77 21 78 22 16 23
REMARK SMILES IDX 17 24 18 25 19 27 20 28 21 29 73 30 22 31 72 32 23 33 24 34
REMARK SMILES IDX 25 35 66 36 26 37 71 38 65 39 67 40 27 41 70 42 64 43 63 44
REMARK SMILES IDX 28 46 54 47 37 48 53 49 38 50 41 51 52 52 68 53 39 54 40 55
REMARK SMILES IDX 51 57 69 58 42 59 29 60 30 61 35 62 31 63 32 64 34 65 36 66
REMARK SMILES IDX 33 67 55 68 56 69 61 70 57 71 58 72 60 73 62 74 59 75 43 76
REMARK SMILES IDX 44 77 49 78 45 79 46 80 48 81 50 82 47 83
REMARK H PARENT 13 6 17 26 67 45 41 56
REMARK Flexibility Score: inf
ROOT
ATOM      1  C   UNL A   1      37.746  19.591  24.909  1.00  0.00     0.042 C 
ENDROOT
BRANCH   1   2
ATOM      2  C   UNL A   1      36.473  20.413  25.023  1.00  0.00     0.118 C 
BRANCH   2   3
ATOM      3  N   UNL A   1      35.282  19.578  24.987  1.00  0.00    -0.352 N 
ATOM      4  C   UNL A   1      33.943  19.760  24.929  1.00  0.00     0.251 C 
ATOM      5  O   UNL A   1      33.271  18.724  24.916  1.00  0.00    -0.270 OA
ATOM      6  H   UNL A   1      35.514  18.621  25.012  1.00  0.00     0.163 HD
BRANCH   4   7
ATOM      7  C   UNL A   1      33.261  21.086  24.883  1.00  0.00     0.067 C 
ATOM      8  C   UNL A   1      32.332  25.902  21.104  1.00  0.00     0.044 C 
ATOM      9  C   UNL A   1      32.186  25.070  22.343  1.00  0.00    -0.049 A 
ATOM     10  C   UNL A   1      31.352  25.503  23.382  1.00  0.00     0.028 A 
ATOM     11  C   UNL A   1      32.823  23.825  22.451  1.00  0.00     0.015 A 
ATOM     12  C   UNL A   1      31.174  24.715  24.517  1.00  0.00     0.084 A 
ATOM     13  C   UNL A   1      32.653  23.034  23.592  1.00  0.00     0.019 A 
ATOM     14  Cl  UNL A   1      30.138  25.292  25.772  1.00  0.00    -0.080 Cl
ATOM     15  C   UNL A   1      31.829  23.485  24.627  1.00  0.00     0.146 A 
ATOM     16  C   UNL A   1      33.287  21.724  23.699  1.00  0.00     0.025 C 
ATOM     17  O   UNL A   1      31.596  22.725  25.740  1.00  0.00    -0.474 OA
ATOM     18  C   UNL A   1      32.595  21.727  26.065  1.00  0.00     0.314 C 
BRANCH  18  19
ATOM     19  C   UNL A   1      33.607  22.320  27.067  1.00  0.00     0.429 C 
ATOM     20  F   UNL A   1      32.961  23.016  28.036  1.00  0.00    -0.167 F 
ATOM     21  F   UNL A   1      34.331  21.366  27.701  1.00  0.00    -0.167 F 
ATOM     22  F   UNL A   1      34.492  23.156  26.482  1.00  0.00    -0.167 F 
ENDBRANCH  18  19
ENDBRANCH   4   7
ENDBRANCH   2   3
ENDBRANCH   1   2
BRANCH   1  23
ATOM     23  C   UNL A   1      38.891  20.198  25.708  1.00  0.00     0.118 C 
BRANCH  23  24
ATOM     24  N   UNL A   1      40.016  19.274  25.830  1.00  0.00    -0.352 N 
ATOM     25  C   UNL A   1      41.341  19.520  26.071  1.00  0.00     0.251 C 
ATOM     26  H   UNL A   1      39.784  18.323  25.721  1.00  0.00     0.163 HD
ATOM     27  O   UNL A   1      42.177  18.645  25.851  1.00  0.00    -0.269 OA
BRANCH  25  28
ATOM     28  C   UNL A   1      41.766  20.832  26.593  1.00  0.00     0.039 A 
ATOM     29  C   UNL A   1      42.055  21.866  25.699  1.00  0.00     0.014 A 
ATOM     30  C   UNL A   1      41.907  21.028  27.968  1.00  0.00     0.014 A 
ATOM     31  C   UNL A   1      42.425  23.117  26.195  1.00  0.00     0.010 A 
ATOM     32  C   UNL A   1      42.172  22.297  28.461  1.00  0.00     0.010 A 
ATOM     33  C   UNL A   1      42.453  23.349  27.579  1.00  0.00    -0.014 A 
BRANCH  33  34
ATOM     34  C   UNL A   1      42.809  24.676  28.133  1.00  0.00     0.031 A 
ATOM     35  C   UNL A   1      41.736  25.712  28.333  1.00  0.00     0.074 A 
ATOM     36  C   UNL A   1      44.098  24.966  28.393  1.00  0.00     0.049 A 
ATOM     37  N   UNL A   1      41.851  26.952  28.731  1.00  0.00    -0.248 NA
ATOM     38  C   UNL A   1      40.353  25.312  28.019  1.00  0.00     0.031 C 
ATOM     39  C   UNL A   1      45.228  24.057  28.187  1.00  0.00     0.029 A 
ATOM     40  N   UNL A   1      44.678  26.111  28.878  1.00  0.00    -0.354 N 
ATOM     41  C   UNL A   1      40.567  27.478  28.700  1.00  0.00     0.074 A 
ATOM     42  C   UNL A   1      39.693  26.447  28.190  1.00  0.00     0.031 C 
ATOM     43  C   UNL A   1      46.360  24.669  28.570  1.00  0.00     0.029 A 
ATOM     44  C   UNL A   1      46.044  26.025  29.007  1.00  0.00     0.049 A 
ATOM     45  H   UNL A   1      44.164  26.917  29.112  1.00  0.00     0.167 HD
ATOM     46  C   UNL A   1      40.151  28.703  29.094  1.00  0.00     0.037 A 
ATOM     47  C   UNL A   1      46.938  26.940  29.425  1.00  0.00     0.037 A 
ATOM     48  C   UNL A   1      41.021  29.707  29.644  1.00  0.00     0.049 A 
ATOM     49  C   UNL A   1      46.446  28.295  29.857  1.00  0.00     0.074 A 
ATOM     50  C   UNL A   1      40.685  30.954  30.138  1.00  0.00     0.029 A 
ATOM     51  N   UNL A   1      42.394  29.576  29.775  1.00  0.00    -0.354 N 
ATOM     52  N   UNL A   1      45.218  28.754  29.890  1.00  0.00    -0.248 NA
ATOM     53  C   UNL A   1      47.458  29.258  30.314  1.00  0.00     0.031 C 
ATOM     54  C   UNL A   1      41.862  31.599  30.524  1.00  0.00     0.029 A 
ATOM     55  C   UNL A   1      42.924  30.732  30.321  1.00  0.00     0.049 A 
ATOM     56  H   UNL A   1      42.914  28.780  29.520  1.00  0.00     0.167 HD
ATOM     57  C   UNL A   1      45.308  30.047  30.391  1.00  0.00     0.074 A 
ATOM     58  C   UNL A   1      46.706  30.292  30.667  1.00  0.00     0.031 C 
ATOM     59  C   UNL A   1      44.320  30.951  30.597  1.00  0.00     0.037 A 
BRANCH  46  60
ATOM     60  C   UNL A   1      38.692  29.028  28.976  1.00  0.00     0.057 A 
ATOM     61  C   UNL A   1      37.828  28.936  30.076  1.00  0.00     0.134 A 
ATOM     62  C   UNL A   1      38.166  29.532  27.780  1.00  0.00     0.134 A 
ATOM     63  F   UNL A   1      38.267  28.448  31.247  1.00  0.00    -0.206 F 
ATOM     64  C   UNL A   1      36.493  29.333  29.989  1.00  0.00     0.040 A 
ATOM     65  C   UNL A   1      36.839  29.956  27.689  1.00  0.00     0.040 A 
ATOM     66  F   UNL A   1      38.940  29.647  26.691  1.00  0.00    -0.206 F 
ATOM     67  C   UNL A   1      35.999  29.858  28.797  1.00  0.00     0.006 A 
ENDBRANCH  46  60
BRANCH  47  68
ATOM     68  C   UNL A   1      48.385  26.603  29.473  1.00  0.00     0.057 A 
ATOM     69  C   UNL A   1      49.234  26.903  28.402  1.00  0.00     0.134 A 
ATOM     70  C   UNL A   1      48.953  25.970  30.587  1.00  0.00     0.134 A 
ATOM     71  F   UNL A   1      48.748  27.493  27.301  1.00  0.00    -0.206 F 
ATOM     72  C   UNL A   1      50.590  26.570  28.427  1.00  0.00     0.040 A 
ATOM     73  C   UNL A   1      50.312  25.658  30.636  1.00  0.00     0.040 A 
ATOM     74  F   UNL A   1      48.196  25.663  31.651  1.00  0.00    -0.206 F 
ATOM     75  C   UNL A   1      51.134  25.951  29.550  1.00  0.00     0.006 A 
ENDBRANCH  47  68
BRANCH  59  76
ATOM     76  C   UNL A   1      44.707  32.285  31.165  1.00  0.00     0.057 A 
ATOM     77  C   UNL A   1      44.986  33.380  30.340  1.00  0.00     0.134 A 
ATOM     78  C   UNL A   1      44.708  32.496  32.550  1.00  0.00     0.134 A 
ATOM     79  F   UNL A   1      45.007  33.239  29.006  1.00  0.00    -0.206 F 
ATOM     80  C   UNL A   1      45.266  34.639  30.874  1.00  0.00     0.040 A 
ATOM     81  C   UNL A   1      44.958  33.757  33.094  1.00  0.00     0.040 A 
ATOM     82  F   UNL A   1      44.435  31.490  33.395  1.00  0.00    -0.206 F 
ATOM     83  C   UNL A   1      45.240  34.832  32.254  1.00  0.00     0.006 A 
ENDBRANCH  59  76
ENDBRANCH  33  34
ENDBRANCH  25  28
ENDBRANCH  23  24
ENDBRANCH   1  23
TORSDOF 11
ENDMDL
MODEL 3
REMARK VINA RESULT:     -12.1      2.410      7.262
REMARK SMILES Cc1cc(Cl)c2c(c1)C=C(C(=O)NCCCNC(=O)c1ccc(-c3c4nc(c(-c5c(F)cccc5F)c5ccc([nH]5)c(-c5c(F)cccc5F)c5nc(c(-c6c(F)cccc6F)c6ccc3[nH]6)C=C5)C=C4)cc1)[C@@H](C(F)(F)F)O2
REMARK SMILES IDX 15 1 14 2 13 3 11 4 12 5 10 7 1 8 2 9 3 10 8 11 4 12 7 13
REMARK SMILES IDX 5 14 6 15 9 16 79 17 74 18 75 19 76 20 77 21 78 22 16 23
REMARK SMILES IDX 17 24 18 25 19 27 20 28 21 29 73 30 22 31 72 32 23 33 24 34
REMARK SMILES IDX 25 35 66 36 26 37 71 38 65 39 67 40 27 41 70 42 64 43 63 44
REMARK SMILES IDX 28 46 54 47 37 48 53 49 38 50 41 51 52 52 68 53 39 54 40 55
REMARK SMILES IDX 51 57 69 58 42 59 29 60 30 61 35 62 31 63 32 64 34 65 36 66
REMARK SMILES IDX 33 67 55 68 56 69 61 70 57 71 58 72 60 73 62 74 59 75 43 76
REMARK SMILES IDX 44 77 49 78 45 79 46 80 48 81 50 82 47 83
REMARK H PARENT 13 6 17 26 67 45 41 56
REMARK Flexibility Score: inf
ROOT
ATOM      1  C   UNL A   1      34.022  28.148  25.546  1.00  0.00     0.042 C 
ENDROOT
BRANCH   1   2
ATOM      2  C   UNL A   1      32.904  27.474  24.767  1.00  0.00     0.118 C 
BRANCH   2   3
ATOM      3  N   UNL A   1      31.958  26.804  25.647  1.00  0.00    -0.352 N 
ATOM      4  C   UNL A   1      31.756  25.551  26.116  1.00  0.00     0.251 C 
ATOM      5  O   UNL A   1      30.790  25.424  26.875  1.00  0.00    -0.270 OA
ATOM      6  H   UNL A   1      31.284  27.431  25.994  1.00  0.00     0.163 HD
BRANCH   4   7
ATOM      7  C   UNL A   1      32.596  24.365  25.781  1.00  0.00     0.067 C 
ATOM      8  C   UNL A   1      38.479  22.438  25.896  1.00  0.00     0.044 C 
ATOM      9  C   UNL A   1      36.997  22.340  25.690  1.00  0.00    -0.049 A 
ATOM     10  C   UNL A   1      36.427  21.128  25.282  1.00  0.00     0.028 A 
ATOM     11  C   UNL A   1      36.160  23.431  25.968  1.00  0.00     0.015 A 
ATOM     12  C   UNL A   1      35.046  21.013  25.133  1.00  0.00     0.084 A 
ATOM     13  C   UNL A   1      34.774  23.323  25.813  1.00  0.00     0.019 A 
ATOM     14  Cl  UNL A   1      34.390  19.498  24.625  1.00  0.00    -0.080 Cl
ATOM     15  C   UNL A   1      34.220  22.110  25.390  1.00  0.00     0.146 A 
ATOM     16  C   UNL A   1      33.894  24.443  26.129  1.00  0.00     0.025 C 
ATOM     17  O   UNL A   1      32.867  21.944  25.271  1.00  0.00    -0.474 OA
ATOM     18  C   UNL A   1      32.081  23.146  25.074  1.00  0.00     0.314 C 
BRANCH  18  19
ATOM     19  C   UNL A   1      31.869  23.380  23.564  1.00  0.00     0.429 C 
ATOM     20  F   UNL A   1      32.651  24.401  23.130  1.00  0.00    -0.167 F 
ATOM     21  F   UNL A   1      32.204  22.299  22.819  1.00  0.00    -0.167 F 
ATOM     22  F   UNL A   1      30.589  23.684  23.257  1.00  0.00    -0.167 F 
ENDBRANCH  18  19
ENDBRANCH   4   7
ENDBRANCH   2   3
ENDBRANCH   1   2
BRANCH   1  23
ATOM     23  C   UNL A   1      33.681  28.294  27.023  1.00  0.00     0.118 C 
BRANCH  23  24
ATOM     24  N   UNL A   1      33.622  29.696  27.429  1.00  0.00    -0.352 N 
ATOM     25  C   UNL A   1      34.521  30.451  28.135  1.00  0.00     0.251 C 
ATOM     26  H   UNL A   1      32.806  30.174  27.152  1.00  0.00     0.163 HD
ATOM     27  O   UNL A   1      34.169  31.522  28.627  1.00  0.00    -0.269 OA
BRANCH  25  28
ATOM     28  C   UNL A   1      35.907  29.981  28.305  1.00  0.00     0.039 A 
ATOM     29  C   UNL A   1      36.813  30.118  27.250  1.00  0.00     0.014 A 
ATOM     30  C   UNL A   1      36.303  29.378  29.501  1.00  0.00     0.014 A 
ATOM     31  C   UNL A   1      38.135  29.703  27.422  1.00  0.00     0.010 A 
ATOM     32  C   UNL A   1      37.638  29.063  29.707  1.00  0.00     0.010 A 
ATOM     33  C   UNL A   1      38.563  29.204  28.664  1.00  0.00    -0.014 A 
BRANCH  33  34
ATOM     34  C   UNL A   1      39.967  28.788  28.886  1.00  0.00     0.031 A 
ATOM     35  C   UNL A   1      40.946  29.761  29.483  1.00  0.00     0.074 A 
ATOM     36  C   UNL A   1      40.370  27.564  28.493  1.00  0.00     0.049 A 
ATOM     37  N   UNL A   1      42.230  29.619  29.686  1.00  0.00    -0.248 NA
ATOM     38  C   UNL A   1      40.421  31.080  29.880  1.00  0.00     0.031 C 
ATOM     39  C   UNL A   1      39.519  26.558  27.854  1.00  0.00     0.029 A 
ATOM     40  N   UNL A   1      41.600  26.961  28.564  1.00  0.00    -0.354 N 
ATOM     41  C   UNL A   1      42.663  30.826  30.217  1.00  0.00     0.074 A 
ATOM     42  C   UNL A   1      41.523  31.713  30.253  1.00  0.00     0.031 C 
ATOM     43  C   UNL A   1      40.246  25.453  27.618  1.00  0.00     0.029 A 
ATOM     44  C   UNL A   1      41.620  25.687  28.049  1.00  0.00     0.049 A 
ATOM     45  H   UNL A   1      42.393  27.400  28.949  1.00  0.00     0.167 HD
ATOM     46  C   UNL A   1      43.896  31.153  30.666  1.00  0.00     0.037 A 
ATOM     47  C   UNL A   1      42.636  24.811  27.932  1.00  0.00     0.037 A 
ATOM     48  C   UNL A   1      45.014  30.249  30.670  1.00  0.00     0.049 A 
ATOM     49  C   UNL A   1      43.997  25.203  28.439  1.00  0.00     0.074 A 
ATOM     50  C   UNL A   1      46.287  30.462  31.168  1.00  0.00     0.029 A 
ATOM     51  N   UNL A   1      44.990  28.962  30.157  1.00  0.00    -0.354 N 
ATOM     52  N   UNL A   1      44.375  26.324  29.006  1.00  0.00    -0.248 NA
ATOM     53  C   UNL A   1      45.072  24.210  28.298  1.00  0.00     0.031 C 
ATOM     54  C   UNL A   1      47.049  29.320  30.912  1.00  0.00     0.029 A 
ATOM     55  C   UNL A   1      46.236  28.377  30.303  1.00  0.00     0.049 A 
ATOM     56  H   UNL A   1      44.205  28.529  29.750  1.00  0.00     0.167 HD
ATOM     57  C   UNL A   1      45.721  26.163  29.308  1.00  0.00     0.074 A 
ATOM     58  C   UNL A   1      46.089  24.830  28.881  1.00  0.00     0.031 C 
ATOM     59  C   UNL A   1      46.577  27.043  29.881  1.00  0.00     0.037 A 
BRANCH  46  60
ATOM     60  C   UNL A   1      44.108  32.531  31.217  1.00  0.00     0.057 A 
ATOM     61  C   UNL A   1      43.952  32.809  32.582  1.00  0.00     0.134 A 
ATOM     62  C   UNL A   1      44.568  33.568  30.395  1.00  0.00     0.134 A 
ATOM     63  F   UNL A   1      43.501  31.863  33.421  1.00  0.00    -0.206 F 
ATOM     64  C   UNL A   1      44.245  34.068  33.108  1.00  0.00     0.040 A 
ATOM     65  C   UNL A   1      44.889  34.823  30.914  1.00  0.00     0.040 A 
ATOM     66  F   UNL A   1      44.741  33.367  29.079  1.00  0.00    -0.206 F 
ATOM     67  C   UNL A   1      44.728  35.075  32.275  1.00  0.00     0.006 A 
ENDBRANCH  46  60
BRANCH  47  68
ATOM     68  C   UNL A   1      42.402  23.475  27.326  1.00  0.00     0.057 A 
ATOM     69  C   UNL A   1      42.037  22.377  28.113  1.00  0.00     0.134 A 
ATOM     70  C   UNL A   1      42.540  23.260  25.949  1.00  0.00     0.134 A 
ATOM     71  F   UNL A   1      41.904  22.513  29.441  1.00  0.00    -0.206 F 
ATOM     72  C   UNL A   1      41.836  21.111  27.558  1.00  0.00     0.040 A 
ATOM     73  C   UNL A   1      42.315  22.007  25.377  1.00  0.00     0.040 A 
ATOM     74  F   UNL A   1      42.879  24.272  25.136  1.00  0.00    -0.206 F 
ATOM     75  C   UNL A   1      41.970  20.926  26.184  1.00  0.00     0.006 A 
ENDBRANCH  47  68
BRANCH  59  76
ATOM     76  C   UNL A   1      47.992  26.595  30.101  1.00  0.00     0.057 A 
ATOM     77  C   UNL A   1      48.382  25.949  31.279  1.00  0.00     0.134 A 
ATOM     78  C   UNL A   1      48.948  26.729  29.086  1.00  0.00     0.134 A 
ATOM     79  F   UNL A   1      47.514  25.796  32.291  1.00  0.00    -0.206 F 
ATOM     80  C   UNL A   1      49.680  25.462  31.447  1.00  0.00     0.040 A 
ATOM     81  C   UNL A   1      50.239  26.221  29.230  1.00  0.00     0.040 A 
ATOM     82  F   UNL A   1      48.633  27.327  27.926  1.00  0.00    -0.206 F 
ATOM     83  C   UNL A   1      50.608  25.587  30.414  1.00  0.00     0.006 A 
ENDBRANCH  59  76
ENDBRANCH  33  34
ENDBRANCH  25  28
ENDBRANCH  23  24
ENDBRANCH   1  23
TORSDOF 11
ENDMDL
