MODEL 1
REMARK VINA RESULT:     -10.3      0.000      0.000
REMARK SMILES O=C(NCCCNC(=O)[C@@H]1CCCN(c2ccc3cc(S(=O)(=O)N4CCCCC4)ccc3n2)C1)c1ccc(-c2c3nc(c(-c4c(F)cccc4F)c4ccc([nH]4)c(-c4c(F)cccc4F)c4nc(c(-c5c(F)cccc5F)c5ccc2[nH]5)C=C4)C=C3)cc1
REMARK SMILES IDX 5 1 4 2 3 3 1 4 2 5 35 7 36 8 88 9 37 10 87 11 38 12 39 13
REMARK SMILES IDX 40 14 81 15 41 16 86 17 80 18 82 19 42 20 85 21 79 22 78 23
REMARK SMILES IDX 43 25 69 26 52 27 68 28 53 29 56 30 67 31 83 32 54 33 55 34
REMARK SMILES IDX 66 36 84 37 57 38 44 39 45 40 50 41 46 42 47 43 49 44 51 45
REMARK SMILES IDX 48 46 70 47 71 48 76 49 72 50 73 51 75 52 77 53 74 54 58 55
REMARK SMILES IDX 59 56 64 57 60 58 61 59 63 60 65 61 62 62 6 63 7 64 8 65
REMARK SMILES IDX 9 67 10 68 11 69 34 70 12 71 14 72 13 73 15 74 16 75 33 76
REMARK SMILES IDX 17 77 32 78 18 79 31 80 19 81 30 82 20 83 21 84 22 85 23 86
REMARK SMILES IDX 24 87 25 88 29 89 26 90 28 91 27 92
REMARK H PARENT 3 6 82 24 56 35 7 66
REMARK Flexibility Score: inf
ROOT
ATOM      1  C   UNL A   1      35.024  33.175  27.993  1.00  0.00     0.042 C 
ENDROOT
BRANCH   1   2
ATOM      2  C   UNL A   1      34.099  32.233  28.748  1.00  0.00     0.118 C 
BRANCH   2   3
ATOM      3  N   UNL A   1      33.705  31.046  28.001  1.00  0.00    -0.352 N 
ATOM      4  O   UNL A   1      33.890  29.032  26.998  1.00  0.00    -0.269 OA
ATOM      5  C   UNL A   1      34.416  29.916  27.665  1.00  0.00     0.251 C 
ATOM      6  H   UNL A   1      32.774  31.052  27.683  1.00  0.00     0.163 HD
BRANCH   5   7
ATOM      7  C   UNL A   1      35.829  29.791  28.072  1.00  0.00     0.039 A 
ATOM      8  C   UNL A   1      36.845  30.094  27.170  1.00  0.00     0.014 A 
ATOM      9  C   UNL A   1      36.145  29.328  29.353  1.00  0.00     0.014 A 
ATOM     10  C   UNL A   1      38.143  29.703  27.447  1.00  0.00     0.010 A 
ATOM     11  C   UNL A   1      37.480  29.070  29.686  1.00  0.00     0.010 A 
ATOM     12  C   UNL A   1      38.484  29.207  28.717  1.00  0.00    -0.014 A 
BRANCH  12  13
ATOM     13  C   UNL A   1      39.913  28.916  28.995  1.00  0.00     0.031 A 
ATOM     14  C   UNL A   1      40.561  27.640  28.538  1.00  0.00     0.074 A 
ATOM     15  C   UNL A   1      40.644  29.873  29.601  1.00  0.00     0.049 A 
ATOM     16  N   UNL A   1      41.813  27.269  28.649  1.00  0.00    -0.248 NA
ATOM     17  C   UNL A   1      39.701  26.646  27.878  1.00  0.00     0.031 C 
ATOM     18  C   UNL A   1      40.112  31.149  30.091  1.00  0.00     0.029 A 
ATOM     19  N   UNL A   1      41.985  29.953  29.867  1.00  0.00    -0.354 N 
ATOM     20  C   UNL A   1      41.885  25.993  28.105  1.00  0.00     0.074 A 
ATOM     21  C   UNL A   1      40.548  25.646  27.672  1.00  0.00     0.031 C 
ATOM     22  C   UNL A   1      41.123  31.915  30.518  1.00  0.00     0.029 A 
ATOM     23  C   UNL A   1      42.361  31.155  30.416  1.00  0.00     0.049 A 
ATOM     24  H   UNL A   1      42.617  29.221  29.685  1.00  0.00     0.167 HD
ATOM     25  C   UNL A   1      42.969  25.191  27.981  1.00  0.00     0.037 A 
ATOM     26  C   UNL A   1      43.568  31.595  30.813  1.00  0.00     0.037 A 
ATOM     27  C   UNL A   1      44.298  25.559  28.398  1.00  0.00     0.049 A 
ATOM     28  C   UNL A   1      44.748  30.684  30.665  1.00  0.00     0.074 A 
ATOM     29  C   UNL A   1      45.470  24.826  28.301  1.00  0.00     0.029 A 
ATOM     30  N   UNL A   1      44.633  26.768  28.994  1.00  0.00    -0.354 N 
ATOM     31  N   UNL A   1      44.798  29.482  30.144  1.00  0.00    -0.248 NA
ATOM     32  C   UNL A   1      46.032  31.181  31.171  1.00  0.00     0.031 C 
ATOM     33  C   UNL A   1      46.504  25.576  28.871  1.00  0.00     0.029 A 
ATOM     34  C   UNL A   1      45.987  26.794  29.285  1.00  0.00     0.049 A 
ATOM     35  H   UNL A   1      44.001  27.499  29.181  1.00  0.00     0.167 HD
ATOM     36  C   UNL A   1      46.117  29.076  30.260  1.00  0.00     0.074 A 
ATOM     37  C   UNL A   1      46.840  30.174  30.872  1.00  0.00     0.031 C 
ATOM     38  C   UNL A   1      46.680  27.896  29.902  1.00  0.00     0.037 A 
BRANCH  25  39
ATOM     39  C   UNL A   1      42.762  23.822  27.397  1.00  0.00     0.057 A 
ATOM     40  C   UNL A   1      42.400  22.723  28.187  1.00  0.00     0.134 A 
ATOM     41  C   UNL A   1      42.883  23.611  26.017  1.00  0.00     0.134 A 
ATOM     42  F   UNL A   1      42.277  22.851  29.516  1.00  0.00    -0.206 F 
ATOM     43  C   UNL A   1      42.185  21.459  27.627  1.00  0.00     0.040 A 
ATOM     44  C   UNL A   1      42.650  22.359  25.444  1.00  0.00     0.040 A 
ATOM     45  F   UNL A   1      43.220  24.621  25.200  1.00  0.00    -0.206 F 
ATOM     46  C   UNL A   1      42.304  21.278  26.250  1.00  0.00     0.006 A 
ENDBRANCH  25  39
BRANCH  26  47
ATOM     47  C   UNL A   1      43.698  32.951  31.401  1.00  0.00     0.057 A 
ATOM     48  C   UNL A   1      43.812  34.086  30.592  1.00  0.00     0.134 A 
ATOM     49  C   UNL A   1      43.668  33.147  32.788  1.00  0.00     0.134 A 
ATOM     50  F   UNL A   1      43.862  33.962  29.258  1.00  0.00    -0.206 F 
ATOM     51  C   UNL A   1      43.896  35.367  31.141  1.00  0.00     0.040 A 
ATOM     52  C   UNL A   1      43.721  34.422  33.349  1.00  0.00     0.040 A 
ATOM     53  F   UNL A   1      43.549  32.099  33.618  1.00  0.00    -0.206 F 
ATOM     54  C   UNL A   1      43.840  35.538  32.523  1.00  0.00     0.006 A 
ENDBRANCH  26  47
BRANCH  38  55
ATOM     55  C   UNL A   1      48.149  27.750  30.159  1.00  0.00     0.057 A 
ATOM     56  C   UNL A   1      48.635  27.219  31.359  1.00  0.00     0.134 A 
ATOM     57  C   UNL A   1      49.084  28.133  29.190  1.00  0.00     0.134 A 
ATOM     58  F   UNL A   1      47.787  26.851  32.332  1.00  0.00    -0.206 F 
ATOM     59  C   UNL A   1      50.004  27.095  31.598  1.00  0.00     0.040 A 
ATOM     60  C   UNL A   1      50.455  27.992  29.407  1.00  0.00     0.040 A 
ATOM     61  F   UNL A   1      48.680  28.644  28.017  1.00  0.00    -0.206 F 
ATOM     62  C   UNL A   1      50.918  27.478  30.617  1.00  0.00     0.006 A 
ENDBRANCH  38  55
ENDBRANCH  12  13
ENDBRANCH   5   7
ENDBRANCH   2   3
ENDBRANCH   1   2
BRANCH   1  63
ATOM     63  C   UNL A   1      35.413  34.430  28.755  1.00  0.00     0.117 C 
BRANCH  63  64
ATOM     64  N   UNL A   1      36.535  34.234  29.647  1.00  0.00    -0.356 N 
ATOM     65  C   UNL A   1      36.594  33.663  30.875  1.00  0.00     0.224 C 
ATOM     66  H   UNL A   1      37.395  34.571  29.307  1.00  0.00     0.163 HD
ATOM     67  O   UNL A   1      37.735  33.489  31.318  1.00  0.00    -0.275 OA
BRANCH  65  68
ATOM     68  C   UNL A   1      35.344  33.366  31.705  1.00  0.00     0.098 C 
ATOM     69  C   UNL A   1      34.913  34.644  32.468  1.00  0.00     0.017 C 
ATOM     70  C   UNL A   1      35.441  32.218  32.713  1.00  0.00     0.131 C 
ATOM     71  C   UNL A   1      35.838  34.955  33.657  1.00  0.00     0.022 C 
ATOM     72  N   UNL A   1      36.329  32.575  33.803  1.00  0.00    -0.356 N 
ATOM     73  C   UNL A   1      36.013  33.754  34.583  1.00  0.00     0.118 C 
BRANCH  72  74
ATOM     74  C   UNL A   1      37.551  31.960  33.887  1.00  0.00     0.129 A 
ATOM     75  C   UNL A   1      38.647  32.591  34.464  1.00  0.00     0.047 A 
ATOM     76  N   UNL A   1      37.662  30.744  33.318  1.00  0.00    -0.231 NA
ATOM     77  C   UNL A   1      39.894  31.972  34.425  1.00  0.00     0.014 A 
ATOM     78  C   UNL A   1      38.851  30.122  33.326  1.00  0.00     0.073 A 
ATOM     79  C   UNL A   1      40.020  30.709  33.843  1.00  0.00     0.002 A 
ATOM     80  C   UNL A   1      38.936  28.843  32.805  1.00  0.00     0.030 A 
ATOM     81  C   UNL A   1      41.252  30.030  33.761  1.00  0.00     0.032 A 
ATOM     82  C   UNL A   1      40.150  28.151  32.741  1.00  0.00     0.024 A 
ATOM     83  C   UNL A   1      41.322  28.758  33.185  1.00  0.00     0.083 A 
BRANCH  83  84
ATOM     84  S   UNL A   1      42.929  27.978  33.064  1.00  0.00     0.243 S 
ATOM     85  O   UNL A   1      43.024  27.418  31.736  1.00  0.00    -0.207 OA
ATOM     86  O   UNL A   1      43.887  28.951  33.556  1.00  0.00    -0.207 OA
BRANCH  84  87
ATOM     87  N   UNL A   1      42.942  26.678  34.182  1.00  0.00    -0.198 NA
ATOM     88  C   UNL A   1      41.783  26.610  35.099  1.00  0.00     0.102 C 
ATOM     89  C   UNL A   1      43.576  25.420  33.717  1.00  0.00     0.102 C 
ATOM     90  C   UNL A   1      41.943  25.526  36.152  1.00  0.00     0.017 C 
ATOM     91  C   UNL A   1      43.602  24.325  34.776  1.00  0.00     0.017 C 
ATOM     92  C   UNL A   1      42.273  24.194  35.501  1.00  0.00     0.003 C 
ENDBRANCH  84  87
ENDBRANCH  83  84
ENDBRANCH  72  74
ENDBRANCH  65  68
ENDBRANCH  63  64
ENDBRANCH   1  63
TORSDOF 13
ENDMDL
MODEL 2
REMARK VINA RESULT:     -10.1      7.181     12.573
REMARK SMILES O=C(NCCCNC(=O)[C@@H]1CCCN(c2ccc3cc(S(=O)(=O)N4CCCCC4)ccc3n2)C1)c1ccc(-c2c3nc(c(-c4c(F)cccc4F)c4ccc([nH]4)c(-c4c(F)cccc4F)c4nc(c(-c5c(F)cccc5F)c5ccc2[nH]5)C=C4)C=C3)cc1
REMARK SMILES IDX 5 1 4 2 3 3 1 4 2 5 35 7 36 8 88 9 37 10 87 11 38 12 39 13
REMARK SMILES IDX 40 14 81 15 41 16 86 17 80 18 82 19 42 20 85 21 79 22 78 23
REMARK SMILES IDX 43 25 69 26 52 27 68 28 53 29 56 30 67 31 83 32 54 33 55 34
REMARK SMILES IDX 66 36 84 37 57 38 44 39 45 40 50 41 46 42 47 43 49 44 51 45
REMARK SMILES IDX 48 46 70 47 71 48 76 49 72 50 73 51 75 52 77 53 74 54 58 55
REMARK SMILES IDX 59 56 64 57 60 58 61 59 63 60 65 61 62 62 6 63 7 64 8 65
REMARK SMILES IDX 9 67 10 68 11 69 34 70 12 71 14 72 13 73 15 74 16 75 33 76
REMARK SMILES IDX 17 77 32 78 18 79 31 80 19 81 30 82 20 83 21 84 22 85 23 86
REMARK SMILES IDX 24 87 25 88 29 89 26 90 28 91 27 92
REMARK H PARENT 3 6 82 24 56 35 7 66
REMARK Flexibility Score: inf
ROOT
ATOM      1  C   UNL A   1      45.827  25.242  39.724  1.00  0.00     0.042 C 
ENDROOT
BRANCH   1   2
ATOM      2  C   UNL A   1      46.682  26.181  38.885  1.00  0.00     0.118 C 
BRANCH   2   3
ATOM      3  N   UNL A   1      47.501  25.517  37.881  1.00  0.00    -0.352 N 
ATOM      4  O   UNL A   1      48.214  24.862  35.841  1.00  0.00    -0.269 OA
ATOM      5  C   UNL A   1      47.424  25.524  36.507  1.00  0.00     0.251 C 
ATOM      6  H   UNL A   1      48.234  24.971  38.246  1.00  0.00     0.163 HD
BRANCH   5   7
ATOM      7  C   UNL A   1      46.358  26.294  35.836  1.00  0.00     0.039 A 
ATOM      8  C   UNL A   1      45.074  25.768  35.737  1.00  0.00     0.014 A 
ATOM      9  C   UNL A   1      46.653  27.535  35.265  1.00  0.00     0.014 A 
ATOM     10  C   UNL A   1      44.164  26.347  34.868  1.00  0.00     0.010 A 
ATOM     11  C   UNL A   1      45.681  28.195  34.503  1.00  0.00     0.010 A 
ATOM     12  C   UNL A   1      44.446  27.580  34.257  1.00  0.00    -0.014 A 
BRANCH  12  13
ATOM     13  C   UNL A   1      43.386  28.210  33.429  1.00  0.00     0.031 A 
ATOM     14  C   UNL A   1      43.157  27.805  32.001  1.00  0.00     0.074 A 
ATOM     15  C   UNL A   1      42.571  29.104  34.024  1.00  0.00     0.049 A 
ATOM     16  N   UNL A   1      42.232  28.217  31.169  1.00  0.00    -0.248 NA
ATOM     17  C   UNL A   1      44.083  26.819  31.422  1.00  0.00     0.031 C 
ATOM     18  C   UNL A   1      42.709  29.572  35.407  1.00  0.00     0.029 A 
ATOM     19  N   UNL A   1      41.447  29.741  33.572  1.00  0.00    -0.354 N 
ATOM     20  C   UNL A   1      42.481  27.568  29.966  1.00  0.00     0.074 A 
ATOM     21  C   UNL A   1      43.652  26.742  30.170  1.00  0.00     0.031 C 
ATOM     22  C   UNL A   1      41.666  30.352  35.716  1.00  0.00     0.029 A 
ATOM     23  C   UNL A   1      40.834  30.511  34.532  1.00  0.00     0.049 A 
ATOM     24  H   UNL A   1      41.111  29.658  32.650  1.00  0.00     0.167 HD
ATOM     25  C   UNL A   1      41.793  27.659  28.803  1.00  0.00     0.037 A 
ATOM     26  C   UNL A   1      39.731  31.278  34.464  1.00  0.00     0.037 A 
ATOM     27  C   UNL A   1      40.617  28.471  28.621  1.00  0.00     0.049 A 
ATOM     28  C   UNL A   1      38.993  31.359  33.163  1.00  0.00     0.074 A 
ATOM     29  C   UNL A   1      39.834  28.619  27.488  1.00  0.00     0.029 A 
ATOM     30  N   UNL A   1      40.052  29.274  29.603  1.00  0.00    -0.354 N 
ATOM     31  N   UNL A   1      39.240  30.736  32.037  1.00  0.00    -0.248 NA
ATOM     32  C   UNL A   1      37.835  32.259  33.118  1.00  0.00     0.031 C 
ATOM     33  C   UNL A   1      38.820  29.539  27.774  1.00  0.00     0.029 A 
ATOM     34  C   UNL A   1      38.943  29.933  29.096  1.00  0.00     0.049 A 
ATOM     35  H   UNL A   1      40.389  29.362  30.523  1.00  0.00     0.167 HD
ATOM     36  C   UNL A   1      38.271  31.166  31.146  1.00  0.00     0.074 A 
ATOM     37  C   UNL A   1      37.412  32.081  31.875  1.00  0.00     0.031 C 
ATOM     38  C   UNL A   1      38.110  30.844  29.840  1.00  0.00     0.037 A 
BRANCH  25  39
ATOM     39  C   UNL A   1      42.309  26.883  27.624  1.00  0.00     0.057 A 
ATOM     40  C   UNL A   1      43.241  27.423  26.728  1.00  0.00     0.134 A 
ATOM     41  C   UNL A   1      41.901  25.561  27.408  1.00  0.00     0.134 A 
ATOM     42  F   UNL A   1      43.668  28.687  26.870  1.00  0.00    -0.206 F 
ATOM     43  C   UNL A   1      43.734  26.682  25.650  1.00  0.00     0.040 A 
ATOM     44  C   UNL A   1      42.402  24.803  26.347  1.00  0.00     0.040 A 
ATOM     45  F   UNL A   1      41.016  24.978  28.231  1.00  0.00    -0.206 F 
ATOM     46  C   UNL A   1      43.318  25.365  25.461  1.00  0.00     0.006 A 
ENDBRANCH  25  39
BRANCH  26  47
ATOM     47  C   UNL A   1      39.288  32.034  35.661  1.00  0.00     0.057 A 
ATOM     48  C   UNL A   1      39.748  33.330  35.913  1.00  0.00     0.134 A 
ATOM     49  C   UNL A   1      38.359  31.492  36.559  1.00  0.00     0.134 A 
ATOM     50  F   UNL A   1      40.649  33.898  35.098  1.00  0.00    -0.206 F 
ATOM     51  C   UNL A   1      39.304  34.060  37.018  1.00  0.00     0.040 A 
ATOM     52  C   UNL A   1      37.884  32.220  37.649  1.00  0.00     0.040 A 
ATOM     53  F   UNL A   1      37.872  30.257  36.366  1.00  0.00    -0.206 F 
ATOM     54  C   UNL A   1      38.361  33.508  37.884  1.00  0.00     0.006 A 
ENDBRANCH  26  47
BRANCH  38  55
ATOM     55  C   UNL A   1      36.955  31.481  29.130  1.00  0.00     0.057 A 
ATOM     56  C   UNL A   1      37.017  32.800  28.665  1.00  0.00     0.134 A 
ATOM     57  C   UNL A   1      35.776  30.764  28.899  1.00  0.00     0.134 A 
ATOM     58  F   UNL A   1      38.115  33.544  28.873  1.00  0.00    -0.206 F 
ATOM     59  C   UNL A   1      35.935  33.393  28.015  1.00  0.00     0.040 A 
ATOM     60  C   UNL A   1      34.696  31.338  28.229  1.00  0.00     0.040 A 
ATOM     61  F   UNL A   1      35.657  29.494  29.317  1.00  0.00    -0.206 F 
ATOM     62  C   UNL A   1      34.771  32.659  27.791  1.00  0.00     0.006 A 
ENDBRANCH  38  55
ENDBRANCH  12  13
ENDBRANCH   5   7
ENDBRANCH   2   3
ENDBRANCH   1   2
BRANCH   1  63
ATOM     63  C   UNL A   1      45.267  24.049  38.970  1.00  0.00     0.117 C 
BRANCH  63  64
ATOM     64  N   UNL A   1      44.905  22.945  39.831  1.00  0.00    -0.356 N 
ATOM     65  C   UNL A   1      45.634  21.883  40.255  1.00  0.00     0.224 C 
ATOM     66  H   UNL A   1      43.979  22.968  40.164  1.00  0.00     0.163 HD
ATOM     67  O   UNL A   1      45.096  21.193  41.128  1.00  0.00    -0.275 OA
BRANCH  65  68
ATOM     68  C   UNL A   1      46.968  21.495  39.617  1.00  0.00     0.098 C 
ATOM     69  C   UNL A   1      46.858  21.606  38.075  1.00  0.00     0.017 C 
ATOM     70  C   UNL A   1      47.519  20.108  39.958  1.00  0.00     0.131 C 
ATOM     71  C   UNL A   1      46.036  20.458  37.464  1.00  0.00     0.022 C 
ATOM     72  N   UNL A   1      46.698  19.075  39.354  1.00  0.00    -0.356 N 
ATOM     73  C   UNL A   1      46.532  19.087  37.917  1.00  0.00     0.118 C 
BRANCH  72  74
ATOM     74  C   UNL A   1      45.906  18.305  40.166  1.00  0.00     0.129 A 
ATOM     75  C   UNL A   1      46.129  18.223  41.537  1.00  0.00     0.047 A 
ATOM     76  N   UNL A   1      44.949  17.571  39.567  1.00  0.00    -0.231 NA
ATOM     77  C   UNL A   1      45.371  17.340  42.303  1.00  0.00     0.014 A 
ATOM     78  C   UNL A   1      44.181  16.760  40.312  1.00  0.00     0.073 A 
ATOM     79  C   UNL A   1      44.372  16.579  41.693  1.00  0.00     0.002 A 
ATOM     80  C   UNL A   1      43.152  16.068  39.697  1.00  0.00     0.030 A 
ATOM     81  C   UNL A   1      43.575  15.661  42.406  1.00  0.00     0.032 A 
ATOM     82  C   UNL A   1      42.340  15.173  40.400  1.00  0.00     0.024 A 
ATOM     83  C   UNL A   1      42.573  14.937  41.752  1.00  0.00     0.083 A 
BRANCH  83  84
ATOM     84  S   UNL A   1      41.637  13.748  42.709  1.00  0.00     0.243 S 
ATOM     85  O   UNL A   1      40.936  14.491  43.731  1.00  0.00    -0.207 OA
ATOM     86  O   UNL A   1      40.935  12.919  41.746  1.00  0.00    -0.207 OA
BRANCH  84  87
ATOM     87  N   UNL A   1      42.771  12.727  43.490  1.00  0.00    -0.198 NA
ATOM     88  C   UNL A   1      43.093  13.081  44.891  1.00  0.00     0.102 C 
ATOM     89  C   UNL A   1      42.756  11.300  43.086  1.00  0.00     0.102 C 
ATOM     90  C   UNL A   1      44.212  12.223  45.461  1.00  0.00     0.017 C 
ATOM     91  C   UNL A   1      43.822  10.461  43.779  1.00  0.00     0.017 C 
ATOM     92  C   UNL A   1      43.905  10.749  45.268  1.00  0.00     0.003 C 
ENDBRANCH  84  87
ENDBRANCH  83  84
ENDBRANCH  72  74
ENDBRANCH  65  68
ENDBRANCH  63  64
ENDBRANCH   1  63
TORSDOF 13
ENDMDL
MODEL 3
REMARK VINA RESULT:      -9.8      7.158     13.634
REMARK SMILES O=C(NCCCNC(=O)[C@@H]1CCCN(c2ccc3cc(S(=O)(=O)N4CCCCC4)ccc3n2)C1)c1ccc(-c2c3nc(c(-c4c(F)cccc4F)c4ccc([nH]4)c(-c4c(F)cccc4F)c4nc(c(-c5c(F)cccc5F)c5ccc2[nH]5)C=C4)C=C3)cc1
REMARK SMILES IDX 5 1 4 2 3 3 1 4 2 5 35 7 36 8 88 9 37 10 87 11 38 12 39 13
REMARK SMILES IDX 40 14 81 15 41 16 86 17 80 18 82 19 42 20 85 21 79 22 78 23
REMARK SMILES IDX 43 25 69 26 52 27 68 28 53 29 56 30 67 31 83 32 54 33 55 34
REMARK SMILES IDX 66 36 84 37 57 38 44 39 45 40 50 41 46 42 47 43 49 44 51 45
REMARK SMILES IDX 48 46 70 47 71 48 76 49 72 50 73 51 75 52 77 53 74 54 58 55
REMARK SMILES IDX 59 56 64 57 60 58 61 59 63 60 65 61 62 62 6 63 7 64 8 65
REMARK SMILES IDX 9 67 10 68 11 69 34 70 12 71 14 72 13 73 15 74 16 75 33 76
REMARK SMILES IDX 17 77 32 78 18 79 31 80 19 81 30 82 20 83 21 84 22 85 23 86
REMARK SMILES IDX 24 87 25 88 29 89 26 90 28 91 27 92
REMARK H PARENT 3 6 82 24 56 35 7 66
REMARK Flexibility Score: inf
ROOT
ATOM      1  C   UNL A   1      45.769  25.316  39.567  1.00  0.00     0.042 C 
ENDROOT
BRANCH   1   2
ATOM      2  C   UNL A   1      46.587  26.274  38.713  1.00  0.00     0.118 C 
BRANCH   2   3
ATOM      3  N   UNL A   1      47.317  25.639  37.625  1.00  0.00    -0.352 N 
ATOM      4  O   UNL A   1      47.837  25.019  35.517  1.00  0.00    -0.269 OA
ATOM      5  C   UNL A   1      47.101  25.655  36.265  1.00  0.00     0.251 C 
ATOM      6  H   UNL A   1      48.098  25.111  37.909  1.00  0.00     0.163 HD
BRANCH   5   7
ATOM      7  C   UNL A   1      45.954  26.400  35.713  1.00  0.00     0.039 A 
ATOM      8  C   UNL A   1      44.673  25.859  35.775  1.00  0.00     0.014 A 
ATOM      9  C   UNL A   1      46.163  27.635  35.091  1.00  0.00     0.014 A 
ATOM     10  C   UNL A   1      43.660  26.412  35.011  1.00  0.00     0.010 A 
ATOM     11  C   UNL A   1      45.099  28.270  34.439  1.00  0.00     0.010 A 
ATOM     12  C   UNL A   1      43.851  27.638  34.351  1.00  0.00    -0.014 A 
BRANCH  12  13
ATOM     13  C   UNL A   1      42.693  28.241  33.645  1.00  0.00     0.031 A 
ATOM     14  C   UNL A   1      41.803  29.251  34.311  1.00  0.00     0.074 A 
ATOM     15  C   UNL A   1      42.510  27.920  32.349  1.00  0.00     0.049 A 
ATOM     16  N   UNL A   1      40.791  29.914  33.807  1.00  0.00    -0.248 NA
ATOM     17  C   UNL A   1      42.069  29.556  35.726  1.00  0.00     0.031 C 
ATOM     18  C   UNL A   1      43.315  26.945  31.605  1.00  0.00     0.029 A 
ATOM     19  N   UNL A   1      41.632  28.401  31.415  1.00  0.00    -0.354 N 
ATOM     20  C   UNL A   1      40.283  30.687  34.843  1.00  0.00     0.074 A 
ATOM     21  C   UNL A   1      41.090  30.404  36.011  1.00  0.00     0.031 C 
ATOM     22  C   UNL A   1      42.952  26.963  30.317  1.00  0.00     0.029 A 
ATOM     23  C   UNL A   1      41.832  27.880  30.159  1.00  0.00     0.049 A 
ATOM     24  H   UNL A   1      40.925  29.055  31.622  1.00  0.00     0.167 HD
ATOM     25  C   UNL A   1      39.240  31.550  34.816  1.00  0.00     0.037 A 
ATOM     26  C   UNL A   1      41.177  28.102  29.006  1.00  0.00     0.037 A 
ATOM     27  C   UNL A   1      38.459  31.837  33.640  1.00  0.00     0.049 A 
ATOM     28  C   UNL A   1      40.026  29.061  29.008  1.00  0.00     0.074 A 
ATOM     29  C   UNL A   1      37.392  32.709  33.500  1.00  0.00     0.029 A 
ATOM     30  N   UNL A   1      38.662  31.254  32.395  1.00  0.00    -0.354 N 
ATOM     31  N   UNL A   1      39.562  29.786  29.996  1.00  0.00    -0.248 NA
ATOM     32  C   UNL A   1      39.299  29.221  27.744  1.00  0.00     0.031 C 
ATOM     33  C   UNL A   1      36.927  32.626  32.183  1.00  0.00     0.029 A 
ATOM     34  C   UNL A   1      37.730  31.735  31.489  1.00  0.00     0.049 A 
ATOM     35  H   UNL A   1      39.365  30.597  32.188  1.00  0.00     0.167 HD
ATOM     36  C   UNL A   1      38.488  30.489  29.477  1.00  0.00     0.074 A 
ATOM     37  C   UNL A   1      38.390  30.127  28.076  1.00  0.00     0.031 C 
ATOM     38  C   UNL A   1      37.649  31.351  30.103  1.00  0.00     0.037 A 
BRANCH  25  39
ATOM     39  C   UNL A   1      38.861  32.227  36.102  1.00  0.00     0.057 A 
ATOM     40  C   UNL A   1      39.243  33.544  36.391  1.00  0.00     0.134 A 
ATOM     41  C   UNL A   1      38.066  31.566  37.047  1.00  0.00     0.134 A 
ATOM     42  F   UNL A   1      40.013  34.232  35.536  1.00  0.00    -0.206 F 
ATOM     43  C   UNL A   1      38.862  34.172  37.581  1.00  0.00     0.040 A 
ATOM     44  C   UNL A   1      37.661  32.190  38.229  1.00  0.00     0.040 A 
ATOM     45  F   UNL A   1      37.658  30.306  36.832  1.00  0.00    -0.206 F 
ATOM     46  C   UNL A   1      38.063  33.495  38.501  1.00  0.00     0.006 A 
ENDBRANCH  25  39
BRANCH  26  47
ATOM     47  C   UNL A   1      41.591  27.383  27.776  1.00  0.00     0.057 A 
ATOM     48  C   UNL A   1      41.139  26.089  27.503  1.00  0.00     0.134 A 
ATOM     49  C   UNL A   1      42.416  27.994  26.822  1.00  0.00     0.134 A 
ATOM     50  F   UNL A   1      40.358  25.446  28.384  1.00  0.00    -0.206 F 
ATOM     51  C   UNL A   1      41.495  25.424  26.328  1.00  0.00     0.040 A 
ATOM     52  C   UNL A   1      42.756  27.354  25.631  1.00  0.00     0.040 A 
ATOM     53  F   UNL A   1      42.874  29.239  27.019  1.00  0.00    -0.206 F 
ATOM     54  C   UNL A   1      42.298  26.061  25.383  1.00  0.00     0.006 A 
ENDBRANCH  26  47
BRANCH  38  55
ATOM     55  C   UNL A   1      36.567  31.960  29.265  1.00  0.00     0.057 A 
ATOM     56  C   UNL A   1      35.435  31.230  28.886  1.00  0.00     0.134 A 
ATOM     57  C   UNL A   1      36.654  33.293  28.846  1.00  0.00     0.134 A 
ATOM     58  F   UNL A   1      35.304  29.943  29.243  1.00  0.00    -0.206 F 
ATOM     59  C   UNL A   1      34.434  31.798  28.096  1.00  0.00     0.040 A 
ATOM     60  C   UNL A   1      35.649  33.879  28.076  1.00  0.00     0.040 A 
ATOM     61  F   UNL A   1      37.713  34.045  29.181  1.00  0.00    -0.206 F 
ATOM     62  C   UNL A   1      34.539  33.129  27.694  1.00  0.00     0.006 A 
ENDBRANCH  38  55
ENDBRANCH  12  13
ENDBRANCH   5   7
ENDBRANCH   2   3
ENDBRANCH   1   2
BRANCH   1  63
ATOM     63  C   UNL A   1      45.281  24.076  38.840  1.00  0.00     0.117 C 
BRANCH  63  64
ATOM     64  N   UNL A   1      44.922  22.994  39.731  1.00  0.00    -0.356 N 
ATOM     65  C   UNL A   1      45.659  21.956  40.197  1.00  0.00     0.224 C 
ATOM     66  H   UNL A   1      43.991  23.014  40.050  1.00  0.00     0.163 HD
ATOM     67  O   UNL A   1      45.119  21.286  41.084  1.00  0.00    -0.275 OA
BRANCH  65  68
ATOM     68  C   UNL A   1      47.007  21.567  39.590  1.00  0.00     0.098 C 
ATOM     69  C   UNL A   1      46.926  21.657  38.045  1.00  0.00     0.017 C 
ATOM     70  C   UNL A   1      47.559  20.188  39.959  1.00  0.00     0.131 C 
ATOM     71  C   UNL A   1      46.121  20.496  37.433  1.00  0.00     0.022 C 
ATOM     72  N   UNL A   1      46.755  19.142  39.355  1.00  0.00    -0.356 N 
ATOM     73  C   UNL A   1      46.617  19.135  37.914  1.00  0.00     0.118 C 
BRANCH  72  74
ATOM     74  C   UNL A   1      45.953  18.378  40.162  1.00  0.00     0.129 A 
ATOM     75  C   UNL A   1      46.163  18.301  41.535  1.00  0.00     0.047 A 
ATOM     76  N   UNL A   1      44.999  17.646  39.557  1.00  0.00    -0.231 NA
ATOM     77  C   UNL A   1      45.394  17.425  42.298  1.00  0.00     0.014 A 
ATOM     78  C   UNL A   1      44.220  16.841  40.297  1.00  0.00     0.073 A 
ATOM     79  C   UNL A   1      44.397  16.665  41.681  1.00  0.00     0.002 A 
ATOM     80  C   UNL A   1      43.195  16.151  39.675  1.00  0.00     0.030 A 
ATOM     81  C   UNL A   1      43.590  15.753  42.390  1.00  0.00     0.032 A 
ATOM     82  C   UNL A   1      42.373  15.261  40.374  1.00  0.00     0.024 A 
ATOM     83  C   UNL A   1      42.592  15.030  41.729  1.00  0.00     0.083 A 
BRANCH  83  84
ATOM     84  S   UNL A   1      41.642  13.849  42.682  1.00  0.00     0.243 S 
ATOM     85  O   UNL A   1      40.914  14.601  43.677  1.00  0.00    -0.207 OA
ATOM     86  O   UNL A   1      40.967  13.001  41.715  1.00  0.00    -0.207 OA
BRANCH  84  87
ATOM     87  N   UNL A   1      42.765  12.846  43.503  1.00  0.00    -0.198 NA
ATOM     88  C   UNL A   1      43.040  13.211  44.910  1.00  0.00     0.102 C 
ATOM     89  C   UNL A   1      42.780  11.417  43.106  1.00  0.00     0.102 C 
ATOM     90  C   UNL A   1      44.151  12.371  45.518  1.00  0.00     0.017 C 
ATOM     91  C   UNL A   1      43.835  10.595  43.835  1.00  0.00     0.017 C 
ATOM     92  C   UNL A   1      43.869  10.892  45.325  1.00  0.00     0.003 C 
ENDBRANCH  84  87
ENDBRANCH  83  84
ENDBRANCH  72  74
ENDBRANCH  65  68
ENDBRANCH  63  64
ENDBRANCH   1  63
TORSDOF 13
ENDMDL
