MODEL 1
REMARK VINA RESULT:      -9.6      0.000      0.000
REMARK SMILES Cc1cccc(Cl)c1Nc1ccccc1CC(=O)NCCCNC(=O)c1ccc(-c2c3nc(c(-c4c(F)cccc4F)c4ccc([nH]4)c(-c4c(F)cccc4F)c4nc(c(-c5c(F)cccc5F)c5ccc2[nH]5)C=C4)C=C3)cc1
REMARK SMILES IDX 20 1 19 2 17 3 18 4 16 6 15 7 10 8 11 9 12 10 14 11 13 12
REMARK SMILES IDX 9 13 8 15 1 16 2 17 3 18 4 19 6 20 5 21 7 22 21 23 22 24
REMARK SMILES IDX 23 25 24 26 25 28 26 29 27 30 79 31 28 32 78 33 29 34 30 35
REMARK SMILES IDX 31 36 72 37 32 38 77 39 71 40 73 41 33 42 76 43 70 44 69 45
REMARK SMILES IDX 34 47 60 48 43 49 59 50 44 51 47 52 58 53 74 54 45 55 46 56
REMARK SMILES IDX 57 58 75 59 48 60 35 61 36 62 41 63 37 64 38 65 40 66 42 67
REMARK SMILES IDX 39 68 61 69 62 70 67 71 63 72 64 73 66 74 68 75 65 76 49 77
REMARK SMILES IDX 50 78 55 79 51 80 52 81 54 82 56 83 53 84
REMARK H PARENT 19 5 9 14 23 27 73 46 47 57
REMARK Flexibility Score: inf
ROOT
ATOM      1  C   UNL A   1      45.208  21.273  24.138  1.00  0.00     0.117 C 
ENDROOT
BRANCH   1   2
ATOM      2  N   UNL A   1      45.804  21.740  25.374  1.00  0.00    -0.356 N 
ATOM      3  C   UNL A   1      46.148  23.017  25.719  1.00  0.00     0.224 C 
ATOM      4  O   UNL A   1      46.736  23.195  26.787  1.00  0.00    -0.275 OA
ATOM      5  H   UNL A   1      45.986  21.048  26.051  1.00  0.00     0.163 HD
BRANCH   3   6
ATOM      6  C   UNL A   1      45.770  24.174  24.809  1.00  0.00     0.137 C 
BRANCH   6   7
ATOM      7  C   UNL A   1      46.712  25.356  24.891  1.00  0.00    -0.015 A 
ATOM      8  C   UNL A   1      46.411  26.545  25.592  1.00  0.00     0.042 A 
ATOM      9  C   UNL A   1      47.323  27.616  25.519  1.00  0.00     0.026 A 
ATOM     10  C   UNL A   1      48.516  27.516  24.804  1.00  0.00     0.002 A 
ATOM     11  C   UNL A   1      47.937  25.262  24.195  1.00  0.00     0.006 A 
ATOM     12  C   UNL A   1      48.829  26.332  24.151  1.00  0.00     0.000 A 
BRANCH   8  13
ATOM     13  N   UNL A   1      45.281  26.727  26.414  1.00  0.00    -0.354 N 
ATOM     14  H   UNL A   1      45.074  25.948  26.979  1.00  0.00     0.167 HD
BRANCH  13  15
ATOM     15  C   UNL A   1      44.385  27.811  26.585  1.00  0.00     0.060 A 
ATOM     16  C   UNL A   1      42.777  26.623  24.983  1.00  0.00     0.046 C 
ATOM     17  C   UNL A   1      43.134  27.755  25.913  1.00  0.00    -0.026 A 
ATOM     18  C   UNL A   1      42.169  28.755  26.134  1.00  0.00     0.005 A 
ATOM     19  C   UNL A   1      42.425  29.817  26.996  1.00  0.00     0.002 A 
ATOM     20  C   UNL A   1      44.633  28.919  27.428  1.00  0.00     0.064 A 
ATOM     21  C   UNL A   1      43.657  29.902  27.634  1.00  0.00     0.023 A 
ATOM     22  Cl  UNL A   1      46.168  29.220  28.174  1.00  0.00    -0.082 Cl
ENDBRANCH  13  15
ENDBRANCH   8  13
ENDBRANCH   6   7
ENDBRANCH   3   6
ENDBRANCH   1   2
BRANCH   1  23
ATOM     23  C   UNL A   1      44.855  19.790  24.196  1.00  0.00     0.042 C 
BRANCH  23  24
ATOM     24  C   UNL A   1      44.211  19.362  25.510  1.00  0.00     0.118 C 
BRANCH  24  25
ATOM     25  N   UNL A   1      42.784  19.103  25.369  1.00  0.00    -0.352 N 
ATOM     26  C   UNL A   1      41.713  19.785  25.877  1.00  0.00     0.251 C 
ATOM     27  H   UNL A   1      42.556  18.316  24.824  1.00  0.00     0.163 HD
ATOM     28  O   UNL A   1      40.586  19.286  25.799  1.00  0.00    -0.269 OA
BRANCH  26  29
ATOM     29  C   UNL A   1      41.886  21.100  26.527  1.00  0.00     0.039 A 
ATOM     30  C   UNL A   1      41.613  21.216  27.894  1.00  0.00     0.014 A 
ATOM     31  C   UNL A   1      42.268  22.228  25.795  1.00  0.00     0.014 A 
ATOM     32  C   UNL A   1      41.768  22.448  28.533  1.00  0.00     0.010 A 
ATOM     33  C   UNL A   1      42.491  23.438  26.446  1.00  0.00     0.010 A 
ATOM     34  C   UNL A   1      42.232  23.564  27.820  1.00  0.00    -0.014 A 
BRANCH  34  35
ATOM     35  C   UNL A   1      42.432  24.876  28.485  1.00  0.00     0.031 A 
ATOM     36  C   UNL A   1      43.740  25.183  29.163  1.00  0.00     0.074 A 
ATOM     37  C   UNL A   1      41.421  25.764  28.531  1.00  0.00     0.049 A 
ATOM     38  N   UNL A   1      44.081  26.234  29.866  1.00  0.00    -0.248 NA
ATOM     39  C   UNL A   1      44.796  24.163  29.060  1.00  0.00     0.031 C 
ATOM     40  C   UNL A   1      40.094  25.567  27.946  1.00  0.00     0.029 A 
ATOM     41  N   UNL A   1      41.350  27.007  29.106  1.00  0.00    -0.354 N 
ATOM     42  C   UNL A   1      45.377  25.991  30.304  1.00  0.00     0.074 A 
ATOM     43  C   UNL A   1      45.746  24.676  29.828  1.00  0.00     0.031 C 
ATOM     44  C   UNL A   1      39.346  26.659  28.177  1.00  0.00     0.029 A 
ATOM     45  C   UNL A   1      40.125  27.614  28.958  1.00  0.00     0.049 A 
ATOM     46  H   UNL A   1      42.104  27.426  29.581  1.00  0.00     0.167 HD
ATOM     47  C   UNL A   1      46.193  26.801  31.019  1.00  0.00     0.037 A 
ATOM     48  C   UNL A   1      39.680  28.802  29.409  1.00  0.00     0.037 A 
ATOM     49  C   UNL A   1      45.835  28.122  31.463  1.00  0.00     0.049 A 
ATOM     50  C   UNL A   1      40.609  29.682  30.200  1.00  0.00     0.074 A 
ATOM     51  C   UNL A   1      46.614  29.043  32.141  1.00  0.00     0.029 A 
ATOM     52  N   UNL A   1      44.596  28.711  31.269  1.00  0.00    -0.354 N 
ATOM     53  N   UNL A   1      41.854  29.466  30.552  1.00  0.00    -0.248 NA
ATOM     54  C   UNL A   1      40.074  30.973  30.653  1.00  0.00     0.031 C 
ATOM     55  C   UNL A   1      45.832  30.175  32.393  1.00  0.00     0.029 A 
ATOM     56  C   UNL A   1      44.582  29.978  31.830  1.00  0.00     0.049 A 
ATOM     57  H   UNL A   1      43.838  28.291  30.802  1.00  0.00     0.167 HD
ATOM     58  C   UNL A   1      42.259  30.605  31.234  1.00  0.00     0.074 A 
ATOM     59  C   UNL A   1      41.132  31.515  31.237  1.00  0.00     0.031 C 
ATOM     60  C   UNL A   1      43.458  30.877  31.807  1.00  0.00     0.037 A 
BRANCH  47  61
ATOM     61  C   UNL A   1      47.559  26.283  31.364  1.00  0.00     0.057 A 
ATOM     62  C   UNL A   1      47.807  25.586  32.555  1.00  0.00     0.134 A 
ATOM     63  C   UNL A   1      48.629  26.438  30.474  1.00  0.00     0.134 A 
ATOM     64  F   UNL A   1      46.828  25.412  33.456  1.00  0.00    -0.206 F 
ATOM     65  C   UNL A   1      49.074  25.084  32.857  1.00  0.00     0.040 A 
ATOM     66  C   UNL A   1      49.893  25.917  30.753  1.00  0.00     0.040 A 
ATOM     67  F   UNL A   1      48.460  27.088  29.313  1.00  0.00    -0.206 F 
ATOM     68  C   UNL A   1      50.119  25.241  31.951  1.00  0.00     0.006 A 
ENDBRANCH  47  61
BRANCH  48  69
ATOM     69  C   UNL A   1      38.295  29.245  29.111  1.00  0.00     0.057 A 
ATOM     70  C   UNL A   1      37.297  29.198  30.090  1.00  0.00     0.134 A 
ATOM     71  C   UNL A   1      37.929  29.700  27.838  1.00  0.00     0.134 A 
ATOM     72  F   UNL A   1      37.582  28.753  31.323  1.00  0.00    -0.206 F 
ATOM     73  C   UNL A   1      35.978  29.562  29.811  1.00  0.00     0.040 A 
ATOM     74  C   UNL A   1      36.620  30.093  27.552  1.00  0.00     0.040 A 
ATOM     75  F   UNL A   1      38.841  29.777  26.858  1.00  0.00    -0.206 F 
ATOM     76  C   UNL A   1      35.639  30.014  28.537  1.00  0.00     0.006 A 
ENDBRANCH  48  69
BRANCH  60  77
ATOM     77  C   UNL A   1      43.628  32.226  32.440  1.00  0.00     0.057 A 
ATOM     78  C   UNL A   1      43.361  32.447  33.797  1.00  0.00     0.134 A 
ATOM     79  C   UNL A   1      44.104  33.307  31.688  1.00  0.00     0.134 A 
ATOM     80  F   UNL A   1      42.891  31.455  34.569  1.00  0.00    -0.206 F 
ATOM     81  C   UNL A   1      43.540  33.703  34.378  1.00  0.00     0.040 A 
ATOM     82  C   UNL A   1      44.313  34.560  32.264  1.00  0.00     0.040 A 
ATOM     83  F   UNL A   1      44.388  33.159  30.385  1.00  0.00    -0.206 F 
ATOM     84  C   UNL A   1      44.025  34.762  33.612  1.00  0.00     0.006 A 
ENDBRANCH  60  77
ENDBRANCH  34  35
ENDBRANCH  26  29
ENDBRANCH  24  25
ENDBRANCH  23  24
ENDBRANCH   1  23
TORSDOF 13
ENDMDL
MODEL 2
REMARK VINA RESULT:      -9.1      1.223      2.881
REMARK SMILES Cc1cccc(Cl)c1Nc1ccccc1CC(=O)NCCCNC(=O)c1ccc(-c2c3nc(c(-c4c(F)cccc4F)c4ccc([nH]4)c(-c4c(F)cccc4F)c4nc(c(-c5c(F)cccc5F)c5ccc2[nH]5)C=C4)C=C3)cc1
REMARK SMILES IDX 20 1 19 2 17 3 18 4 16 6 15 7 10 8 11 9 12 10 14 11 13 12
REMARK SMILES IDX 9 13 8 15 1 16 2 17 3 18 4 19 6 20 5 21 7 22 21 23 22 24
REMARK SMILES IDX 23 25 24 26 25 28 26 29 27 30 79 31 28 32 78 33 29 34 30 35
REMARK SMILES IDX 31 36 72 37 32 38 77 39 71 40 73 41 33 42 76 43 70 44 69 45
REMARK SMILES IDX 34 47 60 48 43 49 59 50 44 51 47 52 58 53 74 54 45 55 46 56
REMARK SMILES IDX 57 58 75 59 48 60 35 61 36 62 41 63 37 64 38 65 40 66 42 67
REMARK SMILES IDX 39 68 61 69 62 70 67 71 63 72 64 73 66 74 68 75 65 76 49 77
REMARK SMILES IDX 50 78 55 79 51 80 52 81 54 82 56 83 53 84
REMARK H PARENT 19 5 9 14 23 27 73 46 47 57
REMARK Flexibility Score: inf
ROOT
ATOM      1  C   UNL A   1      45.009  21.071  24.187  1.00  0.00     0.117 C 
ENDROOT
BRANCH   1   2
ATOM      2  N   UNL A   1      45.761  21.662  25.276  1.00  0.00    -0.356 N 
ATOM      3  C   UNL A   1      46.118  22.971  25.446  1.00  0.00     0.224 C 
ATOM      4  O   UNL A   1      46.846  23.258  26.399  1.00  0.00    -0.275 OA
ATOM      5  H   UNL A   1      46.054  21.041  25.982  1.00  0.00     0.163 HD
BRANCH   3   6
ATOM      6  C   UNL A   1      45.585  24.030  24.496  1.00  0.00     0.137 C 
BRANCH   6   7
ATOM      7  C   UNL A   1      45.654  25.440  25.043  1.00  0.00    -0.015 A 
ATOM      8  C   UNL A   1      46.863  26.142  25.240  1.00  0.00     0.042 A 
ATOM      9  C   UNL A   1      46.812  27.412  25.845  1.00  0.00     0.026 A 
ATOM     10  C   UNL A   1      45.603  27.996  26.221  1.00  0.00     0.002 A 
ATOM     11  C   UNL A   1      44.436  26.058  25.404  1.00  0.00     0.006 A 
ATOM     12  C   UNL A   1      44.412  27.323  25.988  1.00  0.00     0.000 A 
BRANCH   8  13
ATOM     13  N   UNL A   1      48.131  25.688  24.821  1.00  0.00    -0.354 N 
ATOM     14  H   UNL A   1      48.184  24.712  24.709  1.00  0.00     0.167 HD
BRANCH  13  15
ATOM     15  C   UNL A   1      49.341  26.363  24.531  1.00  0.00     0.060 A 
ATOM     16  C   UNL A   1      50.344  25.288  26.629  1.00  0.00     0.046 C 
ATOM     17  C   UNL A   1      50.450  26.147  25.394  1.00  0.00    -0.026 A 
ATOM     18  C   UNL A   1      51.702  26.711  25.089  1.00  0.00     0.005 A 
ATOM     19  C   UNL A   1      51.875  27.496  23.954  1.00  0.00     0.002 A 
ATOM     20  C   UNL A   1      49.536  27.194  23.403  1.00  0.00     0.064 A 
ATOM     21  C   UNL A   1      50.792  27.744  23.119  1.00  0.00     0.023 A 
ATOM     22  Cl  UNL A   1      48.246  27.695  22.359  1.00  0.00    -0.082 Cl
ENDBRANCH  13  15
ENDBRANCH   8  13
ENDBRANCH   6   7
ENDBRANCH   3   6
ENDBRANCH   1   2
BRANCH   1  23
ATOM     23  C   UNL A   1      44.845  19.564  24.355  1.00  0.00     0.042 C 
BRANCH  23  24
ATOM     24  C   UNL A   1      44.169  19.162  25.661  1.00  0.00     0.118 C 
BRANCH  24  25
ATOM     25  N   UNL A   1      42.739  18.935  25.499  1.00  0.00    -0.352 N 
ATOM     26  C   UNL A   1      41.678  19.675  25.943  1.00  0.00     0.251 C 
ATOM     27  H   UNL A   1      42.500  18.127  24.992  1.00  0.00     0.163 HD
ATOM     28  O   UNL A   1      40.538  19.205  25.864  1.00  0.00    -0.269 OA
BRANCH  26  29
ATOM     29  C   UNL A   1      41.874  21.018  26.526  1.00  0.00     0.039 A 
ATOM     30  C   UNL A   1      41.867  21.155  27.917  1.00  0.00     0.014 A 
ATOM     31  C   UNL A   1      42.018  22.147  25.714  1.00  0.00     0.014 A 
ATOM     32  C   UNL A   1      42.051  22.414  28.494  1.00  0.00     0.010 A 
ATOM     33  C   UNL A   1      42.272  23.390  26.290  1.00  0.00     0.010 A 
ATOM     34  C   UNL A   1      42.279  23.538  27.685  1.00  0.00    -0.014 A 
BRANCH  34  35
ATOM     35  C   UNL A   1      42.506  24.880  28.278  1.00  0.00     0.031 A 
ATOM     36  C   UNL A   1      43.855  25.234  28.844  1.00  0.00     0.074 A 
ATOM     37  C   UNL A   1      41.487  25.757  28.360  1.00  0.00     0.049 A 
ATOM     38  N   UNL A   1      44.229  26.319  29.474  1.00  0.00    -0.248 NA
ATOM     39  C   UNL A   1      44.917  24.224  28.707  1.00  0.00     0.031 C 
ATOM     40  C   UNL A   1      40.123  25.517  27.883  1.00  0.00     0.029 A 
ATOM     41  N   UNL A   1      41.437  27.023  28.885  1.00  0.00    -0.354 N 
ATOM     42  C   UNL A   1      45.557  26.113  29.825  1.00  0.00     0.074 A 
ATOM     43  C   UNL A   1      45.912  24.783  29.380  1.00  0.00     0.031 C 
ATOM     44  C   UNL A   1      39.377  26.608  28.122  1.00  0.00     0.029 A 
ATOM     45  C   UNL A   1      40.196  27.606  28.802  1.00  0.00     0.049 A 
ATOM     46  H   UNL A   1      42.217  27.472  29.284  1.00  0.00     0.167 HD
ATOM     47  C   UNL A   1      46.410  26.964  30.444  1.00  0.00     0.037 A 
ATOM     48  C   UNL A   1      39.765  28.807  29.232  1.00  0.00     0.037 A 
ATOM     49  C   UNL A   1      46.064  28.298  30.855  1.00  0.00     0.049 A 
ATOM     50  C   UNL A   1      40.735  29.732  29.915  1.00  0.00     0.074 A 
ATOM     51  C   UNL A   1      46.875  29.259  31.434  1.00  0.00     0.029 A 
ATOM     52  N   UNL A   1      44.805  28.862  30.728  1.00  0.00    -0.354 N 
ATOM     53  N   UNL A   1      42.005  29.549  30.184  1.00  0.00    -0.248 NA
ATOM     54  C   UNL A   1      40.213  31.035  30.350  1.00  0.00     0.031 C 
ATOM     55  C   UNL A   1      46.095  30.390  31.694  1.00  0.00     0.029 A 
ATOM     56  C   UNL A   1      44.811  30.152  31.233  1.00  0.00     0.049 A 
ATOM     57  H   UNL A   1      44.021  28.412  30.336  1.00  0.00     0.167 HD
ATOM     58  C   UNL A   1      42.441  30.722  30.784  1.00  0.00     0.074 A 
ATOM     59  C   UNL A   1      41.302  31.616  30.831  1.00  0.00     0.031 C 
ATOM     60  C   UNL A   1      43.673  31.034  31.255  1.00  0.00     0.037 A 
BRANCH  47  61
ATOM     61  C   UNL A   1      47.805  26.479  30.709  1.00  0.00     0.057 A 
ATOM     62  C   UNL A   1      48.132  25.765  31.870  1.00  0.00     0.134 A 
ATOM     63  C   UNL A   1      48.825  26.685  29.770  1.00  0.00     0.134 A 
ATOM     64  F   UNL A   1      47.205  25.543  32.814  1.00  0.00    -0.206 F 
ATOM     65  C   UNL A   1      49.426  25.294  32.098  1.00  0.00     0.040 A 
ATOM     66  C   UNL A   1      50.116  26.196  29.975  1.00  0.00     0.040 A 
ATOM     67  F   UNL A   1      48.580  27.354  28.634  1.00  0.00    -0.206 F 
ATOM     68  C   UNL A   1      50.421  25.502  31.145  1.00  0.00     0.006 A 
ENDBRANCH  47  61
BRANCH  48  69
ATOM     69  C   UNL A   1      38.355  29.218  29.018  1.00  0.00     0.057 A 
ATOM     70  C   UNL A   1      37.926  29.702  27.778  1.00  0.00     0.134 A 
ATOM     71  C   UNL A   1      37.410  29.160  30.050  1.00  0.00     0.134 A 
ATOM     72  F   UNL A   1      38.789  29.799  26.755  1.00  0.00    -0.206 F 
ATOM     73  C   UNL A   1      36.616  30.141  27.575  1.00  0.00     0.040 A 
ATOM     74  C   UNL A   1      36.090  29.571  29.855  1.00  0.00     0.040 A 
ATOM     75  F   UNL A   1      37.756  28.697  31.260  1.00  0.00    -0.206 F 
ATOM     76  C   UNL A   1      35.693  30.072  28.617  1.00  0.00     0.006 A 
ENDBRANCH  48  69
BRANCH  60  77
ATOM     77  C   UNL A   1      43.867  32.412  31.816  1.00  0.00     0.057 A 
ATOM     78  C   UNL A   1      43.694  32.689  33.178  1.00  0.00     0.134 A 
ATOM     79  C   UNL A   1      44.272  33.464  30.985  1.00  0.00     0.134 A 
ATOM     80  F   UNL A   1      43.295  31.727  34.023  1.00  0.00    -0.206 F 
ATOM     81  C   UNL A   1      43.895  33.972  33.690  1.00  0.00     0.040 A 
ATOM     82  C   UNL A   1      44.501  34.744  31.490  1.00  0.00     0.040 A 
ATOM     83  F   UNL A   1      44.464  33.263  29.673  1.00  0.00    -0.206 F 
ATOM     84  C   UNL A   1      44.307  35.002  32.846  1.00  0.00     0.006 A 
ENDBRANCH  60  77
ENDBRANCH  34  35
ENDBRANCH  26  29
ENDBRANCH  24  25
ENDBRANCH  23  24
ENDBRANCH   1  23
TORSDOF 13
ENDMDL
MODEL 3
REMARK VINA RESULT:      -9.1      1.298      6.887
REMARK SMILES Cc1cccc(Cl)c1Nc1ccccc1CC(=O)NCCCNC(=O)c1ccc(-c2c3nc(c(-c4c(F)cccc4F)c4ccc([nH]4)c(-c4c(F)cccc4F)c4nc(c(-c5c(F)cccc5F)c5ccc2[nH]5)C=C4)C=C3)cc1
REMARK SMILES IDX 20 1 19 2 17 3 18 4 16 6 15 7 10 8 11 9 12 10 14 11 13 12
REMARK SMILES IDX 9 13 8 15 1 16 2 17 3 18 4 19 6 20 5 21 7 22 21 23 22 24
REMARK SMILES IDX 23 25 24 26 25 28 26 29 27 30 79 31 28 32 78 33 29 34 30 35
REMARK SMILES IDX 31 36 72 37 32 38 77 39 71 40 73 41 33 42 76 43 70 44 69 45
REMARK SMILES IDX 34 47 60 48 43 49 59 50 44 51 47 52 58 53 74 54 45 55 46 56
REMARK SMILES IDX 57 58 75 59 48 60 35 61 36 62 41 63 37 64 38 65 40 66 42 67
REMARK SMILES IDX 39 68 61 69 62 70 67 71 63 72 64 73 66 74 68 75 65 76 49 77
REMARK SMILES IDX 50 78 55 79 51 80 52 81 54 82 56 83 53 84
REMARK H PARENT 19 5 9 14 23 27 73 46 47 57
REMARK Flexibility Score: inf
ROOT
ATOM      1  C   UNL A   1      44.897  20.996  24.174  1.00  0.00     0.117 C 
ENDROOT
BRANCH   1   2
ATOM      2  N   UNL A   1      45.668  21.582  25.253  1.00  0.00    -0.356 N 
ATOM      3  C   UNL A   1      46.030  22.889  25.423  1.00  0.00     0.224 C 
ATOM      4  O   UNL A   1      46.774  23.171  26.364  1.00  0.00    -0.275 OA
ATOM      5  H   UNL A   1      45.971  20.958  25.952  1.00  0.00     0.163 HD
BRANCH   3   6
ATOM      6  C   UNL A   1      45.484  23.952  24.485  1.00  0.00     0.137 C 
BRANCH   6   7
ATOM      7  C   UNL A   1      45.563  25.360  25.037  1.00  0.00    -0.015 A 
ATOM      8  C   UNL A   1      46.780  26.030  25.294  1.00  0.00     0.042 A 
ATOM      9  C   UNL A   1      46.732  27.301  25.898  1.00  0.00     0.026 A 
ATOM     10  C   UNL A   1      45.522  27.917  26.214  1.00  0.00     0.002 A 
ATOM     11  C   UNL A   1      44.346  26.011  25.338  1.00  0.00     0.006 A 
ATOM     12  C   UNL A   1      44.327  27.276  25.921  1.00  0.00     0.000 A 
BRANCH   8  13
ATOM     13  N   UNL A   1      48.053  25.542  24.938  1.00  0.00    -0.354 N 
ATOM     14  H   UNL A   1      48.065  24.580  24.730  1.00  0.00     0.167 HD
BRANCH  13  15
ATOM     15  C   UNL A   1      49.320  26.166  24.824  1.00  0.00     0.060 A 
ATOM     16  C   UNL A   1      49.982  25.035  27.025  1.00  0.00     0.046 C 
ATOM     17  C   UNL A   1      50.291  25.897  25.826  1.00  0.00    -0.026 A 
ATOM     18  C   UNL A   1      51.595  26.408  25.701  1.00  0.00     0.005 A 
ATOM     19  C   UNL A   1      51.953  27.192  24.609  1.00  0.00     0.002 A 
ATOM     20  C   UNL A   1      49.700  26.995  23.743  1.00  0.00     0.064 A 
ATOM     21  C   UNL A   1      51.006  27.492  23.638  1.00  0.00     0.023 A 
ATOM     22  Cl  UNL A   1      48.586  27.557  22.539  1.00  0.00    -0.082 Cl
ENDBRANCH  13  15
ENDBRANCH   8  13
ENDBRANCH   6   7
ENDBRANCH   3   6
ENDBRANCH   1   2
BRANCH   1  23
ATOM     23  C   UNL A   1      44.685  19.498  24.369  1.00  0.00     0.042 C 
BRANCH  23  24
ATOM     24  C   UNL A   1      43.971  19.142  25.668  1.00  0.00     0.118 C 
BRANCH  24  25
ATOM     25  N   UNL A   1      42.527  19.045  25.499  1.00  0.00    -0.352 N 
ATOM     26  C   UNL A   1      41.531  19.850  25.980  1.00  0.00     0.251 C 
ATOM     27  H   UNL A   1      42.222  18.286  24.953  1.00  0.00     0.163 HD
ATOM     28  O   UNL A   1      40.356  19.482  25.882  1.00  0.00    -0.269 OA
BRANCH  26  29
ATOM     29  C   UNL A   1      41.840  21.141  26.627  1.00  0.00     0.039 A 
ATOM     30  C   UNL A   1      42.081  22.258  25.821  1.00  0.00     0.014 A 
ATOM     31  C   UNL A   1      41.941  21.251  28.018  1.00  0.00     0.014 A 
ATOM     32  C   UNL A   1      42.376  23.490  26.407  1.00  0.00     0.010 A 
ATOM     33  C   UNL A   1      42.163  22.494  28.603  1.00  0.00     0.010 A 
ATOM     34  C   UNL A   1      42.395  23.624  27.804  1.00  0.00    -0.014 A 
BRANCH  34  35
ATOM     35  C   UNL A   1      42.676  24.932  28.449  1.00  0.00     0.031 A 
ATOM     36  C   UNL A   1      41.578  25.951  28.594  1.00  0.00     0.074 A 
ATOM     37  C   UNL A   1      43.928  25.225  28.850  1.00  0.00     0.049 A 
ATOM     38  N   UNL A   1      41.642  27.175  29.052  1.00  0.00    -0.248 NA
ATOM     39  C   UNL A   1      40.237  25.549  28.139  1.00  0.00     0.031 C 
ATOM     40  C   UNL A   1      45.086  24.336  28.728  1.00  0.00     0.029 A 
ATOM     41  N   UNL A   1      44.438  26.358  29.431  1.00  0.00    -0.354 N 
ATOM     42  C   UNL A   1      40.359  27.694  28.921  1.00  0.00     0.074 A 
ATOM     43  C   UNL A   1      39.549  26.670  28.299  1.00  0.00     0.031 C 
ATOM     44  C   UNL A   1      46.167  24.952  29.235  1.00  0.00     0.029 A 
ATOM     45  C   UNL A   1      45.788  26.289  29.682  1.00  0.00     0.049 A 
ATOM     46  H   UNL A   1      43.890  27.146  29.647  1.00  0.00     0.167 HD
ATOM     47  C   UNL A   1      39.895  28.907  29.305  1.00  0.00     0.037 A 
ATOM     48  C   UNL A   1      46.626  27.204  30.204  1.00  0.00     0.037 A 
ATOM     49  C   UNL A   1      40.695  29.911  29.955  1.00  0.00     0.049 A 
ATOM     50  C   UNL A   1      46.082  28.543  30.623  1.00  0.00     0.074 A 
ATOM     51  C   UNL A   1      40.302  31.147  30.437  1.00  0.00     0.029 A 
ATOM     52  N   UNL A   1      42.050  29.792  30.216  1.00  0.00    -0.354 N 
ATOM     53  N   UNL A   1      44.854  28.996  30.551  1.00  0.00    -0.248 NA
ATOM     54  C   UNL A   1      47.040  29.495  31.201  1.00  0.00     0.031 C 
ATOM     55  C   UNL A   1      41.428  31.793  30.954  1.00  0.00     0.029 A 
ATOM     56  C   UNL A   1      42.514  30.940  30.838  1.00  0.00     0.049 A 
ATOM     57  H   UNL A   1      42.603  29.008  29.993  1.00  0.00     0.167 HD
ATOM     58  C   UNL A   1      44.885  30.268  31.105  1.00  0.00     0.074 A 
ATOM     59  C   UNL A   1      46.251  30.511  31.519  1.00  0.00     0.031 C 
ATOM     60  C   UNL A   1      43.873  31.158  31.259  1.00  0.00     0.037 A 
BRANCH  47  61
ATOM     61  C   UNL A   1      38.450  29.215  29.038  1.00  0.00     0.057 A 
ATOM     62  C   UNL A   1      37.481  29.148  30.048  1.00  0.00     0.134 A 
ATOM     63  C   UNL A   1      38.031  29.630  27.768  1.00  0.00     0.134 A 
ATOM     64  F   UNL A   1      37.814  28.747  31.284  1.00  0.00    -0.206 F 
ATOM     65  C   UNL A   1      36.144  29.462  29.799  1.00  0.00     0.040 A 
ATOM     66  C   UNL A   1      36.701  29.971  27.513  1.00  0.00     0.040 A 
ATOM     67  F   UNL A   1      38.907  29.722  26.757  1.00  0.00    -0.206 F 
ATOM     68  C   UNL A   1      35.752  29.883  28.530  1.00  0.00     0.006 A 
ENDBRANCH  47  61
BRANCH  48  69
ATOM     69  C   UNL A   1      48.065  26.887  30.381  1.00  0.00     0.057 A 
ATOM     70  C   UNL A   1      49.026  27.375  29.489  1.00  0.00     0.134 A 
ATOM     71  C   UNL A   1      48.512  26.071  31.428  1.00  0.00     0.134 A 
ATOM     72  F   UNL A   1      48.657  28.146  28.455  1.00  0.00    -0.206 F 
ATOM     73  C   UNL A   1      50.377  27.043  29.613  1.00  0.00     0.040 A 
ATOM     74  C   UNL A   1      49.863  25.752  31.579  1.00  0.00     0.040 A 
ATOM     75  F   UNL A   1      47.643  25.579  32.322  1.00  0.00    -0.206 F 
ATOM     76  C   UNL A   1      50.797  26.231  30.663  1.00  0.00     0.006 A 
ENDBRANCH  48  69
BRANCH  60  77
ATOM     77  C   UNL A   1      44.195  32.453  31.945  1.00  0.00     0.057 A 
ATOM     78  C   UNL A   1      44.588  33.592  31.232  1.00  0.00     0.134 A 
ATOM     79  C   UNL A   1      44.067  32.570  33.335  1.00  0.00     0.134 A 
ATOM     80  F   UNL A   1      44.741  33.541  29.900  1.00  0.00    -0.206 F 
ATOM     81  C   UNL A   1      44.868  34.796  31.880  1.00  0.00     0.040 A 
ATOM     82  C   UNL A   1      44.317  33.775  33.991  1.00  0.00     0.040 A 
ATOM     83  F   UNL A   1      43.685  31.519  34.076  1.00  0.00    -0.206 F 
ATOM     84  C   UNL A   1      44.724  34.891  33.263  1.00  0.00     0.006 A 
ENDBRANCH  60  77
ENDBRANCH  34  35
ENDBRANCH  26  29
ENDBRANCH  24  25
ENDBRANCH  23  24
ENDBRANCH   1  23
TORSDOF 13
ENDMDL
