MODEL 1
REMARK VINA RESULT:     -10.1      0.000      0.000
REMARK SMILES NS(=O)(=O)c1ccc(-c2cc(Cl)cc3c2O[C@H](C(F)(F)F)C(C(=O)NCCCNC(=O)c2ccc(-c4c5nc(c(-c6c(F)cccc6F)c6ccc([nH]6)c(-c6c(F)cccc6F)c6nc(c(-c7c(F)cccc7F)c7ccc4[nH]7)C=C6)C=C5)cc2)=C3)cc1
REMARK SMILES IDX 26 1 25 2 23 3 24 4 22 6 9 7 10 8 15 9 11 10 14 11 16 12
REMARK SMILES IDX 12 13 13 14 86 15 17 16 8 17 5 18 6 19 88 20 7 21 87 22 2 23
REMARK SMILES IDX 3 24 4 25 1 26 18 29 19 30 20 31 21 32 27 33 28 34 29 35
REMARK SMILES IDX 30 36 31 38 32 39 33 40 85 41 34 42 84 43 35 44 36 45 37 46
REMARK SMILES IDX 78 47 38 48 83 49 77 50 79 51 39 52 82 53 76 54 75 55 40 57
REMARK SMILES IDX 66 58 49 59 65 60 50 61 53 62 64 63 80 64 51 65 52 66 63 68
REMARK SMILES IDX 81 69 54 70 41 71 42 72 47 73 43 74 44 75 46 76 48 77 45 78
REMARK SMILES IDX 67 79 68 80 73 81 69 82 70 83 72 84 74 85 71 86 55 87 56 88
REMARK SMILES IDX 61 89 57 90 58 91 60 92 62 93 59 94
REMARK H PARENT 25 5 1 27 1 28 29 37 79 56 53 67
REMARK Flexibility Score: inf
ROOT
ATOM      1  C   UNL A   1      42.906  22.547  25.599  1.00  0.00     0.118 C 
ENDROOT
BRANCH   1   2
ATOM      2  N   UNL A   1      44.242  21.987  25.643  1.00  0.00    -0.352 N 
ATOM      3  C   UNL A   1      45.375  22.644  25.996  1.00  0.00     0.251 C 
ATOM      4  O   UNL A   1      46.399  22.482  25.344  1.00  0.00    -0.270 OA
ATOM      5  H   UNL A   1      44.336  21.040  25.392  1.00  0.00     0.163 HD
BRANCH   3   6
ATOM      6  C   UNL A   1      45.335  23.394  27.283  1.00  0.00     0.067 C 
ATOM      7  C   UNL A   1      45.556  27.228  25.936  1.00  0.00     0.026 A 
ATOM      8  C   UNL A   1      46.529  27.225  24.901  1.00  0.00     0.033 A 
ATOM      9  C   UNL A   1      45.502  26.072  26.738  1.00  0.00     0.135 A 
ATOM     10  C   UNL A   1      47.516  26.246  24.803  1.00  0.00     0.042 A 
ATOM     11  C   UNL A   1      46.588  25.164  26.706  1.00  0.00     0.019 A 
ATOM     12  O   UNL A   1      44.409  25.732  27.526  1.00  0.00    -0.475 OA
ATOM     13  Cl  UNL A   1      48.651  26.304  23.515  1.00  0.00    -0.084 Cl
ATOM     14  C   UNL A   1      47.603  25.256  25.759  1.00  0.00     0.032 A 
ATOM     15  C   UNL A   1      46.515  23.972  27.578  1.00  0.00     0.025 C 
ATOM     16  C   UNL A   1      44.107  24.263  27.512  1.00  0.00     0.314 C 
BRANCH   7  17
ATOM     17  C   UNL A   1      44.937  28.557  26.204  1.00  0.00    -0.015 A 
ATOM     18  C   UNL A   1      44.185  30.787  27.783  1.00  0.00     0.082 A 
ATOM     19  C   UNL A   1      45.381  30.816  27.066  1.00  0.00     0.022 A 
ATOM     20  C   UNL A   1      43.315  29.703  27.643  1.00  0.00     0.022 A 
ATOM     21  C   UNL A   1      45.736  29.723  26.261  1.00  0.00     0.010 A 
ATOM     22  C   UNL A   1      43.684  28.607  26.845  1.00  0.00     0.010 A 
BRANCH  18  23
ATOM     23  S   UNL A   1      43.865  32.031  29.007  1.00  0.00     0.238 S 
ATOM     24  O   UNL A   1      43.688  33.306  28.360  1.00  0.00    -0.207 OA
ATOM     25  O   UNL A   1      44.780  31.851  30.114  1.00  0.00    -0.207 OA
BRANCH  23  26
ATOM     26  N   UNL A   1      42.353  31.596  29.584  1.00  0.00    -0.225 NA
ATOM     27  H   UNL A   1      42.352  31.645  30.603  1.00  0.00     0.137 HD
ATOM     28  H   UNL A   1      42.136  30.645  29.288  1.00  0.00     0.137 HD
ENDBRANCH  23  26
ENDBRANCH  18  23
ENDBRANCH   7  17
BRANCH  16  29
ATOM     29  C   UNL A   1      43.438  23.788  28.824  1.00  0.00     0.429 C 
ATOM     30  F   UNL A   1      43.397  22.443  28.937  1.00  0.00    -0.167 F 
ATOM     31  F   UNL A   1      44.091  24.273  29.908  1.00  0.00    -0.167 F 
ATOM     32  F   UNL A   1      42.153  24.222  28.939  1.00  0.00    -0.167 F 
ENDBRANCH  16  29
ENDBRANCH   3   6
ENDBRANCH   1   2
BRANCH   1  33
ATOM     33  C   UNL A   1      41.879  21.489  26.003  1.00  0.00     0.042 C 
BRANCH  33  34
ATOM     34  C   UNL A   1      40.720  22.018  26.848  1.00  0.00     0.118 C 
BRANCH  34  35
ATOM     35  N   UNL A   1      39.591  22.470  26.052  1.00  0.00    -0.352 N 
ATOM     36  C   UNL A   1      38.894  23.651  26.126  1.00  0.00     0.251 C 
ATOM     37  H   UNL A   1      39.283  21.841  25.360  1.00  0.00     0.163 HD
ATOM     38  O   UNL A   1      37.864  23.804  25.479  1.00  0.00    -0.269 OA
BRANCH  36  39
ATOM     39  C   UNL A   1      39.377  24.727  27.018  1.00  0.00     0.039 A 
ATOM     40  C   UNL A   1      40.243  25.692  26.504  1.00  0.00     0.014 A 
ATOM     41  C   UNL A   1      38.950  24.798  28.346  1.00  0.00     0.014 A 
ATOM     42  C   UNL A   1      40.622  26.773  27.301  1.00  0.00     0.010 A 
ATOM     43  C   UNL A   1      39.252  25.922  29.107  1.00  0.00     0.010 A 
ATOM     44  C   UNL A   1      40.093  26.922  28.595  1.00  0.00    -0.014 A 
BRANCH  44  45
ATOM     45  C   UNL A   1      40.406  28.115  29.425  1.00  0.00     0.031 A 
ATOM     46  C   UNL A   1      41.687  28.174  30.210  1.00  0.00     0.074 A 
ATOM     47  C   UNL A   1      39.509  29.116  29.521  1.00  0.00     0.049 A 
ATOM     48  N   UNL A   1      42.107  29.094  31.040  1.00  0.00    -0.248 NA
ATOM     49  C   UNL A   1      42.606  27.033  30.068  1.00  0.00     0.031 C 
ATOM     50  C   UNL A   1      38.208  29.156  28.849  1.00  0.00     0.029 A 
ATOM     51  N   UNL A   1      39.550  30.291  30.230  1.00  0.00    -0.354 N 
ATOM     52  C   UNL A   1      43.325  28.637  31.526  1.00  0.00     0.074 A 
ATOM     53  C   UNL A   1      43.548  27.331  30.949  1.00  0.00     0.031 C 
ATOM     54  C   UNL A   1      37.590  30.309  29.153  1.00  0.00     0.029 A 
ATOM     55  C   UNL A   1      38.426  31.068  30.078  1.00  0.00     0.049 A 
ATOM     56  H   UNL A   1      40.313  30.552  30.795  1.00  0.00     0.167 HD
ATOM     57  C   UNL A   1      44.194  29.262  32.357  1.00  0.00     0.037 A 
ATOM     58  C   UNL A   1      38.102  32.253  30.628  1.00  0.00     0.037 A 
ATOM     59  C   UNL A   1      43.978  30.571  32.915  1.00  0.00     0.049 A 
ATOM     60  C   UNL A   1      39.075  32.916  31.564  1.00  0.00     0.074 A 
ATOM     61  C   UNL A   1      44.822  31.314  33.720  1.00  0.00     0.029 A 
ATOM     62  N   UNL A   1      42.832  31.329  32.729  1.00  0.00    -0.354 N 
ATOM     63  N   UNL A   1      40.257  32.505  31.957  1.00  0.00    -0.248 NA
ATOM     64  C   UNL A   1      38.673  34.211  32.130  1.00  0.00     0.031 C 
ATOM     65  C   UNL A   1      44.162  32.497  34.071  1.00  0.00     0.029 A 
ATOM     66  C   UNL A   1      42.935  32.520  33.428  1.00  0.00     0.049 A 
ATOM     67  H   UNL A   1      42.059  31.061  32.180  1.00  0.00     0.167 HD
ATOM     68  C   UNL A   1      40.752  33.504  32.786  1.00  0.00     0.074 A 
ATOM     69  C   UNL A   1      39.748  34.547  32.828  1.00  0.00     0.031 C 
ATOM     70  C   UNL A   1      41.930  33.554  33.454  1.00  0.00     0.037 A 
BRANCH  57  71
ATOM     71  C   UNL A   1      45.460  28.535  32.711  1.00  0.00     0.057 A 
ATOM     72  C   UNL A   1      45.549  27.706  33.838  1.00  0.00     0.134 A 
ATOM     73  C   UNL A   1      46.596  28.636  31.897  1.00  0.00     0.134 A 
ATOM     74  F   UNL A   1      44.503  27.572  34.668  1.00  0.00    -0.206 F 
ATOM     75  C   UNL A   1      46.728  27.031  34.159  1.00  0.00     0.040 A 
ATOM     76  C   UNL A   1      47.770  27.940  32.189  1.00  0.00     0.040 A 
ATOM     77  F   UNL A   1      46.581  29.406  30.798  1.00  0.00    -0.206 F 
ATOM     78  C   UNL A   1      47.841  27.141  33.329  1.00  0.00     0.006 A 
ENDBRANCH  57  71
BRANCH  58  79
ATOM     79  C   UNL A   1      36.805  32.901  30.300  1.00  0.00     0.057 A 
ATOM     80  C   UNL A   1      36.655  33.678  29.145  1.00  0.00     0.134 A 
ATOM     81  C   UNL A   1      35.691  32.776  31.139  1.00  0.00     0.134 A 
ATOM     82  F   UNL A   1      37.690  33.851  28.309  1.00  0.00    -0.206 F 
ATOM     83  C   UNL A   1      35.456  34.330  28.850  1.00  0.00     0.040 A 
ATOM     84  C   UNL A   1      34.477  33.397  30.841  1.00  0.00     0.040 A 
ATOM     85  F   UNL A   1      35.763  32.038  32.257  1.00  0.00    -0.206 F 
ATOM     86  C   UNL A   1      34.361  34.185  29.698  1.00  0.00     0.006 A 
ENDBRANCH  58  79
BRANCH  70  87
ATOM     87  C   UNL A   1      42.221  34.794  34.250  1.00  0.00     0.057 A 
ATOM     88  C   UNL A   1      42.787  35.936  33.668  1.00  0.00     0.134 A 
ATOM     89  C   UNL A   1      41.891  34.858  35.610  1.00  0.00     0.134 A 
ATOM     90  F   UNL A   1      43.137  35.937  32.373  1.00  0.00    -0.206 F 
ATOM     91  C   UNL A   1      43.039  37.087  34.417  1.00  0.00     0.040 A 
ATOM     92  C   UNL A   1      42.108  36.014  36.362  1.00  0.00     0.040 A 
ATOM     93  F   UNL A   1      41.337  33.805  36.228  1.00  0.00    -0.206 F 
ATOM     94  C   UNL A   1      42.691  37.131  35.766  1.00  0.00     0.006 A 
ENDBRANCH  70  87
ENDBRANCH  44  45
ENDBRANCH  36  39
ENDBRANCH  34  35
ENDBRANCH  33  34
ENDBRANCH   1  33
TORSDOF 14
ENDMDL
MODEL 2
REMARK VINA RESULT:      -9.9      2.920      7.675
REMARK SMILES NS(=O)(=O)c1ccc(-c2cc(Cl)cc3c2O[C@H](C(F)(F)F)C(C(=O)NCCCNC(=O)c2ccc(-c4c5nc(c(-c6c(F)cccc6F)c6ccc([nH]6)c(-c6c(F)cccc6F)c6nc(c(-c7c(F)cccc7F)c7ccc4[nH]7)C=C6)C=C5)cc2)=C3)cc1
REMARK SMILES IDX 26 1 25 2 23 3 24 4 22 6 9 7 10 8 15 9 11 10 14 11 16 12
REMARK SMILES IDX 12 13 13 14 86 15 17 16 8 17 5 18 6 19 88 20 7 21 87 22 2 23
REMARK SMILES IDX 3 24 4 25 1 26 18 29 19 30 20 31 21 32 27 33 28 34 29 35
REMARK SMILES IDX 30 36 31 38 32 39 33 40 85 41 34 42 84 43 35 44 36 45 37 46
REMARK SMILES IDX 78 47 38 48 83 49 77 50 79 51 39 52 82 53 76 54 75 55 40 57
REMARK SMILES IDX 66 58 49 59 65 60 50 61 53 62 64 63 80 64 51 65 52 66 63 68
REMARK SMILES IDX 81 69 54 70 41 71 42 72 47 73 43 74 44 75 46 76 48 77 45 78
REMARK SMILES IDX 67 79 68 80 73 81 69 82 70 83 72 84 74 85 71 86 55 87 56 88
REMARK SMILES IDX 61 89 57 90 58 91 60 92 62 93 59 94
REMARK H PARENT 25 5 1 27 1 28 29 37 79 56 53 67
REMARK Flexibility Score: inf
ROOT
ATOM      1  C   UNL A   1      47.793  27.393  31.638  1.00  0.00     0.118 C 
ENDROOT
BRANCH   1   2
ATOM      2  N   UNL A   1      48.101  27.024  30.271  1.00  0.00    -0.352 N 
ATOM      3  C   UNL A   1      47.554  25.996  29.575  1.00  0.00     0.251 C 
ATOM      4  O   UNL A   1      48.268  25.282  28.883  1.00  0.00    -0.270 OA
ATOM      5  H   UNL A   1      48.772  27.571  29.803  1.00  0.00     0.163 HD
BRANCH   3   6
ATOM      6  C   UNL A   1      46.065  25.919  29.566  1.00  0.00     0.067 C 
ATOM      7  C   UNL A   1      45.429  23.900  26.090  1.00  0.00     0.026 A 
ATOM      8  C   UNL A   1      46.329  24.458  25.142  1.00  0.00     0.033 A 
ATOM      9  C   UNL A   1      45.273  24.618  27.290  1.00  0.00     0.135 A 
ATOM     10  C   UNL A   1      46.866  25.736  25.280  1.00  0.00     0.042 A 
ATOM     11  C   UNL A   1      45.717  25.962  27.349  1.00  0.00     0.019 A 
ATOM     12  O   UNL A   1      44.755  24.065  28.456  1.00  0.00    -0.475 OA
ATOM     13  Cl  UNL A   1      47.957  26.337  24.098  1.00  0.00    -0.084 Cl
ATOM     14  C   UNL A   1      46.493  26.530  26.345  1.00  0.00     0.032 A 
ATOM     15  C   UNL A   1      45.515  26.698  28.615  1.00  0.00     0.025 C 
ATOM     16  C   UNL A   1      45.468  24.525  29.693  1.00  0.00     0.314 C 
BRANCH   7  17
ATOM     17  C   UNL A   1      44.572  22.802  25.561  1.00  0.00    -0.015 A 
ATOM     18  C   UNL A   1      43.036  20.425  25.706  1.00  0.00     0.082 A 
ATOM     19  C   UNL A   1      42.409  21.665  25.833  1.00  0.00     0.022 A 
ATOM     20  C   UNL A   1      44.398  20.360  25.410  1.00  0.00     0.022 A 
ATOM     21  C   UNL A   1      43.169  22.841  25.730  1.00  0.00     0.010 A 
ATOM     22  C   UNL A   1      45.154  21.541  25.321  1.00  0.00     0.010 A 
BRANCH  18  23
ATOM     23  S   UNL A   1      42.141  18.946  26.107  1.00  0.00     0.238 S 
ATOM     24  O   UNL A   1      42.888  17.797  25.660  1.00  0.00    -0.207 OA
ATOM     25  O   UNL A   1      40.745  19.133  25.773  1.00  0.00    -0.207 OA
BRANCH  23  26
ATOM     26  N   UNL A   1      42.215  18.917  27.781  1.00  0.00    -0.225 NA
ATOM     27  H   UNL A   1      41.411  18.408  28.147  1.00  0.00     0.137 HD
ATOM     28  H   UNL A   1      42.205  19.872  28.138  1.00  0.00     0.137 HD
ENDBRANCH  23  26
ENDBRANCH  18  23
ENDBRANCH   7  17
BRANCH  16  29
ATOM     29  C   UNL A   1      44.548  24.524  30.937  1.00  0.00     0.429 C 
ATOM     30  F   UNL A   1      43.248  24.717  30.629  1.00  0.00    -0.167 F 
ATOM     31  F   UNL A   1      44.643  23.354  31.614  1.00  0.00    -0.167 F 
ATOM     32  F   UNL A   1      44.878  25.498  31.829  1.00  0.00    -0.167 F 
ENDBRANCH  16  29
ENDBRANCH   3   6
ENDBRANCH   1   2
BRANCH   1  33
ATOM     33  C   UNL A   1      48.550  26.487  32.611  1.00  0.00     0.042 C 
BRANCH  33  34
ATOM     34  C   UNL A   1      47.659  25.572  33.450  1.00  0.00     0.118 C 
BRANCH  34  35
ATOM     35  N   UNL A   1      47.886  25.705  34.879  1.00  0.00    -0.352 N 
ATOM     36  C   UNL A   1      47.252  26.518  35.788  1.00  0.00     0.251 C 
ATOM     37  H   UNL A   1      48.595  25.131  35.249  1.00  0.00     0.163 HD
ATOM     38  O   UNL A   1      47.679  26.617  36.932  1.00  0.00    -0.269 OA
BRANCH  36  39
ATOM     39  C   UNL A   1      46.069  27.297  35.366  1.00  0.00     0.039 A 
ATOM     40  C   UNL A   1      46.261  28.540  34.760  1.00  0.00     0.014 A 
ATOM     41  C   UNL A   1      44.780  26.788  35.539  1.00  0.00     0.014 A 
ATOM     42  C   UNL A   1      45.161  29.239  34.260  1.00  0.00     0.010 A 
ATOM     43  C   UNL A   1      43.698  27.440  34.957  1.00  0.00     0.010 A 
ATOM     44  C   UNL A   1      43.875  28.674  34.312  1.00  0.00    -0.014 A 
BRANCH  44  45
ATOM     45  C   UNL A   1      42.706  29.356  33.699  1.00  0.00     0.031 A 
ATOM     46  C   UNL A   1      42.215  28.940  32.339  1.00  0.00     0.074 A 
ATOM     47  C   UNL A   1      42.126  30.392  34.338  1.00  0.00     0.049 A 
ATOM     48  N   UNL A   1      41.257  29.456  31.612  1.00  0.00    -0.248 NA
ATOM     49  C   UNL A   1      42.913  27.815  31.698  1.00  0.00     0.031 C 
ATOM     50  C   UNL A   1      42.540  30.925  35.638  1.00  0.00     0.029 A 
ATOM     51  N   UNL A   1      41.069  31.189  33.976  1.00  0.00    -0.354 N 
ATOM     52  C   UNL A   1      41.248  28.729  30.429  1.00  0.00     0.074 A 
ATOM     53  C   UNL A   1      42.335  27.779  30.507  1.00  0.00     0.031 C 
ATOM     54  C   UNL A   1      41.728  31.939  35.977  1.00  0.00     0.029 A 
ATOM     55  C   UNL A   1      40.767  32.160  34.902  1.00  0.00     0.049 A 
ATOM     56  H   UNL A   1      40.574  31.077  33.132  1.00  0.00     0.167 HD
ATOM     57  C   UNL A   1      40.393  28.824  29.382  1.00  0.00     0.037 A 
ATOM     58  C   UNL A   1      39.829  33.125  34.881  1.00  0.00     0.037 A 
ATOM     59  C   UNL A   1      39.300  29.759  29.316  1.00  0.00     0.049 A 
ATOM     60  C   UNL A   1      38.905  33.224  33.697  1.00  0.00     0.074 A 
ATOM     61  C   UNL A   1      38.344  29.896  28.325  1.00  0.00     0.029 A 
ATOM     62  N   UNL A   1      39.022  30.718  30.278  1.00  0.00    -0.354 N 
ATOM     63  N   UNL A   1      38.862  32.481  32.617  1.00  0.00    -0.248 NA
ATOM     64  C   UNL A   1      37.896  34.291  33.731  1.00  0.00     0.031 C 
ATOM     65  C   UNL A   1      37.522  30.978  28.659  1.00  0.00     0.029 A 
ATOM     66  C   UNL A   1      37.925  31.471  29.890  1.00  0.00     0.049 A 
ATOM     67  H   UNL A   1      39.528  30.846  31.113  1.00  0.00     0.167 HD
ATOM     68  C   UNL A   1      37.803  32.969  31.862  1.00  0.00     0.074 A 
ATOM     69  C   UNL A   1      37.222  34.061  32.614  1.00  0.00     0.031 C 
ATOM     70  C   UNL A   1      37.352  32.551  30.654  1.00  0.00     0.037 A 
BRANCH  57  71
ATOM     71  C   UNL A   1      40.607  27.893  28.223  1.00  0.00     0.057 A 
ATOM     72  C   UNL A   1      41.399  28.248  27.122  1.00  0.00     0.134 A 
ATOM     73  C   UNL A   1      40.044  26.610  28.222  1.00  0.00     0.134 A 
ATOM     74  F   UNL A   1      41.960  29.465  27.053  1.00  0.00    -0.206 F 
ATOM     75  C   UNL A   1      41.597  27.375  26.051  1.00  0.00     0.040 A 
ATOM     76  C   UNL A   1      40.260  25.716  27.172  1.00  0.00     0.040 A 
ATOM     77  F   UNL A   1      39.280  26.200  29.246  1.00  0.00    -0.206 F 
ATOM     78  C   UNL A   1      41.033  26.102  26.077  1.00  0.00     0.006 A 
ENDBRANCH  57  71
BRANCH  58  79
ATOM     79  C   UNL A   1      39.701  34.069  36.022  1.00  0.00     0.057 A 
ATOM     80  C   UNL A   1      40.328  35.322  35.999  1.00  0.00     0.134 A 
ATOM     81  C   UNL A   1      38.968  33.740  37.168  1.00  0.00     0.134 A 
ATOM     82  F   UNL A   1      41.060  35.690  34.937  1.00  0.00    -0.206 F 
ATOM     83  C   UNL A   1      40.254  36.198  37.083  1.00  0.00     0.040 A 
ATOM     84  C   UNL A   1      38.860  34.618  38.247  1.00  0.00     0.040 A 
ATOM     85  F   UNL A   1      38.335  32.560  37.252  1.00  0.00    -0.206 F 
ATOM     86  C   UNL A   1      39.513  35.848  38.209  1.00  0.00     0.006 A 
ENDBRANCH  58  79
BRANCH  70  87
ATOM     87  C   UNL A   1      36.145  33.245  30.089  1.00  0.00     0.057 A 
ATOM     88  C   UNL A   1      36.249  34.220  29.088  1.00  0.00     0.134 A 
ATOM     89  C   UNL A   1      34.859  32.901  30.526  1.00  0.00     0.134 A 
ATOM     90  F   UNL A   1      37.450  34.604  28.634  1.00  0.00    -0.206 F 
ATOM     91  C   UNL A   1      35.117  34.846  28.562  1.00  0.00     0.040 A 
ATOM     92  C   UNL A   1      33.719  33.497  29.985  1.00  0.00     0.040 A 
ATOM     93  F   UNL A   1      34.688  31.967  31.474  1.00  0.00    -0.206 F 
ATOM     94  C   UNL A   1      33.848  34.479  29.005  1.00  0.00     0.006 A 
ENDBRANCH  70  87
ENDBRANCH  44  45
ENDBRANCH  36  39
ENDBRANCH  34  35
ENDBRANCH  33  34
ENDBRANCH   1  33
TORSDOF 14
ENDMDL
MODEL 3
REMARK VINA RESULT:      -9.8      5.907     10.641
REMARK SMILES NS(=O)(=O)c1ccc(-c2cc(Cl)cc3c2O[C@H](C(F)(F)F)C(C(=O)NCCCNC(=O)c2ccc(-c4c5nc(c(-c6c(F)cccc6F)c6ccc([nH]6)c(-c6c(F)cccc6F)c6nc(c(-c7c(F)cccc7F)c7ccc4[nH]7)C=C6)C=C5)cc2)=C3)cc1
REMARK SMILES IDX 26 1 25 2 23 3 24 4 22 6 9 7 10 8 15 9 11 10 14 11 16 12
REMARK SMILES IDX 12 13 13 14 86 15 17 16 8 17 5 18 6 19 88 20 7 21 87 22 2 23
REMARK SMILES IDX 3 24 4 25 1 26 18 29 19 30 20 31 21 32 27 33 28 34 29 35
REMARK SMILES IDX 30 36 31 38 32 39 33 40 85 41 34 42 84 43 35 44 36 45 37 46
REMARK SMILES IDX 78 47 38 48 83 49 77 50 79 51 39 52 82 53 76 54 75 55 40 57
REMARK SMILES IDX 66 58 49 59 65 60 50 61 53 62 64 63 80 64 51 65 52 66 63 68
REMARK SMILES IDX 81 69 54 70 41 71 42 72 47 73 43 74 44 75 46 76 48 77 45 78
REMARK SMILES IDX 67 79 68 80 73 81 69 82 70 83 72 84 74 85 71 86 55 87 56 88
REMARK SMILES IDX 61 89 57 90 58 91 60 92 62 93 59 94
REMARK H PARENT 25 5 1 27 1 28 29 37 79 56 53 67
REMARK Flexibility Score: inf
ROOT
ATOM      1  C   UNL A   1      34.442  20.445  24.898  1.00  0.00     0.118 C 
ENDROOT
BRANCH   1   2
ATOM      2  N   UNL A   1      33.965  21.192  23.752  1.00  0.00    -0.352 N 
ATOM      3  C   UNL A   1      33.089  22.228  23.778  1.00  0.00     0.251 C 
ATOM      4  O   UNL A   1      32.196  22.289  22.944  1.00  0.00    -0.270 OA
ATOM      5  H   UNL A   1      34.309  20.922  22.870  1.00  0.00     0.163 HD
BRANCH   3   6
ATOM      6  C   UNL A   1      33.393  23.330  24.735  1.00  0.00     0.067 C 
ATOM      7  C   UNL A   1      31.218  26.364  23.115  1.00  0.00     0.026 A 
ATOM      8  C   UNL A   1      31.416  26.282  21.710  1.00  0.00     0.033 A 
ATOM      9  C   UNL A   1      32.085  25.589  23.907  1.00  0.00     0.135 A 
ATOM     10  C   UNL A   1      32.522  25.652  21.145  1.00  0.00     0.042 A 
ATOM     11  C   UNL A   1      33.268  25.073  23.326  1.00  0.00     0.019 A 
ATOM     12  O   UNL A   1      31.819  25.244  25.228  1.00  0.00    -0.475 OA
ATOM     13  Cl  UNL A   1      32.685  25.584  19.436  1.00  0.00    -0.084 Cl
ATOM     14  C   UNL A   1      33.501  25.117  21.956  1.00  0.00     0.032 A 
ATOM     15  C   UNL A   1      34.172  24.284  24.191  1.00  0.00     0.025 C 
ATOM     16  C   UNL A   1      32.221  23.838  25.562  1.00  0.00     0.314 C 
BRANCH   7  17
ATOM     17  C   UNL A   1      30.321  27.471  23.553  1.00  0.00    -0.015 A 
ATOM     18  C   UNL A   1      28.850  29.875  23.257  1.00  0.00     0.082 A 
ATOM     19  C   UNL A   1      28.224  28.648  23.040  1.00  0.00     0.022 A 
ATOM     20  C   UNL A   1      30.169  29.914  23.714  1.00  0.00     0.022 A 
ATOM     21  C   UNL A   1      28.947  27.458  23.217  1.00  0.00     0.010 A 
ATOM     22  C   UNL A   1      30.890  28.719  23.877  1.00  0.00     0.010 A 
BRANCH  18  23
ATOM     23  S   UNL A   1      28.034  31.374  22.771  1.00  0.00     0.238 S 
ATOM     24  O   UNL A   1      26.903  31.606  23.634  1.00  0.00    -0.207 OA
ATOM     25  O   UNL A   1      27.919  31.404  21.328  1.00  0.00    -0.207 OA
BRANCH  23  26
ATOM     26  N   UNL A   1      29.161  32.549  23.167  1.00  0.00    -0.225 NA
ATOM     27  H   UNL A   1      29.305  32.556  24.176  1.00  0.00     0.137 HD
ATOM     28  H   UNL A   1      28.821  33.462  22.865  1.00  0.00     0.137 HD
ENDBRANCH  23  26
ENDBRANCH  18  23
ENDBRANCH   7  17
BRANCH  16  29
ATOM     29  C   UNL A   1      32.597  23.673  27.054  1.00  0.00     0.429 C 
ATOM     30  F   UNL A   1      32.162  24.693  27.822  1.00  0.00    -0.167 F 
ATOM     31  F   UNL A   1      32.085  22.525  27.563  1.00  0.00    -0.167 F 
ATOM     32  F   UNL A   1      33.943  23.596  27.245  1.00  0.00    -0.167 F 
ENDBRANCH  16  29
ENDBRANCH   3   6
ENDBRANCH   1   2
BRANCH   1  33
ATOM     33  C   UNL A   1      35.527  21.238  25.629  1.00  0.00     0.042 C 
BRANCH  33  34
ATOM     34  C   UNL A   1      36.854  21.337  24.878  1.00  0.00     0.118 C 
BRANCH  34  35
ATOM     35  N   UNL A   1      37.762  20.240  25.174  1.00  0.00    -0.352 N 
ATOM     36  C   UNL A   1      39.026  20.280  25.710  1.00  0.00     0.251 C 
ATOM     37  H   UNL A   1      37.422  19.341  24.961  1.00  0.00     0.163 HD
ATOM     38  O   UNL A   1      39.715  19.266  25.746  1.00  0.00    -0.269 OA
BRANCH  36  39
ATOM     39  C   UNL A   1      39.564  21.561  26.213  1.00  0.00     0.039 A 
ATOM     40  C   UNL A   1      40.669  21.541  27.065  1.00  0.00     0.014 A 
ATOM     41  C   UNL A   1      38.999  22.776  25.819  1.00  0.00     0.014 A 
ATOM     42  C   UNL A   1      41.255  22.744  27.462  1.00  0.00     0.010 A 
ATOM     43  C   UNL A   1      39.639  23.969  26.138  1.00  0.00     0.010 A 
ATOM     44  C   UNL A   1      40.773  23.968  26.965  1.00  0.00    -0.014 A 
BRANCH  44  45
ATOM     45  C   UNL A   1      41.441  25.253  27.297  1.00  0.00     0.031 A 
ATOM     46  C   UNL A   1      40.709  26.304  28.086  1.00  0.00     0.074 A 
ATOM     47  C   UNL A   1      42.683  25.499  26.835  1.00  0.00     0.049 A 
ATOM     48  N   UNL A   1      41.096  27.510  28.416  1.00  0.00    -0.248 NA
ATOM     49  C   UNL A   1      39.350  25.967  28.537  1.00  0.00     0.031 C 
ATOM     50  C   UNL A   1      43.481  24.582  26.017  1.00  0.00     0.029 A 
ATOM     51  N   UNL A   1      43.491  26.600  26.979  1.00  0.00    -0.354 N 
ATOM     52  C   UNL A   1      40.028  28.075  29.099  1.00  0.00     0.074 A 
ATOM     53  C   UNL A   1      38.953  27.108  29.081  1.00  0.00     0.031 C 
ATOM     54  C   UNL A   1      44.672  25.145  25.758  1.00  0.00     0.029 A 
ATOM     55  C   UNL A   1      44.707  26.479  26.349  1.00  0.00     0.049 A 
ATOM     56  H   UNL A   1      43.224  27.401  27.486  1.00  0.00     0.167 HD
ATOM     57  C   UNL A   1      39.956  29.282  29.711  1.00  0.00     0.037 A 
ATOM     58  C   UNL A   1      45.730  27.348  26.252  1.00  0.00     0.037 A 
ATOM     59  C   UNL A   1      41.034  30.235  29.743  1.00  0.00     0.049 A 
ATOM     60  C   UNL A   1      45.618  28.691  26.922  1.00  0.00     0.074 A 
ATOM     61  C   UNL A   1      41.081  31.461  30.384  1.00  0.00     0.029 A 
ATOM     62  N   UNL A   1      42.252  30.071  29.102  1.00  0.00    -0.354 N 
ATOM     63  N   UNL A   1      44.628  29.183  27.627  1.00  0.00    -0.248 NA
ATOM     64  C   UNL A   1      46.767  29.596  26.788  1.00  0.00     0.031 C 
ATOM     65  C   UNL A   1      42.306  32.065  30.081  1.00  0.00     0.029 A 
ATOM     66  C   UNL A   1      43.048  31.186  29.308  1.00  0.00     0.049 A 
ATOM     67  H   UNL A   1      42.514  29.280  28.577  1.00  0.00     0.167 HD
ATOM     68  C   UNL A   1      45.048  30.439  28.048  1.00  0.00     0.074 A 
ATOM     69  C   UNL A   1      46.387  30.626  27.531  1.00  0.00     0.031 C 
ATOM     70  C   UNL A   1      44.384  31.355  28.794  1.00  0.00     0.037 A 
BRANCH  57  71
ATOM     71  C   UNL A   1      38.667  29.638  30.396  1.00  0.00     0.057 A 
ATOM     72  C   UNL A   1      38.430  29.322  31.740  1.00  0.00     0.134 A 
ATOM     73  C   UNL A   1      37.662  30.337  29.713  1.00  0.00     0.134 A 
ATOM     74  F   UNL A   1      39.344  28.644  32.451  1.00  0.00    -0.206 F 
ATOM     75  C   UNL A   1      37.231  29.660  32.371  1.00  0.00     0.040 A 
ATOM     76  C   UNL A   1      36.473  30.708  30.341  1.00  0.00     0.040 A 
ATOM     77  F   UNL A   1      37.825  30.678  28.426  1.00  0.00    -0.206 F 
ATOM     78  C   UNL A   1      36.251  30.362  31.673  1.00  0.00     0.006 A 
ENDBRANCH  57  71
BRANCH  58  79
ATOM     79  C   UNL A   1      46.960  26.976  25.502  1.00  0.00     0.057 A 
ATOM     80  C   UNL A   1      47.958  26.192  26.093  1.00  0.00     0.134 A 
ATOM     81  C   UNL A   1      47.176  27.408  24.189  1.00  0.00     0.134 A 
ATOM     82  F   UNL A   1      47.819  25.761  27.356  1.00  0.00    -0.206 F 
ATOM     83  C   UNL A   1      49.137  25.875  25.416  1.00  0.00     0.040 A 
ATOM     84  C   UNL A   1      48.336  27.074  23.489  1.00  0.00     0.040 A 
ATOM     85  F   UNL A   1      46.255  28.155  23.561  1.00  0.00    -0.206 F 
ATOM     86  C   UNL A   1      49.326  26.313  24.107  1.00  0.00     0.006 A 
ENDBRANCH  58  79
BRANCH  70  87
ATOM     87  C   UNL A   1      45.112  32.624  29.137  1.00  0.00     0.057 A 
ATOM     88  C   UNL A   1      45.872  32.752  30.307  1.00  0.00     0.134 A 
ATOM     89  C   UNL A   1      45.083  33.718  28.262  1.00  0.00     0.134 A 
ATOM     90  F   UNL A   1      45.933  31.748  31.193  1.00  0.00    -0.206 F 
ATOM     91  C   UNL A   1      46.556  33.933  30.606  1.00  0.00     0.040 A 
ATOM     92  C   UNL A   1      45.787  34.891  28.534  1.00  0.00     0.040 A 
ATOM     93  F   UNL A   1      44.383  33.659  27.119  1.00  0.00    -0.206 F 
ATOM     94  C   UNL A   1      46.520  35.003  29.714  1.00  0.00     0.006 A 
ENDBRANCH  70  87
ENDBRANCH  44  45
ENDBRANCH  36  39
ENDBRANCH  34  35
ENDBRANCH  33  34
ENDBRANCH   1  33
TORSDOF 14
ENDMDL
