MODEL 1
REMARK VINA RESULT:     -11.5      0.000      0.000
REMARK SMILES CC1(C)[C@H]2CC[C@]1(C)C(=O)N(CC(=O)NCCCNC(=O)c1ccc(-c3c4nc(c(-c5c(F)cccc5F)c5ccc([nH]5)c(-c5c(F)cccc5F)c5nc(c(-c6c(F)cccc6F)c6ccc3[nH]6)C=C5)C=C4)cc1)C2=O
REMARK SMILES IDX 17 1 16 2 15 3 13 4 14 5 12 7 11 8 1 9 2 10 4 11 7 12 3 13
REMARK SMILES IDX 5 14 76 15 6 16 9 17 8 18 77 19 10 20 18 21 19 22 20 23
REMARK SMILES IDX 21 25 22 26 23 27 75 28 24 29 74 30 25 31 26 32 27 33 68 34
REMARK SMILES IDX 28 35 73 36 67 37 69 38 29 39 72 40 66 41 65 42 30 44 56 45
REMARK SMILES IDX 39 46 55 47 40 48 43 49 54 50 70 51 41 52 42 53 53 55 71 56
REMARK SMILES IDX 44 57 31 58 32 59 37 60 33 61 34 62 36 63 38 64 35 65 57 66
REMARK SMILES IDX 58 67 63 68 59 69 60 70 62 71 64 72 61 73 45 74 46 75 51 76
REMARK SMILES IDX 47 77 48 78 50 79 52 80 49 81
REMARK H PARENT 15 6 19 24 69 43 43 54
REMARK Flexibility Score: inf
ROOT
ATOM      1  C   UNL A   1      33.113  29.256  25.490  1.00  0.00     0.042 C 
ENDROOT
BRANCH   1   2
ATOM      2  C   UNL A   1      31.635  29.328  25.066  1.00  0.00     0.117 C 
BRANCH   2   3
ATOM      3  N   UNL A   1      31.387  28.777  23.733  1.00  0.00    -0.354 N 
ATOM      4  C   UNL A   1      30.714  27.653  23.325  1.00  0.00     0.240 C 
ATOM      5  O   UNL A   1      30.720  27.414  22.112  1.00  0.00    -0.273 OA
ATOM      6  H   UNL A   1      31.773  29.306  22.998  1.00  0.00     0.163 HD
BRANCH   4   7
ATOM      7  C   UNL A   1      30.124  26.631  24.323  1.00  0.00     0.228 C 
BRANCH   7   8
ATOM      8  N   UNL A   1      31.198  25.706  24.662  1.00  0.00    -0.272 N 
ATOM      9  C   UNL A   1      32.100  23.261  26.969  1.00  0.00     0.013 C 
ATOM     10  C   UNL A   1      33.107  23.873  25.975  1.00  0.00    -0.010 C 
ATOM     11  C   UNL A   1      33.171  25.400  26.005  1.00  0.00     0.086 C 
ATOM     12  C   UNL A   1      32.709  23.722  24.465  1.00  0.00     0.053 C 
ATOM     13  C   UNL A   1      34.499  23.323  26.374  1.00  0.00     0.013 C 
ATOM     14  C   UNL A   1      33.978  25.774  24.729  1.00  0.00     0.015 C 
ATOM     15  C   UNL A   1      31.723  25.822  25.913  1.00  0.00     0.233 C 
ATOM     16  C   UNL A   1      33.784  24.582  23.762  1.00  0.00     0.018 C 
ATOM     17  C   UNL A   1      31.366  24.465  24.073  1.00  0.00     0.236 C 
ATOM     18  C   UNL A   1      32.685  22.269  24.011  1.00  0.00     0.022 C 
ATOM     19  O   UNL A   1      31.013  25.979  26.902  1.00  0.00    -0.274 OA
ATOM     20  O   UNL A   1      30.553  23.984  23.283  1.00  0.00    -0.274 OA
ENDBRANCH   7   8
ENDBRANCH   4   7
ENDBRANCH   2   3
ENDBRANCH   1   2
BRANCH   1  21
ATOM     21  C   UNL A   1      33.396  29.019  26.962  1.00  0.00     0.118 C 
BRANCH  21  22
ATOM     22  N   UNL A   1      33.580  30.249  27.708  1.00  0.00    -0.352 N 
ATOM     23  C   UNL A   1      34.630  30.769  28.424  1.00  0.00     0.251 C 
ATOM     24  H   UNL A   1      32.788  30.832  27.700  1.00  0.00     0.163 HD
ATOM     25  O   UNL A   1      34.401  31.786  29.084  1.00  0.00    -0.269 OA
BRANCH  23  26
ATOM     26  C   UNL A   1      36.011  30.198  28.470  1.00  0.00     0.039 A 
ATOM     27  C   UNL A   1      36.458  29.704  29.709  1.00  0.00     0.014 A 
ATOM     28  C   UNL A   1      36.928  30.247  27.419  1.00  0.00     0.014 A 
ATOM     29  C   UNL A   1      37.780  29.269  29.887  1.00  0.00     0.010 A 
ATOM     30  C   UNL A   1      38.231  29.743  27.576  1.00  0.00     0.010 A 
ATOM     31  C   UNL A   1      38.684  29.274  28.818  1.00  0.00    -0.014 A 
BRANCH  31  32
ATOM     32  C   UNL A   1      40.105  28.852  29.006  1.00  0.00     0.031 A 
ATOM     33  C   UNL A   1      41.107  29.786  29.643  1.00  0.00     0.074 A 
ATOM     34  C   UNL A   1      40.520  27.637  28.592  1.00  0.00     0.049 A 
ATOM     35  N   UNL A   1      42.393  29.620  29.838  1.00  0.00    -0.248 NA
ATOM     36  C   UNL A   1      40.600  31.089  30.103  1.00  0.00     0.031 C 
ATOM     37  C   UNL A   1      39.679  26.633  27.941  1.00  0.00     0.029 A 
ATOM     38  N   UNL A   1      41.758  27.043  28.657  1.00  0.00    -0.354 N 
ATOM     39  C   UNL A   1      42.851  30.799  30.413  1.00  0.00     0.074 A 
ATOM     40  C   UNL A   1      41.712  31.689  30.503  1.00  0.00     0.031 C 
ATOM     41  C   UNL A   1      40.418  25.540  27.688  1.00  0.00     0.029 A 
ATOM     42  C   UNL A   1      41.791  25.776  28.126  1.00  0.00     0.049 A 
ATOM     43  H   UNL A   1      42.548  27.484  29.046  1.00  0.00     0.167 HD
ATOM     44  C   UNL A   1      44.096  31.114  30.844  1.00  0.00     0.037 A 
ATOM     45  C   UNL A   1      42.808  24.901  28.002  1.00  0.00     0.037 A 
ATOM     46  C   UNL A   1      45.227  30.222  30.810  1.00  0.00     0.049 A 
ATOM     47  C   UNL A   1      44.178  25.266  28.500  1.00  0.00     0.074 A 
ATOM     48  C   UNL A   1      46.508  30.436  31.291  1.00  0.00     0.029 A 
ATOM     49  N   UNL A   1      45.209  28.945  30.276  1.00  0.00    -0.354 N 
ATOM     50  N   UNL A   1      44.580  26.371  29.077  1.00  0.00    -0.248 NA
ATOM     51  C   UNL A   1      45.237  24.258  28.331  1.00  0.00     0.031 C 
ATOM     52  C   UNL A   1      47.276  29.298  31.019  1.00  0.00     0.029 A 
ATOM     53  C   UNL A   1      46.461  28.365  30.400  1.00  0.00     0.049 A 
ATOM     54  H   UNL A   1      44.424  28.513  29.869  1.00  0.00     0.167 HD
ATOM     55  C   UNL A   1      45.927  26.184  29.360  1.00  0.00     0.074 A 
ATOM     56  C   UNL A   1      46.274  24.855  28.901  1.00  0.00     0.031 C 
ATOM     57  C   UNL A   1      46.797  27.039  29.949  1.00  0.00     0.037 A 
BRANCH  44  58
ATOM     58  C   UNL A   1      44.309  32.492  31.400  1.00  0.00     0.057 A 
ATOM     59  C   UNL A   1      44.686  33.567  30.584  1.00  0.00     0.134 A 
ATOM     60  C   UNL A   1      44.095  32.755  32.759  1.00  0.00     0.134 A 
ATOM     61  F   UNL A   1      44.915  33.380  29.276  1.00  0.00    -0.206 F 
ATOM     62  C   UNL A   1      44.866  34.850  31.106  1.00  0.00     0.040 A 
ATOM     63  C   UNL A   1      44.249  34.037  33.288  1.00  0.00     0.040 A 
ATOM     64  F   UNL A   1      43.723  31.772  33.592  1.00  0.00    -0.206 F 
ATOM     65  C   UNL A   1      44.643  35.088  32.461  1.00  0.00     0.006 A 
ENDBRANCH  44  58
BRANCH  45  66
ATOM     66  C   UNL A   1      42.567  23.569  27.392  1.00  0.00     0.057 A 
ATOM     67  C   UNL A   1      42.669  23.382  26.010  1.00  0.00     0.134 A 
ATOM     68  C   UNL A   1      42.222  22.459  28.172  1.00  0.00     0.134 A 
ATOM     69  F   UNL A   1      42.972  24.416  25.210  1.00  0.00    -0.206 F 
ATOM     70  C   UNL A   1      42.424  22.141  25.420  1.00  0.00     0.040 A 
ATOM     71  C   UNL A   1      41.994  21.208  27.598  1.00  0.00     0.040 A 
ATOM     72  F   UNL A   1      42.110  22.576  29.504  1.00  0.00    -0.206 F 
ATOM     73  C   UNL A   1      42.090  21.048  26.217  1.00  0.00     0.006 A 
ENDBRANCH  45  66
BRANCH  57  74
ATOM     74  C   UNL A   1      48.201  26.557  30.159  1.00  0.00     0.057 A 
ATOM     75  C   UNL A   1      49.208  26.788  29.214  1.00  0.00     0.134 A 
ATOM     76  C   UNL A   1      48.558  25.887  31.336  1.00  0.00     0.134 A 
ATOM     77  F   UNL A   1      48.927  27.414  28.061  1.00  0.00    -0.206 F 
ATOM     78  C   UNL A   1      50.518  26.354  29.425  1.00  0.00     0.040 A 
ATOM     79  C   UNL A   1      49.868  25.466  31.567  1.00  0.00     0.040 A 
ATOM     80  F   UNL A   1      47.641  25.641  32.284  1.00  0.00    -0.206 F 
ATOM     81  C   UNL A   1      50.852  25.696  30.608  1.00  0.00     0.006 A 
ENDBRANCH  57  74
ENDBRANCH  31  32
ENDBRANCH  23  26
ENDBRANCH  21  22
ENDBRANCH   1  21
TORSDOF 11
ENDMDL
MODEL 2
REMARK VINA RESULT:     -11.4      3.524      4.597
REMARK SMILES CC1(C)[C@H]2CC[C@]1(C)C(=O)N(CC(=O)NCCCNC(=O)c1ccc(-c3c4nc(c(-c5c(F)cccc5F)c5ccc([nH]5)c(-c5c(F)cccc5F)c5nc(c(-c6c(F)cccc6F)c6ccc3[nH]6)C=C5)C=C4)cc1)C2=O
REMARK SMILES IDX 17 1 16 2 15 3 13 4 14 5 12 7 11 8 1 9 2 10 4 11 7 12 3 13
REMARK SMILES IDX 5 14 76 15 6 16 9 17 8 18 77 19 10 20 18 21 19 22 20 23
REMARK SMILES IDX 21 25 22 26 23 27 75 28 24 29 74 30 25 31 26 32 27 33 68 34
REMARK SMILES IDX 28 35 73 36 67 37 69 38 29 39 72 40 66 41 65 42 30 44 56 45
REMARK SMILES IDX 39 46 55 47 40 48 43 49 54 50 70 51 41 52 42 53 53 55 71 56
REMARK SMILES IDX 44 57 31 58 32 59 37 60 33 61 34 62 36 63 38 64 35 65 57 66
REMARK SMILES IDX 58 67 63 68 59 69 60 70 62 71 64 72 61 73 45 74 46 75 51 76
REMARK SMILES IDX 47 77 48 78 50 79 52 80 49 81
REMARK H PARENT 15 6 19 24 69 43 43 54
REMARK Flexibility Score: inf
ROOT
ATOM      1  C   UNL A   1      30.818  31.017  25.350  1.00  0.00     0.042 C 
ENDROOT
BRANCH   1   2
ATOM      2  C   UNL A   1      30.983  29.721  24.538  1.00  0.00     0.117 C 
BRANCH   2   3
ATOM      3  N   UNL A   1      32.336  29.536  24.011  1.00  0.00    -0.354 N 
ATOM      4  C   UNL A   1      32.864  28.585  23.176  1.00  0.00     0.240 C 
ATOM      5  O   UNL A   1      34.077  28.660  22.948  1.00  0.00    -0.273 OA
ATOM      6  H   UNL A   1      32.983  30.215  24.310  1.00  0.00     0.163 HD
BRANCH   4   7
ATOM      7  C   UNL A   1      32.046  27.372  22.677  1.00  0.00     0.228 C 
BRANCH   7   8
ATOM      8  N   UNL A   1      32.458  26.227  23.479  1.00  0.00    -0.272 N 
ATOM      9  C   UNL A   1      31.404  23.085  24.538  1.00  0.00     0.013 C 
ATOM     10  C   UNL A   1      32.622  23.800  25.155  1.00  0.00    -0.010 C 
ATOM     11  C   UNL A   1      32.333  25.214  25.657  1.00  0.00     0.086 C 
ATOM     12  C   UNL A   1      33.744  24.182  24.127  1.00  0.00     0.053 C 
ATOM     13  C   UNL A   1      33.066  22.937  26.362  1.00  0.00     0.013 C 
ATOM     14  C   UNL A   1      33.741  25.823  25.914  1.00  0.00     0.015 C 
ATOM     15  C   UNL A   1      31.625  25.871  24.496  1.00  0.00     0.233 C 
ATOM     16  C   UNL A   1      34.700  25.030  24.996  1.00  0.00     0.018 C 
ATOM     17  C   UNL A   1      33.281  25.215  23.018  1.00  0.00     0.236 C 
ATOM     18  C   UNL A   1      34.400  22.960  23.498  1.00  0.00     0.022 C 
ATOM     19  O   UNL A   1      30.408  25.831  24.352  1.00  0.00    -0.274 OA
ATOM     20  O   UNL A   1      33.652  25.135  21.847  1.00  0.00    -0.274 OA
ENDBRANCH   7   8
ENDBRANCH   4   7
ENDBRANCH   2   3
ENDBRANCH   1   2
BRANCH   1  21
ATOM     21  C   UNL A   1      31.777  31.233  26.507  1.00  0.00     0.118 C 
BRANCH  21  22
ATOM     22  N   UNL A   1      31.907  32.627  26.882  1.00  0.00    -0.352 N 
ATOM     23  C   UNL A   1      32.829  33.323  27.626  1.00  0.00     0.251 C 
ATOM     24  H   UNL A   1      31.182  33.194  26.533  1.00  0.00     0.163 HD
ATOM     25  O   UNL A   1      32.554  34.495  27.893  1.00  0.00    -0.269 OA
BRANCH  23  26
ATOM     26  C   UNL A   1      34.120  32.769  28.135  1.00  0.00     0.039 A 
ATOM     27  C   UNL A   1      34.158  31.392  28.420  1.00  0.00     0.014 A 
ATOM     28  C   UNL A   1      35.235  33.535  28.477  1.00  0.00     0.014 A 
ATOM     29  C   UNL A   1      35.278  30.801  29.024  1.00  0.00     0.010 A 
ATOM     30  C   UNL A   1      36.387  32.933  29.014  1.00  0.00     0.010 A 
ATOM     31  C   UNL A   1      36.415  31.564  29.322  1.00  0.00    -0.014 A 
BRANCH  31  32
ATOM     32  C   UNL A   1      37.598  30.956  30.002  1.00  0.00     0.031 A 
ATOM     33  C   UNL A   1      37.890  31.258  31.453  1.00  0.00     0.074 A 
ATOM     34  C   UNL A   1      38.432  30.140  29.326  1.00  0.00     0.049 A 
ATOM     35  N   UNL A   1      38.898  30.871  32.197  1.00  0.00    -0.248 NA
ATOM     36  C   UNL A   1      36.934  32.130  32.154  1.00  0.00     0.031 C 
ATOM     37  C   UNL A   1      38.297  29.770  27.918  1.00  0.00     0.029 A 
ATOM     38  N   UNL A   1      39.566  29.479  29.736  1.00  0.00    -0.354 N 
ATOM     39  C   UNL A   1      38.714  31.471  33.437  1.00  0.00     0.074 A 
ATOM     40  C   UNL A   1      37.516  32.278  33.336  1.00  0.00     0.031 C 
ATOM     41  C   UNL A   1      39.293  28.930  27.587  1.00  0.00     0.029 A 
ATOM     42  C   UNL A   1      40.155  28.728  28.748  1.00  0.00     0.049 A 
ATOM     43  H   UNL A   1      39.922  29.538  30.652  1.00  0.00     0.167 HD
ATOM     44  C   UNL A   1      39.457  31.352  34.564  1.00  0.00     0.037 A 
ATOM     45  C   UNL A   1      41.266  27.965  28.767  1.00  0.00     0.037 A 
ATOM     46  C   UNL A   1      40.619  30.512  34.696  1.00  0.00     0.049 A 
ATOM     47  C   UNL A   1      42.067  27.837  30.033  1.00  0.00     0.074 A 
ATOM     48  C   UNL A   1      41.391  30.279  35.823  1.00  0.00     0.029 A 
ATOM     49  N   UNL A   1      41.171  29.761  33.673  1.00  0.00    -0.354 N 
ATOM     50  N   UNL A   1      41.853  28.380  31.205  1.00  0.00    -0.248 NA
ATOM     51  C   UNL A   1      43.266  26.985  29.977  1.00  0.00     0.031 C 
ATOM     52  C   UNL A   1      42.429  29.409  35.473  1.00  0.00     0.029 A 
ATOM     53  C   UNL A   1      42.283  29.076  34.137  1.00  0.00     0.049 A 
ATOM     54  H   UNL A   1      40.825  29.719  32.752  1.00  0.00     0.167 HD
ATOM     55  C   UNL A   1      42.871  27.920  32.029  1.00  0.00     0.074 A 
ATOM     56  C   UNL A   1      43.700  27.044  31.228  1.00  0.00     0.031 C 
ATOM     57  C   UNL A   1      43.097  28.199  33.336  1.00  0.00     0.037 A 
BRANCH  44  58
ATOM     58  C   UNL A   1      39.033  32.152  35.761  1.00  0.00     0.057 A 
ATOM     59  C   UNL A   1      39.420  33.488  35.930  1.00  0.00     0.134 A 
ATOM     60  C   UNL A   1      38.193  31.594  36.733  1.00  0.00     0.134 A 
ATOM     61  F   UNL A   1      40.230  34.079  35.039  1.00  0.00    -0.206 F 
ATOM     62  C   UNL A   1      39.008  34.231  37.038  1.00  0.00     0.040 A 
ATOM     63  C   UNL A   1      37.756  32.333  37.833  1.00  0.00     0.040 A 
ATOM     64  F   UNL A   1      37.778  30.322  36.625  1.00  0.00    -0.206 F 
ATOM     65  C   UNL A   1      38.170  33.655  37.991  1.00  0.00     0.006 A 
ENDBRANCH  44  58
BRANCH  45  66
ATOM     66  C   UNL A   1      41.683  27.235  27.544  1.00  0.00     0.057 A 
ATOM     67  C   UNL A   1      42.448  27.866  26.557  1.00  0.00     0.134 A 
ATOM     68  C   UNL A   1      41.322  25.900  27.329  1.00  0.00     0.134 A 
ATOM     69  F   UNL A   1      42.803  29.152  26.697  1.00  0.00    -0.206 F 
ATOM     70  C   UNL A   1      42.829  27.200  25.391  1.00  0.00     0.040 A 
ATOM     71  C   UNL A   1      41.713  25.216  26.178  1.00  0.00     0.040 A 
ATOM     72  F   UNL A   1      40.590  25.242  28.240  1.00  0.00    -0.206 F 
ATOM     73  C   UNL A   1      42.465  25.868  25.202  1.00  0.00     0.006 A 
ENDBRANCH  45  66
BRANCH  57  74
ATOM     74  C   UNL A   1      44.268  27.531  33.990  1.00  0.00     0.057 A 
ATOM     75  C   UNL A   1      45.528  28.141  34.048  1.00  0.00     0.134 A 
ATOM     76  C   UNL A   1      44.126  26.279  34.602  1.00  0.00     0.134 A 
ATOM     77  F   UNL A   1      45.730  29.334  33.470  1.00  0.00    -0.206 F 
ATOM     78  C   UNL A   1      46.609  27.522  34.677  1.00  0.00     0.040 A 
ATOM     79  C   UNL A   1      45.195  25.658  35.251  1.00  0.00     0.040 A 
ATOM     80  F   UNL A   1      42.945  25.644  34.587  1.00  0.00    -0.206 F 
ATOM     81  C   UNL A   1      46.442  26.279  35.286  1.00  0.00     0.006 A 
ENDBRANCH  57  74
ENDBRANCH  31  32
ENDBRANCH  23  26
ENDBRANCH  21  22
ENDBRANCH   1  21
TORSDOF 11
ENDMDL
MODEL 3
REMARK VINA RESULT:     -11.4      2.721      7.369
REMARK SMILES CC1(C)[C@H]2CC[C@]1(C)C(=O)N(CC(=O)NCCCNC(=O)c1ccc(-c3c4nc(c(-c5c(F)cccc5F)c5ccc([nH]5)c(-c5c(F)cccc5F)c5nc(c(-c6c(F)cccc6F)c6ccc3[nH]6)C=C5)C=C4)cc1)C2=O
REMARK SMILES IDX 17 1 16 2 15 3 13 4 14 5 12 7 11 8 1 9 2 10 4 11 7 12 3 13
REMARK SMILES IDX 5 14 76 15 6 16 9 17 8 18 77 19 10 20 18 21 19 22 20 23
REMARK SMILES IDX 21 25 22 26 23 27 75 28 24 29 74 30 25 31 26 32 27 33 68 34
REMARK SMILES IDX 28 35 73 36 67 37 69 38 29 39 72 40 66 41 65 42 30 44 56 45
REMARK SMILES IDX 39 46 55 47 40 48 43 49 54 50 70 51 41 52 42 53 53 55 71 56
REMARK SMILES IDX 44 57 31 58 32 59 37 60 33 61 34 62 36 63 38 64 35 65 57 66
REMARK SMILES IDX 58 67 63 68 59 69 60 70 62 71 64 72 61 73 45 74 46 75 51 76
REMARK SMILES IDX 47 77 48 78 50 79 52 80 49 81
REMARK H PARENT 15 6 19 24 69 43 43 54
REMARK Flexibility Score: inf
ROOT
ATOM      1  C   UNL A   1      38.171  20.401  24.652  1.00  0.00     0.042 C 
ENDROOT
BRANCH   1   2
ATOM      2  C   UNL A   1      37.727  21.810  25.080  1.00  0.00     0.117 C 
BRANCH   2   3
ATOM      3  N   UNL A   1      36.700  21.802  26.123  1.00  0.00    -0.354 N 
ATOM      4  C   UNL A   1      35.340  21.640  26.057  1.00  0.00     0.240 C 
ATOM      5  O   UNL A   1      34.719  21.738  27.121  1.00  0.00    -0.273 OA
ATOM      6  H   UNL A   1      37.047  21.939  27.034  1.00  0.00     0.163 HD
BRANCH   4   7
ATOM      7  C   UNL A   1      34.582  21.516  24.716  1.00  0.00     0.228 C 
BRANCH   7   8
ATOM      8  N   UNL A   1      33.948  22.805  24.470  1.00  0.00    -0.272 N 
ATOM      9  C   UNL A   1      32.982  24.954  21.909  1.00  0.00     0.013 C 
ATOM     10  C   UNL A   1      33.013  25.390  23.388  1.00  0.00    -0.010 C 
ATOM     11  C   UNL A   1      34.350  25.146  24.087  1.00  0.00     0.086 C 
ATOM     12  C   UNL A   1      32.128  24.517  24.345  1.00  0.00     0.053 C 
ATOM     13  C   UNL A   1      32.733  26.914  23.397  1.00  0.00     0.013 C 
ATOM     14  C   UNL A   1      34.034  25.347  25.597  1.00  0.00     0.015 C 
ATOM     15  C   UNL A   1      34.673  23.708  23.754  1.00  0.00     0.233 C 
ATOM     16  C   UNL A   1      32.519  25.068  25.735  1.00  0.00     0.018 C 
ATOM     17  C   UNL A   1      32.578  23.000  24.437  1.00  0.00     0.236 C 
ATOM     18  C   UNL A   1      30.643  24.629  24.030  1.00  0.00     0.022 C 
ATOM     19  O   UNL A   1      35.305  23.384  22.753  1.00  0.00    -0.274 OA
ATOM     20  O   UNL A   1      31.769  22.076  24.506  1.00  0.00    -0.274 OA
ENDBRANCH   7   8
ENDBRANCH   4   7
ENDBRANCH   2   3
ENDBRANCH   1   2
BRANCH   1  21
ATOM     21  C   UNL A   1      38.398  19.385  25.757  1.00  0.00     0.118 C 
BRANCH  21  22
ATOM     22  N   UNL A   1      39.736  18.828  25.747  1.00  0.00    -0.352 N 
ATOM     23  C   UNL A   1      40.977  19.348  26.026  1.00  0.00     0.251 C 
ATOM     24  H   UNL A   1      39.763  17.880  25.485  1.00  0.00     0.163 HD
ATOM     25  O   UNL A   1      41.949  18.636  25.761  1.00  0.00    -0.269 OA
BRANCH  23  26
ATOM     26  C   UNL A   1      41.234  20.699  26.612  1.00  0.00     0.039 A 
ATOM     27  C   UNL A   1      41.520  21.742  25.714  1.00  0.00     0.014 A 
ATOM     28  C   UNL A   1      41.347  20.965  27.978  1.00  0.00     0.014 A 
ATOM     29  C   UNL A   1      41.904  23.013  26.169  1.00  0.00     0.010 A 
ATOM     30  C   UNL A   1      41.659  22.258  28.436  1.00  0.00     0.010 A 
ATOM     31  C   UNL A   1      41.969  23.291  27.540  1.00  0.00    -0.014 A 
BRANCH  31  32
ATOM     32  C   UNL A   1      42.416  24.628  28.037  1.00  0.00     0.031 A 
ATOM     33  C   UNL A   1      41.413  25.730  28.286  1.00  0.00     0.074 A 
ATOM     34  C   UNL A   1      43.723  24.876  28.254  1.00  0.00     0.049 A 
ATOM     35  N   UNL A   1      41.616  26.969  28.662  1.00  0.00    -0.248 NA
ATOM     36  C   UNL A   1      39.997  25.401  28.062  1.00  0.00     0.031 C 
ATOM     37  C   UNL A   1      44.812  23.924  28.040  1.00  0.00     0.029 A 
ATOM     38  N   UNL A   1      44.358  26.011  28.701  1.00  0.00    -0.354 N 
ATOM     39  C   UNL A   1      40.364  27.572  28.692  1.00  0.00     0.074 A 
ATOM     40  C   UNL A   1      39.409  26.572  28.261  1.00  0.00     0.031 C 
ATOM     41  C   UNL A   1      45.976  24.505  28.377  1.00  0.00     0.029 A 
ATOM     42  C   UNL A   1      45.722  25.880  28.799  1.00  0.00     0.049 A 
ATOM     43  H   UNL A   1      43.879  26.842  28.929  1.00  0.00     0.167 HD
ATOM     44  C   UNL A   1      40.029  28.833  29.058  1.00  0.00     0.037 A 
ATOM     45  C   UNL A   1      46.665  26.762  29.181  1.00  0.00     0.037 A 
ATOM     46  C   UNL A   1      40.958  29.822  29.540  1.00  0.00     0.049 A 
ATOM     47  C   UNL A   1      46.269  28.152  29.597  1.00  0.00     0.074 A 
ATOM     48  C   UNL A   1      40.694  31.102  30.000  1.00  0.00     0.029 A 
ATOM     49  N   UNL A   1      42.328  29.639  29.634  1.00  0.00    -0.354 N 
ATOM     50  N   UNL A   1      45.076  28.688  29.656  1.00  0.00    -0.248 NA
ATOM     51  C   UNL A   1      47.356  29.059  30.003  1.00  0.00     0.031 C 
ATOM     52  C   UNL A   1      41.909  31.705  30.344  1.00  0.00     0.029 A 
ATOM     53  C   UNL A   1      42.924  30.788  30.129  1.00  0.00     0.049 A 
ATOM     54  H   UNL A   1      42.806  28.815  29.387  1.00  0.00     0.167 HD
ATOM     55  C   UNL A   1      45.264  29.982  30.126  1.00  0.00     0.074 A 
ATOM     56  C   UNL A   1      46.685  30.149  30.347  1.00  0.00     0.031 C 
ATOM     57  C   UNL A   1      44.338  30.944  30.354  1.00  0.00     0.037 A 
BRANCH  44  58
ATOM     58  C   UNL A   1      38.583  29.223  28.958  1.00  0.00     0.057 A 
ATOM     59  C   UNL A   1      37.736  29.208  30.073  1.00  0.00     0.134 A 
ATOM     60  C   UNL A   1      38.043  29.657  27.741  1.00  0.00     0.134 A 
ATOM     61  F   UNL A   1      38.189  28.795  31.266  1.00  0.00    -0.206 F 
ATOM     62  C   UNL A   1      36.395  29.588  29.976  1.00  0.00     0.040 A 
ATOM     63  C   UNL A   1      36.710  30.060  27.635  1.00  0.00     0.040 A 
ATOM     64  F   UNL A   1      38.803  29.704  26.636  1.00  0.00    -0.206 F 
ATOM     65  C   UNL A   1      35.881  30.020  28.755  1.00  0.00     0.006 A 
ENDBRANCH  44  58
BRANCH  45  66
ATOM     66  C   UNL A   1      48.092  26.354  29.210  1.00  0.00     0.057 A 
ATOM     67  C   UNL A   1      48.901  26.486  28.077  1.00  0.00     0.134 A 
ATOM     68  C   UNL A   1      48.675  25.816  30.363  1.00  0.00     0.134 A 
ATOM     69  F   UNL A   1      48.390  26.972  26.936  1.00  0.00    -0.206 F 
ATOM     70  C   UNL A   1      50.238  26.085  28.083  1.00  0.00     0.040 A 
ATOM     71  C   UNL A   1      50.016  25.430  30.389  1.00  0.00     0.040 A 
ATOM     72  F   UNL A   1      47.951  25.666  31.482  1.00  0.00    -0.206 F 
ATOM     73  C   UNL A   1      50.800  25.560  29.244  1.00  0.00     0.006 A 
ENDBRANCH  45  66
BRANCH  57  74
ATOM     74  C   UNL A   1      44.825  32.254  30.896  1.00  0.00     0.057 A 
ATOM     75  C   UNL A   1      44.948  32.481  32.273  1.00  0.00     0.134 A 
ATOM     76  C   UNL A   1      45.210  33.287  30.032  1.00  0.00     0.134 A 
ATOM     77  F   UNL A   1      44.584  31.535  33.152  1.00  0.00    -0.206 F 
ATOM     78  C   UNL A   1      45.422  33.696  32.771  1.00  0.00     0.040 A 
ATOM     79  C   UNL A   1      45.703  34.498  30.518  1.00  0.00     0.040 A 
ATOM     80  F   UNL A   1      45.122  33.130  28.703  1.00  0.00    -0.206 F 
ATOM     81  C   UNL A   1      45.807  34.707  31.892  1.00  0.00     0.006 A 
ENDBRANCH  57  74
ENDBRANCH  31  32
ENDBRANCH  23  26
ENDBRANCH  21  22
ENDBRANCH   1  21
TORSDOF 11
ENDMDL
