MODEL 1
REMARK VINA RESULT:     -12.6      0.000      0.000
REMARK SMILES CS(=O)(=O)c1ccc(N2N=C(C(=O)NCCCNC(=O)c3ccc(-c4c5nc(c(-c6c(F)cccc6F)c6ccc([nH]6)c(-c6c(F)cccc6F)c6nc(c(-c7c(F)cccc7F)c7ccc4[nH]7)C=C6)C=C5)cc3)C[C@H]2c2ccco2)cc1
REMARK SMILES IDX 16 1 15 2 14 3 12 4 13 5 11 7 9 8 10 9 76 10 75 11 8 12 5 13
REMARK SMILES IDX 6 14 83 15 7 16 82 17 2 18 1 19 3 20 4 21 77 22 78 23 81 24
REMARK SMILES IDX 79 25 80 26 17 27 18 28 19 29 20 31 21 32 22 33 74 34 23 35
REMARK SMILES IDX 73 36 24 37 25 38 26 39 67 40 27 41 72 42 66 43 68 44 28 45
REMARK SMILES IDX 71 46 65 47 64 48 29 50 55 51 38 52 54 53 39 54 42 55 53 56
REMARK SMILES IDX 69 57 40 58 41 59 52 61 70 62 43 63 30 64 31 65 36 66 32 67
REMARK SMILES IDX 33 68 35 69 37 70 34 71 56 72 57 73 62 74 58 75 59 76 61 77
REMARK SMILES IDX 63 78 60 79 44 80 45 81 50 82 46 83 47 84 49 85 51 86 48 87
REMARK H PARENT 14 6 18 30 68 49 42 60
REMARK Flexibility Score: inf
ROOT
ATOM      1  C   UNL A   1      32.230  28.118  27.341  1.00  0.00     0.042 C 
ENDROOT
BRANCH   1   2
ATOM      2  C   UNL A   1      31.959  27.141  26.205  1.00  0.00     0.118 C 
BRANCH   2   3
ATOM      3  N   UNL A   1      31.032  26.100  26.610  1.00  0.00    -0.351 N 
ATOM      4  C   UNL A   1      30.918  24.755  26.359  1.00  0.00     0.267 C 
ATOM      5  O   UNL A   1      29.923  24.183  26.799  1.00  0.00    -0.268 OA
ATOM      6  H   UNL A   1      30.323  26.435  27.204  1.00  0.00     0.163 HD
BRANCH   4   7
ATOM      7  C   UNL A   1      31.962  23.936  25.618  1.00  0.00     0.128 C 
ATOM      8  N   UNL A   1      33.084  22.225  25.032  1.00  0.00    -0.254 N 
ATOM      9  N   UNL A   1      31.935  22.636  25.630  1.00  0.00    -0.171 NA
ATOM     10  C   UNL A   1      33.854  23.301  24.404  1.00  0.00     0.180 C 
ATOM     11  C   UNL A   1      33.097  24.544  24.871  1.00  0.00     0.099 C 
BRANCH   8  12
ATOM     12  C   UNL A   1      33.317  20.880  24.787  1.00  0.00     0.060 A 
ATOM     13  C   UNL A   1      33.699  18.129  24.397  1.00  0.00     0.067 A 
ATOM     14  C   UNL A   1      34.778  18.930  24.775  1.00  0.00     0.022 A 
ATOM     15  C   UNL A   1      32.448  18.691  24.151  1.00  0.00     0.022 A 
ATOM     16  C   UNL A   1      34.581  20.304  24.962  1.00  0.00     0.029 A 
ATOM     17  C   UNL A   1      32.270  20.059  24.342  1.00  0.00     0.029 A 
BRANCH  13  18
ATOM     18  S   UNL A   1      33.912  16.379  24.187  1.00  0.00     0.175 S 
ATOM     19  C   UNL A   1      35.322  16.027  25.206  1.00  0.00     0.163 C 
ATOM     20  O   UNL A   1      34.283  16.141  22.803  1.00  0.00    -0.224 OA
ATOM     21  O   UNL A   1      32.765  15.720  24.776  1.00  0.00    -0.224 OA
ENDBRANCH  13  18
ENDBRANCH   8  12
BRANCH  10  22
ATOM     22  C   UNL A   1      35.326  23.383  24.703  1.00  0.00     0.128 A 
ATOM     23  C   UNL A   1      36.454  23.189  23.928  1.00  0.00     0.048 A 
ATOM     24  O   UNL A   1      35.706  23.706  25.976  1.00  0.00    -0.467 OA
ATOM     25  C   UNL A   1      37.570  23.376  24.780  1.00  0.00     0.042 A 
ATOM     26  C   UNL A   1      37.060  23.708  26.011  1.00  0.00     0.195 A 
ENDBRANCH  10  22
ENDBRANCH   4   7
ENDBRANCH   2   3
ENDBRANCH   1   2
BRANCH   1  27
ATOM     27  C   UNL A   1      33.638  28.694  27.297  1.00  0.00     0.118 C 
BRANCH  27  28
ATOM     28  N   UNL A   1      33.667  30.095  27.703  1.00  0.00    -0.352 N 
ATOM     29  C   UNL A   1      34.628  30.808  28.377  1.00  0.00     0.251 C 
ATOM     30  H   UNL A   1      32.868  30.614  27.453  1.00  0.00     0.163 HD
ATOM     31  O   UNL A   1      34.349  31.910  28.841  1.00  0.00    -0.269 OA
BRANCH  29  32
ATOM     32  C   UNL A   1      35.985  30.254  28.554  1.00  0.00     0.039 A 
ATOM     33  C   UNL A   1      36.883  30.301  27.483  1.00  0.00     0.014 A 
ATOM     34  C   UNL A   1      36.366  29.659  29.759  1.00  0.00     0.014 A 
ATOM     35  C   UNL A   1      38.180  29.814  27.647  1.00  0.00     0.010 A 
ATOM     36  C   UNL A   1      37.684  29.263  29.950  1.00  0.00     0.010 A 
ATOM     37  C   UNL A   1      38.603  29.328  28.894  1.00  0.00    -0.014 A 
BRANCH  37  38
ATOM     38  C   UNL A   1      40.000  28.876  29.116  1.00  0.00     0.031 A 
ATOM     39  C   UNL A   1      41.006  29.812  29.730  1.00  0.00     0.074 A 
ATOM     40  C   UNL A   1      40.377  27.651  28.699  1.00  0.00     0.049 A 
ATOM     41  N   UNL A   1      42.287  29.632  29.928  1.00  0.00    -0.248 NA
ATOM     42  C   UNL A   1      40.516  31.134  30.152  1.00  0.00     0.031 C 
ATOM     43  C   UNL A   1      39.505  26.672  28.047  1.00  0.00     0.029 A 
ATOM     44  N   UNL A   1      41.596  27.026  28.751  1.00  0.00    -0.354 N 
ATOM     45  C   UNL A   1      42.756  30.820  30.474  1.00  0.00     0.074 A 
ATOM     46  C   UNL A   1      41.635  31.732  30.530  1.00  0.00     0.031 C 
ATOM     47  C   UNL A   1      40.210  25.560  27.785  1.00  0.00     0.029 A 
ATOM     48  C   UNL A   1      41.591  25.763  28.208  1.00  0.00     0.049 A 
ATOM     49  H   UNL A   1      42.399  27.440  29.141  1.00  0.00     0.167 HD
ATOM     50  C   UNL A   1      44.002  31.116  30.912  1.00  0.00     0.037 A 
ATOM     51  C   UNL A   1      42.591  24.874  28.058  1.00  0.00     0.037 A 
ATOM     52  C   UNL A   1      45.107  30.193  30.885  1.00  0.00     0.049 A 
ATOM     53  C   UNL A   1      43.969  25.235  28.543  1.00  0.00     0.074 A 
ATOM     54  C   UNL A   1      46.390  30.373  31.369  1.00  0.00     0.029 A 
ATOM     55  N   UNL A   1      45.057  28.919  30.341  1.00  0.00    -0.354 N 
ATOM     56  N   UNL A   1      44.379  26.334  29.129  1.00  0.00    -0.248 NA
ATOM     57  C   UNL A   1      45.022  24.229  28.353  1.00  0.00     0.031 C 
ATOM     58  C   UNL A   1      47.133  29.226  31.072  1.00  0.00     0.029 A 
ATOM     59  C   UNL A   1      46.297  28.310  30.455  1.00  0.00     0.049 A 
ATOM     60  H   UNL A   1      44.260  28.506  29.936  1.00  0.00     0.167 HD
ATOM     61  C   UNL A   1      45.725  26.137  29.408  1.00  0.00     0.074 A 
ATOM     62  C   UNL A   1      46.059  24.808  28.940  1.00  0.00     0.031 C 
ATOM     63  C   UNL A   1      46.607  26.981  29.998  1.00  0.00     0.037 A 
BRANCH  50  64
ATOM     64  C   UNL A   1      44.243  32.491  31.463  1.00  0.00     0.057 A 
ATOM     65  C   UNL A   1      44.078  32.785  32.823  1.00  0.00     0.134 A 
ATOM     66  C   UNL A   1      44.702  33.522  30.633  1.00  0.00     0.134 A 
ATOM     67  F   UNL A   1      43.630  31.846  33.671  1.00  0.00    -0.206 F 
ATOM     68  C   UNL A   1      44.342  34.056  33.334  1.00  0.00     0.040 A 
ATOM     69  C   UNL A   1      44.996  34.790  31.136  1.00  0.00     0.040 A 
ATOM     70  F   UNL A   1      44.888  33.309  29.321  1.00  0.00    -0.206 F 
ATOM     71  C   UNL A   1      44.812  35.062  32.490  1.00  0.00     0.006 A 
ENDBRANCH  50  64
BRANCH  51  72
ATOM     72  C   UNL A   1      42.335  23.550  27.434  1.00  0.00     0.057 A 
ATOM     73  C   UNL A   1      42.049  22.426  28.219  1.00  0.00     0.134 A 
ATOM     74  C   UNL A   1      42.401  23.366  26.048  1.00  0.00     0.134 A 
ATOM     75  F   UNL A   1      41.988  22.534  29.555  1.00  0.00    -0.206 F 
ATOM     76  C   UNL A   1      41.872  21.164  27.653  1.00  0.00     0.040 A 
ATOM     77  C   UNL A   1      42.197  22.114  25.466  1.00  0.00     0.040 A 
ATOM     78  F   UNL A   1      42.661  24.403  25.238  1.00  0.00    -0.206 F 
ATOM     79  C   UNL A   1      41.943  21.005  26.270  1.00  0.00     0.006 A 
ENDBRANCH  51  72
BRANCH  63  80
ATOM     80  C   UNL A   1      48.003  26.473  30.216  1.00  0.00     0.057 A 
ATOM     81  C   UNL A   1      48.389  25.843  31.406  1.00  0.00     0.134 A 
ATOM     82  C   UNL A   1      48.963  26.582  29.202  1.00  0.00     0.134 A 
ATOM     83  F   UNL A   1      47.520  25.718  32.421  1.00  0.00    -0.206 F 
ATOM     84  C   UNL A   1      49.686  25.364  31.589  1.00  0.00     0.040 A 
ATOM     85  C   UNL A   1      50.255  26.080  29.362  1.00  0.00     0.040 A 
ATOM     86  F   UNL A   1      48.657  27.166  28.033  1.00  0.00    -0.206 F 
ATOM     87  C   UNL A   1      50.621  25.475  30.562  1.00  0.00     0.006 A 
ENDBRANCH  63  80
ENDBRANCH  37  38
ENDBRANCH  29  32
ENDBRANCH  27  28
ENDBRANCH   1  27
TORSDOF 13
ENDMDL
MODEL 2
REMARK VINA RESULT:     -12.3      3.556      8.738
REMARK SMILES CS(=O)(=O)c1ccc(N2N=C(C(=O)NCCCNC(=O)c3ccc(-c4c5nc(c(-c6c(F)cccc6F)c6ccc([nH]6)c(-c6c(F)cccc6F)c6nc(c(-c7c(F)cccc7F)c7ccc4[nH]7)C=C6)C=C5)cc3)C[C@H]2c2ccco2)cc1
REMARK SMILES IDX 16 1 15 2 14 3 12 4 13 5 11 7 9 8 10 9 76 10 75 11 8 12 5 13
REMARK SMILES IDX 6 14 83 15 7 16 82 17 2 18 1 19 3 20 4 21 77 22 78 23 81 24
REMARK SMILES IDX 79 25 80 26 17 27 18 28 19 29 20 31 21 32 22 33 74 34 23 35
REMARK SMILES IDX 73 36 24 37 25 38 26 39 67 40 27 41 72 42 66 43 68 44 28 45
REMARK SMILES IDX 71 46 65 47 64 48 29 50 55 51 38 52 54 53 39 54 42 55 53 56
REMARK SMILES IDX 69 57 40 58 41 59 52 61 70 62 43 63 30 64 31 65 36 66 32 67
REMARK SMILES IDX 33 68 35 69 37 70 34 71 56 72 57 73 62 74 58 75 59 76 61 77
REMARK SMILES IDX 63 78 60 79 44 80 45 81 50 82 46 83 47 84 49 85 51 86 48 87
REMARK H PARENT 14 6 18 30 68 49 42 60
REMARK Flexibility Score: inf
ROOT
ATOM      1  C   UNL A   1      36.617  23.166  23.769  1.00  0.00     0.042 C 
ENDROOT
BRANCH   1   2
ATOM      2  C   UNL A   1      35.222  23.745  23.578  1.00  0.00     0.118 C 
BRANCH   2   3
ATOM      3  N   UNL A   1      34.201  22.845  24.083  1.00  0.00    -0.351 N 
ATOM      4  C   UNL A   1      33.041  23.002  24.801  1.00  0.00     0.267 C 
ATOM      5  O   UNL A   1      32.454  21.982  25.152  1.00  0.00    -0.268 OA
ATOM      6  H   UNL A   1      34.380  21.905  23.857  1.00  0.00     0.163 HD
BRANCH   4   7
ATOM      7  C   UNL A   1      32.427  24.351  25.141  1.00  0.00     0.128 C 
ATOM      8  N   UNL A   1      31.495  26.237  24.820  1.00  0.00    -0.254 N 
ATOM      9  N   UNL A   1      31.747  25.025  24.261  1.00  0.00    -0.171 NA
ATOM     10  C   UNL A   1      31.858  26.335  26.236  1.00  0.00     0.180 C 
ATOM     11  C   UNL A   1      32.589  25.012  26.465  1.00  0.00     0.099 C 
BRANCH   8  12
ATOM     12  C   UNL A   1      30.689  27.164  24.176  1.00  0.00     0.060 A 
ATOM     13  C   UNL A   1      29.069  29.123  22.989  1.00  0.00     0.067 A 
ATOM     14  C   UNL A   1      28.538  27.861  23.266  1.00  0.00     0.022 A 
ATOM     15  C   UNL A   1      30.411  29.399  23.239  1.00  0.00     0.022 A 
ATOM     16  C   UNL A   1      29.355  26.886  23.853  1.00  0.00     0.029 A 
ATOM     17  C   UNL A   1      31.208  28.418  23.825  1.00  0.00     0.029 A 
BRANCH  13  18
ATOM     18  S   UNL A   1      28.047  30.388  22.278  1.00  0.00     0.175 S 
ATOM     19  C   UNL A   1      29.071  31.833  22.387  1.00  0.00     0.163 C 
ATOM     20  O   UNL A   1      26.903  30.576  23.153  1.00  0.00    -0.224 OA
ATOM     21  O   UNL A   1      27.870  30.076  20.875  1.00  0.00    -0.224 OA
ENDBRANCH  13  18
ENDBRANCH   8  12
BRANCH  10  22
ATOM     22  C   UNL A   1      32.672  27.520  26.676  1.00  0.00     0.128 A 
ATOM     23  C   UNL A   1      32.348  28.688  27.340  1.00  0.00     0.048 A 
ATOM     24  O   UNL A   1      34.011  27.519  26.397  1.00  0.00    -0.467 OA
ATOM     25  C   UNL A   1      33.543  29.443  27.443  1.00  0.00     0.042 A 
ATOM     26  C   UNL A   1      34.528  28.678  26.870  1.00  0.00     0.195 A 
ENDBRANCH  10  22
ENDBRANCH   4   7
ENDBRANCH   2   3
ENDBRANCH   1   2
BRANCH   1  27
ATOM     27  C   UNL A   1      37.207  23.491  25.134  1.00  0.00     0.118 C 
BRANCH  27  28
ATOM     28  N   UNL A   1      38.311  22.601  25.478  1.00  0.00    -0.352 N 
ATOM     29  C   UNL A   1      39.499  22.859  26.114  1.00  0.00     0.251 C 
ATOM     30  H   UNL A   1      38.182  21.662  25.211  1.00  0.00     0.163 HD
ATOM     31  O   UNL A   1      40.398  22.024  26.080  1.00  0.00    -0.269 OA
BRANCH  29  32
ATOM     32  C   UNL A   1      39.705  24.136  26.826  1.00  0.00     0.039 A 
ATOM     33  C   UNL A   1      39.102  24.322  28.074  1.00  0.00     0.014 A 
ATOM     34  C   UNL A   1      40.461  25.163  26.256  1.00  0.00     0.014 A 
ATOM     35  C   UNL A   1      39.316  25.510  28.776  1.00  0.00     0.010 A 
ATOM     36  C   UNL A   1      40.752  26.302  26.997  1.00  0.00     0.010 A 
ATOM     37  C   UNL A   1      40.176  26.492  28.260  1.00  0.00    -0.014 A 
BRANCH  37  38
ATOM     38  C   UNL A   1      40.482  27.730  29.021  1.00  0.00     0.031 A 
ATOM     39  C   UNL A   1      41.780  27.850  29.774  1.00  0.00     0.074 A 
ATOM     40  C   UNL A   1      39.563  28.712  29.092  1.00  0.00     0.049 A 
ATOM     41  N   UNL A   1      42.192  28.811  30.560  1.00  0.00    -0.248 NA
ATOM     42  C   UNL A   1      42.728  26.730  29.651  1.00  0.00     0.031 C 
ATOM     43  C   UNL A   1      38.249  28.692  28.445  1.00  0.00     0.029 A 
ATOM     44  N   UNL A   1      39.588  29.915  29.751  1.00  0.00    -0.354 N 
ATOM     45  C   UNL A   1      43.431  28.403  31.039  1.00  0.00     0.074 A 
ATOM     46  C   UNL A   1      43.682  27.086  30.497  1.00  0.00     0.031 C 
ATOM     47  C   UNL A   1      37.606  29.838  28.716  1.00  0.00     0.029 A 
ATOM     48  C   UNL A   1      38.441  30.654  29.591  1.00  0.00     0.049 A 
ATOM     49  H   UNL A   1      40.354  30.220  30.287  1.00  0.00     0.167 HD
ATOM     50  C   UNL A   1      44.292  29.077  31.838  1.00  0.00     0.037 A 
ATOM     51  C   UNL A   1      38.097  31.852  30.103  1.00  0.00     0.037 A 
ATOM     52  C   UNL A   1      44.052  30.401  32.347  1.00  0.00     0.049 A 
ATOM     53  C   UNL A   1      39.069  32.571  30.997  1.00  0.00     0.074 A 
ATOM     54  C   UNL A   1      44.892  31.196  33.107  1.00  0.00     0.029 A 
ATOM     55  N   UNL A   1      42.885  31.123  32.150  1.00  0.00    -0.354 N 
ATOM     56  N   UNL A   1      40.270  32.206  31.378  1.00  0.00    -0.248 NA
ATOM     57  C   UNL A   1      38.641  33.872  31.529  1.00  0.00     0.031 C 
ATOM     58  C   UNL A   1      44.214  32.379  33.413  1.00  0.00     0.029 A 
ATOM     59  C   UNL A   1      42.973  32.345  32.797  1.00  0.00     0.049 A 
ATOM     60  H   UNL A   1      42.110  30.815  31.628  1.00  0.00     0.167 HD
ATOM     61  C   UNL A   1      40.752  33.246  32.162  1.00  0.00     0.074 A 
ATOM     62  C   UNL A   1      39.721  34.262  32.190  1.00  0.00     0.031 C 
ATOM     63  C   UNL A   1      41.943  33.351  32.802  1.00  0.00     0.037 A 
BRANCH  50  64
ATOM     64  C   UNL A   1      45.577  28.397  32.211  1.00  0.00     0.057 A 
ATOM     65  C   UNL A   1      45.686  27.589  33.350  1.00  0.00     0.134 A 
ATOM     66  C   UNL A   1      46.707  28.507  31.389  1.00  0.00     0.134 A 
ATOM     67  F   UNL A   1      44.646  27.451  34.187  1.00  0.00    -0.206 F 
ATOM     68  C   UNL A   1      46.874  26.930  33.669  1.00  0.00     0.040 A 
ATOM     69  C   UNL A   1      47.892  27.830  31.682  1.00  0.00     0.040 A 
ATOM     70  F   UNL A   1      46.672  29.259  30.279  1.00  0.00    -0.206 F 
ATOM     71  C   UNL A   1      47.980  27.042  32.827  1.00  0.00     0.006 A 
ENDBRANCH  50  64
BRANCH  51  72
ATOM     72  C   UNL A   1      36.780  32.460  29.777  1.00  0.00     0.057 A 
ATOM     73  C   UNL A   1      36.652  33.386  28.735  1.00  0.00     0.134 A 
ATOM     74  C   UNL A   1      35.630  32.160  30.516  1.00  0.00     0.134 A 
ATOM     75  F   UNL A   1      37.722  33.728  28.001  1.00  0.00    -0.206 F 
ATOM     76  C   UNL A   1      35.438  34.015  28.460  1.00  0.00     0.040 A 
ATOM     77  C   UNL A   1      34.402  32.761  30.232  1.00  0.00     0.040 A 
ATOM     78  F   UNL A   1      35.681  31.274  31.521  1.00  0.00    -0.206 F 
ATOM     79  C   UNL A   1      34.306  33.700  29.209  1.00  0.00     0.006 A 
ENDBRANCH  51  72
BRANCH  63  80
ATOM     80  C   UNL A   1      42.214  34.628  33.545  1.00  0.00     0.057 A 
ATOM     81  C   UNL A   1      42.815  35.733  32.930  1.00  0.00     0.134 A 
ATOM     82  C   UNL A   1      41.829  34.763  34.884  1.00  0.00     0.134 A 
ATOM     83  F   UNL A   1      43.219  35.663  31.652  1.00  0.00    -0.206 F 
ATOM     84  C   UNL A   1      43.048  36.918  33.628  1.00  0.00     0.040 A 
ATOM     85  C   UNL A   1      42.029  35.953  35.584  1.00  0.00     0.040 A 
ATOM     86  F   UNL A   1      41.239  33.746  35.531  1.00  0.00    -0.206 F 
ATOM     87  C   UNL A   1      42.648  37.032  34.958  1.00  0.00     0.006 A 
ENDBRANCH  63  80
ENDBRANCH  37  38
ENDBRANCH  29  32
ENDBRANCH  27  28
ENDBRANCH   1  27
TORSDOF 13
ENDMDL
MODEL 3
REMARK VINA RESULT:     -12.3      3.694      8.828
REMARK SMILES CS(=O)(=O)c1ccc(N2N=C(C(=O)NCCCNC(=O)c3ccc(-c4c5nc(c(-c6c(F)cccc6F)c6ccc([nH]6)c(-c6c(F)cccc6F)c6nc(c(-c7c(F)cccc7F)c7ccc4[nH]7)C=C6)C=C5)cc3)C[C@H]2c2ccco2)cc1
REMARK SMILES IDX 16 1 15 2 14 3 12 4 13 5 11 7 9 8 10 9 76 10 75 11 8 12 5 13
REMARK SMILES IDX 6 14 83 15 7 16 82 17 2 18 1 19 3 20 4 21 77 22 78 23 81 24
REMARK SMILES IDX 79 25 80 26 17 27 18 28 19 29 20 31 21 32 22 33 74 34 23 35
REMARK SMILES IDX 73 36 24 37 25 38 26 39 67 40 27 41 72 42 66 43 68 44 28 45
REMARK SMILES IDX 71 46 65 47 64 48 29 50 55 51 38 52 54 53 39 54 42 55 53 56
REMARK SMILES IDX 69 57 40 58 41 59 52 61 70 62 43 63 30 64 31 65 36 66 32 67
REMARK SMILES IDX 33 68 35 69 37 70 34 71 56 72 57 73 62 74 58 75 59 76 61 77
REMARK SMILES IDX 63 78 60 79 44 80 45 81 50 82 46 83 47 84 49 85 51 86 48 87
REMARK H PARENT 14 6 18 30 68 49 42 60
REMARK Flexibility Score: inf
ROOT
ATOM      1  C   UNL A   1      35.162  23.103  26.583  1.00  0.00     0.042 C 
ENDROOT
BRANCH   1   2
ATOM      2  C   UNL A   1      34.057  22.836  25.571  1.00  0.00     0.118 C 
BRANCH   2   3
ATOM      3  N   UNL A   1      34.364  23.429  24.281  1.00  0.00    -0.351 N 
ATOM      4  C   UNL A   1      34.041  24.608  23.656  1.00  0.00     0.267 C 
ATOM      5  O   UNL A   1      34.403  24.744  22.490  1.00  0.00    -0.268 OA
ATOM      6  H   UNL A   1      34.939  22.853  23.727  1.00  0.00     0.163 HD
BRANCH   4   7
ATOM      7  C   UNL A   1      33.312  25.757  24.333  1.00  0.00     0.128 C 
ATOM      8  N   UNL A   1      32.120  27.511  24.513  1.00  0.00    -0.254 N 
ATOM      9  N   UNL A   1      32.448  26.484  23.687  1.00  0.00    -0.171 NA
ATOM     10  C   UNL A   1      32.641  27.378  25.876  1.00  0.00     0.180 C 
ATOM     11  C   UNL A   1      33.554  26.159  25.746  1.00  0.00     0.099 C 
BRANCH   8  12
ATOM     12  C   UNL A   1      31.131  28.418  24.163  1.00  0.00     0.060 A 
ATOM     13  C   UNL A   1      29.174  30.242  23.319  1.00  0.00     0.067 A 
ATOM     14  C   UNL A   1      30.165  30.655  24.213  1.00  0.00     0.022 A 
ATOM     15  C   UNL A   1      29.111  28.919  22.889  1.00  0.00     0.022 A 
ATOM     16  C   UNL A   1      31.134  29.736  24.635  1.00  0.00     0.029 A 
ATOM     17  C   UNL A   1      30.085  28.020  23.318  1.00  0.00     0.029 A 
BRANCH  13  18
ATOM     18  S   UNL A   1      27.954  31.395  22.741  1.00  0.00     0.175 S 
ATOM     19  C   UNL A   1      28.830  32.938  22.751  1.00  0.00     0.163 C 
ATOM     20  O   UNL A   1      26.903  31.464  23.741  1.00  0.00    -0.224 OA
ATOM     21  O   UNL A   1      27.653  31.065  21.364  1.00  0.00    -0.224 OA
ENDBRANCH  13  18
ENDBRANCH   8  12
BRANCH  10  22
ATOM     22  C   UNL A   1      33.350  28.559  26.478  1.00  0.00     0.128 A 
ATOM     23  C   UNL A   1      34.676  28.953  26.493  1.00  0.00     0.048 A 
ATOM     24  O   UNL A   1      32.604  29.473  27.171  1.00  0.00    -0.467 OA
ATOM     25  C   UNL A   1      34.738  30.146  27.254  1.00  0.00     0.042 A 
ATOM     26  C   UNL A   1      33.448  30.429  27.627  1.00  0.00     0.195 A 
ENDBRANCH  10  22
ENDBRANCH   4   7
ENDBRANCH   2   3
ENDBRANCH   1   2
BRANCH   1  27
ATOM     27  C   UNL A   1      36.473  23.515  25.927  1.00  0.00     0.118 C 
BRANCH  27  28
ATOM     28  N   UNL A   1      37.516  22.512  26.115  1.00  0.00    -0.352 N 
ATOM     29  C   UNL A   1      38.851  22.657  26.399  1.00  0.00     0.251 C 
ATOM     30  H   UNL A   1      37.213  21.579  26.023  1.00  0.00     0.163 HD
ATOM     31  O   UNL A   1      39.605  21.697  26.267  1.00  0.00    -0.269 OA
BRANCH  29  32
ATOM     32  C   UNL A   1      39.383  23.958  26.852  1.00  0.00     0.039 A 
ATOM     33  C   UNL A   1      39.940  24.828  25.910  1.00  0.00     0.014 A 
ATOM     34  C   UNL A   1      39.365  24.310  28.203  1.00  0.00     0.014 A 
ATOM     35  C   UNL A   1      40.414  26.076  26.317  1.00  0.00     0.010 A 
ATOM     36  C   UNL A   1      39.748  25.588  28.591  1.00  0.00     0.010 A 
ATOM     37  C   UNL A   1      40.285  26.481  27.655  1.00  0.00    -0.014 A 
BRANCH  37  38
ATOM     38  C   UNL A   1      40.711  27.833  28.098  1.00  0.00     0.031 A 
ATOM     39  C   UNL A   1      42.172  28.196  28.115  1.00  0.00     0.074 A 
ATOM     40  C   UNL A   1      39.789  28.704  28.553  1.00  0.00     0.049 A 
ATOM     41  N   UNL A   1      42.745  29.290  28.544  1.00  0.00    -0.248 NA
ATOM     42  C   UNL A   1      43.115  27.185  27.609  1.00  0.00     0.031 C 
ATOM     43  C   UNL A   1      38.349  28.451  28.632  1.00  0.00     0.029 A 
ATOM     44  N   UNL A   1      39.929  29.976  29.047  1.00  0.00    -0.354 N 
ATOM     45  C   UNL A   1      44.110  29.091  28.380  1.00  0.00     0.074 A 
ATOM     46  C   UNL A   1      44.284  27.753  27.860  1.00  0.00     0.031 C 
ATOM     47  C   UNL A   1      37.736  29.542  29.117  1.00  0.00     0.029 A 
ATOM     48  C   UNL A   1      38.741  30.553  29.426  1.00  0.00     0.049 A 
ATOM     49  H   UNL A   1      40.797  30.433  29.123  1.00  0.00     0.167 HD
ATOM     50  C   UNL A   1      45.125  29.955  28.618  1.00  0.00     0.037 A 
ATOM     51  C   UNL A   1      38.491  31.759  29.972  1.00  0.00     0.037 A 
ATOM     52  C   UNL A   1      44.945  31.298  29.105  1.00  0.00     0.049 A 
ATOM     53  C   UNL A   1      39.641  32.693  30.236  1.00  0.00     0.074 A 
ATOM     54  C   UNL A   1      45.903  32.274  29.311  1.00  0.00     0.029 A 
ATOM     55  N   UNL A   1      43.725  31.851  29.461  1.00  0.00    -0.354 N 
ATOM     56  N   UNL A   1      40.919  32.520  30.003  1.00  0.00    -0.248 NA
ATOM     57  C   UNL A   1      39.312  33.994  30.835  1.00  0.00     0.031 C 
ATOM     58  C   UNL A   1      45.269  33.401  29.843  1.00  0.00     0.029 A 
ATOM     59  C   UNL A   1      43.909  33.147  29.913  1.00  0.00     0.049 A 
ATOM     60  H   UNL A   1      42.855  31.391  29.402  1.00  0.00     0.167 HD
ATOM     61  C   UNL A   1      41.540  33.699  30.392  1.00  0.00     0.074 A 
ATOM     62  C   UNL A   1      40.496  34.586  30.862  1.00  0.00     0.031 C 
ATOM     63  C   UNL A   1      42.857  34.021  30.362  1.00  0.00     0.037 A 
BRANCH  50  64
ATOM     64  C   UNL A   1      46.525  29.481  28.355  1.00  0.00     0.057 A 
ATOM     65  C   UNL A   1      47.138  29.638  27.105  1.00  0.00     0.134 A 
ATOM     66  C   UNL A   1      47.290  28.911  29.380  1.00  0.00     0.134 A 
ATOM     67  F   UNL A   1      46.458  30.166  26.075  1.00  0.00    -0.206 F 
ATOM     68  C   UNL A   1      48.453  29.230  26.879  1.00  0.00     0.040 A 
ATOM     69  C   UNL A   1      48.616  28.524  29.175  1.00  0.00     0.040 A 
ATOM     70  F   UNL A   1      46.768  28.736  30.604  1.00  0.00    -0.206 F 
ATOM     71  C   UNL A   1      49.200  28.679  27.920  1.00  0.00     0.006 A 
ENDBRANCH  50  64
BRANCH  51  72
ATOM     72  C   UNL A   1      37.100  32.166  30.296  1.00  0.00     0.057 A 
ATOM     73  C   UNL A   1      36.313  32.852  29.363  1.00  0.00     0.134 A 
ATOM     74  C   UNL A   1      36.533  31.911  31.550  1.00  0.00     0.134 A 
ATOM     75  F   UNL A   1      36.806  33.141  28.148  1.00  0.00    -0.206 F 
ATOM     76  C   UNL A   1      35.029  33.300  29.674  1.00  0.00     0.040 A 
ATOM     77  C   UNL A   1      35.238  32.328  31.866  1.00  0.00     0.040 A 
ATOM     78  F   UNL A   1      37.228  31.249  32.487  1.00  0.00    -0.206 F 
ATOM     79  C   UNL A   1      34.487  33.034  30.930  1.00  0.00     0.006 A 
ENDBRANCH  51  72
BRANCH  63  80
ATOM     80  C   UNL A   1      43.237  35.404  30.805  1.00  0.00     0.057 A 
ATOM     81  C   UNL A   1      43.487  35.712  32.149  1.00  0.00     0.134 A 
ATOM     82  C   UNL A   1      43.394  36.432  29.866  1.00  0.00     0.134 A 
ATOM     83  F   UNL A   1      43.342  34.776  33.099  1.00  0.00    -0.206 F 
ATOM     84  C   UNL A   1      43.853  36.999  32.545  1.00  0.00     0.040 A 
ATOM     85  C   UNL A   1      43.789  37.715  30.248  1.00  0.00     0.040 A 
ATOM     86  F   UNL A   1      43.180  36.202  28.562  1.00  0.00    -0.206 F 
ATOM     87  C   UNL A   1      44.012  38.002  31.592  1.00  0.00     0.006 A 
ENDBRANCH  63  80
ENDBRANCH  37  38
ENDBRANCH  29  32
ENDBRANCH  27  28
ENDBRANCH   1  27
TORSDOF 13
ENDMDL
