MODEL 1
REMARK VINA RESULT:     -13.4      0.000      0.000
REMARK SMILES Cc1ccc2[nH]cc([C@@H](C(=O)NCCCNC(=O)c3ccc(-c4c5nc(c(-c6c(F)cccc6F)c6ccc([nH]6)c(-c6c(F)cccc6F)c6nc(c(-c7c(F)cccc7F)c7ccc4[nH]7)C=C6)C=C5)cc3)[NH+]3CCN(c4cccc(Cl)c4)CC3)c2c1
REMARK SMILES IDX 14 1 13 2 12 3 10 4 11 5 9 7 8 8 1 9 2 10 3 11 87 12 4 13
REMARK SMILES IDX 86 14 5 15 6 16 7 17 73 19 74 20 85 21 75 23 84 24 76 25
REMARK SMILES IDX 77 26 78 27 83 28 79 29 81 30 80 31 82 32 15 33 16 34 17 35
REMARK SMILES IDX 18 37 19 38 20 39 72 40 21 41 71 42 22 43 23 44 24 45 65 46
REMARK SMILES IDX 25 47 70 48 64 49 66 50 26 51 69 52 63 53 62 54 27 56 53 57
REMARK SMILES IDX 36 58 52 59 37 60 40 61 51 62 67 63 38 64 39 65 50 67 68 68
REMARK SMILES IDX 41 69 28 70 29 71 34 72 30 73 31 74 33 75 35 76 32 77 54 78
REMARK SMILES IDX 55 79 60 80 56 81 57 82 59 83 61 84 58 85 42 86 43 87 48 88
REMARK SMILES IDX 44 89 45 90 47 91 49 92 46 93
REMARK H PARENT 12 6 6 18 73 22 16 36 66 55 40 66
REMARK Flexibility Score: inf
ROOT
ATOM      1  C   UNL A   1      33.724  28.289  27.230  1.00  0.00     0.042 C 
ENDROOT
BRANCH   1   2
ATOM      2  C   UNL A   1      32.303  28.845  27.217  1.00  0.00     0.118 C 
BRANCH   2   3
ATOM      3  N   UNL A   1      31.296  27.804  27.148  1.00  0.00    -0.351 N 
ATOM      4  C   UNL A   1      31.086  26.840  26.192  1.00  0.00     0.283 C 
ATOM      5  O   UNL A   1      30.103  26.117  26.380  1.00  0.00    -0.268 OA
ATOM      6  H   UNL A   1      30.665  27.785  27.903  1.00  0.00     0.163 HD
BRANCH   4   7
ATOM      7  C   UNL A   1      32.087  26.694  24.998  1.00  0.00     0.307 C 
BRANCH   7   8
ATOM      8  C   UNL A   1      31.873  27.746  23.938  1.00  0.00     0.044 A 
ATOM      9  C   UNL A   1      26.785  28.167  23.399  1.00  0.00     0.044 C 
ATOM     10  C   UNL A   1      28.203  28.582  23.130  1.00  0.00    -0.050 A 
ATOM     11  C   UNL A   1      28.493  29.563  22.180  1.00  0.00     0.005 A 
ATOM     12  C   UNL A   1      29.253  27.942  23.811  1.00  0.00     0.014 A 
ATOM     13  C   UNL A   1      29.812  29.902  21.862  1.00  0.00     0.027 A 
ATOM     14  C   UNL A   1      30.596  28.245  23.490  1.00  0.00     0.009 A 
ATOM     15  C   UNL A   1      30.838  29.207  22.511  1.00  0.00     0.046 A 
ATOM     16  N   UNL A   1      32.199  29.282  22.344  1.00  0.00    -0.361 N 
ATOM     17  C   UNL A   1      32.822  28.354  23.134  1.00  0.00     0.094 A 
ATOM     18  H   UNL A   1      32.659  29.911  21.743  1.00  0.00     0.166 HD
ENDBRANCH   7   8
BRANCH   7  19
ATOM     19  N   UNL A   1      32.162  25.312  24.468  1.00  0.00    -0.318 N 
ATOM     20  C   UNL A   1      33.086  25.020  23.359  1.00  0.00     0.284 C 
ATOM     21  C   UNL A   1      32.243  24.253  25.490  1.00  0.00     0.284 C 
ATOM     22  H   UNL A   1      31.241  25.288  24.032  1.00  0.00     0.349 HD
ATOM     23  C   UNL A   1      34.517  24.561  23.716  1.00  0.00     0.178 C 
ATOM     24  C   UNL A   1      33.661  23.836  25.947  1.00  0.00     0.178 C 
ATOM     25  N   UNL A   1      34.540  23.570  24.798  1.00  0.00    -0.360 N 
BRANCH  25  26
ATOM     26  C   UNL A   1      35.784  23.027  25.120  1.00  0.00     0.038 A 
ATOM     27  C   UNL A   1      36.819  23.790  25.683  1.00  0.00     0.026 A 
ATOM     28  C   UNL A   1      36.019  21.670  24.877  1.00  0.00     0.046 A 
ATOM     29  C   UNL A   1      38.067  23.224  25.961  1.00  0.00     0.004 A 
ATOM     30  C   UNL A   1      37.265  21.106  25.148  1.00  0.00     0.043 A 
ATOM     31  C   UNL A   1      38.293  21.879  25.685  1.00  0.00     0.020 A 
ATOM     32  Cl  UNL A   1      37.543  19.442  24.808  1.00  0.00    -0.084 Cl
ENDBRANCH  25  26
ENDBRANCH   7  19
ENDBRANCH   4   7
ENDBRANCH   2   3
ENDBRANCH   1   2
BRANCH   1  33
ATOM     33  C   UNL A   1      34.815  29.348  27.140  1.00  0.00     0.118 C 
BRANCH  33  34
ATOM     34  N   UNL A   1      34.789  30.266  28.265  1.00  0.00    -0.352 N 
ATOM     35  C   UNL A   1      35.745  30.541  29.208  1.00  0.00     0.251 C 
ATOM     36  H   UNL A   1      33.951  30.773  28.366  1.00  0.00     0.163 HD
ATOM     37  O   UNL A   1      35.438  31.198  30.198  1.00  0.00    -0.269 OA
BRANCH  35  38
ATOM     38  C   UNL A   1      37.135  30.050  29.060  1.00  0.00     0.039 A 
ATOM     39  C   UNL A   1      37.721  30.097  27.791  1.00  0.00     0.014 A 
ATOM     40  C   UNL A   1      37.840  29.487  30.127  1.00  0.00     0.014 A 
ATOM     41  C   UNL A   1      39.018  29.617  27.603  1.00  0.00     0.010 A 
ATOM     42  C   UNL A   1      39.162  29.077  29.956  1.00  0.00     0.010 A 
ATOM     43  C   UNL A   1      39.760  29.123  28.689  1.00  0.00    -0.014 A 
BRANCH  43  44
ATOM     44  C   UNL A   1      41.154  28.651  28.494  1.00  0.00     0.031 A 
ATOM     45  C   UNL A   1      41.438  27.216  28.143  1.00  0.00     0.074 A 
ATOM     46  C   UNL A   1      42.173  29.516  28.663  1.00  0.00     0.049 A 
ATOM     47  N   UNL A   1      42.588  26.637  27.906  1.00  0.00    -0.248 NA
ATOM     48  C   UNL A   1      40.284  26.307  28.076  1.00  0.00     0.031 C 
ATOM     49  C   UNL A   1      42.034  30.916  29.068  1.00  0.00     0.029 A 
ATOM     50  N   UNL A   1      43.526  29.346  28.511  1.00  0.00    -0.354 N 
ATOM     51  C   UNL A   1      42.298  25.298  27.674  1.00  0.00     0.074 A 
ATOM     52  C   UNL A   1      40.870  25.140  27.851  1.00  0.00     0.031 C 
ATOM     53  C   UNL A   1      43.249  31.486  29.101  1.00  0.00     0.029 A 
ATOM     54  C   UNL A   1      44.252  30.488  28.741  1.00  0.00     0.049 A 
ATOM     55  H   UNL A   1      43.936  28.486  28.263  1.00  0.00     0.167 HD
ATOM     56  C   UNL A   1      43.140  24.296  27.324  1.00  0.00     0.037 A 
ATOM     57  C   UNL A   1      45.577  30.712  28.658  1.00  0.00     0.037 A 
ATOM     58  C   UNL A   1      44.555  24.461  27.121  1.00  0.00     0.049 A 
ATOM     59  C   UNL A   1      46.486  29.598  28.223  1.00  0.00     0.074 A 
ATOM     60  C   UNL A   1      45.481  23.524  26.697  1.00  0.00     0.029 A 
ATOM     61  N   UNL A   1      45.250  25.643  27.330  1.00  0.00    -0.354 N 
ATOM     62  N   UNL A   1      46.185  28.357  27.924  1.00  0.00    -0.248 NA
ATOM     63  C   UNL A   1      47.914  29.918  28.098  1.00  0.00     0.031 C 
ATOM     64  C   UNL A   1      46.743  24.130  26.685  1.00  0.00     0.029 A 
ATOM     65  C   UNL A   1      46.595  25.456  27.060  1.00  0.00     0.049 A 
ATOM     66  H   UNL A   1      44.845  26.491  27.626  1.00  0.00     0.167 HD
ATOM     67  C   UNL A   1      47.380  27.757  27.550  1.00  0.00     0.074 A 
ATOM     68  C   UNL A   1      48.408  28.773  27.648  1.00  0.00     0.031 C 
ATOM     69  C   UNL A   1      47.605  26.478  27.160  1.00  0.00     0.037 A 
BRANCH  56  70
ATOM     70  C   UNL A   1      42.546  22.931  27.133  1.00  0.00     0.057 A 
ATOM     71  C   UNL A   1      42.350  22.380  25.858  1.00  0.00     0.134 A 
ATOM     72  C   UNL A   1      42.188  22.144  28.236  1.00  0.00     0.134 A 
ATOM     73  F   UNL A   1      42.661  23.085  24.759  1.00  0.00    -0.206 F 
ATOM     74  C   UNL A   1      41.793  21.112  25.687  1.00  0.00     0.040 A 
ATOM     75  C   UNL A   1      41.656  20.863  28.077  1.00  0.00     0.040 A 
ATOM     76  F   UNL A   1      42.354  22.606  29.484  1.00  0.00    -0.206 F 
ATOM     77  C   UNL A   1      41.450  20.347  26.799  1.00  0.00     0.006 A 
ENDBRANCH  56  70
BRANCH  57  78
ATOM     78  C   UNL A   1      46.112  32.066  28.943  1.00  0.00     0.057 A 
ATOM     79  C   UNL A   1      46.126  33.058  27.957  1.00  0.00     0.134 A 
ATOM     80  C   UNL A   1      46.603  32.405  30.209  1.00  0.00     0.134 A 
ATOM     81  F   UNL A   1      45.683  32.787  26.721  1.00  0.00    -0.206 F 
ATOM     82  C   UNL A   1      46.622  34.337  28.215  1.00  0.00     0.040 A 
ATOM     83  C   UNL A   1      47.081  33.686  30.487  1.00  0.00     0.040 A 
ATOM     84  F   UNL A   1      46.604  31.500  31.200  1.00  0.00    -0.206 F 
ATOM     85  C   UNL A   1      47.095  34.655  29.486  1.00  0.00     0.006 A 
ENDBRANCH  57  78
BRANCH  69  86
ATOM     86  C   UNL A   1      49.011  26.118  26.781  1.00  0.00     0.057 A 
ATOM     87  C   UNL A   1      49.509  26.339  25.491  1.00  0.00     0.134 A 
ATOM     88  C   UNL A   1      49.886  25.568  27.727  1.00  0.00     0.134 A 
ATOM     89  F   UNL A   1      48.718  26.852  24.537  1.00  0.00    -0.206 F 
ATOM     90  C   UNL A   1      50.819  26.002  25.148  1.00  0.00     0.040 A 
ATOM     91  C   UNL A   1      51.205  25.249  27.403  1.00  0.00     0.040 A 
ATOM     92  F   UNL A   1      49.474  25.338  28.983  1.00  0.00    -0.206 F 
ATOM     93  C   UNL A   1      51.672  25.460  26.108  1.00  0.00     0.006 A 
ENDBRANCH  69  86
ENDBRANCH  43  44
ENDBRANCH  35  38
ENDBRANCH  33  34
ENDBRANCH   1  33
TORSDOF 13
ENDMDL
MODEL 2
REMARK VINA RESULT:     -13.4      5.437     10.188
REMARK SMILES Cc1ccc2[nH]cc([C@@H](C(=O)NCCCNC(=O)c3ccc(-c4c5nc(c(-c6c(F)cccc6F)c6ccc([nH]6)c(-c6c(F)cccc6F)c6nc(c(-c7c(F)cccc7F)c7ccc4[nH]7)C=C6)C=C5)cc3)[NH+]3CCN(c4cccc(Cl)c4)CC3)c2c1
REMARK SMILES IDX 14 1 13 2 12 3 10 4 11 5 9 7 8 8 1 9 2 10 3 11 87 12 4 13
REMARK SMILES IDX 86 14 5 15 6 16 7 17 73 19 74 20 85 21 75 23 84 24 76 25
REMARK SMILES IDX 77 26 78 27 83 28 79 29 81 30 80 31 82 32 15 33 16 34 17 35
REMARK SMILES IDX 18 37 19 38 20 39 72 40 21 41 71 42 22 43 23 44 24 45 65 46
REMARK SMILES IDX 25 47 70 48 64 49 66 50 26 51 69 52 63 53 62 54 27 56 53 57
REMARK SMILES IDX 36 58 52 59 37 60 40 61 51 62 67 63 38 64 39 65 50 67 68 68
REMARK SMILES IDX 41 69 28 70 29 71 34 72 30 73 31 74 33 75 35 76 32 77 54 78
REMARK SMILES IDX 55 79 60 80 56 81 57 82 59 83 61 84 58 85 42 86 43 87 48 88
REMARK SMILES IDX 44 89 45 90 47 91 49 92 46 93
REMARK H PARENT 12 6 6 18 73 22 16 36 66 55 40 66
REMARK Flexibility Score: inf
ROOT
ATOM      1  C   UNL A   1      36.841  23.410  25.284  1.00  0.00     0.042 C 
ENDROOT
BRANCH   1   2
ATOM      2  C   UNL A   1      35.379  23.838  25.371  1.00  0.00     0.118 C 
BRANCH   2   3
ATOM      3  N   UNL A   1      34.582  23.331  24.272  1.00  0.00    -0.351 N 
ATOM      4  C   UNL A   1      33.658  23.969  23.481  1.00  0.00     0.283 C 
ATOM      5  O   UNL A   1      33.092  23.255  22.648  1.00  0.00    -0.268 OA
ATOM      6  H   UNL A   1      34.725  22.380  24.059  1.00  0.00     0.163 HD
BRANCH   4   7
ATOM      7  C   UNL A   1      33.419  25.507  23.646  1.00  0.00     0.307 C 
BRANCH   7   8
ATOM      8  C   UNL A   1      32.517  25.826  24.813  1.00  0.00     0.044 A 
ATOM      9  C   UNL A   1      34.660  29.851  27.170  1.00  0.00     0.044 C 
ATOM     10  C   UNL A   1      33.564  28.847  26.956  1.00  0.00    -0.050 A 
ATOM     11  C   UNL A   1      32.480  28.774  27.834  1.00  0.00     0.005 A 
ATOM     12  C   UNL A   1      33.654  27.942  25.885  1.00  0.00     0.014 A 
ATOM     13  C   UNL A   1      31.494  27.793  27.692  1.00  0.00     0.027 A 
ATOM     14  C   UNL A   1      32.686  26.923  25.734  1.00  0.00     0.009 A 
ATOM     15  C   UNL A   1      31.640  26.867  26.654  1.00  0.00     0.046 A 
ATOM     16  N   UNL A   1      30.874  25.773  26.331  1.00  0.00    -0.361 N 
ATOM     17  C   UNL A   1      31.436  25.098  25.281  1.00  0.00     0.094 A 
ATOM     18  H   UNL A   1      30.042  25.514  26.788  1.00  0.00     0.166 HD
ENDBRANCH   7   8
BRANCH   7  19
ATOM     19  N   UNL A   1      33.026  26.174  22.382  1.00  0.00    -0.318 N 
ATOM     20  C   UNL A   1      31.630  26.077  21.927  1.00  0.00     0.284 C 
ATOM     21  C   UNL A   1      33.520  27.553  22.222  1.00  0.00     0.284 C 
ATOM     22  H   UNL A   1      33.534  25.559  21.746  1.00  0.00     0.349 HD
ATOM     23  C   UNL A   1      30.647  27.181  22.376  1.00  0.00     0.178 C 
ATOM     24  C   UNL A   1      32.606  28.684  22.753  1.00  0.00     0.178 C 
ATOM     25  N   UNL A   1      31.224  28.526  22.275  1.00  0.00    -0.360 N 
BRANCH  25  26
ATOM     26  C   UNL A   1      30.374  29.594  22.569  1.00  0.00     0.038 A 
ATOM     27  C   UNL A   1      30.192  30.078  23.874  1.00  0.00     0.026 A 
ATOM     28  C   UNL A   1      29.670  30.210  21.529  1.00  0.00     0.046 A 
ATOM     29  C   UNL A   1      29.306  31.125  24.140  1.00  0.00     0.004 A 
ATOM     30  C   UNL A   1      28.781  31.251  21.796  1.00  0.00     0.043 A 
ATOM     31  C   UNL A   1      28.591  31.708  23.098  1.00  0.00     0.020 A 
ATOM     32  Cl  UNL A   1      27.899  31.972  20.505  1.00  0.00    -0.084 Cl
ENDBRANCH  25  26
ENDBRANCH   7  19
ENDBRANCH   4   7
ENDBRANCH   2   3
ENDBRANCH   1   2
BRANCH   1  33
ATOM     33  C   UNL A   1      37.754  24.078  26.304  1.00  0.00     0.118 C 
BRANCH  33  34
ATOM     34  N   UNL A   1      39.157  23.787  26.064  1.00  0.00    -0.352 N 
ATOM     35  C   UNL A   1      40.285  24.433  26.502  1.00  0.00     0.251 C 
ATOM     36  H   UNL A   1      39.325  23.000  25.498  1.00  0.00     0.163 HD
ATOM     37  O   UNL A   1      41.370  24.143  26.007  1.00  0.00    -0.269 OA
BRANCH  35  38
ATOM     38  C   UNL A   1      40.214  25.479  27.548  1.00  0.00     0.039 A 
ATOM     39  C   UNL A   1      41.088  26.566  27.457  1.00  0.00     0.014 A 
ATOM     40  C   UNL A   1      39.353  25.373  28.645  1.00  0.00     0.014 A 
ATOM     41  C   UNL A   1      41.074  27.559  28.438  1.00  0.00     0.010 A 
ATOM     42  C   UNL A   1      39.286  26.402  29.584  1.00  0.00     0.010 A 
ATOM     43  C   UNL A   1      40.156  27.498  29.500  1.00  0.00    -0.014 A 
BRANCH  43  44
ATOM     44  C   UNL A   1      40.114  28.575  30.520  1.00  0.00     0.031 A 
ATOM     45  C   UNL A   1      39.112  29.693  30.416  1.00  0.00     0.074 A 
ATOM     46  C   UNL A   1      41.002  28.560  31.532  1.00  0.00     0.049 A 
ATOM     47  N   UNL A   1      38.912  30.698  31.231  1.00  0.00    -0.248 NA
ATOM     48  C   UNL A   1      38.243  29.699  29.231  1.00  0.00     0.031 C 
ATOM     49  C   UNL A   1      42.065  27.569  31.709  1.00  0.00     0.029 A 
ATOM     50  N   UNL A   1      41.151  29.403  32.605  1.00  0.00    -0.354 N 
ATOM     51  C   UNL A   1      37.904  31.459  30.652  1.00  0.00     0.074 A 
ATOM     52  C   UNL A   1      37.572  30.830  29.392  1.00  0.00     0.031 C 
ATOM     53  C   UNL A   1      42.735  27.840  32.840  1.00  0.00     0.029 A 
ATOM     54  C   UNL A   1      42.164  29.035  33.456  1.00  0.00     0.049 A 
ATOM     55  H   UNL A   1      40.586  30.195  32.751  1.00  0.00     0.167 HD
ATOM     56  C   UNL A   1      37.295  32.569  31.136  1.00  0.00     0.037 A 
ATOM     57  C   UNL A   1      42.579  29.588  34.611  1.00  0.00     0.037 A 
ATOM     58  C   UNL A   1      37.608  33.178  32.402  1.00  0.00     0.049 A 
ATOM     59  C   UNL A   1      41.859  30.791  35.150  1.00  0.00     0.074 A 
ATOM     60  C   UNL A   1      37.000  34.262  33.013  1.00  0.00     0.029 A 
ATOM     61  N   UNL A   1      38.618  32.755  33.252  1.00  0.00    -0.354 N 
ATOM     62  N   UNL A   1      40.850  31.450  34.633  1.00  0.00    -0.248 NA
ATOM     63  C   UNL A   1      42.323  31.317  36.441  1.00  0.00     0.031 C 
ATOM     64  C   UNL A   1      37.667  34.517  34.216  1.00  0.00     0.029 A 
ATOM     65  C   UNL A   1      38.662  33.565  34.375  1.00  0.00     0.049 A 
ATOM     66  H   UNL A   1      39.215  31.991  33.084  1.00  0.00     0.167 HD
ATOM     67  C   UNL A   1      40.542  32.450  35.546  1.00  0.00     0.074 A 
ATOM     68  C   UNL A   1      41.463  32.303  36.655  1.00  0.00     0.031 C 
ATOM     69  C   UNL A   1      39.583  33.405  35.472  1.00  0.00     0.037 A 
BRANCH  56  70
ATOM     70  C   UNL A   1      36.223  33.193  30.290  1.00  0.00     0.057 A 
ATOM     71  C   UNL A   1      34.862  33.058  30.601  1.00  0.00     0.134 A 
ATOM     72  C   UNL A   1      36.554  33.959  29.164  1.00  0.00     0.134 A 
ATOM     73  F   UNL A   1      34.477  32.328  31.658  1.00  0.00    -0.206 F 
ATOM     74  C   UNL A   1      33.870  33.636  29.808  1.00  0.00     0.040 A 
ATOM     75  C   UNL A   1      35.571  34.565  28.379  1.00  0.00     0.040 A 
ATOM     76  F   UNL A   1      37.836  34.134  28.813  1.00  0.00    -0.206 F 
ATOM     77  C   UNL A   1      34.224  34.398  28.696  1.00  0.00     0.006 A 
ENDBRANCH  56  70
BRANCH  57  78
ATOM     78  C   UNL A   1      43.702  28.972  35.359  1.00  0.00     0.057 A 
ATOM     79  C   UNL A   1      43.473  27.984  36.321  1.00  0.00     0.134 A 
ATOM     80  C   UNL A   1      45.031  29.342  35.115  1.00  0.00     0.134 A 
ATOM     81  F   UNL A   1      42.219  27.600  36.607  1.00  0.00    -0.206 F 
ATOM     82  C   UNL A   1      44.521  27.393  37.027  1.00  0.00     0.040 A 
ATOM     83  C   UNL A   1      46.091  28.744  35.798  1.00  0.00     0.040 A 
ATOM     84  F   UNL A   1      45.316  30.275  34.195  1.00  0.00    -0.206 F 
ATOM     85  C   UNL A   1      45.836  27.769  36.760  1.00  0.00     0.006 A 
ENDBRANCH  57  78
BRANCH  69  86
ATOM     86  C   UNL A   1      39.461  34.342  36.636  1.00  0.00     0.057 A 
ATOM     87  C   UNL A   1      38.728  34.007  37.781  1.00  0.00     0.134 A 
ATOM     88  C   UNL A   1      40.108  35.584  36.622  1.00  0.00     0.134 A 
ATOM     89  F   UNL A   1      38.074  32.837  37.851  1.00  0.00    -0.206 F 
ATOM     90  C   UNL A   1      38.622  34.885  38.861  1.00  0.00     0.040 A 
ATOM     91  C   UNL A   1      40.030  36.460  37.705  1.00  0.00     0.040 A 
ATOM     92  F   UNL A   1      40.834  35.963  35.558  1.00  0.00    -0.206 F 
ATOM     93  C   UNL A   1      39.278  36.114  38.826  1.00  0.00     0.006 A 
ENDBRANCH  69  86
ENDBRANCH  43  44
ENDBRANCH  35  38
ENDBRANCH  33  34
ENDBRANCH   1  33
TORSDOF 13
ENDMDL
MODEL 3
REMARK VINA RESULT:     -13.3      4.232      8.604
REMARK SMILES Cc1ccc2[nH]cc([C@@H](C(=O)NCCCNC(=O)c3ccc(-c4c5nc(c(-c6c(F)cccc6F)c6ccc([nH]6)c(-c6c(F)cccc6F)c6nc(c(-c7c(F)cccc7F)c7ccc4[nH]7)C=C6)C=C5)cc3)[NH+]3CCN(c4cccc(Cl)c4)CC3)c2c1
REMARK SMILES IDX 14 1 13 2 12 3 10 4 11 5 9 7 8 8 1 9 2 10 3 11 87 12 4 13
REMARK SMILES IDX 86 14 5 15 6 16 7 17 73 19 74 20 85 21 75 23 84 24 76 25
REMARK SMILES IDX 77 26 78 27 83 28 79 29 81 30 80 31 82 32 15 33 16 34 17 35
REMARK SMILES IDX 18 37 19 38 20 39 72 40 21 41 71 42 22 43 23 44 24 45 65 46
REMARK SMILES IDX 25 47 70 48 64 49 66 50 26 51 69 52 63 53 62 54 27 56 53 57
REMARK SMILES IDX 36 58 52 59 37 60 40 61 51 62 67 63 38 64 39 65 50 67 68 68
REMARK SMILES IDX 41 69 28 70 29 71 34 72 30 73 31 74 33 75 35 76 32 77 54 78
REMARK SMILES IDX 55 79 60 80 56 81 57 82 59 83 61 84 58 85 42 86 43 87 48 88
REMARK SMILES IDX 44 89 45 90 47 91 49 92 46 93
REMARK H PARENT 12 6 6 18 73 22 16 36 66 55 40 66
REMARK Flexibility Score: inf
ROOT
ATOM      1  C   UNL A   1      32.770  28.091  25.742  1.00  0.00     0.042 C 
ENDROOT
BRANCH   1   2
ATOM      2  C   UNL A   1      33.663  26.854  25.785  1.00  0.00     0.118 C 
BRANCH   2   3
ATOM      3  N   UNL A   1      33.918  26.302  24.469  1.00  0.00    -0.351 N 
ATOM      4  C   UNL A   1      33.907  24.998  24.040  1.00  0.00     0.283 C 
ATOM      5  O   UNL A   1      34.221  24.829  22.858  1.00  0.00    -0.268 OA
ATOM      6  H   UNL A   1      34.132  26.967  23.775  1.00  0.00     0.163 HD
BRANCH   4   7
ATOM      7  C   UNL A   1      33.475  23.858  25.020  1.00  0.00     0.307 C 
BRANCH   7   8
ATOM      8  C   UNL A   1      34.412  22.676  24.976  1.00  0.00     0.044 A 
ATOM      9  C   UNL A   1      38.989  24.472  26.453  1.00  0.00     0.044 C 
ATOM     10  C   UNL A   1      38.036  23.377  26.069  1.00  0.00    -0.050 A 
ATOM     11  C   UNL A   1      38.485  22.065  25.902  1.00  0.00     0.005 A 
ATOM     12  C   UNL A   1      36.686  23.685  25.832  1.00  0.00     0.014 A 
ATOM     13  C   UNL A   1      37.625  21.051  25.468  1.00  0.00     0.027 A 
ATOM     14  C   UNL A   1      35.801  22.686  25.366  1.00  0.00     0.009 A 
ATOM     15  C   UNL A   1      36.301  21.398  25.181  1.00  0.00     0.046 A 
ATOM     16  N   UNL A   1      35.276  20.634  24.678  1.00  0.00    -0.361 N 
ATOM     17  C   UNL A   1      34.166  21.409  24.476  1.00  0.00     0.094 A 
ATOM     18  H   UNL A   1      35.333  19.669  24.491  1.00  0.00     0.166 HD
ENDBRANCH   7   8
BRANCH   7  19
ATOM     19  N   UNL A   1      32.043  23.495  24.895  1.00  0.00    -0.318 N 
ATOM     20  C   UNL A   1      31.081  24.034  25.870  1.00  0.00     0.284 C 
ATOM     21  C   UNL A   1      31.491  23.585  23.532  1.00  0.00     0.284 C 
ATOM     22  H   UNL A   1      32.133  22.513  25.157  1.00  0.00     0.349 HD
ATOM     23  C   UNL A   1      30.385  25.371  25.532  1.00  0.00     0.178 C 
ATOM     24  C   UNL A   1      30.875  24.943  23.120  1.00  0.00     0.178 C 
ATOM     25  N   UNL A   1      29.933  25.436  24.138  1.00  0.00    -0.360 N 
BRANCH  25  26
ATOM     26  C   UNL A   1      29.207  26.570  23.769  1.00  0.00     0.038 A 
ATOM     27  C   UNL A   1      27.825  26.684  23.981  1.00  0.00     0.026 A 
ATOM     28  C   UNL A   1      29.875  27.639  23.163  1.00  0.00     0.046 A 
ATOM     29  C   UNL A   1      27.120  27.818  23.567  1.00  0.00     0.004 A 
ATOM     30  C   UNL A   1      29.172  28.768  22.744  1.00  0.00     0.043 A 
ATOM     31  C   UNL A   1      27.796  28.860  22.939  1.00  0.00     0.020 A 
ATOM     32  Cl  UNL A   1      30.010  30.057  21.970  1.00  0.00    -0.084 Cl
ENDBRANCH  25  26
ENDBRANCH   7  19
ENDBRANCH   4   7
ENDBRANCH   2   3
ENDBRANCH   1   2
BRANCH   1  33
ATOM     33  C   UNL A   1      33.449  29.338  25.193  1.00  0.00     0.118 C 
BRANCH  33  34
ATOM     34  N   UNL A   1      32.883  30.561  25.737  1.00  0.00    -0.352 N 
ATOM     35  C   UNL A   1      33.235  31.284  26.847  1.00  0.00     0.251 C 
ATOM     36  H   UNL A   1      32.127  30.930  25.226  1.00  0.00     0.163 HD
ATOM     37  O   UNL A   1      32.488  32.173  27.244  1.00  0.00    -0.269 OA
BRANCH  35  38
ATOM     38  C   UNL A   1      34.491  31.002  27.582  1.00  0.00     0.039 A 
ATOM     39  C   UNL A   1      34.639  29.748  28.182  1.00  0.00     0.014 A 
ATOM     40  C   UNL A   1      35.487  31.970  27.743  1.00  0.00     0.014 A 
ATOM     41  C   UNL A   1      35.795  29.454  28.907  1.00  0.00     0.010 A 
ATOM     42  C   UNL A   1      36.673  31.650  28.403  1.00  0.00     0.010 A 
ATOM     43  C   UNL A   1      36.833  30.395  29.006  1.00  0.00    -0.014 A 
BRANCH  43  44
ATOM     44  C   UNL A   1      38.079  30.065  29.743  1.00  0.00     0.031 A 
ATOM     45  C   UNL A   1      38.305  30.581  31.139  1.00  0.00     0.074 A 
ATOM     46  C   UNL A   1      39.024  29.319  29.141  1.00  0.00     0.049 A 
ATOM     47  N   UNL A   1      39.317  30.367  31.942  1.00  0.00    -0.248 NA
ATOM     48  C   UNL A   1      37.276  31.472  31.693  1.00  0.00     0.031 C 
ATOM     49  C   UNL A   1      38.954  28.814  27.769  1.00  0.00     0.029 A 
ATOM     50  N   UNL A   1      40.228  28.852  29.607  1.00  0.00    -0.354 N 
ATOM     51  C   UNL A   1      39.052  31.106  33.089  1.00  0.00     0.074 A 
ATOM     52  C   UNL A   1      37.812  31.815  32.856  1.00  0.00     0.031 C 
ATOM     53  C   UNL A   1      40.049  28.080  27.514  1.00  0.00     0.029 A 
ATOM     54  C   UNL A   1      40.908  28.081  28.696  1.00  0.00     0.049 A 
ATOM     55  H   UNL A   1      40.571  29.051  30.507  1.00  0.00     0.167 HD
ATOM     56  C   UNL A   1      39.765  31.172  34.239  1.00  0.00     0.037 A 
ATOM     57  C   UNL A   1      42.084  27.436  28.803  1.00  0.00     0.037 A 
ATOM     58  C   UNL A   1      40.984  30.445  34.479  1.00  0.00     0.049 A 
ATOM     59  C   UNL A   1      42.834  27.485  30.103  1.00  0.00     0.074 A 
ATOM     60  C   UNL A   1      41.742  30.389  35.636  1.00  0.00     0.029 A 
ATOM     61  N   UNL A   1      41.624  29.647  33.543  1.00  0.00    -0.354 N 
ATOM     62  N   UNL A   1      42.527  28.120  31.210  1.00  0.00    -0.248 NA
ATOM     63  C   UNL A   1      44.083  26.716  30.177  1.00  0.00     0.031 C 
ATOM     64  C   UNL A   1      42.861  29.586  35.387  1.00  0.00     0.029 A 
ATOM     65  C   UNL A   1      42.776  29.106  34.089  1.00  0.00     0.049 A 
ATOM     66  H   UNL A   1      41.305  29.486  32.625  1.00  0.00     0.167 HD
ATOM     67  C   UNL A   1      43.530  27.805  32.117  1.00  0.00     0.074 A 
ATOM     68  C   UNL A   1      44.447  26.914  31.437  1.00  0.00     0.031 C 
ATOM     69  C   UNL A   1      43.678  28.219  33.400  1.00  0.00     0.037 A 
BRANCH  56  70
ATOM     70  C   UNL A   1      39.237  32.059  35.329  1.00  0.00     0.057 A 
ATOM     71  C   UNL A   1      38.376  31.577  36.325  1.00  0.00     0.134 A 
ATOM     72  C   UNL A   1      39.614  33.407  35.400  1.00  0.00     0.134 A 
ATOM     73  F   UNL A   1      37.968  30.299  36.308  1.00  0.00    -0.206 F 
ATOM     74  C   UNL A   1      37.885  32.408  37.333  1.00  0.00     0.040 A 
ATOM     75  C   UNL A   1      39.151  34.241  36.420  1.00  0.00     0.040 A 
ATOM     76  F   UNL A   1      40.440  33.933  34.484  1.00  0.00    -0.206 F 
ATOM     77  C   UNL A   1      38.278  33.744  37.385  1.00  0.00     0.006 A 
ENDBRANCH  56  70
BRANCH  57  78
ATOM     78  C   UNL A   1      42.594  26.643  27.658  1.00  0.00     0.057 A 
ATOM     79  C   UNL A   1      43.336  27.245  26.637  1.00  0.00     0.134 A 
ATOM     80  C   UNL A   1      42.370  25.264  27.568  1.00  0.00     0.134 A 
ATOM     81  F   UNL A   1      43.569  28.566  26.662  1.00  0.00    -0.206 F 
ATOM     82  C   UNL A   1      43.826  26.509  25.558  1.00  0.00     0.040 A 
ATOM     83  C   UNL A   1      42.873  24.511  26.506  1.00  0.00     0.040 A 
ATOM     84  F   UNL A   1      41.676  24.626  28.522  1.00  0.00    -0.206 F 
ATOM     85  C   UNL A   1      43.600  25.136  25.494  1.00  0.00     0.006 A 
ENDBRANCH  57  78
BRANCH  69  86
ATOM     86  C   UNL A   1      44.857  27.685  34.158  1.00  0.00     0.057 A 
ATOM     87  C   UNL A   1      46.082  28.361  34.192  1.00  0.00     0.134 A 
ATOM     88  C   UNL A   1      44.755  26.492  34.885  1.00  0.00     0.134 A 
ATOM     89  F   UNL A   1      46.247  29.503  33.506  1.00  0.00    -0.206 F 
ATOM     90  C   UNL A   1      47.173  27.858  34.902  1.00  0.00     0.040 A 
ATOM     91  C   UNL A   1      45.831  25.990  35.618  1.00  0.00     0.040 A 
ATOM     92  F   UNL A   1      43.606  25.799  34.901  1.00  0.00    -0.206 F 
ATOM     93  C   UNL A   1      47.047  26.671  35.622  1.00  0.00     0.006 A 
ENDBRANCH  69  86
ENDBRANCH  43  44
ENDBRANCH  35  38
ENDBRANCH  33  34
ENDBRANCH   1  33
TORSDOF 13
ENDMDL
