MODEL 1
REMARK VINA RESULT:     -12.3      0.000      0.000
REMARK SMILES O=C(NCc1ccc(C(=O)NCCCNC(=O)c2ccc(-c3c4nc(c(-c5c(F)cccc5F)c5ccc([nH]5)c(-c5c(F)cccc5F)c5nc(c(-c6c(F)cccc6F)c6ccc3[nH]6)C=C5)C=C4)cc2)cc1)Nc1ccccc1Br
REMARK SMILES IDX 12 1 11 2 9 3 10 4 8 6 5 7 6 8 73 9 7 10 72 11 4 12 3 13
REMARK SMILES IDX 1 14 2 15 74 16 75 19 76 20 80 21 77 22 79 23 81 24 78 25
REMARK SMILES IDX 13 26 14 27 15 28 16 29 17 31 18 32 19 33 71 34 20 35 70 36
REMARK SMILES IDX 21 37 22 38 23 39 64 40 24 41 69 42 63 43 65 44 25 45 68 46
REMARK SMILES IDX 62 47 61 48 26 50 52 51 35 52 51 53 36 54 39 55 50 56 66 57
REMARK SMILES IDX 37 58 38 59 49 61 67 62 40 63 27 64 28 65 33 66 29 67 30 68
REMARK SMILES IDX 32 69 34 70 31 71 53 72 54 73 59 74 55 75 56 76 58 77 60 78
REMARK SMILES IDX 57 79 41 80 42 81 47 82 43 83 44 84 46 85 48 86 45 87
REMARK H PARENT 11 5 3 17 74 18 15 30 65 49 39 60
REMARK Flexibility Score: inf
ROOT
ATOM      1  C   UNL A   1      36.105  20.301  25.004  1.00  0.00     0.118 C 
ENDROOT
BRANCH   1   2
ATOM      2  N   UNL A   1      35.144  19.214  25.026  1.00  0.00    -0.352 N 
ATOM      3  C   UNL A   1      33.806  19.171  24.729  1.00  0.00     0.251 C 
ATOM      4  O   UNL A   1      33.251  18.073  24.737  1.00  0.00    -0.269 OA
ATOM      5  H   UNL A   1      35.521  18.349  25.304  1.00  0.00     0.163 HD
BRANCH   3   6
ATOM      6  C   UNL A   1      33.020  20.375  24.351  1.00  0.00     0.039 A 
ATOM      7  C   UNL A   1      31.511  22.695  23.802  1.00  0.00    -0.029 A 
ATOM      8  C   UNL A   1      31.762  22.307  25.125  1.00  0.00     0.006 A 
ATOM      9  C   UNL A   1      32.069  21.943  22.761  1.00  0.00     0.006 A 
ATOM     10  C   UNL A   1      32.508  21.157  25.395  1.00  0.00     0.014 A 
ATOM     11  C   UNL A   1      32.828  20.799  23.034  1.00  0.00     0.014 A 
BRANCH   7  12
ATOM     12  C   UNL A   1      30.692  23.923  23.509  1.00  0.00     0.153 C 
BRANCH  12  13
ATOM     13  N   UNL A   1      30.098  24.457  24.713  1.00  0.00    -0.334 N 
ATOM     14  O   UNL A   1      29.715  25.811  26.428  1.00  0.00    -0.248 OA
ATOM     15  C   UNL A   1      30.336  25.612  25.389  1.00  0.00     0.319 C 
ATOM     16  N   UNL A   1      31.209  26.487  24.806  1.00  0.00    -0.307 N 
ATOM     17  H   UNL A   1      29.402  23.886  25.113  1.00  0.00     0.165 HD
ATOM     18  H   UNL A   1      31.502  26.288  23.887  1.00  0.00     0.171 HD
BRANCH  16  19
ATOM     19  C   UNL A   1      31.727  27.656  25.411  1.00  0.00     0.057 A 
ATOM     20  C   UNL A   1      32.528  27.444  26.547  1.00  0.00     0.027 A 
ATOM     21  C   UNL A   1      31.493  28.978  24.994  1.00  0.00     0.041 A 
ATOM     22  C   UNL A   1      33.155  28.510  27.197  1.00  0.00     0.002 A 
ATOM     23  C   UNL A   1      32.134  30.042  25.645  1.00  0.00     0.018 A 
ATOM     24  Br  UNL A   1      30.161  29.476  23.727  1.00  0.00    -0.049 Br
ATOM     25  C   UNL A   1      32.974  29.809  26.733  1.00  0.00     0.001 A 
ENDBRANCH  16  19
ENDBRANCH  12  13
ENDBRANCH   7  12
ENDBRANCH   3   6
ENDBRANCH   1   2
BRANCH   1  26
ATOM     26  C   UNL A   1      37.506  19.800  24.652  1.00  0.00     0.042 C 
BRANCH  26  27
ATOM     27  C   UNL A   1      38.596  20.302  25.596  1.00  0.00     0.118 C 
BRANCH  27  28
ATOM     28  N   UNL A   1      39.705  19.367  25.703  1.00  0.00    -0.352 N 
ATOM     29  C   UNL A   1      41.014  19.587  26.050  1.00  0.00     0.251 C 
ATOM     30  H   UNL A   1      39.481  18.430  25.494  1.00  0.00     0.163 HD
ATOM     31  O   UNL A   1      41.841  18.694  25.883  1.00  0.00    -0.269 OA
BRANCH  29  32
ATOM     32  C   UNL A   1      41.447  20.887  26.610  1.00  0.00     0.039 A 
ATOM     33  C   UNL A   1      41.930  21.866  25.734  1.00  0.00     0.014 A 
ATOM     34  C   UNL A   1      41.439  21.129  27.987  1.00  0.00     0.014 A 
ATOM     35  C   UNL A   1      42.359  23.099  26.231  1.00  0.00     0.010 A 
ATOM     36  C   UNL A   1      41.811  22.381  28.477  1.00  0.00     0.010 A 
ATOM     37  C   UNL A   1      42.280  23.375  27.605  1.00  0.00    -0.014 A 
BRANCH  37  38
ATOM     38  C   UNL A   1      42.691  24.696  28.147  1.00  0.00     0.031 A 
ATOM     39  C   UNL A   1      41.666  25.769  28.388  1.00  0.00     0.074 A 
ATOM     40  C   UNL A   1      43.995  24.949  28.365  1.00  0.00     0.049 A 
ATOM     41  N   UNL A   1      41.840  27.004  28.783  1.00  0.00    -0.248 NA
ATOM     42  C   UNL A   1      40.263  25.413  28.130  1.00  0.00     0.031 C 
ATOM     43  C   UNL A   1      45.090  24.006  28.133  1.00  0.00     0.029 A 
ATOM     44  N   UNL A   1      44.622  26.082  28.819  1.00  0.00    -0.354 N 
ATOM     45  C   UNL A   1      40.575  27.579  28.801  1.00  0.00     0.074 A 
ATOM     46  C   UNL A   1      39.647  26.567  28.341  1.00  0.00     0.031 C 
ATOM     47  C   UNL A   1      46.252  24.594  28.458  1.00  0.00     0.029 A 
ATOM     48  C   UNL A   1      45.988  25.964  28.890  1.00  0.00     0.049 A 
ATOM     49  H   UNL A   1      44.138  26.902  29.070  1.00  0.00     0.167 HD
ATOM     50  C   UNL A   1      40.217  28.828  29.181  1.00  0.00     0.037 A 
ATOM     51  C   UNL A   1      46.924  26.860  29.254  1.00  0.00     0.037 A 
ATOM     52  C   UNL A   1      41.135  29.824  29.667  1.00  0.00     0.049 A 
ATOM     53  C   UNL A   1      46.500  28.237  29.681  1.00  0.00     0.074 A 
ATOM     54  C   UNL A   1      40.860  31.098  30.134  1.00  0.00     0.029 A 
ATOM     55  N   UNL A   1      42.510  29.656  29.748  1.00  0.00    -0.354 N 
ATOM     56  N   UNL A   1      45.294  28.746  29.748  1.00  0.00    -0.248 NA
ATOM     57  C   UNL A   1      47.567  29.161  30.091  1.00  0.00     0.031 C 
ATOM     58  C   UNL A   1      42.072  31.712  30.469  1.00  0.00     0.029 A 
ATOM     59  C   UNL A   1      43.098  30.808  30.244  1.00  0.00     0.049 A 
ATOM     60  H   UNL A   1      42.996  28.839  29.492  1.00  0.00     0.167 HD
ATOM     61  C   UNL A   1      45.454  30.040  30.227  1.00  0.00     0.074 A 
ATOM     62  C   UNL A   1      46.873  30.233  30.447  1.00  0.00     0.031 C 
ATOM     63  C   UNL A   1      44.510  30.981  30.463  1.00  0.00     0.037 A 
BRANCH  50  64
ATOM     64  C   UNL A   1      38.763  29.188  29.089  1.00  0.00     0.057 A 
ATOM     65  C   UNL A   1      38.182  29.600  27.884  1.00  0.00     0.134 A 
ATOM     66  C   UNL A   1      37.929  29.090  30.210  1.00  0.00     0.134 A 
ATOM     67  F   UNL A   1      38.928  29.726  26.776  1.00  0.00    -0.206 F 
ATOM     68  C   UNL A   1      36.826  29.927  27.801  1.00  0.00     0.040 A 
ATOM     69  C   UNL A   1      36.568  29.391  30.134  1.00  0.00     0.040 A 
ATOM     70  F   UNL A   1      38.422  28.696  31.393  1.00  0.00    -0.206 F 
ATOM     71  C   UNL A   1      36.015  29.815  28.928  1.00  0.00     0.006 A 
ENDBRANCH  50  64
BRANCH  51  72
ATOM     72  C   UNL A   1      48.356  26.475  29.252  1.00  0.00     0.057 A 
ATOM     73  C   UNL A   1      48.942  25.875  30.372  1.00  0.00     0.134 A 
ATOM     74  C   UNL A   1      49.172  26.697  28.135  1.00  0.00     0.134 A 
ATOM     75  F   UNL A   1      48.214  25.656  31.477  1.00  0.00    -0.206 F 
ATOM     76  C   UNL A   1      50.291  25.520  30.389  1.00  0.00     0.040 A 
ATOM     77  C   UNL A   1      50.517  26.327  28.131  1.00  0.00     0.040 A 
ATOM     78  F   UNL A   1      48.667  27.261  27.030  1.00  0.00    -0.206 F 
ATOM     79  C   UNL A   1      51.083  25.742  29.263  1.00  0.00     0.006 A 
ENDBRANCH  51  72
BRANCH  63  80
ATOM     80  C   UNL A   1      44.978  32.295  31.015  1.00  0.00     0.057 A 
ATOM     81  C   UNL A   1      45.313  33.367  30.179  1.00  0.00     0.134 A 
ATOM     82  C   UNL A   1      45.059  32.500  32.397  1.00  0.00     0.134 A 
ATOM     83  F   UNL A   1      45.269  33.229  28.845  1.00  0.00    -0.206 F 
ATOM     84  C   UNL A   1      45.732  34.592  30.699  1.00  0.00     0.040 A 
ATOM     85  C   UNL A   1      45.455  33.727  32.930  1.00  0.00     0.040 A 
ATOM     86  F   UNL A   1      44.745  31.514  33.251  1.00  0.00    -0.206 F 
ATOM     87  C   UNL A   1      45.798  34.776  32.079  1.00  0.00     0.006 A 
ENDBRANCH  63  80
ENDBRANCH  37  38
ENDBRANCH  29  32
ENDBRANCH  27  28
ENDBRANCH  26  27
ENDBRANCH   1  26
TORSDOF 13
ENDMDL
MODEL 2
REMARK VINA RESULT:     -12.2      3.437      8.067
REMARK SMILES O=C(NCc1ccc(C(=O)NCCCNC(=O)c2ccc(-c3c4nc(c(-c5c(F)cccc5F)c5ccc([nH]5)c(-c5c(F)cccc5F)c5nc(c(-c6c(F)cccc6F)c6ccc3[nH]6)C=C5)C=C4)cc2)cc1)Nc1ccccc1Br
REMARK SMILES IDX 12 1 11 2 9 3 10 4 8 6 5 7 6 8 73 9 7 10 72 11 4 12 3 13
REMARK SMILES IDX 1 14 2 15 74 16 75 19 76 20 80 21 77 22 79 23 81 24 78 25
REMARK SMILES IDX 13 26 14 27 15 28 16 29 17 31 18 32 19 33 71 34 20 35 70 36
REMARK SMILES IDX 21 37 22 38 23 39 64 40 24 41 69 42 63 43 65 44 25 45 68 46
REMARK SMILES IDX 62 47 61 48 26 50 52 51 35 52 51 53 36 54 39 55 50 56 66 57
REMARK SMILES IDX 37 58 38 59 49 61 67 62 40 63 27 64 28 65 33 66 29 67 30 68
REMARK SMILES IDX 32 69 34 70 31 71 53 72 54 73 59 74 55 75 56 76 58 77 60 78
REMARK SMILES IDX 57 79 41 80 42 81 47 82 43 83 44 84 46 85 48 86 45 87
REMARK H PARENT 11 5 3 17 74 18 15 30 65 49 39 60
REMARK Flexibility Score: inf
ROOT
ATOM      1  C   UNL A   1      41.865  19.279  27.736  1.00  0.00     0.118 C 
ENDROOT
BRANCH   1   2
ATOM      2  N   UNL A   1      42.488  20.562  28.006  1.00  0.00    -0.352 N 
ATOM      3  C   UNL A   1      42.039  21.848  27.850  1.00  0.00     0.251 C 
ATOM      4  O   UNL A   1      42.755  22.761  28.261  1.00  0.00    -0.269 OA
ATOM      5  H   UNL A   1      43.402  20.497  28.367  1.00  0.00     0.163 HD
BRANCH   3   6
ATOM      6  C   UNL A   1      40.715  22.178  27.261  1.00  0.00     0.039 A 
ATOM      7  C   UNL A   1      38.206  22.956  26.229  1.00  0.00    -0.029 A 
ATOM      8  C   UNL A   1      38.897  23.788  27.119  1.00  0.00     0.006 A 
ATOM      9  C   UNL A   1      38.808  21.760  25.818  1.00  0.00     0.006 A 
ATOM     10  C   UNL A   1      40.138  23.401  27.630  1.00  0.00     0.014 A 
ATOM     11  C   UNL A   1      40.058  21.380  26.321  1.00  0.00     0.014 A 
BRANCH   7  12
ATOM     12  C   UNL A   1      36.860  23.362  25.691  1.00  0.00     0.153 C 
BRANCH  12  13
ATOM     13  N   UNL A   1      35.789  22.788  26.471  1.00  0.00    -0.334 N 
ATOM     14  O   UNL A   1      34.116  21.454  27.056  1.00  0.00    -0.248 OA
ATOM     15  C   UNL A   1      34.998  21.707  26.242  1.00  0.00     0.319 C 
ATOM     16  N   UNL A   1      35.304  20.953  25.144  1.00  0.00    -0.307 N 
ATOM     17  H   UNL A   1      35.598  23.262  27.313  1.00  0.00     0.165 HD
ATOM     18  H   UNL A   1      36.144  21.162  24.674  1.00  0.00     0.171 HD
BRANCH  16  19
ATOM     19  C   UNL A   1      34.517  19.898  24.626  1.00  0.00     0.057 A 
ATOM     20  C   UNL A   1      35.129  18.632  24.627  1.00  0.00     0.027 A 
ATOM     21  C   UNL A   1      33.217  20.013  24.104  1.00  0.00     0.041 A 
ATOM     22  C   UNL A   1      34.435  17.495  24.205  1.00  0.00     0.002 A 
ATOM     23  C   UNL A   1      32.523  18.866  23.693  1.00  0.00     0.018 A 
ATOM     24  Br  UNL A   1      32.381  21.672  23.684  1.00  0.00    -0.049 Br
ATOM     25  C   UNL A   1      33.124  17.609  23.757  1.00  0.00     0.001 A 
ENDBRANCH  16  19
ENDBRANCH  12  13
ENDBRANCH   7  12
ENDBRANCH   3   6
ENDBRANCH   1   2
BRANCH   1  26
ATOM     26  C   UNL A   1      42.653  18.484  26.696  1.00  0.00     0.042 C 
BRANCH  26  27
ATOM     27  C   UNL A   1      42.766  19.181  25.342  1.00  0.00     0.118 C 
BRANCH  27  28
ATOM     28  N   UNL A   1      43.967  18.791  24.621  1.00  0.00    -0.352 N 
ATOM     29  C   UNL A   1      45.023  19.553  24.188  1.00  0.00     0.251 C 
ATOM     30  H   UNL A   1      44.033  17.831  24.411  1.00  0.00     0.163 HD
ATOM     31  O   UNL A   1      45.844  19.064  23.417  1.00  0.00    -0.269 OA
BRANCH  29  32
ATOM     32  C   UNL A   1      45.179  20.959  24.626  1.00  0.00     0.039 A 
ATOM     33  C   UNL A   1      44.903  21.980  23.710  1.00  0.00     0.014 A 
ATOM     34  C   UNL A   1      45.652  21.279  25.903  1.00  0.00     0.014 A 
ATOM     35  C   UNL A   1      45.053  23.317  24.087  1.00  0.00     0.010 A 
ATOM     36  C   UNL A   1      45.745  22.614  26.298  1.00  0.00     0.010 A 
ATOM     37  C   UNL A   1      45.452  23.644  25.392  1.00  0.00    -0.014 A 
BRANCH  37  38
ATOM     38  C   UNL A   1      45.577  25.061  25.824  1.00  0.00     0.031 A 
ATOM     39  C   UNL A   1      46.911  25.751  25.782  1.00  0.00     0.074 A 
ATOM     40  C   UNL A   1      44.500  25.705  26.310  1.00  0.00     0.049 A 
ATOM     41  N   UNL A   1      47.233  26.954  26.188  1.00  0.00    -0.248 NA
ATOM     42  C   UNL A   1      48.038  24.982  25.235  1.00  0.00     0.031 C 
ATOM     43  C   UNL A   1      43.159  25.132  26.440  1.00  0.00     0.029 A 
ATOM     44  N   UNL A   1      44.366  26.980  26.799  1.00  0.00    -0.354 N 
ATOM     45  C   UNL A   1      48.598  27.077  25.964  1.00  0.00     0.074 A 
ATOM     46  C   UNL A   1      49.051  25.814  25.421  1.00  0.00     0.031 C 
ATOM     47  C   UNL A   1      42.336  26.057  26.961  1.00  0.00     0.029 A 
ATOM     48  C   UNL A   1      43.096  27.273  27.231  1.00  0.00     0.049 A 
ATOM     49  H   UNL A   1      45.110  27.623  26.837  1.00  0.00     0.167 HD
ATOM     50  C   UNL A   1      49.398  28.150  26.174  1.00  0.00     0.037 A 
ATOM     51  C   UNL A   1      42.601  28.394  27.790  1.00  0.00     0.037 A 
ATOM     52  C   UNL A   1      48.941  29.416  26.685  1.00  0.00     0.049 A 
ATOM     53  C   UNL A   1      43.506  29.573  28.004  1.00  0.00     0.074 A 
ATOM     54  C   UNL A   1      49.663  30.581  26.875  1.00  0.00     0.029 A 
ATOM     55  N   UNL A   1      47.640  29.681  27.086  1.00  0.00    -0.354 N 
ATOM     56  N   UNL A   1      44.783  29.694  27.733  1.00  0.00    -0.248 NA
ATOM     57  C   UNL A   1      42.901  30.775  28.596  1.00  0.00     0.031 C 
ATOM     58  C   UNL A   1      48.807  31.543  27.421  1.00  0.00     0.029 A 
ATOM     59  C   UNL A   1      47.542  30.987  27.537  1.00  0.00     0.049 A 
ATOM     60  H   UNL A   1      46.897  29.037  27.055  1.00  0.00     0.167 HD
ATOM     61  C   UNL A   1      45.128  30.989  28.099  1.00  0.00     0.074 A 
ATOM     62  C   UNL A   1      43.923  31.619  28.599  1.00  0.00     0.031 C 
ATOM     63  C   UNL A   1      46.335  31.600  28.025  1.00  0.00     0.037 A 
BRANCH  50  64
ATOM     64  C   UNL A   1      50.855  28.001  25.847  1.00  0.00     0.057 A 
ATOM     65  C   UNL A   1      51.336  28.161  24.542  1.00  0.00     0.134 A 
ATOM     66  C   UNL A   1      51.790  27.726  26.852  1.00  0.00     0.134 A 
ATOM     67  F   UNL A   1      50.491  28.414  23.531  1.00  0.00    -0.206 F 
ATOM     68  C   UNL A   1      52.694  28.029  24.243  1.00  0.00     0.040 A 
ATOM     69  C   UNL A   1      53.152  27.615  26.571  1.00  0.00     0.040 A 
ATOM     70  F   UNL A   1      51.395  27.567  28.124  1.00  0.00    -0.206 F 
ATOM     71  C   UNL A   1      53.607  27.761  25.262  1.00  0.00     0.006 A 
ENDBRANCH  50  64
BRANCH  51  72
ATOM     72  C   UNL A   1      41.168  28.460  28.167  1.00  0.00     0.057 A 
ATOM     73  C   UNL A   1      40.739  28.060  29.437  1.00  0.00     0.134 A 
ATOM     74  C   UNL A   1      40.197  28.924  27.272  1.00  0.00     0.134 A 
ATOM     75  F   UNL A   1      41.623  27.589  30.330  1.00  0.00    -0.206 F 
ATOM     76  C   UNL A   1      39.393  28.105  29.802  1.00  0.00     0.040 A 
ATOM     77  C   UNL A   1      38.850  28.995  27.631  1.00  0.00     0.040 A 
ATOM     78  F   UNL A   1      40.546  29.329  26.043  1.00  0.00    -0.206 F 
ATOM     79  C   UNL A   1      38.444  28.578  28.897  1.00  0.00     0.006 A 
ENDBRANCH  51  72
BRANCH  63  80
ATOM     80  C   UNL A   1      46.405  33.030  28.470  1.00  0.00     0.057 A 
ATOM     81  C   UNL A   1      46.183  34.089  27.581  1.00  0.00     0.134 A 
ATOM     82  C   UNL A   1      46.663  33.349  29.809  1.00  0.00     0.134 A 
ATOM     83  F   UNL A   1      45.945  33.849  26.283  1.00  0.00    -0.206 F 
ATOM     84  C   UNL A   1      46.234  35.418  28.005  1.00  0.00     0.040 A 
ATOM     85  C   UNL A   1      46.694  34.672  30.250  1.00  0.00     0.040 A 
ATOM     86  F   UNL A   1      46.877  32.379  30.710  1.00  0.00    -0.206 F 
ATOM     87  C   UNL A   1      46.484  35.712  29.345  1.00  0.00     0.006 A 
ENDBRANCH  63  80
ENDBRANCH  37  38
ENDBRANCH  29  32
ENDBRANCH  27  28
ENDBRANCH  26  27
ENDBRANCH   1  26
TORSDOF 13
ENDMDL
MODEL 3
REMARK VINA RESULT:     -12.1      1.506      6.368
REMARK SMILES O=C(NCc1ccc(C(=O)NCCCNC(=O)c2ccc(-c3c4nc(c(-c5c(F)cccc5F)c5ccc([nH]5)c(-c5c(F)cccc5F)c5nc(c(-c6c(F)cccc6F)c6ccc3[nH]6)C=C5)C=C4)cc2)cc1)Nc1ccccc1Br
REMARK SMILES IDX 12 1 11 2 9 3 10 4 8 6 5 7 6 8 73 9 7 10 72 11 4 12 3 13
REMARK SMILES IDX 1 14 2 15 74 16 75 19 76 20 80 21 77 22 79 23 81 24 78 25
REMARK SMILES IDX 13 26 14 27 15 28 16 29 17 31 18 32 19 33 71 34 20 35 70 36
REMARK SMILES IDX 21 37 22 38 23 39 64 40 24 41 69 42 63 43 65 44 25 45 68 46
REMARK SMILES IDX 62 47 61 48 26 50 52 51 35 52 51 53 36 54 39 55 50 56 66 57
REMARK SMILES IDX 37 58 38 59 49 61 67 62 40 63 27 64 28 65 33 66 29 67 30 68
REMARK SMILES IDX 32 69 34 70 31 71 53 72 54 73 59 74 55 75 56 76 58 77 60 78
REMARK SMILES IDX 57 79 41 80 42 81 47 82 43 83 44 84 46 85 48 86 45 87
REMARK H PARENT 11 5 3 17 74 18 15 30 65 49 39 60
REMARK Flexibility Score: inf
ROOT
ATOM      1  C   UNL A   1      37.057  20.509  24.976  1.00  0.00     0.118 C 
ENDROOT
BRANCH   1   2
ATOM      2  N   UNL A   1      37.128  21.538  23.956  1.00  0.00    -0.352 N 
ATOM      3  C   UNL A   1      36.303  22.594  23.663  1.00  0.00     0.251 C 
ATOM      4  O   UNL A   1      36.667  23.382  22.789  1.00  0.00    -0.269 OA
ATOM      5  H   UNL A   1      37.912  21.466  23.365  1.00  0.00     0.163 HD
BRANCH   3   6
ATOM      6  C   UNL A   1      35.031  22.853  24.386  1.00  0.00     0.039 A 
ATOM      7  C   UNL A   1      32.532  23.260  25.630  1.00  0.00    -0.029 A 
ATOM      8  C   UNL A   1      32.613  22.588  24.404  1.00  0.00     0.006 A 
ATOM      9  C   UNL A   1      33.715  23.675  26.252  1.00  0.00     0.006 A 
ATOM     10  C   UNL A   1      33.851  22.389  23.788  1.00  0.00     0.014 A 
ATOM     11  C   UNL A   1      34.956  23.462  25.640  1.00  0.00     0.014 A 
BRANCH   7  12
ATOM     12  C   UNL A   1      31.197  23.493  26.287  1.00  0.00     0.153 C 
BRANCH  12  13
ATOM     13  N   UNL A   1      31.094  24.837  26.805  1.00  0.00    -0.334 N 
ATOM     14  O   UNL A   1      30.896  27.046  26.855  1.00  0.00    -0.248 OA
ATOM     15  C   UNL A   1      30.899  26.025  26.175  1.00  0.00     0.319 C 
ATOM     16  N   UNL A   1      30.657  25.965  24.831  1.00  0.00    -0.307 N 
ATOM     17  H   UNL A   1      31.181  24.904  27.784  1.00  0.00     0.165 HD
ATOM     18  H   UNL A   1      30.510  25.074  24.438  1.00  0.00     0.171 HD
BRANCH  16  19
ATOM     19  C   UNL A   1      30.599  27.076  23.957  1.00  0.00     0.057 A 
ATOM     20  C   UNL A   1      29.311  27.437  23.524  1.00  0.00     0.027 A 
ATOM     21  C   UNL A   1      31.697  27.814  23.481  1.00  0.00     0.041 A 
ATOM     22  C   UNL A   1      29.110  28.557  22.713  1.00  0.00     0.002 A 
ATOM     23  C   UNL A   1      31.486  28.943  22.676  1.00  0.00     0.018 A 
ATOM     24  Br  UNL A   1      33.510  27.258  23.655  1.00  0.00    -0.049 Br
ATOM     25  C   UNL A   1      30.196  29.322  22.305  1.00  0.00     0.001 A 
ENDBRANCH  16  19
ENDBRANCH  12  13
ENDBRANCH   7  12
ENDBRANCH   3   6
ENDBRANCH   1   2
BRANCH   1  26
ATOM     26  C   UNL A   1      38.275  19.587  24.923  1.00  0.00     0.042 C 
BRANCH  26  27
ATOM     27  C   UNL A   1      39.249  19.786  26.082  1.00  0.00     0.118 C 
BRANCH  27  28
ATOM     28  N   UNL A   1      40.510  19.093  25.865  1.00  0.00    -0.352 N 
ATOM     29  C   UNL A   1      41.797  19.564  25.932  1.00  0.00     0.251 C 
ATOM     30  H   UNL A   1      40.427  18.139  25.636  1.00  0.00     0.163 HD
ATOM     31  O   UNL A   1      42.718  18.866  25.515  1.00  0.00    -0.269 OA
BRANCH  29  32
ATOM     32  C   UNL A   1      42.092  20.905  26.486  1.00  0.00     0.039 A 
ATOM     33  C   UNL A   1      42.417  21.939  25.601  1.00  0.00     0.014 A 
ATOM     34  C   UNL A   1      42.112  21.138  27.865  1.00  0.00     0.014 A 
ATOM     35  C   UNL A   1      42.713  23.213  26.092  1.00  0.00     0.010 A 
ATOM     36  C   UNL A   1      42.349  22.424  28.351  1.00  0.00     0.010 A 
ATOM     37  C   UNL A   1      42.658  23.471  27.470  1.00  0.00    -0.014 A 
BRANCH  37  38
ATOM     38  C   UNL A   1      42.928  24.830  28.008  1.00  0.00     0.031 A 
ATOM     39  C   UNL A   1      44.319  25.216  28.427  1.00  0.00     0.074 A 
ATOM     40  C   UNL A   1      41.909  25.694  28.174  1.00  0.00     0.049 A 
ATOM     41  N   UNL A   1      44.735  26.323  28.987  1.00  0.00    -0.248 NA
ATOM     42  C   UNL A   1      45.377  24.219  28.209  1.00  0.00     0.031 C 
ATOM     43  C   UNL A   1      40.509  25.425  27.844  1.00  0.00     0.029 A 
ATOM     44  N   UNL A   1      41.893  26.970  28.677  1.00  0.00    -0.354 N 
ATOM     45  C   UNL A   1      46.096  26.149  29.207  1.00  0.00     0.074 A 
ATOM     46  C   UNL A   1      46.427  24.814  28.754  1.00  0.00     0.031 C 
ATOM     47  C   UNL A   1      39.772  26.508  28.141  1.00  0.00     0.029 A 
ATOM     48  C   UNL A   1      40.641  27.534  28.710  1.00  0.00     0.049 A 
ATOM     49  H   UNL A   1      42.703  27.439  28.985  1.00  0.00     0.167 HD
ATOM     50  C   UNL A   1      46.991  27.025  29.723  1.00  0.00     0.037 A 
ATOM     51  C   UNL A   1      40.237  28.737  29.157  1.00  0.00     0.037 A 
ATOM     52  C   UNL A   1      46.667  28.362  30.145  1.00  0.00     0.049 A 
ATOM     53  C   UNL A   1      41.250  29.695  29.716  1.00  0.00     0.074 A 
ATOM     54  C   UNL A   1      47.516  29.346  30.623  1.00  0.00     0.029 A 
ATOM     55  N   UNL A   1      45.390  28.904  30.138  1.00  0.00    -0.354 N 
ATOM     56  N   UNL A   1      42.543  29.536  29.863  1.00  0.00    -0.248 NA
ATOM     57  C   UNL A   1      40.750  31.002  30.164  1.00  0.00     0.031 C 
ATOM     58  C   UNL A   1      46.748  30.473  30.936  1.00  0.00     0.029 A 
ATOM     59  C   UNL A   1      45.426  30.203  30.618  1.00  0.00     0.049 A 
ATOM     60  H   UNL A   1      44.579  28.435  29.836  1.00  0.00     0.167 HD
ATOM     61  C   UNL A   1      43.013  30.729  30.399  1.00  0.00     0.074 A 
ATOM     62  C   UNL A   1      41.869  31.606  30.539  1.00  0.00     0.031 C 
ATOM     63  C   UNL A   1      44.280  31.064  30.743  1.00  0.00     0.037 A 
BRANCH  50  64
ATOM     64  C   UNL A   1      48.412  26.563  29.856  1.00  0.00     0.057 A 
ATOM     65  C   UNL A   1      49.367  26.825  28.866  1.00  0.00     0.134 A 
ATOM     66  C   UNL A   1      48.838  25.878  31.001  1.00  0.00     0.134 A 
ATOM     67  F   UNL A   1      49.022  27.467  27.740  1.00  0.00    -0.206 F 
ATOM     68  C   UNL A   1      50.691  26.400  28.998  1.00  0.00     0.040 A 
ATOM     69  C   UNL A   1      50.163  25.469  31.155  1.00  0.00     0.040 A 
ATOM     70  F   UNL A   1      47.975  25.600  31.989  1.00  0.00    -0.206 F 
ATOM     71  C   UNL A   1      51.093  25.725  30.149  1.00  0.00     0.006 A 
ENDBRANCH  50  64
BRANCH  51  72
ATOM     72  C   UNL A   1      38.805  29.114  29.073  1.00  0.00     0.057 A 
ATOM     73  C   UNL A   1      37.972  29.028  30.194  1.00  0.00     0.134 A 
ATOM     74  C   UNL A   1      38.236  29.566  27.877  1.00  0.00     0.134 A 
ATOM     75  F   UNL A   1      38.458  28.584  31.363  1.00  0.00    -0.206 F 
ATOM     76  C   UNL A   1      36.620  29.366  30.128  1.00  0.00     0.040 A 
ATOM     77  C   UNL A   1      36.890  29.928  27.801  1.00  0.00     0.040 A 
ATOM     78  F   UNL A   1      38.984  29.676  26.770  1.00  0.00    -0.206 F 
ATOM     79  C   UNL A   1      36.076  29.822  28.928  1.00  0.00     0.006 A 
ENDBRANCH  51  72
BRANCH  63  80
ATOM     80  C   UNL A   1      44.498  32.449  31.277  1.00  0.00     0.057 A 
ATOM     81  C   UNL A   1      44.755  33.533  30.429  1.00  0.00     0.134 A 
ATOM     82  C   UNL A   1      44.417  32.704  32.651  1.00  0.00     0.134 A 
ATOM     83  F   UNL A   1      44.859  33.350  29.104  1.00  0.00    -0.206 F 
ATOM     84  C   UNL A   1      44.941  34.822  30.931  1.00  0.00     0.040 A 
ATOM     85  C   UNL A   1      44.580  33.992  33.164  1.00  0.00     0.040 A 
ATOM     86  F   UNL A   1      44.168  31.709  33.515  1.00  0.00    -0.206 F 
ATOM     87  C   UNL A   1      44.848  35.055  32.302  1.00  0.00     0.006 A 
ENDBRANCH  63  80
ENDBRANCH  37  38
ENDBRANCH  29  32
ENDBRANCH  27  28
ENDBRANCH  26  27
ENDBRANCH   1  26
TORSDOF 13
ENDMDL
