MODEL 1
REMARK VINA RESULT:     -12.3      0.000      0.000
REMARK SMILES C[C@H]1CCCCN1S(=O)(=O)c1ccc(Br)c(C(=O)NCCCNC(=O)c2ccc(-c3c4nc(c(-c5c(F)cccc5F)c5ccc([nH]5)c(-c5c(F)cccc5F)c5nc(c(-c6c(F)cccc6F)c6ccc3[nH]6)C=C5)C=C4)cc2)c1
REMARK SMILES IDX 21 1 20 2 19 3 17 4 18 5 16 7 11 8 12 9 80 10 13 11 14 12
REMARK SMILES IDX 15 13 8 14 9 15 10 16 7 17 1 18 2 19 3 20 4 21 6 22 5 23
REMARK SMILES IDX 22 24 23 25 24 26 25 28 26 29 27 30 79 31 28 32 78 33 29 34
REMARK SMILES IDX 30 35 31 36 72 37 32 38 77 39 71 40 73 41 33 42 76 43 70 44
REMARK SMILES IDX 69 45 34 47 60 48 43 49 59 50 44 51 47 52 58 53 74 54 45 55
REMARK SMILES IDX 46 56 57 58 75 59 48 60 35 61 36 62 41 63 37 64 38 65 40 66
REMARK SMILES IDX 42 67 39 68 61 69 62 70 67 71 63 72 64 73 66 74 68 75 65 76
REMARK SMILES IDX 49 77 50 78 55 79 51 80 52 81 54 82 56 83 53 84
REMARK H PARENT 19 6 23 27 73 46 47 57
REMARK Flexibility Score: inf
ROOT
ATOM      1  C   UNL A   1      37.509  19.673  24.986  1.00  0.00     0.042 C 
ENDROOT
BRANCH   1   2
ATOM      2  C   UNL A   1      36.247  20.509  25.083  1.00  0.00     0.118 C 
BRANCH   2   3
ATOM      3  N   UNL A   1      35.009  19.772  24.999  1.00  0.00    -0.352 N 
ATOM      4  C   UNL A   1      33.712  20.135  24.727  1.00  0.00     0.252 C 
ATOM      5  O   UNL A   1      32.955  19.203  24.438  1.00  0.00    -0.269 OA
ATOM      6  H   UNL A   1      35.115  18.808  25.172  1.00  0.00     0.163 HD
BRANCH   4   7
ATOM      7  C   UNL A   1      33.119  21.502  24.896  1.00  0.00     0.055 A 
ATOM      8  C   UNL A   1      32.421  23.506  23.702  1.00  0.00     0.083 A 
ATOM      9  C   UNL A   1      31.411  23.731  24.638  1.00  0.00     0.023 A 
ATOM     10  C   UNL A   1      33.184  22.336  23.761  1.00  0.00     0.036 A 
ATOM     11  C   UNL A   1      31.422  22.985  25.812  1.00  0.00     0.018 A 
ATOM     12  C   UNL A   1      32.400  21.992  25.991  1.00  0.00     0.030 A 
ATOM     13  Br  UNL A   1      33.289  22.202  27.704  1.00  0.00    -0.050 Br
BRANCH   8  14
ATOM     14  S   UNL A   1      32.703  24.705  22.433  1.00  0.00     0.243 S 
ATOM     15  O   UNL A   1      31.414  25.239  22.044  1.00  0.00    -0.207 OA
ATOM     16  O   UNL A   1      33.565  24.083  21.446  1.00  0.00    -0.207 OA
BRANCH  14  17
ATOM     17  N   UNL A   1      33.615  26.040  23.161  1.00  0.00    -0.195 NA
ATOM     18  C   UNL A   1      34.521  25.204  25.376  1.00  0.00     0.026 C 
ATOM     19  C   UNL A   1      33.556  26.167  24.677  1.00  0.00     0.070 C 
ATOM     20  C   UNL A   1      34.027  27.548  25.186  1.00  0.00     0.020 C 
ATOM     21  C   UNL A   1      33.417  28.722  24.458  1.00  0.00     0.003 C 
ATOM     22  C   UNL A   1      33.120  27.291  22.457  1.00  0.00     0.103 C 
ATOM     23  C   UNL A   1      33.732  28.573  22.986  1.00  0.00     0.017 C 
ENDBRANCH  14  17
ENDBRANCH   8  14
ENDBRANCH   4   7
ENDBRANCH   2   3
ENDBRANCH   1   2
BRANCH   1  24
ATOM     24  C   UNL A   1      38.717  20.309  25.659  1.00  0.00     0.118 C 
BRANCH  24  25
ATOM     25  N   UNL A   1      39.832  19.377  25.818  1.00  0.00    -0.352 N 
ATOM     26  C   UNL A   1      41.153  19.579  26.124  1.00  0.00     0.251 C 
ATOM     27  H   UNL A   1      39.589  18.432  25.681  1.00  0.00     0.163 HD
ATOM     28  O   UNL A   1      41.949  18.655  25.983  1.00  0.00    -0.269 OA
BRANCH  26  29
ATOM     29  C   UNL A   1      41.630  20.887  26.618  1.00  0.00     0.039 A 
ATOM     30  C   UNL A   1      42.098  21.826  25.695  1.00  0.00     0.014 A 
ATOM     31  C   UNL A   1      41.663  21.177  27.982  1.00  0.00     0.014 A 
ATOM     32  C   UNL A   1      42.537  23.074  26.139  1.00  0.00     0.010 A 
ATOM     33  C   UNL A   1      41.992  22.456  28.414  1.00  0.00     0.010 A 
ATOM     34  C   UNL A   1      42.446  23.414  27.499  1.00  0.00    -0.014 A 
BRANCH  34  35
ATOM     35  C   UNL A   1      42.835  24.762  27.979  1.00  0.00     0.031 A 
ATOM     36  C   UNL A   1      41.785  25.815  28.215  1.00  0.00     0.074 A 
ATOM     37  C   UNL A   1      44.139  25.048  28.156  1.00  0.00     0.049 A 
ATOM     38  N   UNL A   1      41.936  27.059  28.591  1.00  0.00    -0.248 NA
ATOM     39  C   UNL A   1      40.386  25.429  27.970  1.00  0.00     0.031 C 
ATOM     40  C   UNL A   1      45.251  24.129  27.898  1.00  0.00     0.029 A 
ATOM     41  N   UNL A   1      44.754  26.196  28.589  1.00  0.00    -0.354 N 
ATOM     42  C   UNL A   1      40.656  27.599  28.629  1.00  0.00     0.074 A 
ATOM     43  C   UNL A   1      39.749  26.574  28.164  1.00  0.00     0.031 C 
ATOM     44  C   UNL A   1      46.407  24.738  28.206  1.00  0.00     0.029 A 
ATOM     45  C   UNL A   1      46.124  26.101  28.641  1.00  0.00     0.049 A 
ATOM     46  H   UNL A   1      44.260  27.010  28.839  1.00  0.00     0.167 HD
ATOM     47  C   UNL A   1      40.267  28.826  29.048  1.00  0.00     0.037 A 
ATOM     48  C   UNL A   1      47.047  27.015  28.993  1.00  0.00     0.037 A 
ATOM     49  C   UNL A   1      41.173  29.839  29.522  1.00  0.00     0.049 A 
ATOM     50  C   UNL A   1      46.588  28.374  29.442  1.00  0.00     0.074 A 
ATOM     51  C   UNL A   1      40.880  31.105  29.996  1.00  0.00     0.029 A 
ATOM     52  N   UNL A   1      42.551  29.698  29.580  1.00  0.00    -0.354 N 
ATOM     53  N   UNL A   1      45.368  28.848  29.533  1.00  0.00    -0.248 NA
ATOM     54  C   UNL A   1      47.633  29.324  29.849  1.00  0.00     0.031 C 
ATOM     55  C   UNL A   1      42.084  31.746  30.302  1.00  0.00     0.029 A 
ATOM     56  C   UNL A   1      43.124  30.859  30.070  1.00  0.00     0.049 A 
ATOM     57  H   UNL A   1      43.049  28.892  29.313  1.00  0.00     0.167 HD
ATOM     58  C   UNL A   1      45.497  30.137  30.031  1.00  0.00     0.074 A 
ATOM     59  C   UNL A   1      46.911  30.361  30.247  1.00  0.00     0.031 C 
ATOM     60  C   UNL A   1      44.535  31.059  30.284  1.00  0.00     0.037 A 
BRANCH  47  61
ATOM     61  C   UNL A   1      38.796  29.130  29.036  1.00  0.00     0.057 A 
ATOM     62  C   UNL A   1      38.014  29.024  30.196  1.00  0.00     0.134 A 
ATOM     63  C   UNL A   1      38.161  29.575  27.870  1.00  0.00     0.134 A 
ATOM     64  F   UNL A   1      38.557  28.590  31.343  1.00  0.00    -0.206 F 
ATOM     65  C   UNL A   1      36.652  29.328  30.190  1.00  0.00     0.040 A 
ATOM     66  C   UNL A   1      36.805  29.911  27.860  1.00  0.00     0.040 A 
ATOM     67  F   UNL A   1      38.848  29.703  26.726  1.00  0.00    -0.206 F 
ATOM     68  C   UNL A   1      36.046  29.783  29.022  1.00  0.00     0.006 A 
ENDBRANCH  47  61
BRANCH  48  69
ATOM     69  C   UNL A   1      48.493  26.677  28.943  1.00  0.00     0.057 A 
ATOM     70  C   UNL A   1      49.270  26.969  27.815  1.00  0.00     0.134 A 
ATOM     71  C   UNL A   1      49.128  26.029  30.010  1.00  0.00     0.134 A 
ATOM     72  F   UNL A   1      48.719  27.577  26.755  1.00  0.00    -0.206 F 
ATOM     73  C   UNL A   1      50.614  26.598  27.736  1.00  0.00     0.040 A 
ATOM     74  C   UNL A   1      50.477  25.680  29.956  1.00  0.00     0.040 A 
ATOM     75  F   UNL A   1      48.444  25.733  31.125  1.00  0.00    -0.206 F 
ATOM     76  C   UNL A   1      51.221  25.953  28.811  1.00  0.00     0.006 A 
ENDBRANCH  48  69
BRANCH  60  77
ATOM     77  C   UNL A   1      44.981  32.373  30.855  1.00  0.00     0.057 A 
ATOM     78  C   UNL A   1      45.296  33.467  30.040  1.00  0.00     0.134 A 
ATOM     79  C   UNL A   1      45.077  32.550  32.242  1.00  0.00     0.134 A 
ATOM     80  F   UNL A   1      45.237  33.360  28.704  1.00  0.00    -0.206 F 
ATOM     81  C   UNL A   1      45.724  34.681  30.582  1.00  0.00     0.040 A 
ATOM     82  C   UNL A   1      45.471  33.768  32.796  1.00  0.00     0.040 A 
ATOM     83  F   UNL A   1      44.779  31.547  33.080  1.00  0.00    -0.206 F 
ATOM     84  C   UNL A   1      45.806  34.835  31.964  1.00  0.00     0.006 A 
ENDBRANCH  60  77
ENDBRANCH  34  35
ENDBRANCH  26  29
ENDBRANCH  24  25
ENDBRANCH   1  24
TORSDOF 12
ENDMDL
MODEL 2
REMARK VINA RESULT:     -12.3      1.535      6.467
REMARK SMILES C[C@H]1CCCCN1S(=O)(=O)c1ccc(Br)c(C(=O)NCCCNC(=O)c2ccc(-c3c4nc(c(-c5c(F)cccc5F)c5ccc([nH]5)c(-c5c(F)cccc5F)c5nc(c(-c6c(F)cccc6F)c6ccc3[nH]6)C=C5)C=C4)cc2)c1
REMARK SMILES IDX 21 1 20 2 19 3 17 4 18 5 16 7 11 8 12 9 80 10 13 11 14 12
REMARK SMILES IDX 15 13 8 14 9 15 10 16 7 17 1 18 2 19 3 20 4 21 6 22 5 23
REMARK SMILES IDX 22 24 23 25 24 26 25 28 26 29 27 30 79 31 28 32 78 33 29 34
REMARK SMILES IDX 30 35 31 36 72 37 32 38 77 39 71 40 73 41 33 42 76 43 70 44
REMARK SMILES IDX 69 45 34 47 60 48 43 49 59 50 44 51 47 52 58 53 74 54 45 55
REMARK SMILES IDX 46 56 57 58 75 59 48 60 35 61 36 62 41 63 37 64 38 65 40 66
REMARK SMILES IDX 42 67 39 68 61 69 62 70 67 71 63 72 64 73 66 74 68 75 65 76
REMARK SMILES IDX 49 77 50 78 55 79 51 80 52 81 54 82 56 83 53 84
REMARK H PARENT 19 6 23 27 73 46 47 57
REMARK Flexibility Score: inf
ROOT
ATOM      1  C   UNL A   1      37.999  19.167  25.001  1.00  0.00     0.042 C 
ENDROOT
BRANCH   1   2
ATOM      2  C   UNL A   1      36.869  20.128  24.683  1.00  0.00     0.118 C 
BRANCH   2   3
ATOM      3  N   UNL A   1      37.229  21.526  24.674  1.00  0.00    -0.352 N 
ATOM      4  C   UNL A   1      36.498  22.689  24.721  1.00  0.00     0.252 C 
ATOM      5  O   UNL A   1      37.144  23.703  25.002  1.00  0.00    -0.269 OA
ATOM      6  H   UNL A   1      38.201  21.678  24.622  1.00  0.00     0.163 HD
BRANCH   4   7
ATOM      7  C   UNL A   1      35.062  22.851  24.324  1.00  0.00     0.055 A 
ATOM      8  C   UNL A   1      33.521  24.211  23.019  1.00  0.00     0.083 A 
ATOM      9  C   UNL A   1      32.725  23.095  22.765  1.00  0.00     0.023 A 
ATOM     10  C   UNL A   1      34.742  24.066  23.685  1.00  0.00     0.036 A 
ATOM     11  C   UNL A   1      32.971  21.931  23.487  1.00  0.00     0.018 A 
ATOM     12  C   UNL A   1      34.043  21.894  24.394  1.00  0.00     0.030 A 
ATOM     13  Br  UNL A   1      33.457  21.244  26.127  1.00  0.00    -0.050 Br
BRANCH   8  14
ATOM     14  S   UNL A   1      32.978  25.802  22.468  1.00  0.00     0.243 S 
ATOM     15  O   UNL A   1      31.633  25.647  21.950  1.00  0.00    -0.207 OA
ATOM     16  O   UNL A   1      34.028  26.341  21.626  1.00  0.00    -0.207 OA
BRANCH  14  17
ATOM     17  N   UNL A   1      32.863  26.845  23.897  1.00  0.00    -0.195 NA
ATOM     18  C   UNL A   1      31.695  25.507  25.706  1.00  0.00     0.026 C 
ATOM     19  C   UNL A   1      31.611  26.703  24.753  1.00  0.00     0.070 C 
ATOM     20  C   UNL A   1      31.403  27.893  25.718  1.00  0.00     0.020 C 
ATOM     21  C   UNL A   1      31.542  29.251  25.075  1.00  0.00     0.003 C 
ATOM     22  C   UNL A   1      33.047  28.259  23.374  1.00  0.00     0.103 C 
ATOM     23  C   UNL A   1      32.914  29.328  24.441  1.00  0.00     0.017 C 
ENDBRANCH  14  17
ENDBRANCH   8  14
ENDBRANCH   4   7
ENDBRANCH   2   3
ENDBRANCH   1   2
BRANCH   1  24
ATOM     24  C   UNL A   1      39.162  19.814  25.737  1.00  0.00     0.118 C 
BRANCH  24  25
ATOM     25  N   UNL A   1      40.314  18.924  25.869  1.00  0.00    -0.352 N 
ATOM     26  C   UNL A   1      41.649  19.179  26.047  1.00  0.00     0.251 C 
ATOM     27  H   UNL A   1      40.089  17.965  25.822  1.00  0.00     0.163 HD
ATOM     28  O   UNL A   1      42.458  18.266  25.906  1.00  0.00    -0.269 OA
BRANCH  26  29
ATOM     29  C   UNL A   1      42.126  20.531  26.402  1.00  0.00     0.039 A 
ATOM     30  C   UNL A   1      42.474  21.414  25.376  1.00  0.00     0.014 A 
ATOM     31  C   UNL A   1      42.277  20.919  27.734  1.00  0.00     0.014 A 
ATOM     32  C   UNL A   1      42.910  22.702  25.689  1.00  0.00     0.010 A 
ATOM     33  C   UNL A   1      42.601  22.234  28.043  1.00  0.00     0.010 A 
ATOM     34  C   UNL A   1      42.936  23.135  27.026  1.00  0.00    -0.014 A 
BRANCH  34  35
ATOM     35  C   UNL A   1      43.322  24.524  27.373  1.00  0.00     0.031 A 
ATOM     36  C   UNL A   1      44.765  24.948  27.311  1.00  0.00     0.074 A 
ATOM     37  C   UNL A   1      42.376  25.387  27.791  1.00  0.00     0.049 A 
ATOM     38  N   UNL A   1      45.300  26.103  27.619  1.00  0.00    -0.248 NA
ATOM     39  C   UNL A   1      45.741  23.936  26.874  1.00  0.00     0.031 C 
ATOM     40  C   UNL A   1      40.954  25.072  27.953  1.00  0.00     0.029 A 
ATOM     41  N   UNL A   1      42.466  26.706  28.160  1.00  0.00    -0.354 N 
ATOM     42  C   UNL A   1      46.665  25.954  27.410  1.00  0.00     0.074 A 
ATOM     43  C   UNL A   1      46.888  24.578  27.025  1.00  0.00     0.031 C 
ATOM     44  C   UNL A   1      40.302  26.173  28.359  1.00  0.00     0.029 A 
ATOM     45  C   UNL A   1      41.263  27.258  28.528  1.00  0.00     0.049 A 
ATOM     46  H   UNL A   1      43.313  27.208  28.162  1.00  0.00     0.167 HD
ATOM     47  C   UNL A   1      47.642  26.888  27.495  1.00  0.00     0.037 A 
ATOM     48  C   UNL A   1      40.970  28.498  28.961  1.00  0.00     0.037 A 
ATOM     49  C   UNL A   1      47.412  28.259  27.866  1.00  0.00     0.049 A 
ATOM     50  C   UNL A   1      42.076  29.512  29.059  1.00  0.00     0.074 A 
ATOM     51  C   UNL A   1      48.327  29.293  27.955  1.00  0.00     0.029 A 
ATOM     52  N   UNL A   1      46.177  28.786  28.210  1.00  0.00    -0.354 N 
ATOM     53  N   UNL A   1      43.353  29.373  28.796  1.00  0.00    -0.248 NA
ATOM     54  C   UNL A   1      41.698  30.861  29.503  1.00  0.00     0.031 C 
ATOM     55  C   UNL A   1      47.652  30.436  28.395  1.00  0.00     0.029 A 
ATOM     56  C   UNL A   1      46.307  30.128  28.526  1.00  0.00     0.049 A 
ATOM     57  H   UNL A   1      45.332  28.281  28.228  1.00  0.00     0.167 HD
ATOM     58  C   UNL A   1      43.925  30.618  29.015  1.00  0.00     0.074 A 
ATOM     59  C   UNL A   1      42.851  31.506  29.408  1.00  0.00     0.031 C 
ATOM     60  C   UNL A   1      45.223  30.996  28.909  1.00  0.00     0.037 A 
BRANCH  47  61
ATOM     61  C   UNL A   1      49.042  26.462  27.156  1.00  0.00     0.057 A 
ATOM     62  C   UNL A   1      49.926  25.996  28.140  1.00  0.00     0.134 A 
ATOM     63  C   UNL A   1      49.499  26.473  25.833  1.00  0.00     0.134 A 
ATOM     64  F   UNL A   1      49.556  25.973  29.430  1.00  0.00    -0.206 F 
ATOM     65  C   UNL A   1      51.219  25.578  27.823  1.00  0.00     0.040 A 
ATOM     66  C   UNL A   1      50.781  26.029  25.500  1.00  0.00     0.040 A 
ATOM     67  F   UNL A   1      48.706  26.902  24.841  1.00  0.00    -0.206 F 
ATOM     68  C   UNL A   1      51.646  25.585  26.498  1.00  0.00     0.006 A 
ENDBRANCH  47  61
BRANCH  48  69
ATOM     69  C   UNL A   1      39.575  28.855  29.328  1.00  0.00     0.057 A 
ATOM     70  C   UNL A   1      39.093  28.666  30.629  1.00  0.00     0.134 A 
ATOM     71  C   UNL A   1      38.680  29.366  28.379  1.00  0.00     0.134 A 
ATOM     72  F   UNL A   1      39.896  28.168  31.581  1.00  0.00    -0.206 F 
ATOM     73  C   UNL A   1      37.766  28.939  30.966  1.00  0.00     0.040 A 
ATOM     74  C   UNL A   1      37.359  29.672  28.710  1.00  0.00     0.040 A 
ATOM     75  F   UNL A   1      39.081  29.583  27.119  1.00  0.00    -0.206 F 
ATOM     76  C   UNL A   1      36.895  29.446  30.003  1.00  0.00     0.006 A 
ENDBRANCH  48  69
BRANCH  60  77
ATOM     77  C   UNL A   1      45.539  32.437  29.185  1.00  0.00     0.057 A 
ATOM     78  C   UNL A   1      45.915  32.883  30.458  1.00  0.00     0.134 A 
ATOM     79  C   UNL A   1      45.488  33.387  28.156  1.00  0.00     0.134 A 
ATOM     80  F   UNL A   1      45.972  32.027  31.490  1.00  0.00    -0.206 F 
ATOM     81  C   UNL A   1      46.193  34.228  30.706  1.00  0.00     0.040 A 
ATOM     82  C   UNL A   1      45.796  34.727  28.385  1.00  0.00     0.040 A 
ATOM     83  F   UNL A   1      45.147  33.025  26.910  1.00  0.00    -0.206 F 
ATOM     84  C   UNL A   1      46.140  35.154  29.666  1.00  0.00     0.006 A 
ENDBRANCH  60  77
ENDBRANCH  34  35
ENDBRANCH  26  29
ENDBRANCH  24  25
ENDBRANCH   1  24
TORSDOF 12
ENDMDL
MODEL 3
REMARK VINA RESULT:     -12.2      4.662      9.007
REMARK SMILES C[C@H]1CCCCN1S(=O)(=O)c1ccc(Br)c(C(=O)NCCCNC(=O)c2ccc(-c3c4nc(c(-c5c(F)cccc5F)c5ccc([nH]5)c(-c5c(F)cccc5F)c5nc(c(-c6c(F)cccc6F)c6ccc3[nH]6)C=C5)C=C4)cc2)c1
REMARK SMILES IDX 21 1 20 2 19 3 17 4 18 5 16 7 11 8 12 9 80 10 13 11 14 12
REMARK SMILES IDX 15 13 8 14 9 15 10 16 7 17 1 18 2 19 3 20 4 21 6 22 5 23
REMARK SMILES IDX 22 24 23 25 24 26 25 28 26 29 27 30 79 31 28 32 78 33 29 34
REMARK SMILES IDX 30 35 31 36 72 37 32 38 77 39 71 40 73 41 33 42 76 43 70 44
REMARK SMILES IDX 69 45 34 47 60 48 43 49 59 50 44 51 47 52 58 53 74 54 45 55
REMARK SMILES IDX 46 56 57 58 75 59 48 60 35 61 36 62 41 63 37 64 38 65 40 66
REMARK SMILES IDX 42 67 39 68 61 69 62 70 67 71 63 72 64 73 66 74 68 75 65 76
REMARK SMILES IDX 49 77 50 78 55 79 51 80 52 81 54 82 56 83 53 84
REMARK H PARENT 19 6 23 27 73 46 47 57
REMARK Flexibility Score: inf
ROOT
ATOM      1  C   UNL A   1      31.301  32.333  26.547  1.00  0.00     0.042 C 
ENDROOT
BRANCH   1   2
ATOM      2  C   UNL A   1      31.374  30.901  26.051  1.00  0.00     0.118 C 
BRANCH   2   3
ATOM      3  N   UNL A   1      32.266  30.036  26.785  1.00  0.00    -0.352 N 
ATOM      4  C   UNL A   1      32.736  28.763  26.569  1.00  0.00     0.252 C 
ATOM      5  O   UNL A   1      33.721  28.446  27.242  1.00  0.00    -0.269 OA
ATOM      6  H   UNL A   1      32.609  30.443  27.614  1.00  0.00     0.163 HD
BRANCH   4   7
ATOM      7  C   UNL A   1      32.085  27.708  25.726  1.00  0.00     0.055 A 
ATOM      8  C   UNL A   1      31.323  25.396  25.707  1.00  0.00     0.083 A 
ATOM      9  C   UNL A   1      30.291  25.726  24.828  1.00  0.00     0.023 A 
ATOM     10  C   UNL A   1      32.133  26.399  26.247  1.00  0.00     0.036 A 
ATOM     11  C   UNL A   1      30.315  26.979  24.224  1.00  0.00     0.018 A 
ATOM     12  C   UNL A   1      31.330  27.890  24.562  1.00  0.00     0.030 A 
ATOM     13  Br  UNL A   1      32.185  28.592  22.966  1.00  0.00    -0.050 Br
BRANCH   8  14
ATOM     14  S   UNL A   1      31.575  23.700  26.143  1.00  0.00     0.243 S 
ATOM     15  O   UNL A   1      30.733  22.898  25.278  1.00  0.00    -0.207 OA
ATOM     16  O   UNL A   1      31.442  23.608  27.584  1.00  0.00    -0.207 OA
BRANCH  14  17
ATOM     17  N   UNL A   1      33.255  23.297  25.744  1.00  0.00    -0.195 NA
ATOM     18  C   UNL A   1      33.729  24.258  23.447  1.00  0.00     0.026 C 
ATOM     19  C   UNL A   1      33.561  22.986  24.285  1.00  0.00     0.070 C 
ATOM     20  C   UNL A   1      34.916  22.270  24.092  1.00  0.00     0.020 C 
ATOM     21  C   UNL A   1      35.141  21.098  25.017  1.00  0.00     0.003 C 
ATOM     22  C   UNL A   1      33.618  22.146  26.667  1.00  0.00     0.103 C 
ATOM     23  C   UNL A   1      35.013  21.596  26.439  1.00  0.00     0.017 C 
ENDBRANCH  14  17
ENDBRANCH   8  14
ENDBRANCH   4   7
ENDBRANCH   2   3
ENDBRANCH   1   2
BRANCH   1  24
ATOM     24  C   UNL A   1      32.645  32.898  26.982  1.00  0.00     0.118 C 
BRANCH  24  25
ATOM     25  N   UNL A   1      32.525  34.198  27.640  1.00  0.00    -0.352 N 
ATOM     26  C   UNL A   1      33.152  34.725  28.740  1.00  0.00     0.251 C 
ATOM     27  H   UNL A   1      31.877  34.806  27.215  1.00  0.00     0.163 HD
ATOM     28  O   UNL A   1      32.721  35.762  29.236  1.00  0.00    -0.269 OA
BRANCH  26  29
ATOM     29  C   UNL A   1      34.331  34.064  29.335  1.00  0.00     0.039 A 
ATOM     30  C   UNL A   1      34.138  33.142  30.368  1.00  0.00     0.014 A 
ATOM     31  C   UNL A   1      35.625  34.378  28.917  1.00  0.00     0.014 A 
ATOM     32  C   UNL A   1      35.237  32.494  30.932  1.00  0.00     0.010 A 
ATOM     33  C   UNL A   1      36.707  33.651  29.398  1.00  0.00     0.010 A 
ATOM     34  C   UNL A   1      36.527  32.712  30.420  1.00  0.00    -0.014 A 
BRANCH  34  35
ATOM     35  C   UNL A   1      37.698  31.975  30.955  1.00  0.00     0.031 A 
ATOM     36  C   UNL A   1      38.238  32.299  32.322  1.00  0.00     0.074 A 
ATOM     37  C   UNL A   1      38.302  31.049  30.185  1.00  0.00     0.049 A 
ATOM     38  N   UNL A   1      39.277  31.794  32.939  1.00  0.00    -0.248 NA
ATOM     39  C   UNL A   1      37.539  33.345  33.086  1.00  0.00     0.031 C 
ATOM     40  C   UNL A   1      37.907  30.696  28.818  1.00  0.00     0.029 A 
ATOM     41  N   UNL A   1      39.378  30.237  30.438  1.00  0.00    -0.354 N 
ATOM     42  C   UNL A   1      39.351  32.457  34.157  1.00  0.00     0.074 A 
ATOM     43  C   UNL A   1      38.303  33.454  34.162  1.00  0.00     0.031 C 
ATOM     44  C   UNL A   1      38.710  29.720  28.366  1.00  0.00     0.029 A 
ATOM     45  C   UNL A   1      39.701  29.408  29.390  1.00  0.00     0.049 A 
ATOM     46  H   UNL A   1      39.873  30.248  31.289  1.00  0.00     0.167 HD
ATOM     47  C   UNL A   1      40.192  32.233  35.194  1.00  0.00     0.037 A 
ATOM     48  C   UNL A   1      40.691  28.504  29.269  1.00  0.00     0.037 A 
ATOM     49  C   UNL A   1      41.225  31.231  35.188  1.00  0.00     0.049 A 
ATOM     50  C   UNL A   1      41.619  28.285  30.431  1.00  0.00     0.074 A 
ATOM     51  C   UNL A   1      42.113  30.903  36.196  1.00  0.00     0.029 A 
ATOM     52  N   UNL A   1      41.507  30.397  34.118  1.00  0.00    -0.354 N 
ATOM     53  N   UNL A   1      41.636  28.876  31.601  1.00  0.00    -0.248 NA
ATOM     54  C   UNL A   1      42.661  27.262  30.260  1.00  0.00     0.031 C 
ATOM     55  C   UNL A   1      42.962  29.898  35.721  1.00  0.00     0.029 A 
ATOM     56  C   UNL A   1      42.565  29.562  34.436  1.00  0.00     0.049 A 
ATOM     57  H   UNL A   1      41.027  30.397  33.258  1.00  0.00     0.167 HD
ATOM     58  C   UNL A   1      42.668  28.281  32.314  1.00  0.00     0.074 A 
ATOM     59  C   UNL A   1      43.236  27.264  31.453  1.00  0.00     0.031 C 
ATOM     60  C   UNL A   1      43.112  28.552  33.566  1.00  0.00     0.037 A 
BRANCH  47  61
ATOM     61  C   UNL A   1      40.012  33.070  36.428  1.00  0.00     0.057 A 
ATOM     62  C   UNL A   1      39.080  32.727  37.418  1.00  0.00     0.134 A 
ATOM     63  C   UNL A   1      40.805  34.201  36.655  1.00  0.00     0.134 A 
ATOM     64  F   UNL A   1      38.278  31.663  37.258  1.00  0.00    -0.206 F 
ATOM     65  C   UNL A   1      38.928  33.491  38.576  1.00  0.00     0.040 A 
ATOM     66  C   UNL A   1      40.682  34.956  37.823  1.00  0.00     0.040 A 
ATOM     67  F   UNL A   1      41.719  34.585  35.752  1.00  0.00    -0.206 F 
ATOM     68  C   UNL A   1      39.738  34.604  38.785  1.00  0.00     0.006 A 
ENDBRANCH  47  61
BRANCH  48  69
ATOM     69  C   UNL A   1      40.853  27.735  28.008  1.00  0.00     0.057 A 
ATOM     70  C   UNL A   1      40.248  26.485  27.834  1.00  0.00     0.134 A 
ATOM     71  C   UNL A   1      41.641  28.219  26.956  1.00  0.00     0.134 A 
ATOM     72  F   UNL A   1      39.492  25.959  28.809  1.00  0.00    -0.206 F 
ATOM     73  C   UNL A   1      40.449  25.728  26.678  1.00  0.00     0.040 A 
ATOM     74  C   UNL A   1      41.825  27.488  25.782  1.00  0.00     0.040 A 
ATOM     75  F   UNL A   1      42.237  29.417  27.052  1.00  0.00    -0.206 F 
ATOM     76  C   UNL A   1      41.238  26.232  25.646  1.00  0.00     0.006 A 
ENDBRANCH  48  69
BRANCH  60  77
ATOM     77  C   UNL A   1      44.241  27.711  34.086  1.00  0.00     0.057 A 
ATOM     78  C   UNL A   1      44.022  26.468  34.693  1.00  0.00     0.134 A 
ATOM     79  C   UNL A   1      45.568  28.143  33.958  1.00  0.00     0.134 A 
ATOM     80  F   UNL A   1      42.774  26.002  34.859  1.00  0.00    -0.206 F 
ATOM     81  C   UNL A   1      45.079  25.701  35.187  1.00  0.00     0.040 A 
ATOM     82  C   UNL A   1      46.634  27.370  34.417  1.00  0.00     0.040 A 
ATOM     83  F   UNL A   1      45.850  29.318  33.376  1.00  0.00    -0.206 F 
ATOM     84  C   UNL A   1      46.390  26.149  35.042  1.00  0.00     0.006 A 
ENDBRANCH  60  77
ENDBRANCH  34  35
ENDBRANCH  26  29
ENDBRANCH  24  25
ENDBRANCH   1  24
TORSDOF 12
ENDMDL
