MODEL 1
REMARK VINA RESULT:     -11.0      0.000      0.000
REMARK SMILES CC[NH2+][C@]1(C(=O)NCCCNC(=O)c2ccc(-c3c4nc(c(-c5c(F)cccc5F)c5ccc([nH]5)c(-c5c(F)cccc5F)c5nc(c(-c6c(F)cccc6F)c6ccc3[nH]6)C=C5)C=C4)cc2)CCC[C@@H]([N@@H+](C)CC2CCCC2)C1
REMARK SMILES IDX 8 1 7 2 5 3 6 4 4 6 68 7 80 8 69 9 71 10 70 11 3 12 2 15
REMARK SMILES IDX 1 16 72 17 73 18 74 20 75 21 76 22 79 23 77 24 78 25 9 26
REMARK SMILES IDX 10 27 11 28 12 29 13 31 14 32 15 33 67 34 16 35 66 36 17 37
REMARK SMILES IDX 18 38 19 39 60 40 20 41 65 42 59 43 61 44 21 45 64 46 58 47
REMARK SMILES IDX 57 48 22 50 48 51 31 52 47 53 32 54 35 55 46 56 62 57 33 58
REMARK SMILES IDX 34 59 45 61 63 62 36 63 23 64 24 65 29 66 25 67 26 68 28 69
REMARK SMILES IDX 30 70 27 71 49 72 50 73 55 74 51 75 52 76 54 77 56 78 53 79
REMARK SMILES IDX 37 80 38 81 43 82 39 83 40 84 42 85 44 86 41 87
REMARK H PARENT 7 5 3 13 3 14 72 19 11 30 61 49 35 60
REMARK Flexibility Score: inf
ROOT
ATOM      1  C   UNL A   1      36.222  20.823  24.802  1.00  0.00     0.118 C 
ENDROOT
BRANCH   1   2
ATOM      2  N   UNL A   1      35.573  21.079  26.072  1.00  0.00    -0.351 N 
ATOM      3  C   UNL A   1      34.343  21.502  26.457  1.00  0.00     0.281 C 
ATOM      4  O   UNL A   1      34.160  21.407  27.681  1.00  0.00    -0.268 OA
ATOM      5  H   UNL A   1      36.166  20.904  26.838  1.00  0.00     0.163 HD
BRANCH   3   6
ATOM      6  C   UNL A   1      33.178  21.999  25.512  1.00  0.00     0.181 C 
ATOM      7  C   UNL A   1      31.838  22.324  26.199  1.00  0.00     0.079 C 
ATOM      8  C   UNL A   1      33.696  23.315  24.866  1.00  0.00     0.144 C 
ATOM      9  C   UNL A   1      30.769  22.826  25.231  1.00  0.00     0.013 C 
ATOM     10  C   UNL A   1      32.677  24.115  24.015  1.00  0.00     0.190 C 
ATOM     11  C   UNL A   1      31.253  24.107  24.584  1.00  0.00     0.065 C 
BRANCH   6  12
ATOM     12  N   UNL A   1      32.805  20.934  24.535  1.00  0.00    -0.334 N 
ATOM     13  H   UNL A   1      31.956  21.245  24.064  1.00  0.00     0.347 HD
ATOM     14  H   UNL A   1      33.637  20.833  23.955  1.00  0.00     0.347 HD
BRANCH  12  15
ATOM     15  C   UNL A   1      32.553  19.586  25.024  1.00  0.00     0.257 C 
ATOM     16  C   UNL A   1      33.393  18.635  24.174  1.00  0.00     0.071 C 
ENDBRANCH  12  15
ENDBRANCH   6  12
BRANCH  10  17
ATOM     17  N   UNL A   1      33.143  25.482  23.665  1.00  0.00    -0.334 N 
ATOM     18  C   UNL A   1      32.220  26.264  22.858  1.00  0.00     0.332 C 
ATOM     19  H   UNL A   1      33.905  25.177  23.059  1.00  0.00     0.348 HD
BRANCH  17  20
ATOM     20  C   UNL A   1      33.952  26.279  24.598  1.00  0.00     0.265 C 
BRANCH  20  21
ATOM     21  C   UNL A   1      33.459  26.938  25.919  1.00  0.00     0.044 C 
ATOM     22  C   UNL A   1      33.802  28.419  26.089  1.00  0.00     0.009 C 
ATOM     23  C   UNL A   1      31.984  26.926  26.301  1.00  0.00     0.009 C 
ATOM     24  C   UNL A   1      33.093  28.782  27.394  1.00  0.00     0.001 C 
ATOM     25  C   UNL A   1      31.796  27.989  27.378  1.00  0.00     0.001 C 
ENDBRANCH  20  21
ENDBRANCH  17  20
ENDBRANCH  10  17
ENDBRANCH   3   6
ENDBRANCH   1   2
BRANCH   1  26
ATOM     26  C   UNL A   1      37.372  19.831  24.919  1.00  0.00     0.042 C 
BRANCH  26  27
ATOM     27  C   UNL A   1      38.625  20.434  25.545  1.00  0.00     0.118 C 
BRANCH  27  28
ATOM     28  N   UNL A   1      39.678  19.442  25.736  1.00  0.00    -0.352 N 
ATOM     29  C   UNL A   1      40.998  19.596  26.073  1.00  0.00     0.251 C 
ATOM     30  H   UNL A   1      39.393  18.509  25.601  1.00  0.00     0.163 HD
ATOM     31  O   UNL A   1      41.770  18.652  25.936  1.00  0.00    -0.269 OA
BRANCH  29  32
ATOM     32  C   UNL A   1      41.498  20.884  26.598  1.00  0.00     0.039 A 
ATOM     33  C   UNL A   1      41.981  21.838  25.697  1.00  0.00     0.014 A 
ATOM     34  C   UNL A   1      41.543  21.134  27.972  1.00  0.00     0.014 A 
ATOM     35  C   UNL A   1      42.452  23.064  26.171  1.00  0.00     0.010 A 
ATOM     36  C   UNL A   1      41.934  22.386  28.436  1.00  0.00     0.010 A 
ATOM     37  C   UNL A   1      42.399  23.360  27.542  1.00  0.00    -0.014 A 
BRANCH  37  38
ATOM     38  C   UNL A   1      42.825  24.683  28.064  1.00  0.00     0.031 A 
ATOM     39  C   UNL A   1      41.804  25.753  28.337  1.00  0.00     0.074 A 
ATOM     40  C   UNL A   1      44.140  24.942  28.213  1.00  0.00     0.049 A 
ATOM     41  N   UNL A   1      41.988  26.996  28.701  1.00  0.00    -0.248 NA
ATOM     42  C   UNL A   1      40.391  25.387  28.149  1.00  0.00     0.031 C 
ATOM     43  C   UNL A   1      45.226  24.003  27.927  1.00  0.00     0.029 A 
ATOM     44  N   UNL A   1      44.786  26.080  28.624  1.00  0.00    -0.354 N 
ATOM     45  C   UNL A   1      40.721  27.563  28.761  1.00  0.00     0.074 A 
ATOM     46  C   UNL A   1      39.780  26.544  28.357  1.00  0.00     0.031 C 
ATOM     47  C   UNL A   1      46.402  24.598  28.184  1.00  0.00     0.029 A 
ATOM     48  C   UNL A   1      46.156  25.971  28.611  1.00  0.00     0.049 A 
ATOM     49  H   UNL A   1      44.313  26.898  28.902  1.00  0.00     0.167 HD
ATOM     50  C   UNL A   1      40.375  28.817  29.140  1.00  0.00     0.037 A 
ATOM     51  C   UNL A   1      47.107  26.881  28.897  1.00  0.00     0.037 A 
ATOM     52  C   UNL A   1      41.315  29.815  29.578  1.00  0.00     0.049 A 
ATOM     53  C   UNL A   1      46.691  28.261  29.326  1.00  0.00     0.074 A 
ATOM     54  C   UNL A   1      41.057  31.086  30.060  1.00  0.00     0.029 A 
ATOM     55  N   UNL A   1      42.692  29.653  29.587  1.00  0.00    -0.354 N 
ATOM     56  N   UNL A   1      45.484  28.758  29.458  1.00  0.00    -0.248 NA
ATOM     57  C   UNL A   1      47.768  29.205  29.652  1.00  0.00     0.031 C 
ATOM     58  C   UNL A   1      42.280  31.712  30.316  1.00  0.00     0.029 A 
ATOM     59  C   UNL A   1      43.297  30.813  30.041  1.00  0.00     0.049 A 
ATOM     60  H   UNL A   1      43.167  28.838  29.311  1.00  0.00     0.167 HD
ATOM     61  C   UNL A   1      45.657  30.060  29.908  1.00  0.00     0.074 A 
ATOM     62  C   UNL A   1      47.083  30.271  30.042  1.00  0.00     0.031 C 
ATOM     63  C   UNL A   1      44.719  30.999  30.180  1.00  0.00     0.037 A 
BRANCH  50  64
ATOM     64  C   UNL A   1      38.920  29.184  29.108  1.00  0.00     0.057 A 
ATOM     65  C   UNL A   1      38.283  29.581  27.926  1.00  0.00     0.134 A 
ATOM     66  C   UNL A   1      38.133  29.077  30.262  1.00  0.00     0.134 A 
ATOM     67  F   UNL A   1      38.981  29.713  26.788  1.00  0.00    -0.206 F 
ATOM     68  C   UNL A   1      36.918  29.872  27.894  1.00  0.00     0.040 A 
ATOM     69  C   UNL A   1      36.762  29.341  30.238  1.00  0.00     0.040 A 
ATOM     70  F   UNL A   1      38.679  28.698  31.426  1.00  0.00    -0.206 F 
ATOM     71  C   UNL A   1      36.151  29.742  29.051  1.00  0.00     0.006 A 
ENDBRANCH  50  64
BRANCH  51  72
ATOM     72  C   UNL A   1      48.544  26.522  28.791  1.00  0.00     0.057 A 
ATOM     73  C   UNL A   1      49.223  25.927  29.861  1.00  0.00     0.134 A 
ATOM     74  C   UNL A   1      49.279  26.784  27.628  1.00  0.00     0.134 A 
ATOM     75  F   UNL A   1      48.578  25.666  31.007  1.00  0.00    -0.206 F 
ATOM     76  C   UNL A   1      50.586  25.635  29.792  1.00  0.00     0.040 A 
ATOM     77  C   UNL A   1      50.635  26.471  27.534  1.00  0.00     0.040 A 
ATOM     78  F   UNL A   1      48.686  27.342  26.563  1.00  0.00    -0.206 F 
ATOM     79  C   UNL A   1      51.295  25.905  28.623  1.00  0.00     0.006 A 
ENDBRANCH  51  72
BRANCH  63  80
ATOM     80  C   UNL A   1      45.204  32.326  30.685  1.00  0.00     0.057 A 
ATOM     81  C   UNL A   1      45.481  33.391  29.819  1.00  0.00     0.134 A 
ATOM     82  C   UNL A   1      45.354  32.551  32.059  1.00  0.00     0.134 A 
ATOM     83  F   UNL A   1      45.368  33.234  28.491  1.00  0.00    -0.206 F 
ATOM     84  C   UNL A   1      45.912  34.627  30.300  1.00  0.00     0.040 A 
ATOM     85  C   UNL A   1      45.758  33.792  32.554  1.00  0.00     0.040 A 
ATOM     86  F   UNL A   1      45.096  31.575  32.943  1.00  0.00    -0.206 F 
ATOM     87  C   UNL A   1      46.044  34.832  31.673  1.00  0.00     0.006 A 
ENDBRANCH  63  80
ENDBRANCH  37  38
ENDBRANCH  29  32
ENDBRANCH  27  28
ENDBRANCH  26  27
ENDBRANCH   1  26
TORSDOF 15
ENDMDL
MODEL 2
REMARK VINA RESULT:     -10.9      5.130      9.709
REMARK SMILES CC[NH2+][C@]1(C(=O)NCCCNC(=O)c2ccc(-c3c4nc(c(-c5c(F)cccc5F)c5ccc([nH]5)c(-c5c(F)cccc5F)c5nc(c(-c6c(F)cccc6F)c6ccc3[nH]6)C=C5)C=C4)cc2)CCC[C@@H]([N@@H+](C)CC2CCCC2)C1
REMARK SMILES IDX 8 1 7 2 5 3 6 4 4 6 68 7 80 8 69 9 71 10 70 11 3 12 2 15
REMARK SMILES IDX 1 16 72 17 73 18 74 20 75 21 76 22 79 23 77 24 78 25 9 26
REMARK SMILES IDX 10 27 11 28 12 29 13 31 14 32 15 33 67 34 16 35 66 36 17 37
REMARK SMILES IDX 18 38 19 39 60 40 20 41 65 42 59 43 61 44 21 45 64 46 58 47
REMARK SMILES IDX 57 48 22 50 48 51 31 52 47 53 32 54 35 55 46 56 62 57 33 58
REMARK SMILES IDX 34 59 45 61 63 62 36 63 23 64 24 65 29 66 25 67 26 68 28 69
REMARK SMILES IDX 30 70 27 71 49 72 50 73 55 74 51 75 52 76 54 77 56 78 53 79
REMARK SMILES IDX 37 80 38 81 43 82 39 83 40 84 42 85 44 86 41 87
REMARK H PARENT 7 5 3 13 3 14 72 19 11 30 61 49 35 60
REMARK Flexibility Score: inf
ROOT
ATOM      1  C   UNL A   1      31.430  30.825  26.123  1.00  0.00     0.118 C 
ENDROOT
BRANCH   1   2
ATOM      2  N   UNL A   1      32.750  30.271  26.346  1.00  0.00    -0.351 N 
ATOM      3  C   UNL A   1      33.319  29.049  26.196  1.00  0.00     0.281 C 
ATOM      4  O   UNL A   1      34.552  29.067  26.342  1.00  0.00    -0.268 OA
ATOM      5  H   UNL A   1      33.385  30.941  26.686  1.00  0.00     0.163 HD
BRANCH   3   6
ATOM      6  C   UNL A   1      32.584  27.708  25.797  1.00  0.00     0.181 C 
ATOM      7  C   UNL A   1      31.682  27.080  26.876  1.00  0.00     0.079 C 
ATOM      8  C   UNL A   1      31.673  28.074  24.590  1.00  0.00     0.144 C 
ATOM      9  C   UNL A   1      30.981  25.806  26.412  1.00  0.00     0.013 C 
ATOM     10  C   UNL A   1      30.700  26.971  24.100  1.00  0.00     0.190 C 
ATOM     11  C   UNL A   1      30.091  26.135  25.232  1.00  0.00     0.065 C 
BRANCH   6  12
ATOM     12  N   UNL A   1      33.576  26.629  25.519  1.00  0.00    -0.334 N 
ATOM     13  H   UNL A   1      34.415  26.849  26.055  1.00  0.00     0.347 HD
ATOM     14  H   UNL A   1      33.084  25.773  25.775  1.00  0.00     0.347 HD
BRANCH  12  15
ATOM     15  C   UNL A   1      33.996  26.394  24.144  1.00  0.00     0.257 C 
ATOM     16  C   UNL A   1      33.866  24.895  23.885  1.00  0.00     0.071 C 
ENDBRANCH  12  15
ENDBRANCH   6  12
BRANCH  10  17
ATOM     17  N   UNL A   1      29.677  27.469  23.145  1.00  0.00    -0.334 N 
ATOM     18  C   UNL A   1      28.299  27.171  23.502  1.00  0.00     0.332 C 
ATOM     19  H   UNL A   1      29.942  26.848  22.380  1.00  0.00     0.348 HD
BRANCH  17  20
ATOM     20  C   UNL A   1      29.851  28.739  22.425  1.00  0.00     0.265 C 
BRANCH  20  21
ATOM     21  C   UNL A   1      28.834  29.915  22.367  1.00  0.00     0.044 C 
ATOM     22  C   UNL A   1      28.895  30.903  23.534  1.00  0.00     0.009 C 
ATOM     23  C   UNL A   1      28.796  30.864  21.174  1.00  0.00     0.009 C 
ATOM     24  C   UNL A   1      27.882  31.973  23.125  1.00  0.00     0.001 C 
ATOM     25  C   UNL A   1      28.026  32.103  21.617  1.00  0.00     0.001 C 
ENDBRANCH  20  21
ENDBRANCH  17  20
ENDBRANCH  10  17
ENDBRANCH   3   6
ENDBRANCH   1   2
BRANCH   1  26
ATOM     26  C   UNL A   1      31.337  32.296  26.510  1.00  0.00     0.042 C 
BRANCH  26  27
ATOM     27  C   UNL A   1      32.602  32.822  27.181  1.00  0.00     0.118 C 
BRANCH  27  28
ATOM     28  N   UNL A   1      32.455  34.203  27.626  1.00  0.00    -0.352 N 
ATOM     29  C   UNL A   1      33.050  34.874  28.663  1.00  0.00     0.251 C 
ATOM     30  H   UNL A   1      31.826  34.742  27.094  1.00  0.00     0.163 HD
ATOM     31  O   UNL A   1      32.599  35.959  29.018  1.00  0.00    -0.269 OA
BRANCH  29  32
ATOM     32  C   UNL A   1      34.225  34.305  29.355  1.00  0.00     0.039 A 
ATOM     33  C   UNL A   1      34.023  33.524  30.498  1.00  0.00     0.014 A 
ATOM     34  C   UNL A   1      35.523  34.579  28.918  1.00  0.00     0.014 A 
ATOM     35  C   UNL A   1      35.118  32.970  31.164  1.00  0.00     0.010 A 
ATOM     36  C   UNL A   1      36.607  33.960  29.532  1.00  0.00     0.010 A 
ATOM     37  C   UNL A   1      36.417  33.156  30.664  1.00  0.00    -0.014 A 
BRANCH  37  38
ATOM     38  C   UNL A   1      37.591  32.519  31.310  1.00  0.00     0.031 A 
ATOM     39  C   UNL A   1      38.292  31.369  30.640  1.00  0.00     0.074 A 
ATOM     40  C   UNL A   1      37.974  32.928  32.536  1.00  0.00     0.049 A 
ATOM     41  N   UNL A   1      39.269  30.623  31.088  1.00  0.00    -0.248 NA
ATOM     42  C   UNL A   1      37.812  30.986  29.302  1.00  0.00     0.031 C 
ATOM     43  C   UNL A   1      37.337  33.996  33.310  1.00  0.00     0.029 A 
ATOM     44  N   UNL A   1      38.978  32.479  33.357  1.00  0.00    -0.354 N 
ATOM     45  C   UNL A   1      39.502  29.673  30.101  1.00  0.00     0.074 A 
ATOM     46  C   UNL A   1      38.539  29.907  29.050  1.00  0.00     0.031 C 
ATOM     47  C   UNL A   1      37.975  34.129  34.484  1.00  0.00     0.029 A 
ATOM     48  C   UNL A   1      39.034  33.130  34.565  1.00  0.00     0.049 A 
ATOM     49  H   UNL A   1      39.600  31.758  33.103  1.00  0.00     0.167 HD
ATOM     50  C   UNL A   1      40.449  28.705  30.069  1.00  0.00     0.037 A 
ATOM     51  C   UNL A   1      39.840  32.933  35.626  1.00  0.00     0.037 A 
ATOM     52  C   UNL A   1      41.429  28.502  31.103  1.00  0.00     0.049 A 
ATOM     53  C   UNL A   1      40.889  31.858  35.556  1.00  0.00     0.074 A 
ATOM     54  C   UNL A   1      42.481  27.602  31.126  1.00  0.00     0.029 A 
ATOM     55  N   UNL A   1      41.477  29.206  32.296  1.00  0.00    -0.354 N 
ATOM     56  N   UNL A   1      41.152  31.021  34.580  1.00  0.00    -0.248 NA
ATOM     57  C   UNL A   1      41.760  31.704  36.729  1.00  0.00     0.031 C 
ATOM     58  C   UNL A   1      43.137  27.730  32.353  1.00  0.00     0.029 A 
ATOM     59  C   UNL A   1      42.526  28.743  33.073  1.00  0.00     0.049 A 
ATOM     60  H   UNL A   1      40.859  29.927  32.552  1.00  0.00     0.167 HD
ATOM     61  C   UNL A   1      42.232  30.262  35.011  1.00  0.00     0.074 A 
ATOM     62  C   UNL A   1      42.586  30.749  36.328  1.00  0.00     0.031 C 
ATOM     63  C   UNL A   1      42.870  29.250  34.377  1.00  0.00     0.037 A 
BRANCH  50  64
ATOM     64  C   UNL A   1      40.483  27.794  28.877  1.00  0.00     0.057 A 
ATOM     65  C   UNL A   1      41.317  28.043  27.780  1.00  0.00     0.134 A 
ATOM     66  C   UNL A   1      39.719  26.620  28.854  1.00  0.00     0.134 A 
ATOM     67  F   UNL A   1      42.066  29.154  27.733  1.00  0.00    -0.206 F 
ATOM     68  C   UNL A   1      41.380  27.164  26.696  1.00  0.00     0.040 A 
ATOM     69  C   UNL A   1      39.793  25.721  27.789  1.00  0.00     0.040 A 
ATOM     70  F   UNL A   1      38.903  26.319  29.875  1.00  0.00    -0.206 F 
ATOM     71  C   UNL A   1      40.624  25.994  26.704  1.00  0.00     0.006 A 
ENDBRANCH  50  64
BRANCH  51  72
ATOM     72  C   UNL A   1      39.692  33.768  36.845  1.00  0.00     0.057 A 
ATOM     73  C   UNL A   1      38.863  33.368  37.900  1.00  0.00     0.134 A 
ATOM     74  C   UNL A   1      40.356  34.994  36.977  1.00  0.00     0.134 A 
ATOM     75  F   UNL A   1      38.188  32.212  37.827  1.00  0.00    -0.206 F 
ATOM     76  C   UNL A   1      38.674  34.170  39.027  1.00  0.00     0.040 A 
ATOM     77  C   UNL A   1      40.199  35.793  38.110  1.00  0.00     0.040 A 
ATOM     78  F   UNL A   1      41.172  35.430  36.007  1.00  0.00    -0.206 F 
ATOM     79  C   UNL A   1      39.347  35.386  39.135  1.00  0.00     0.006 A 
ENDBRANCH  51  72
BRANCH  63  80
ATOM     80  C   UNL A   1      44.039  28.626  35.082  1.00  0.00     0.057 A 
ATOM     81  C   UNL A   1      43.891  27.506  35.909  1.00  0.00     0.134 A 
ATOM     82  C   UNL A   1      45.332  29.129  34.896  1.00  0.00     0.134 A 
ATOM     83  F   UNL A   1      42.675  26.985  36.138  1.00  0.00    -0.206 F 
ATOM     84  C   UNL A   1      44.986  26.921  36.545  1.00  0.00     0.040 A 
ATOM     85  C   UNL A   1      46.439  28.536  35.504  1.00  0.00     0.040 A 
ATOM     86  F   UNL A   1      45.543  30.195  34.108  1.00  0.00    -0.206 F 
ATOM     87  C   UNL A   1      46.267  27.432  36.336  1.00  0.00     0.006 A 
ENDBRANCH  63  80
ENDBRANCH  37  38
ENDBRANCH  29  32
ENDBRANCH  27  28
ENDBRANCH  26  27
ENDBRANCH   1  26
TORSDOF 15
ENDMDL
MODEL 3
REMARK VINA RESULT:     -10.9      0.654      6.309
REMARK SMILES CC[NH2+][C@]1(C(=O)NCCCNC(=O)c2ccc(-c3c4nc(c(-c5c(F)cccc5F)c5ccc([nH]5)c(-c5c(F)cccc5F)c5nc(c(-c6c(F)cccc6F)c6ccc3[nH]6)C=C5)C=C4)cc2)CCC[C@@H]([N@@H+](C)CC2CCCC2)C1
REMARK SMILES IDX 8 1 7 2 5 3 6 4 4 6 68 7 80 8 69 9 71 10 70 11 3 12 2 15
REMARK SMILES IDX 1 16 72 17 73 18 74 20 75 21 76 22 79 23 77 24 78 25 9 26
REMARK SMILES IDX 10 27 11 28 12 29 13 31 14 32 15 33 67 34 16 35 66 36 17 37
REMARK SMILES IDX 18 38 19 39 60 40 20 41 65 42 59 43 61 44 21 45 64 46 58 47
REMARK SMILES IDX 57 48 22 50 48 51 31 52 47 53 32 54 35 55 46 56 62 57 33 58
REMARK SMILES IDX 34 59 45 61 63 62 36 63 23 64 24 65 29 66 25 67 26 68 28 69
REMARK SMILES IDX 30 70 27 71 49 72 50 73 55 74 51 75 52 76 54 77 56 78 53 79
REMARK SMILES IDX 37 80 38 81 43 82 39 83 40 84 42 85 44 86 41 87
REMARK H PARENT 7 5 3 13 3 14 72 19 11 30 61 49 35 60
REMARK Flexibility Score: inf
ROOT
ATOM      1  C   UNL A   1      36.372  20.556  24.685  1.00  0.00     0.118 C 
ENDROOT
BRANCH   1   2
ATOM      2  N   UNL A   1      35.735  20.937  25.930  1.00  0.00    -0.351 N 
ATOM      3  C   UNL A   1      34.536  21.468  26.275  1.00  0.00     0.281 C 
ATOM      4  O   UNL A   1      34.339  21.465  27.501  1.00  0.00    -0.268 OA
ATOM      5  H   UNL A   1      36.310  20.771  26.711  1.00  0.00     0.163 HD
BRANCH   3   6
ATOM      6  C   UNL A   1      33.413  21.981  25.289  1.00  0.00     0.181 C 
ATOM      7  C   UNL A   1      32.044  22.294  25.922  1.00  0.00     0.079 C 
ATOM      8  C   UNL A   1      33.958  23.308  24.689  1.00  0.00     0.144 C 
ATOM      9  C   UNL A   1      31.018  22.814  24.917  1.00  0.00     0.013 C 
ATOM     10  C   UNL A   1      32.977  24.123  23.808  1.00  0.00     0.190 C 
ATOM     11  C   UNL A   1      31.529  24.106  24.314  1.00  0.00     0.065 C 
BRANCH   6  12
ATOM     12  N   UNL A   1      33.083  20.934  24.278  1.00  0.00    -0.334 N 
ATOM     13  H   UNL A   1      32.403  21.341  23.637  1.00  0.00     0.347 HD
ATOM     14  H   UNL A   1      33.989  20.683  23.882  1.00  0.00     0.347 HD
BRANCH  12  15
ATOM     15  C   UNL A   1      32.535  19.663  24.732  1.00  0.00     0.257 C 
ATOM     16  C   UNL A   1      33.415  18.560  24.150  1.00  0.00     0.071 C 
ENDBRANCH  12  15
ENDBRANCH   6  12
BRANCH  10  17
ATOM     17  N   UNL A   1      33.457  25.496  23.503  1.00  0.00    -0.334 N 
ATOM     18  C   UNL A   1      32.725  26.190  22.456  1.00  0.00     0.332 C 
ATOM     19  H   UNL A   1      34.355  25.205  23.116  1.00  0.00     0.348 HD
BRANCH  17  20
ATOM     20  C   UNL A   1      33.983  26.377  24.556  1.00  0.00     0.265 C 
BRANCH  20  21
ATOM     21  C   UNL A   1      33.160  27.366  25.431  1.00  0.00     0.044 C 
ATOM     22  C   UNL A   1      32.269  26.725  26.497  1.00  0.00     0.009 C 
ATOM     23  C   UNL A   1      33.846  28.464  26.234  1.00  0.00     0.009 C 
ATOM     24  C   UNL A   1      31.705  27.936  27.240  1.00  0.00     0.001 C 
ATOM     25  C   UNL A   1      32.840  28.948  27.274  1.00  0.00     0.001 C 
ENDBRANCH  20  21
ENDBRANCH  17  20
ENDBRANCH  10  17
ENDBRANCH   3   6
ENDBRANCH   1   2
BRANCH   1  26
ATOM     26  C   UNL A   1      37.549  19.611  24.893  1.00  0.00     0.042 C 
BRANCH  26  27
ATOM     27  C   UNL A   1      38.678  20.228  25.711  1.00  0.00     0.118 C 
BRANCH  27  28
ATOM     28  N   UNL A   1      39.837  19.347  25.802  1.00  0.00    -0.352 N 
ATOM     29  C   UNL A   1      41.155  19.630  26.053  1.00  0.00     0.251 C 
ATOM     30  H   UNL A   1      39.641  18.393  25.660  1.00  0.00     0.163 HD
ATOM     31  O   UNL A   1      42.008  18.774  25.837  1.00  0.00    -0.269 OA
BRANCH  29  32
ATOM     32  C   UNL A   1      41.557  20.951  26.579  1.00  0.00     0.039 A 
ATOM     33  C   UNL A   1      42.063  21.906  25.691  1.00  0.00     0.014 A 
ATOM     34  C   UNL A   1      41.488  21.236  27.945  1.00  0.00     0.014 A 
ATOM     35  C   UNL A   1      42.442  23.163  26.165  1.00  0.00     0.010 A 
ATOM     36  C   UNL A   1      41.787  22.515  28.403  1.00  0.00     0.010 A 
ATOM     37  C   UNL A   1      42.274  23.489  27.520  1.00  0.00    -0.014 A 
BRANCH  37  38
ATOM     38  C   UNL A   1      42.600  24.841  28.036  1.00  0.00     0.031 A 
ATOM     39  C   UNL A   1      44.005  25.168  28.465  1.00  0.00     0.074 A 
ATOM     40  C   UNL A   1      41.613  25.745  28.192  1.00  0.00     0.049 A 
ATOM     41  N   UNL A   1      44.464  26.255  29.030  1.00  0.00    -0.248 NA
ATOM     42  C   UNL A   1      45.023  24.124  28.260  1.00  0.00     0.031 C 
ATOM     43  C   UNL A   1      40.203  25.525  27.864  1.00  0.00     0.029 A 
ATOM     44  N   UNL A   1      41.642  27.025  28.686  1.00  0.00    -0.354 N 
ATOM     45  C   UNL A   1      45.812  26.017  29.268  1.00  0.00     0.074 A 
ATOM     46  C   UNL A   1      46.089  24.669  28.827  1.00  0.00     0.031 C 
ATOM     47  C   UNL A   1      39.505  26.636  28.152  1.00  0.00     0.029 A 
ATOM     48  C   UNL A   1      40.408  27.629  28.723  1.00  0.00     0.049 A 
ATOM     49  H   UNL A   1      42.469  27.469  28.985  1.00  0.00     0.167 HD
ATOM     50  C   UNL A   1      46.737  26.857  29.790  1.00  0.00     0.037 A 
ATOM     51  C   UNL A   1      40.043  28.842  29.181  1.00  0.00     0.037 A 
ATOM     52  C   UNL A   1      46.462  28.211  30.191  1.00  0.00     0.049 A 
ATOM     53  C   UNL A   1      41.096  29.756  29.744  1.00  0.00     0.074 A 
ATOM     54  C   UNL A   1      47.348  29.168  30.655  1.00  0.00     0.029 A 
ATOM     55  N   UNL A   1      45.206  28.799  30.179  1.00  0.00    -0.354 N 
ATOM     56  N   UNL A   1      42.383  29.547  29.886  1.00  0.00    -0.248 NA
ATOM     57  C   UNL A   1      40.648  31.077  30.205  1.00  0.00     0.031 C 
ATOM     58  C   UNL A   1      46.622  30.320  30.967  1.00  0.00     0.029 A 
ATOM     59  C   UNL A   1      45.291  30.098  30.651  1.00  0.00     0.049 A 
ATOM     60  H   UNL A   1      44.379  28.359  29.880  1.00  0.00     0.167 HD
ATOM     61  C   UNL A   1      42.901  30.717  30.425  1.00  0.00     0.074 A 
ATOM     62  C   UNL A   1      41.793  31.638  30.569  1.00  0.00     0.031 C 
ATOM     63  C   UNL A   1      44.178  31.003  30.775  1.00  0.00     0.037 A 
BRANCH  50  64
ATOM     64  C   UNL A   1      48.139  26.345  29.950  1.00  0.00     0.057 A 
ATOM     65  C   UNL A   1      49.098  26.487  28.939  1.00  0.00     0.134 A 
ATOM     66  C   UNL A   1      48.552  25.762  31.155  1.00  0.00     0.134 A 
ATOM     67  F   UNL A   1      48.766  27.028  27.758  1.00  0.00    -0.206 F 
ATOM     68  C   UNL A   1      50.414  26.054  29.115  1.00  0.00     0.040 A 
ATOM     69  C   UNL A   1      49.870  25.348  31.352  1.00  0.00     0.040 A 
ATOM     70  F   UNL A   1      47.685  25.600  32.165  1.00  0.00    -0.206 F 
ATOM     71  C   UNL A   1      50.806  25.492  30.329  1.00  0.00     0.006 A 
ENDBRANCH  50  64
BRANCH  51  72
ATOM     72  C   UNL A   1      38.621  29.266  29.128  1.00  0.00     0.057 A 
ATOM     73  C   UNL A   1      38.051  29.740  27.941  1.00  0.00     0.134 A 
ATOM     74  C   UNL A   1      37.805  29.231  30.265  1.00  0.00     0.134 A 
ATOM     75  F   UNL A   1      38.786  29.813  26.822  1.00  0.00    -0.206 F 
ATOM     76  C   UNL A   1      36.731  30.193  27.892  1.00  0.00     0.040 A 
ATOM     77  C   UNL A   1      36.476  29.654  30.225  1.00  0.00     0.040 A 
ATOM     78  F   UNL A   1      38.286  28.779  31.432  1.00  0.00    -0.206 F 
ATOM     79  C   UNL A   1      35.939  30.147  29.037  1.00  0.00     0.006 A 
ENDBRANCH  51  72
BRANCH  63  80
ATOM     80  C   UNL A   1      44.452  32.378  31.311  1.00  0.00     0.057 A 
ATOM     81  C   UNL A   1      44.427  32.654  32.683  1.00  0.00     0.134 A 
ATOM     82  C   UNL A   1      44.785  33.425  30.444  1.00  0.00     0.134 A 
ATOM     83  F   UNL A   1      44.102  31.695  33.564  1.00  0.00    -0.206 F 
ATOM     84  C   UNL A   1      44.702  33.931  33.174  1.00  0.00     0.040 A 
ATOM     85  C   UNL A   1      45.089  34.699  30.924  1.00  0.00     0.040 A 
ATOM     86  F   UNL A   1      44.835  33.224  29.118  1.00  0.00    -0.206 F 
ATOM     87  C   UNL A   1      45.042  34.956  32.292  1.00  0.00     0.006 A 
ENDBRANCH  63  80
ENDBRANCH  37  38
ENDBRANCH  29  32
ENDBRANCH  27  28
ENDBRANCH  26  27
ENDBRANCH   1  26
TORSDOF 15
ENDMDL
