MODEL 1
REMARK VINA RESULT:     -13.5      0.000      0.000
REMARK SMILES O=C(NCCCNC(=O)[C@H]1CC=CC[C@H]1C(=O)Nc1ccc(S(=O)(=O)N2CCc3ccccc32)cc1)c1ccc(-c2c3nc(c(-c4c(F)cccc4F)c4ccc([nH]4)c(-c4c(F)cccc4F)c4nc(c(-c5c(F)cccc5F)c5ccc2[nH]5)C=C4)C=C3)cc1
REMARK SMILES IDX 6 1 5 2 4 3 3 4 1 5 2 6 37 8 38 9 90 10 39 11 89 12 40 13
REMARK SMILES IDX 41 14 42 15 83 16 43 17 88 18 82 19 84 20 44 21 87 22 81 23
REMARK SMILES IDX 80 24 45 26 71 27 54 28 70 29 55 30 58 31 69 32 85 33 56 34
REMARK SMILES IDX 57 35 68 37 86 38 59 39 46 40 47 41 52 42 48 43 49 44 51 45
REMARK SMILES IDX 53 46 50 47 72 48 73 49 78 50 74 51 75 52 77 53 79 54 76 55
REMARK SMILES IDX 60 56 61 57 66 58 62 59 63 60 65 61 67 62 64 63 7 64 8 65
REMARK SMILES IDX 9 67 10 68 11 69 15 70 12 71 14 72 13 73 16 74 17 75 18 76
REMARK SMILES IDX 19 78 20 79 36 80 21 81 35 82 22 83 23 84 24 85 25 86 26 87
REMARK SMILES IDX 27 88 34 89 28 90 29 91 33 92 30 93 32 94 31 95
REMARK H PARENT 3 7 84 25 58 36 7 66 18 77
REMARK Flexibility Score: inf
ROOT
ATOM      1  C   UNL A   1      36.447  21.106  25.116  1.00  0.00     0.117 C 
ENDROOT
BRANCH   1   2
ATOM      2  C   UNL A   1      37.732  20.385  24.743  1.00  0.00     0.042 C 
BRANCH   2   3
ATOM      3  C   UNL A   1      38.867  20.674  25.709  1.00  0.00     0.118 C 
BRANCH   3   4
ATOM      4  N   UNL A   1      39.859  19.605  25.741  1.00  0.00    -0.352 N 
ATOM      5  O   UNL A   1      41.891  18.645  25.904  1.00  0.00    -0.269 OA
ATOM      6  C   UNL A   1      41.197  19.644  26.069  1.00  0.00     0.251 C 
ATOM      7  H   UNL A   1      39.520  18.715  25.489  1.00  0.00     0.163 HD
BRANCH   6   8
ATOM      8  C   UNL A   1      41.802  20.891  26.584  1.00  0.00     0.039 A 
ATOM      9  C   UNL A   1      42.101  21.027  27.937  1.00  0.00     0.014 A 
ATOM     10  C   UNL A   1      42.029  21.959  25.709  1.00  0.00     0.014 A 
ATOM     11  C   UNL A   1      42.381  22.282  28.452  1.00  0.00     0.010 A 
ATOM     12  C   UNL A   1      42.440  23.196  26.216  1.00  0.00     0.010 A 
ATOM     13  C   UNL A   1      42.555  23.384  27.601  1.00  0.00    -0.014 A 
BRANCH  13  14
ATOM     14  C   UNL A   1      42.849  24.709  28.207  1.00  0.00     0.031 A 
ATOM     15  C   UNL A   1      44.263  25.121  28.517  1.00  0.00     0.074 A 
ATOM     16  C   UNL A   1      41.834  25.578  28.377  1.00  0.00     0.049 A 
ATOM     17  N   UNL A   1      44.700  26.254  29.009  1.00  0.00    -0.248 NA
ATOM     18  C   UNL A   1      45.326  24.141  28.249  1.00  0.00     0.031 C 
ATOM     19  C   UNL A   1      40.423  25.287  28.102  1.00  0.00     0.029 A 
ATOM     20  N   UNL A   1      41.828  26.887  28.776  1.00  0.00    -0.354 N 
ATOM     21  C   UNL A   1      46.077  26.114  29.131  1.00  0.00     0.074 A 
ATOM     22  C   UNL A   1      46.405  24.779  28.681  1.00  0.00     0.031 C 
ATOM     23  C   UNL A   1      39.702  26.403  28.270  1.00  0.00     0.029 A 
ATOM     24  C   UNL A   1      40.581  27.464  28.742  1.00  0.00     0.049 A 
ATOM     25  H   UNL A   1      42.638  27.370  29.060  1.00  0.00     0.167 HD
ATOM     26  C   UNL A   1      46.983  27.020  29.571  1.00  0.00     0.037 A 
ATOM     27  C   UNL A   1      40.184  28.706  29.073  1.00  0.00     0.037 A 
ATOM     28  C   UNL A   1      46.649  28.354  29.997  1.00  0.00     0.049 A 
ATOM     29  C   UNL A   1      41.210  29.686  29.557  1.00  0.00     0.074 A 
ATOM     30  C   UNL A   1      47.489  29.345  30.477  1.00  0.00     0.029 A 
ATOM     31  N   UNL A   1      45.370  28.890  29.980  1.00  0.00    -0.354 N 
ATOM     32  N   UNL A   1      42.503  29.523  29.694  1.00  0.00    -0.248 NA
ATOM     33  C   UNL A   1      40.721  31.015  29.943  1.00  0.00     0.031 C 
ATOM     34  C   UNL A   1      46.713  30.470  30.776  1.00  0.00     0.029 A 
ATOM     35  C   UNL A   1      45.396  30.194  30.446  1.00  0.00     0.049 A 
ATOM     36  H   UNL A   1      44.562  28.414  29.681  1.00  0.00     0.167 HD
ATOM     37  C   UNL A   1      42.985  30.726  30.188  1.00  0.00     0.074 A 
ATOM     38  C   UNL A   1      41.849  31.622  30.286  1.00  0.00     0.031 C 
ATOM     39  C   UNL A   1      44.249  31.059  30.544  1.00  0.00     0.037 A 
BRANCH  26  40
ATOM     40  C   UNL A   1      48.422  26.593  29.632  1.00  0.00     0.057 A 
ATOM     41  C   UNL A   1      49.323  26.879  28.600  1.00  0.00     0.134 A 
ATOM     42  C   UNL A   1      48.921  25.925  30.758  1.00  0.00     0.134 A 
ATOM     43  F   UNL A   1      48.907  27.500  27.487  1.00  0.00    -0.206 F 
ATOM     44  C   UNL A   1      50.667  26.504  28.678  1.00  0.00     0.040 A 
ATOM     45  C   UNL A   1      50.266  25.564  30.858  1.00  0.00     0.040 A 
ATOM     46  F   UNL A   1      48.113  25.621  31.785  1.00  0.00    -0.206 F 
ATOM     47  C   UNL A   1      51.143  25.851  29.814  1.00  0.00     0.006 A 
ENDBRANCH  26  40
BRANCH  27  48
ATOM     48  C   UNL A   1      38.748  29.069  28.985  1.00  0.00     0.057 A 
ATOM     49  C   UNL A   1      38.174  29.499  27.785  1.00  0.00     0.134 A 
ATOM     50  C   UNL A   1      37.909  28.979  30.104  1.00  0.00     0.134 A 
ATOM     51  F   UNL A   1      38.929  29.622  26.681  1.00  0.00    -0.206 F 
ATOM     52  C   UNL A   1      36.823  29.838  27.701  1.00  0.00     0.040 A 
ATOM     53  C   UNL A   1      36.551  29.285  30.029  1.00  0.00     0.040 A 
ATOM     54  F   UNL A   1      38.396  28.564  31.282  1.00  0.00    -0.206 F 
ATOM     55  C   UNL A   1      36.005  29.724  28.824  1.00  0.00     0.006 A 
ENDBRANCH  27  48
BRANCH  39  56
ATOM     56  C   UNL A   1      44.453  32.448  31.065  1.00  0.00     0.057 A 
ATOM     57  C   UNL A   1      44.749  33.517  30.208  1.00  0.00     0.134 A 
ATOM     58  C   UNL A   1      44.351  32.720  32.434  1.00  0.00     0.134 A 
ATOM     59  F   UNL A   1      44.875  33.313  28.888  1.00  0.00    -0.206 F 
ATOM     60  C   UNL A   1      44.969  34.803  30.700  1.00  0.00     0.040 A 
ATOM     61  C   UNL A   1      44.546  34.008  32.935  1.00  0.00     0.040 A 
ATOM     62  F   UNL A   1      44.064  31.741  33.305  1.00  0.00    -0.206 F 
ATOM     63  C   UNL A   1      44.864  35.052  32.067  1.00  0.00     0.006 A 
ENDBRANCH  39  56
ENDBRANCH  13  14
ENDBRANCH   6   8
ENDBRANCH   3   4
ENDBRANCH   2   3
ENDBRANCH   1   2
BRANCH   1  64
ATOM     64  N   UNL A   1      36.079  22.092  24.115  1.00  0.00    -0.356 N 
ATOM     65  C   UNL A   1      34.905  22.609  23.693  1.00  0.00     0.224 C 
ATOM     66  H   UNL A   1      36.857  22.466  23.640  1.00  0.00     0.163 HD
ATOM     67  O   UNL A   1      35.017  23.465  22.805  1.00  0.00    -0.275 OA
BRANCH  65  68
ATOM     68  C   UNL A   1      33.513  22.238  24.209  1.00  0.00     0.095 C 
ATOM     69  C   UNL A   1      32.772  21.045  23.611  1.00  0.00     0.041 C 
ATOM     70  C   UNL A   1      33.349  22.269  25.746  1.00  0.00     0.095 C 
ATOM     71  C   UNL A   1      33.055  19.757  24.327  1.00  0.00    -0.030 C 
ATOM     72  C   UNL A   1      33.370  20.933  26.504  1.00  0.00     0.041 C 
ATOM     73  C   UNL A   1      33.340  19.715  25.635  1.00  0.00    -0.030 C 
BRANCH  70  74
ATOM     74  C   UNL A   1      34.084  23.396  26.438  1.00  0.00     0.228 C 
ATOM     75  O   UNL A   1      35.028  23.102  27.189  1.00  0.00    -0.274 OA
ATOM     76  N   UNL A   1      33.858  24.719  26.283  1.00  0.00    -0.326 N 
ATOM     77  H   UNL A   1      34.558  25.243  26.735  1.00  0.00     0.169 HD
BRANCH  76  78
ATOM     78  C   UNL A   1      32.928  25.570  25.671  1.00  0.00     0.041 A 
ATOM     79  C   UNL A   1      33.291  25.966  24.385  1.00  0.00     0.027 A 
ATOM     80  C   UNL A   1      31.742  26.083  26.211  1.00  0.00     0.027 A 
ATOM     81  C   UNL A   1      32.525  26.882  23.686  1.00  0.00     0.024 A 
ATOM     82  C   UNL A   1      30.954  27.027  25.508  1.00  0.00     0.024 A 
ATOM     83  C   UNL A   1      31.383  27.458  24.262  1.00  0.00     0.088 A 
BRANCH  83  84
ATOM     84  S   UNL A   1      30.805  28.844  23.326  1.00  0.00     0.264 S 
ATOM     85  O   UNL A   1      30.560  29.835  24.361  1.00  0.00    -0.201 OA
ATOM     86  O   UNL A   1      31.821  29.076  22.316  1.00  0.00    -0.201 OA
BRANCH  84  87
ATOM     87  N   UNL A   1      29.299  28.609  22.485  1.00  0.00    -0.266 N 
ATOM     88  C   UNL A   1      28.220  27.837  23.193  1.00  0.00     0.140 C 
ATOM     89  C   UNL A   1      28.731  29.949  22.318  1.00  0.00     0.055 A 
ATOM     90  C   UNL A   1      27.031  28.768  23.458  1.00  0.00     0.060 C 
ATOM     91  C   UNL A   1      27.592  30.093  23.102  1.00  0.00    -0.022 A 
ATOM     92  C   UNL A   1      29.394  31.054  21.802  1.00  0.00     0.027 A 
ATOM     93  C   UNL A   1      27.188  31.342  23.547  1.00  0.00     0.006 A 
ATOM     94  C   UNL A   1      29.012  32.315  22.263  1.00  0.00     0.002 A 
ATOM     95  C   UNL A   1      27.941  32.453  23.161  1.00  0.00     0.000 A 
ENDBRANCH  84  87
ENDBRANCH  83  84
ENDBRANCH  76  78
ENDBRANCH  70  74
ENDBRANCH  65  68
ENDBRANCH   1  64
TORSDOF 14
ENDMDL
MODEL 2
REMARK VINA RESULT:     -13.5      0.237      5.866
REMARK SMILES O=C(NCCCNC(=O)[C@H]1CC=CC[C@H]1C(=O)Nc1ccc(S(=O)(=O)N2CCc3ccccc32)cc1)c1ccc(-c2c3nc(c(-c4c(F)cccc4F)c4ccc([nH]4)c(-c4c(F)cccc4F)c4nc(c(-c5c(F)cccc5F)c5ccc2[nH]5)C=C4)C=C3)cc1
REMARK SMILES IDX 6 1 5 2 4 3 3 4 1 5 2 6 37 8 38 9 90 10 39 11 89 12 40 13
REMARK SMILES IDX 41 14 42 15 83 16 43 17 88 18 82 19 84 20 44 21 87 22 81 23
REMARK SMILES IDX 80 24 45 26 71 27 54 28 70 29 55 30 58 31 69 32 85 33 56 34
REMARK SMILES IDX 57 35 68 37 86 38 59 39 46 40 47 41 52 42 48 43 49 44 51 45
REMARK SMILES IDX 53 46 50 47 72 48 73 49 78 50 74 51 75 52 77 53 79 54 76 55
REMARK SMILES IDX 60 56 61 57 66 58 62 59 63 60 65 61 67 62 64 63 7 64 8 65
REMARK SMILES IDX 9 67 10 68 11 69 15 70 12 71 14 72 13 73 16 74 17 75 18 76
REMARK SMILES IDX 19 78 20 79 36 80 21 81 35 82 22 83 23 84 24 85 25 86 26 87
REMARK SMILES IDX 27 88 34 89 28 90 29 91 33 92 30 93 32 94 31 95
REMARK H PARENT 3 7 84 25 58 36 7 66 18 77
REMARK Flexibility Score: inf
ROOT
ATOM      1  C   UNL A   1      36.443  21.161  25.040  1.00  0.00     0.117 C 
ENDROOT
BRANCH   1   2
ATOM      2  C   UNL A   1      37.753  20.481  24.675  1.00  0.00     0.042 C 
BRANCH   2   3
ATOM      3  C   UNL A   1      38.852  20.750  25.688  1.00  0.00     0.118 C 
BRANCH   3   4
ATOM      4  N   UNL A   1      39.815  19.657  25.769  1.00  0.00    -0.352 N 
ATOM      5  O   UNL A   1      41.819  18.650  25.995  1.00  0.00    -0.269 OA
ATOM      6  C   UNL A   1      41.148  19.672  26.118  1.00  0.00     0.251 C 
ATOM      7  H   UNL A   1      39.457  18.769  25.538  1.00  0.00     0.163 HD
BRANCH   6   8
ATOM      8  C   UNL A   1      41.779  20.918  26.603  1.00  0.00     0.039 A 
ATOM      9  C   UNL A   1      41.800  21.217  27.963  1.00  0.00     0.014 A 
ATOM     10  C   UNL A   1      42.312  21.825  25.682  1.00  0.00     0.014 A 
ATOM     11  C   UNL A   1      42.114  22.501  28.375  1.00  0.00     0.010 A 
ATOM     12  C   UNL A   1      42.753  23.079  26.118  1.00  0.00     0.010 A 
ATOM     13  C   UNL A   1      42.596  23.451  27.461  1.00  0.00    -0.014 A 
BRANCH  13  14
ATOM     14  C   UNL A   1      42.914  24.815  27.956  1.00  0.00     0.031 A 
ATOM     15  C   UNL A   1      41.823  25.819  28.213  1.00  0.00     0.074 A 
ATOM     16  C   UNL A   1      44.192  25.102  28.273  1.00  0.00     0.049 A 
ATOM     17  N   UNL A   1      41.921  27.038  28.683  1.00  0.00    -0.248 NA
ATOM     18  C   UNL A   1      40.444  25.413  27.899  1.00  0.00     0.031 C 
ATOM     19  C   UNL A   1      45.331  24.200  28.074  1.00  0.00     0.029 A 
ATOM     20  N   UNL A   1      44.745  26.205  28.866  1.00  0.00    -0.354 N 
ATOM     21  C   UNL A   1      40.629  27.549  28.698  1.00  0.00     0.074 A 
ATOM     22  C   UNL A   1      39.763  26.517  28.171  1.00  0.00     0.031 C 
ATOM     23  C   UNL A   1      46.430  24.755  28.601  1.00  0.00     0.029 A 
ATOM     24  C   UNL A   1      46.094  26.081  29.101  1.00  0.00     0.049 A 
ATOM     25  H   UNL A   1      44.228  27.009  29.102  1.00  0.00     0.167 HD
ATOM     26  C   UNL A   1      40.206  28.765  29.120  1.00  0.00     0.037 A 
ATOM     27  C   UNL A   1      46.969  26.948  29.641  1.00  0.00     0.037 A 
ATOM     28  C   UNL A   1      41.073  29.778  29.663  1.00  0.00     0.049 A 
ATOM     29  C   UNL A   1      46.471  28.285  30.098  1.00  0.00     0.074 A 
ATOM     30  C   UNL A   1      40.748  31.050  30.104  1.00  0.00     0.029 A 
ATOM     31  N   UNL A   1      42.439  29.627  29.853  1.00  0.00    -0.354 N 
ATOM     32  N   UNL A   1      45.249  28.760  30.075  1.00  0.00    -0.248 NA
ATOM     33  C   UNL A   1      47.471  29.210  30.644  1.00  0.00     0.031 C 
ATOM     34  C   UNL A   1      41.922  31.678  30.534  1.00  0.00     0.029 A 
ATOM     35  C   UNL A   1      42.972  30.784  30.398  1.00  0.00     0.049 A 
ATOM     36  H   UNL A   1      42.954  28.818  29.633  1.00  0.00     0.167 HD
ATOM     37  C   UNL A   1      45.333  30.042  30.597  1.00  0.00     0.074 A 
ATOM     38  C   UNL A   1      46.719  30.253  30.967  1.00  0.00     0.031 C 
ATOM     39  C   UNL A   1      44.356  30.970  30.746  1.00  0.00     0.037 A 
BRANCH  26  40
ATOM     40  C   UNL A   1      38.742  29.075  28.994  1.00  0.00     0.057 A 
ATOM     41  C   UNL A   1      37.866  28.968  30.082  1.00  0.00     0.134 A 
ATOM     42  C   UNL A   1      38.209  29.527  27.780  1.00  0.00     0.134 A 
ATOM     43  F   UNL A   1      38.308  28.526  31.269  1.00  0.00    -0.206 F 
ATOM     44  C   UNL A   1      36.511  29.288  29.964  1.00  0.00     0.040 A 
ATOM     45  C   UNL A   1      36.861  29.870  27.654  1.00  0.00     0.040 A 
ATOM     46  F   UNL A   1      38.992  29.654  26.698  1.00  0.00    -0.206 F 
ATOM     47  C   UNL A   1      36.007  29.747  28.749  1.00  0.00     0.006 A 
ENDBRANCH  26  40
BRANCH  27  48
ATOM     48  C   UNL A   1      48.403  26.580  29.743  1.00  0.00     0.057 A 
ATOM     49  C   UNL A   1      49.325  26.952  28.760  1.00  0.00     0.134 A 
ATOM     50  C   UNL A   1      48.888  25.856  30.841  1.00  0.00     0.134 A 
ATOM     51  F   UNL A   1      48.920  27.632  27.677  1.00  0.00    -0.206 F 
ATOM     52  C   UNL A   1      50.675  26.608  28.857  1.00  0.00     0.040 A 
ATOM     53  C   UNL A   1      50.238  25.532  30.966  1.00  0.00     0.040 A 
ATOM     54  F   UNL A   1      48.056  25.478  31.822  1.00  0.00    -0.206 F 
ATOM     55  C   UNL A   1      51.136  25.902  29.967  1.00  0.00     0.006 A 
ENDBRANCH  27  48
BRANCH  39  56
ATOM     56  C   UNL A   1      44.768  32.285  31.333  1.00  0.00     0.057 A 
ATOM     57  C   UNL A   1      45.188  33.350  30.525  1.00  0.00     0.134 A 
ATOM     58  C   UNL A   1      44.744  32.489  32.717  1.00  0.00     0.134 A 
ATOM     59  F   UNL A   1      45.247  33.208  29.192  1.00  0.00    -0.206 F 
ATOM     60  C   UNL A   1      45.601  34.562  31.076  1.00  0.00     0.040 A 
ATOM     61  C   UNL A   1      45.133  33.705  33.279  1.00  0.00     0.040 A 
ATOM     62  F   UNL A   1      44.347  31.510  33.544  1.00  0.00    -0.206 F 
ATOM     63  C   UNL A   1      45.571  34.743  32.458  1.00  0.00     0.006 A 
ENDBRANCH  39  56
ENDBRANCH  13  14
ENDBRANCH   6   8
ENDBRANCH   3   4
ENDBRANCH   2   3
ENDBRANCH   1   2
BRANCH   1  64
ATOM     64  N   UNL A   1      36.044  22.126  24.031  1.00  0.00    -0.356 N 
ATOM     65  C   UNL A   1      34.856  22.627  23.627  1.00  0.00     0.224 C 
ATOM     66  H   UNL A   1      36.807  22.497  23.532  1.00  0.00     0.163 HD
ATOM     67  O   UNL A   1      34.941  23.468  22.722  1.00  0.00    -0.275 OA
BRANCH  65  68
ATOM     68  C   UNL A   1      33.480  22.254  24.182  1.00  0.00     0.095 C 
ATOM     69  C   UNL A   1      32.718  21.068  23.596  1.00  0.00     0.041 C 
ATOM     70  C   UNL A   1      33.362  22.271  25.724  1.00  0.00     0.095 C 
ATOM     71  C   UNL A   1      33.019  19.773  24.292  1.00  0.00    -0.030 C 
ATOM     72  C   UNL A   1      33.404  20.929  26.469  1.00  0.00     0.041 C 
ATOM     73  C   UNL A   1      33.343  19.718  25.590  1.00  0.00    -0.030 C 
BRANCH  70  74
ATOM     74  C   UNL A   1      34.122  23.391  26.403  1.00  0.00     0.228 C 
ATOM     75  O   UNL A   1      35.081  23.087  27.130  1.00  0.00    -0.274 OA
ATOM     76  N   UNL A   1      33.901  24.715  26.259  1.00  0.00    -0.326 N 
ATOM     77  H   UNL A   1      34.615  25.233  26.698  1.00  0.00     0.169 HD
BRANCH  76  78
ATOM     78  C   UNL A   1      32.963  25.576  25.674  1.00  0.00     0.041 A 
ATOM     79  C   UNL A   1      33.261  25.919  24.356  1.00  0.00     0.027 A 
ATOM     80  C   UNL A   1      31.825  26.143  26.264  1.00  0.00     0.027 A 
ATOM     81  C   UNL A   1      32.483  26.837  23.673  1.00  0.00     0.024 A 
ATOM     82  C   UNL A   1      31.026  27.088  25.576  1.00  0.00     0.024 A 
ATOM     83  C   UNL A   1      31.394  27.466  24.293  1.00  0.00     0.088 A 
BRANCH  83  84
ATOM     84  S   UNL A   1      30.804  28.839  23.346  1.00  0.00     0.264 S 
ATOM     85  O   UNL A   1      30.548  29.836  24.373  1.00  0.00    -0.201 OA
ATOM     86  O   UNL A   1      31.818  29.072  22.335  1.00  0.00    -0.201 OA
BRANCH  84  87
ATOM     87  N   UNL A   1      29.301  28.583  22.506  1.00  0.00    -0.266 N 
ATOM     88  C   UNL A   1      28.227  27.808  23.220  1.00  0.00     0.140 C 
ATOM     89  C   UNL A   1      28.721  29.917  22.326  1.00  0.00     0.055 A 
ATOM     90  C   UNL A   1      27.030  28.731  23.475  1.00  0.00     0.060 C 
ATOM     91  C   UNL A   1      27.580  30.058  23.108  1.00  0.00    -0.022 A 
ATOM     92  C   UNL A   1      29.375  31.022  21.801  1.00  0.00     0.027 A 
ATOM     93  C   UNL A   1      27.165  31.307  23.541  1.00  0.00     0.006 A 
ATOM     94  C   UNL A   1      28.981  32.285  22.250  1.00  0.00     0.002 A 
ATOM     95  C   UNL A   1      27.909  32.420  23.146  1.00  0.00     0.000 A 
ENDBRANCH  84  87
ENDBRANCH  83  84
ENDBRANCH  76  78
ENDBRANCH  70  74
ENDBRANCH  65  68
ENDBRANCH   1  64
TORSDOF 14
ENDMDL
MODEL 3
REMARK VINA RESULT:     -13.1      2.990      8.904
REMARK SMILES O=C(NCCCNC(=O)[C@H]1CC=CC[C@H]1C(=O)Nc1ccc(S(=O)(=O)N2CCc3ccccc32)cc1)c1ccc(-c2c3nc(c(-c4c(F)cccc4F)c4ccc([nH]4)c(-c4c(F)cccc4F)c4nc(c(-c5c(F)cccc5F)c5ccc2[nH]5)C=C4)C=C3)cc1
REMARK SMILES IDX 6 1 5 2 4 3 3 4 1 5 2 6 37 8 38 9 90 10 39 11 89 12 40 13
REMARK SMILES IDX 41 14 42 15 83 16 43 17 88 18 82 19 84 20 44 21 87 22 81 23
REMARK SMILES IDX 80 24 45 26 71 27 54 28 70 29 55 30 58 31 69 32 85 33 56 34
REMARK SMILES IDX 57 35 68 37 86 38 59 39 46 40 47 41 52 42 48 43 49 44 51 45
REMARK SMILES IDX 53 46 50 47 72 48 73 49 78 50 74 51 75 52 77 53 79 54 76 55
REMARK SMILES IDX 60 56 61 57 66 58 62 59 63 60 65 61 67 62 64 63 7 64 8 65
REMARK SMILES IDX 9 67 10 68 11 69 15 70 12 71 14 72 13 73 16 74 17 75 18 76
REMARK SMILES IDX 19 78 20 79 36 80 21 81 35 82 22 83 23 84 24 85 25 86 26 87
REMARK SMILES IDX 27 88 34 89 28 90 29 91 33 92 30 93 32 94 31 95
REMARK H PARENT 3 7 84 25 58 36 7 66 18 77
REMARK Flexibility Score: inf
ROOT
ATOM      1  C   UNL A   1      33.157  30.713  26.787  1.00  0.00     0.117 C 
ENDROOT
BRANCH   1   2
ATOM      2  C   UNL A   1      34.301  31.407  27.509  1.00  0.00     0.042 C 
BRANCH   2   3
ATOM      3  C   UNL A   1      35.103  30.458  28.381  1.00  0.00     0.118 C 
BRANCH   3   4
ATOM      4  N   UNL A   1      35.329  30.988  29.721  1.00  0.00    -0.352 N 
ATOM      5  O   UNL A   1      36.336  31.257  31.719  1.00  0.00    -0.269 OA
ATOM      6  C   UNL A   1      36.403  30.829  30.570  1.00  0.00     0.251 C 
ATOM      7  H   UNL A   1      34.600  31.546  30.076  1.00  0.00     0.163 HD
BRANCH   6   8
ATOM      8  C   UNL A   1      37.615  30.116  30.114  1.00  0.00     0.039 A 
ATOM      9  C   UNL A   1      38.343  29.321  30.996  1.00  0.00     0.014 A 
ATOM     10  C   UNL A   1      38.059  30.284  28.798  1.00  0.00     0.014 A 
ATOM     11  C   UNL A   1      39.619  28.909  30.650  1.00  0.00     0.010 A 
ATOM     12  C   UNL A   1      39.294  29.753  28.410  1.00  0.00     0.010 A 
ATOM     13  C   UNL A   1      40.113  29.117  29.353  1.00  0.00    -0.014 A 
BRANCH  13  14
ATOM     14  C   UNL A   1      41.491  28.659  29.038  1.00  0.00     0.031 A 
ATOM     15  C   UNL A   1      41.749  27.255  28.560  1.00  0.00     0.074 A 
ATOM     16  C   UNL A   1      42.495  29.557  29.085  1.00  0.00     0.049 A 
ATOM     17  N   UNL A   1      42.883  26.703  28.203  1.00  0.00    -0.248 NA
ATOM     18  C   UNL A   1      40.595  26.347  28.477  1.00  0.00     0.031 C 
ATOM     19  C   UNL A   1      42.357  30.948  29.526  1.00  0.00     0.029 A 
ATOM     20  N   UNL A   1      43.811  29.454  28.723  1.00  0.00    -0.354 N 
ATOM     21  C   UNL A   1      42.583  25.386  27.878  1.00  0.00     0.074 A 
ATOM     22  C   UNL A   1      41.164  25.211  28.099  1.00  0.00     0.031 C 
ATOM     23  C   UNL A   1      43.520  31.587  29.339  1.00  0.00     0.029 A 
ATOM     24  C   UNL A   1      44.505  30.634  28.845  1.00  0.00     0.049 A 
ATOM     25  H   UNL A   1      44.221  28.617  28.406  1.00  0.00     0.167 HD
ATOM     26  C   UNL A   1      43.415  24.415  27.430  1.00  0.00     0.037 A 
ATOM     27  C   UNL A   1      45.798  30.916  28.605  1.00  0.00     0.037 A 
ATOM     28  C   UNL A   1      44.823  24.605  27.193  1.00  0.00     0.049 A 
ATOM     29  C   UNL A   1      46.694  29.821  28.110  1.00  0.00     0.074 A 
ATOM     30  C   UNL A   1      45.758  23.682  26.756  1.00  0.00     0.029 A 
ATOM     31  N   UNL A   1      45.495  25.806  27.361  1.00  0.00    -0.354 N 
ATOM     32  N   UNL A   1      46.396  28.574  27.838  1.00  0.00    -0.248 NA
ATOM     33  C   UNL A   1      48.105  30.168  27.900  1.00  0.00     0.031 C 
ATOM     34  C   UNL A   1      47.002  24.319  26.686  1.00  0.00     0.029 A 
ATOM     35  C   UNL A   1      46.834  25.648  27.042  1.00  0.00     0.049 A 
ATOM     36  H   UNL A   1      45.083  26.647  27.662  1.00  0.00     0.167 HD
ATOM     37  C   UNL A   1      47.583  27.983  27.430  1.00  0.00     0.074 A 
ATOM     38  C   UNL A   1      48.595  29.021  27.451  1.00  0.00     0.031 C 
ATOM     39  C   UNL A   1      47.821  26.695  27.083  1.00  0.00     0.037 A 
BRANCH  26  40
ATOM     40  C   UNL A   1      42.829  23.055  27.183  1.00  0.00     0.057 A 
ATOM     41  C   UNL A   1      42.588  22.152  28.227  1.00  0.00     0.134 A 
ATOM     42  C   UNL A   1      42.461  22.660  25.890  1.00  0.00     0.134 A 
ATOM     43  F   UNL A   1      42.932  22.461  29.485  1.00  0.00    -0.206 F 
ATOM     44  C   UNL A   1      42.014  20.900  27.992  1.00  0.00     0.040 A 
ATOM     45  C   UNL A   1      41.867  21.419  25.645  1.00  0.00     0.040 A 
ATOM     46  F   UNL A   1      42.662  23.476  24.845  1.00  0.00    -0.206 F 
ATOM     47  C   UNL A   1      41.645  20.534  26.698  1.00  0.00     0.006 A 
ENDBRANCH  26  40
BRANCH  27  48
ATOM     48  C   UNL A   1      46.316  32.282  28.863  1.00  0.00     0.057 A 
ATOM     49  C   UNL A   1      46.338  33.257  27.861  1.00  0.00     0.134 A 
ATOM     50  C   UNL A   1      46.789  32.649  30.130  1.00  0.00     0.134 A 
ATOM     51  F   UNL A   1      45.914  32.963  26.622  1.00  0.00    -0.206 F 
ATOM     52  C   UNL A   1      46.823  34.544  28.104  1.00  0.00     0.040 A 
ATOM     53  C   UNL A   1      47.247  33.939  30.396  1.00  0.00     0.040 A 
ATOM     54  F   UNL A   1      46.785  31.763  31.136  1.00  0.00    -0.206 F 
ATOM     55  C   UNL A   1      47.272  34.890  29.377  1.00  0.00     0.006 A 
ENDBRANCH  27  48
BRANCH  39  56
ATOM     56  C   UNL A   1      49.229  26.356  26.701  1.00  0.00     0.057 A 
ATOM     57  C   UNL A   1      49.688  26.507  25.385  1.00  0.00     0.134 A 
ATOM     58  C   UNL A   1      50.133  25.874  27.654  1.00  0.00     0.134 A 
ATOM     59  F   UNL A   1      48.862  26.950  24.425  1.00  0.00    -0.206 F 
ATOM     60  C   UNL A   1      50.990  26.161  25.025  1.00  0.00     0.040 A 
ATOM     61  C   UNL A   1      51.445  25.547  27.310  1.00  0.00     0.040 A 
ATOM     62  F   UNL A   1      49.757  25.713  28.931  1.00  0.00    -0.206 F 
ATOM     63  C   UNL A   1      51.874  25.682  25.990  1.00  0.00     0.006 A 
ENDBRANCH  39  56
ENDBRANCH  13  14
ENDBRANCH   6   8
ENDBRANCH   3   4
ENDBRANCH   2   3
ENDBRANCH   1   2
BRANCH   1  64
ATOM     64  N   UNL A   1      33.645  29.699  25.867  1.00  0.00    -0.356 N 
ATOM     65  C   UNL A   1      33.051  28.881  24.971  1.00  0.00     0.224 C 
ATOM     66  H   UNL A   1      34.621  29.583  25.907  1.00  0.00     0.163 HD
ATOM     67  O   UNL A   1      33.837  28.152  24.352  1.00  0.00    -0.275 OA
BRANCH  65  68
ATOM     68  C   UNL A   1      31.553  28.797  24.673  1.00  0.00     0.095 C 
ATOM     69  C   UNL A   1      31.037  29.103  23.268  1.00  0.00     0.041 C 
ATOM     70  C   UNL A   1      30.829  27.566  25.265  1.00  0.00     0.095 C 
ATOM     71  C   UNL A   1      30.977  27.890  22.386  1.00  0.00    -0.030 C 
ATOM     72  C   UNL A   1      30.509  26.393  24.326  1.00  0.00     0.041 C 
ATOM     73  C   UNL A   1      30.752  26.664  22.874  1.00  0.00    -0.030 C 
BRANCH  70  74
ATOM     74  C   UNL A   1      31.301  27.157  26.643  1.00  0.00     0.228 C 
ATOM     75  O   UNL A   1      31.151  27.965  27.574  1.00  0.00    -0.274 OA
ATOM     76  N   UNL A   1      31.829  25.964  26.991  1.00  0.00    -0.326 N 
ATOM     77  H   UNL A   1      31.926  25.903  27.969  1.00  0.00     0.169 HD
BRANCH  76  78
ATOM     78  C   UNL A   1      32.280  24.787  26.381  1.00  0.00     0.041 A 
ATOM     79  C   UNL A   1      31.392  23.719  26.496  1.00  0.00     0.027 A 
ATOM     80  C   UNL A   1      33.503  24.563  25.733  1.00  0.00     0.027 A 
ATOM     81  C   UNL A   1      31.735  22.462  26.029  1.00  0.00     0.024 A 
ATOM     82  C   UNL A   1      33.867  23.280  25.258  1.00  0.00     0.024 A 
ATOM     83  C   UNL A   1      32.992  22.221  25.455  1.00  0.00     0.088 A 
BRANCH  83  84
ATOM     84  S   UNL A   1      33.314  20.490  25.283  1.00  0.00     0.264 S 
ATOM     85  O   UNL A   1      34.568  20.481  24.547  1.00  0.00    -0.201 OA
ATOM     86  O   UNL A   1      33.250  19.952  26.629  1.00  0.00    -0.201 OA
BRANCH  84  87
ATOM     87  N   UNL A   1      32.162  19.603  24.326  1.00  0.00    -0.266 N 
ATOM     88  C   UNL A   1      32.136  19.867  22.846  1.00  0.00     0.140 C 
ATOM     89  C   UNL A   1      32.564  18.198  24.434  1.00  0.00     0.055 A 
ATOM     90  C   UNL A   1      32.561  18.594  22.104  1.00  0.00     0.060 C 
ATOM     91  C   UNL A   1      33.044  17.737  23.213  1.00  0.00    -0.022 A 
ATOM     92  C   UNL A   1      32.825  17.516  25.614  1.00  0.00     0.027 A 
ATOM     93  C   UNL A   1      33.950  16.691  23.155  1.00  0.00     0.006 A 
ATOM     94  C   UNL A   1      33.755  16.476  25.572  1.00  0.00     0.002 A 
ATOM     95  C   UNL A   1      34.343  16.094  24.355  1.00  0.00     0.000 A 
ENDBRANCH  84  87
ENDBRANCH  83  84
ENDBRANCH  76  78
ENDBRANCH  70  74
ENDBRANCH  65  68
ENDBRANCH   1  64
TORSDOF 14
ENDMDL
