MODEL 1
REMARK VINA RESULT:     -10.6      0.000      0.000
REMARK SMILES C[C@@H]1C[C@@H](C)CN(C(=O)CSc2csc(C(=O)NCCCNC(=O)c3ccc(-c4c5nc(c(-c6c(F)cccc6F)c6ccc([nH]6)c(-c6c(F)cccc6F)c6nc(c(-c7c(F)cccc7F)c7ccc4[nH]7)C=C6)C=C5)cc3)c2)C1
REMARK SMILES IDX 19 1 18 2 16 3 17 4 15 6 12 7 13 8 79 9 14 10 11 11 10 12
REMARK SMILES IDX 8 13 1 14 2 15 3 16 80 17 4 18 7 19 6 20 5 21 9 22 20 23
REMARK SMILES IDX 21 24 22 25 23 26 24 28 25 29 26 30 78 31 27 32 77 33 28 34
REMARK SMILES IDX 29 35 30 36 71 37 31 38 76 39 70 40 72 41 32 42 75 43 69 44
REMARK SMILES IDX 68 45 33 47 59 48 42 49 58 50 43 51 46 52 57 53 73 54 44 55
REMARK SMILES IDX 45 56 56 58 74 59 47 60 34 61 35 62 40 63 36 64 37 65 39 66
REMARK SMILES IDX 41 67 38 68 60 69 61 70 66 71 62 72 63 73 65 74 67 75 64 76
REMARK SMILES IDX 48 77 49 78 54 79 50 80 51 81 53 82 55 83 52 84
REMARK H PARENT 18 5 22 27 72 46 46 57
REMARK Flexibility Score: inf
ROOT
ATOM      1  C   UNL A   1      33.064  34.389  28.359  1.00  0.00     0.118 C 
ENDROOT
BRANCH   1   2
ATOM      2  N   UNL A   1      33.055  35.838  28.403  1.00  0.00    -0.351 N 
ATOM      3  C   UNL A   1      33.270  36.719  29.438  1.00  0.00     0.261 C 
ATOM      4  O   UNL A   1      33.278  37.911  29.123  1.00  0.00    -0.268 OA
ATOM      5  H   UNL A   1      32.860  36.268  27.539  1.00  0.00     0.163 HD
BRANCH   3   6
ATOM      6  C   UNL A   1      33.513  36.242  30.794  1.00  0.00     0.093 A 
ATOM      7  C   UNL A   1      33.995  34.958  32.690  1.00  0.00     0.019 A 
ATOM      8  C   UNL A   1      34.023  36.226  33.217  1.00  0.00     0.080 A 
ATOM      9  C   UNL A   1      33.640  34.967  31.315  1.00  0.00     0.040 A 
ATOM     10  S   UNL A   1      33.653  37.414  32.048  1.00  0.00    -0.137 S 
BRANCH   7  11
ATOM     11  S   UNL A   1      34.419  33.539  33.628  1.00  0.00    -0.115 SA
BRANCH  11  12
ATOM     12  C   UNL A   1      36.039  33.020  33.000  1.00  0.00     0.175 C 
BRANCH  12  13
ATOM     13  C   UNL A   1      37.209  33.651  33.738  1.00  0.00     0.232 C 
ATOM     14  C   UNL A   1      40.744  33.960  32.869  1.00  0.00     0.009 C 
ATOM     15  C   UNL A   1      40.652  33.128  34.151  1.00  0.00     0.006 C 
ATOM     16  C   UNL A   1      40.771  31.618  33.861  1.00  0.00     0.010 C 
ATOM     17  C   UNL A   1      39.357  33.440  34.923  1.00  0.00     0.122 C 
ATOM     18  C   UNL A   1      39.488  31.030  33.244  1.00  0.00     0.006 C 
ATOM     19  N   UNL A   1      38.197  32.836  34.272  1.00  0.00    -0.341 N 
ATOM     20  C   UNL A   1      38.283  31.384  34.125  1.00  0.00     0.122 C 
ATOM     21  C   UNL A   1      39.598  29.521  33.054  1.00  0.00     0.009 C 
ATOM     22  O   UNL A   1      37.230  34.879  33.881  1.00  0.00    -0.274 OA
ENDBRANCH  12  13
ENDBRANCH  11  12
ENDBRANCH   7  11
ENDBRANCH   3   6
ENDBRANCH   1   2
BRANCH   1  23
ATOM     23  C   UNL A   1      34.453  33.846  28.023  1.00  0.00     0.042 C 
BRANCH  23  24
ATOM     24  C   UNL A   1      34.857  32.650  28.883  1.00  0.00     0.118 C 
BRANCH  24  25
ATOM     25  N   UNL A   1      34.189  31.427  28.457  1.00  0.00    -0.352 N 
ATOM     26  C   UNL A   1      34.704  30.209  28.102  1.00  0.00     0.251 C 
ATOM     27  H   UNL A   1      33.207  31.487  28.418  1.00  0.00     0.163 HD
ATOM     28  O   UNL A   1      33.965  29.381  27.572  1.00  0.00    -0.269 OA
BRANCH  26  29
ATOM     29  C   UNL A   1      36.125  29.871  28.341  1.00  0.00     0.039 A 
ATOM     30  C   UNL A   1      37.031  30.042  27.289  1.00  0.00     0.014 A 
ATOM     31  C   UNL A   1      36.558  29.312  29.547  1.00  0.00     0.014 A 
ATOM     32  C   UNL A   1      38.370  29.680  27.454  1.00  0.00     0.010 A 
ATOM     33  C   UNL A   1      37.906  29.009  29.733  1.00  0.00     0.010 A 
ATOM     34  C   UNL A   1      38.821  29.174  28.682  1.00  0.00    -0.014 A 
BRANCH  34  35
ATOM     35  C   UNL A   1      40.241  28.784  28.868  1.00  0.00     0.031 A 
ATOM     36  C   UNL A   1      41.222  29.755  29.464  1.00  0.00     0.074 A 
ATOM     37  C   UNL A   1      40.656  27.568  28.463  1.00  0.00     0.049 A 
ATOM     38  N   UNL A   1      42.508  29.614  29.668  1.00  0.00    -0.248 NA
ATOM     39  C   UNL A   1      40.693  31.068  29.865  1.00  0.00     0.031 C 
ATOM     40  C   UNL A   1      39.811  26.553  27.834  1.00  0.00     0.029 A 
ATOM     41  N   UNL A   1      41.896  26.984  28.519  1.00  0.00    -0.354 N 
ATOM     42  C   UNL A   1      42.943  30.821  30.200  1.00  0.00     0.074 A 
ATOM     43  C   UNL A   1      41.794  31.699  30.249  1.00  0.00     0.031 C 
ATOM     44  C   UNL A   1      40.552  25.461  27.581  1.00  0.00     0.029 A 
ATOM     45  C   UNL A   1      41.926  25.711  28.004  1.00  0.00     0.049 A 
ATOM     46  H   UNL A   1      42.688  27.433  28.893  1.00  0.00     0.167 HD
ATOM     47  C   UNL A   1      44.182  31.161  30.629  1.00  0.00     0.037 A 
ATOM     48  C   UNL A   1      42.949  24.843  27.887  1.00  0.00     0.037 A 
ATOM     49  C   UNL A   1      45.318  30.278  30.607  1.00  0.00     0.049 A 
ATOM     50  C   UNL A   1      44.308  25.236  28.389  1.00  0.00     0.074 A 
ATOM     51  C   UNL A   1      46.604  30.513  31.062  1.00  0.00     0.029 A 
ATOM     52  N   UNL A   1      45.302  28.984  30.106  1.00  0.00    -0.354 N 
ATOM     53  N   UNL A   1      44.693  26.362  28.939  1.00  0.00    -0.248 NA
ATOM     54  C   UNL A   1      45.375  24.232  28.265  1.00  0.00     0.031 C 
ATOM     55  C   UNL A   1      47.373  29.370  30.809  1.00  0.00     0.029 A 
ATOM     56  C   UNL A   1      46.556  28.412  30.233  1.00  0.00     0.049 A 
ATOM     57  H   UNL A   1      44.513  28.540  29.717  1.00  0.00     0.167 HD
ATOM     58  C   UNL A   1      46.036  26.194  29.254  1.00  0.00     0.074 A 
ATOM     59  C   UNL A   1      46.395  24.852  28.843  1.00  0.00     0.031 C 
ATOM     60  C   UNL A   1      46.893  27.070  29.829  1.00  0.00     0.037 A 
BRANCH  47  61
ATOM     61  C   UNL A   1      44.369  32.550  31.164  1.00  0.00     0.057 A 
ATOM     62  C   UNL A   1      44.606  33.641  30.317  1.00  0.00     0.134 A 
ATOM     63  C   UNL A   1      44.286  32.807  32.538  1.00  0.00     0.134 A 
ATOM     64  F   UNL A   1      44.710  33.463  28.991  1.00  0.00    -0.206 F 
ATOM     65  C   UNL A   1      44.782  34.932  30.819  1.00  0.00     0.040 A 
ATOM     66  C   UNL A   1      44.435  34.097  33.050  1.00  0.00     0.040 A 
ATOM     67  F   UNL A   1      44.055  31.810  33.404  1.00  0.00    -0.206 F 
ATOM     68  C   UNL A   1      44.690  35.164  32.190  1.00  0.00     0.006 A 
ENDBRANCH  47  61
BRANCH  48  69
ATOM     69  C   UNL A   1      42.717  23.500  27.300  1.00  0.00     0.057 A 
ATOM     70  C   UNL A   1      42.354  22.417  28.107  1.00  0.00     0.134 A 
ATOM     71  C   UNL A   1      42.853  23.268  25.927  1.00  0.00     0.134 A 
ATOM     72  F   UNL A   1      42.226  22.575  29.432  1.00  0.00    -0.206 F 
ATOM     73  C   UNL A   1      42.152  21.143  27.574  1.00  0.00     0.040 A 
ATOM     74  C   UNL A   1      42.633  22.005  25.376  1.00  0.00     0.040 A 
ATOM     75  F   UNL A   1      43.192  24.268  25.101  1.00  0.00    -0.206 F 
ATOM     76  C   UNL A   1      42.288  20.936  26.202  1.00  0.00     0.006 A 
ENDBRANCH  48  69
BRANCH  60  77
ATOM     77  C   UNL A   1      48.289  26.590  30.086  1.00  0.00     0.057 A 
ATOM     78  C   UNL A   1      49.320  26.782  29.158  1.00  0.00     0.134 A 
ATOM     79  C   UNL A   1      48.611  25.948  31.289  1.00  0.00     0.134 A 
ATOM     80  F   UNL A   1      49.073  27.378  27.982  1.00  0.00    -0.206 F 
ATOM     81  C   UNL A   1      50.616  26.329  29.407  1.00  0.00     0.040 A 
ATOM     82  C   UNL A   1      49.908  25.512  31.559  1.00  0.00     0.040 A 
ATOM     83  F   UNL A   1      47.670  25.740  32.222  1.00  0.00    -0.206 F 
ATOM     84  C   UNL A   1      50.915  25.697  30.613  1.00  0.00     0.006 A 
ENDBRANCH  60  77
ENDBRANCH  34  35
ENDBRANCH  26  29
ENDBRANCH  24  25
ENDBRANCH  23  24
ENDBRANCH   1  23
TORSDOF 13
ENDMDL
MODEL 2
REMARK VINA RESULT:     -10.5      4.833     10.450
REMARK SMILES C[C@@H]1C[C@@H](C)CN(C(=O)CSc2csc(C(=O)NCCCNC(=O)c3ccc(-c4c5nc(c(-c6c(F)cccc6F)c6ccc([nH]6)c(-c6c(F)cccc6F)c6nc(c(-c7c(F)cccc7F)c7ccc4[nH]7)C=C6)C=C5)cc3)c2)C1
REMARK SMILES IDX 19 1 18 2 16 3 17 4 15 6 12 7 13 8 79 9 14 10 11 11 10 12
REMARK SMILES IDX 8 13 1 14 2 15 3 16 80 17 4 18 7 19 6 20 5 21 9 22 20 23
REMARK SMILES IDX 21 24 22 25 23 26 24 28 25 29 26 30 78 31 27 32 77 33 28 34
REMARK SMILES IDX 29 35 30 36 71 37 31 38 76 39 70 40 72 41 32 42 75 43 69 44
REMARK SMILES IDX 68 45 33 47 59 48 42 49 58 50 43 51 46 52 57 53 73 54 44 55
REMARK SMILES IDX 45 56 56 58 74 59 47 60 34 61 35 62 40 63 36 64 37 65 39 66
REMARK SMILES IDX 41 67 38 68 60 69 61 70 66 71 62 72 63 73 65 74 67 75 64 76
REMARK SMILES IDX 48 77 49 78 54 79 50 80 51 81 53 82 55 83 52 84
REMARK H PARENT 18 5 22 27 72 46 46 57
REMARK Flexibility Score: inf
ROOT
ATOM      1  C   UNL A   1      36.256  20.191  24.958  1.00  0.00     0.118 C 
ENDROOT
BRANCH   1   2
ATOM      2  N   UNL A   1      35.139  19.268  24.921  1.00  0.00    -0.351 N 
ATOM      3  C   UNL A   1      33.780  19.485  24.870  1.00  0.00     0.261 C 
ATOM      4  O   UNL A   1      33.089  18.470  24.759  1.00  0.00    -0.268 OA
ATOM      5  H   UNL A   1      35.397  18.318  24.936  1.00  0.00     0.163 HD
BRANCH   3   6
ATOM      6  C   UNL A   1      33.232  20.834  24.901  1.00  0.00     0.093 A 
ATOM      7  C   UNL A   1      32.162  22.856  24.404  1.00  0.00     0.019 A 
ATOM      8  C   UNL A   1      32.403  23.009  25.747  1.00  0.00     0.080 A 
ATOM      9  C   UNL A   1      32.695  21.636  23.909  1.00  0.00     0.040 A 
ATOM     10  S   UNL A   1      33.238  21.673  26.405  1.00  0.00    -0.137 S 
BRANCH   7  11
ATOM     11  S   UNL A   1      31.245  24.025  23.473  1.00  0.00    -0.115 SA
BRANCH  11  12
ATOM     12  C   UNL A   1      32.486  24.993  22.573  1.00  0.00     0.175 C 
BRANCH  12  13
ATOM     13  C   UNL A   1      33.193  26.028  23.433  1.00  0.00     0.232 C 
ATOM     14  C   UNL A   1      32.125  27.837  26.421  1.00  0.00     0.009 C 
ATOM     15  C   UNL A   1      32.393  28.870  25.323  1.00  0.00     0.006 C 
ATOM     16  C   UNL A   1      31.086  29.333  24.646  1.00  0.00     0.010 C 
ATOM     17  C   UNL A   1      33.390  28.330  24.284  1.00  0.00     0.122 C 
ATOM     18  C   UNL A   1      30.513  28.278  23.681  1.00  0.00     0.006 C 
ATOM     19  N   UNL A   1      32.758  27.346  23.408  1.00  0.00    -0.341 N 
ATOM     20  C   UNL A   1      31.595  27.852  22.681  1.00  0.00     0.122 C 
ATOM     21  C   UNL A   1      29.275  28.795  22.956  1.00  0.00     0.009 C 
ATOM     22  O   UNL A   1      34.170  25.677  24.104  1.00  0.00    -0.274 OA
ENDBRANCH  12  13
ENDBRANCH  11  12
ENDBRANCH   7  11
ENDBRANCH   3   6
ENDBRANCH   1   2
BRANCH   1  23
ATOM     23  C   UNL A   1      37.593  19.461  24.822  1.00  0.00     0.042 C 
BRANCH  23  24
ATOM     24  C   UNL A   1      38.742  20.168  25.536  1.00  0.00     0.118 C 
BRANCH  24  25
ATOM     25  N   UNL A   1      39.889  19.289  25.719  1.00  0.00    -0.352 N 
ATOM     26  C   UNL A   1      41.180  19.573  26.076  1.00  0.00     0.251 C 
ATOM     27  H   UNL A   1      39.705  18.335  25.560  1.00  0.00     0.163 HD
ATOM     28  O   UNL A   1      42.035  18.697  25.964  1.00  0.00    -0.269 OA
BRANCH  26  29
ATOM     29  C   UNL A   1      41.565  20.906  26.590  1.00  0.00     0.039 A 
ATOM     30  C   UNL A   1      41.417  21.156  27.959  1.00  0.00     0.014 A 
ATOM     31  C   UNL A   1      41.982  21.933  25.738  1.00  0.00     0.014 A 
ATOM     32  C   UNL A   1      41.713  22.419  28.475  1.00  0.00     0.010 A 
ATOM     33  C   UNL A   1      42.335  23.176  26.262  1.00  0.00     0.010 A 
ATOM     34  C   UNL A   1      42.188  23.435  27.634  1.00  0.00    -0.014 A 
BRANCH  34  35
ATOM     35  C   UNL A   1      42.503  24.783  28.171  1.00  0.00     0.031 A 
ATOM     36  C   UNL A   1      43.909  25.126  28.579  1.00  0.00     0.074 A 
ATOM     37  C   UNL A   1      41.515  25.683  28.329  1.00  0.00     0.049 A 
ATOM     38  N   UNL A   1      44.371  26.232  29.106  1.00  0.00    -0.248 NA
ATOM     39  C   UNL A   1      44.927  24.080  28.390  1.00  0.00     0.031 C 
ATOM     40  C   UNL A   1      40.105  25.457  28.009  1.00  0.00     0.029 A 
ATOM     41  N   UNL A   1      41.548  26.971  28.802  1.00  0.00    -0.354 N 
ATOM     42  C   UNL A   1      45.725  26.009  29.328  1.00  0.00     0.074 A 
ATOM     43  C   UNL A   1      46.001  24.649  28.920  1.00  0.00     0.031 C 
ATOM     44  C   UNL A   1      39.410  26.575  28.275  1.00  0.00     0.029 A 
ATOM     45  C   UNL A   1      40.319  27.585  28.808  1.00  0.00     0.049 A 
ATOM     46  H   UNL A   1      42.373  27.412  29.107  1.00  0.00     0.167 HD
ATOM     47  C   UNL A   1      46.656  26.866  29.810  1.00  0.00     0.037 A 
ATOM     48  C   UNL A   1      39.967  28.823  29.201  1.00  0.00     0.037 A 
ATOM     49  C   UNL A   1      46.387  28.228  30.189  1.00  0.00     0.049 A 
ATOM     50  C   UNL A   1      41.023  29.761  29.711  1.00  0.00     0.074 A 
ATOM     51  C   UNL A   1      47.272  29.190  30.644  1.00  0.00     0.029 A 
ATOM     52  N   UNL A   1      45.135  28.824  30.152  1.00  0.00    -0.354 N 
ATOM     53  N   UNL A   1      42.308  29.555  29.866  1.00  0.00    -0.248 NA
ATOM     54  C   UNL A   1      40.581  31.111  30.090  1.00  0.00     0.031 C 
ATOM     55  C   UNL A   1      46.550  30.359  30.910  1.00  0.00     0.029 A 
ATOM     56  C   UNL A   1      45.222  30.136  30.583  1.00  0.00     0.049 A 
ATOM     57  H   UNL A   1      44.305  28.377  29.862  1.00  0.00     0.167 HD
ATOM     58  C   UNL A   1      42.833  30.753  30.332  1.00  0.00     0.074 A 
ATOM     59  C   UNL A   1      41.729  31.686  30.424  1.00  0.00     0.031 C 
ATOM     60  C   UNL A   1      44.114  31.054  30.656  1.00  0.00     0.037 A 
BRANCH  47  61
ATOM     61  C   UNL A   1      48.059  26.352  29.949  1.00  0.00     0.057 A 
ATOM     62  C   UNL A   1      48.515  25.761  31.135  1.00  0.00     0.134 A 
ATOM     63  C   UNL A   1      48.958  26.424  28.877  1.00  0.00     0.134 A 
ATOM     64  F   UNL A   1      47.708  25.673  32.203  1.00  0.00    -0.206 F 
ATOM     65  C   UNL A   1      49.822  25.286  31.260  1.00  0.00     0.040 A 
ATOM     66  C   UNL A   1      50.260  25.929  28.982  1.00  0.00     0.040 A 
ATOM     67  F   UNL A   1      48.586  26.971  27.711  1.00  0.00    -0.206 F 
ATOM     68  C   UNL A   1      50.697  25.364  30.179  1.00  0.00     0.006 A 
ENDBRANCH  47  61
BRANCH  48  69
ATOM     69  C   UNL A   1      38.553  29.261  29.092  1.00  0.00     0.057 A 
ATOM     70  C   UNL A   1      38.033  29.711  27.873  1.00  0.00     0.134 A 
ATOM     71  C   UNL A   1      37.693  29.242  30.195  1.00  0.00     0.134 A 
ATOM     72  F   UNL A   1      38.815  29.767  26.785  1.00  0.00    -0.206 F 
ATOM     73  C   UNL A   1      36.712  30.144  27.758  1.00  0.00     0.040 A 
ATOM     74  C   UNL A   1      36.364  29.652  30.091  1.00  0.00     0.040 A 
ATOM     75  F   UNL A   1      38.132  28.815  31.388  1.00  0.00    -0.206 F 
ATOM     76  C   UNL A   1      35.871  30.112  28.870  1.00  0.00     0.006 A 
ENDBRANCH  48  69
BRANCH  60  77
ATOM     77  C   UNL A   1      44.393  32.459  31.097  1.00  0.00     0.057 A 
ATOM     78  C   UNL A   1      44.705  33.473  30.183  1.00  0.00     0.134 A 
ATOM     79  C   UNL A   1      44.326  32.806  32.452  1.00  0.00     0.134 A 
ATOM     80  F   UNL A   1      44.798  33.202  28.872  1.00  0.00    -0.206 F 
ATOM     81  C   UNL A   1      44.965  34.778  30.605  1.00  0.00     0.040 A 
ATOM     82  C   UNL A   1      44.560  34.111  32.884  1.00  0.00     0.040 A 
ATOM     83  F   UNL A   1      44.025  31.882  33.378  1.00  0.00    -0.206 F 
ATOM     84  C   UNL A   1      44.888  35.101  31.959  1.00  0.00     0.006 A 
ENDBRANCH  60  77
ENDBRANCH  34  35
ENDBRANCH  26  29
ENDBRANCH  24  25
ENDBRANCH  23  24
ENDBRANCH   1  23
TORSDOF 13
ENDMDL
MODEL 3
REMARK VINA RESULT:     -10.5      4.523      9.965
REMARK SMILES C[C@@H]1C[C@@H](C)CN(C(=O)CSc2csc(C(=O)NCCCNC(=O)c3ccc(-c4c5nc(c(-c6c(F)cccc6F)c6ccc([nH]6)c(-c6c(F)cccc6F)c6nc(c(-c7c(F)cccc7F)c7ccc4[nH]7)C=C6)C=C5)cc3)c2)C1
REMARK SMILES IDX 19 1 18 2 16 3 17 4 15 6 12 7 13 8 79 9 14 10 11 11 10 12
REMARK SMILES IDX 8 13 1 14 2 15 3 16 80 17 4 18 7 19 6 20 5 21 9 22 20 23
REMARK SMILES IDX 21 24 22 25 23 26 24 28 25 29 26 30 78 31 27 32 77 33 28 34
REMARK SMILES IDX 29 35 30 36 71 37 31 38 76 39 70 40 72 41 32 42 75 43 69 44
REMARK SMILES IDX 68 45 33 47 59 48 42 49 58 50 43 51 46 52 57 53 73 54 44 55
REMARK SMILES IDX 45 56 56 58 74 59 47 60 34 61 35 62 40 63 36 64 37 65 39 66
REMARK SMILES IDX 41 67 38 68 60 69 61 70 66 71 62 72 63 73 65 74 67 75 64 76
REMARK SMILES IDX 48 77 49 78 54 79 50 80 51 81 53 82 55 83 52 84
REMARK H PARENT 18 5 22 27 72 46 46 57
REMARK Flexibility Score: inf
ROOT
ATOM      1  C   UNL A   1      36.377  20.338  25.150  1.00  0.00     0.118 C 
ENDROOT
BRANCH   1   2
ATOM      2  N   UNL A   1      35.228  19.500  24.867  1.00  0.00    -0.351 N 
ATOM      3  C   UNL A   1      33.885  19.792  24.790  1.00  0.00     0.261 C 
ATOM      4  O   UNL A   1      33.162  18.858  24.438  1.00  0.00    -0.268 OA
ATOM      5  H   UNL A   1      35.447  18.555  24.699  1.00  0.00     0.163 HD
BRANCH   3   6
ATOM      6  C   UNL A   1      33.390  21.134  25.070  1.00  0.00     0.093 A 
ATOM      7  C   UNL A   1      32.442  23.270  24.942  1.00  0.00     0.019 A 
ATOM      8  C   UNL A   1      32.585  23.126  26.300  1.00  0.00     0.080 A 
ATOM      9  C   UNL A   1      32.963  22.153  24.236  1.00  0.00     0.040 A 
ATOM     10  S   UNL A   1      33.313  21.639  26.715  1.00  0.00    -0.137 S 
BRANCH   7  11
ATOM     11  S   UNL A   1      31.647  24.656  24.220  1.00  0.00    -0.115 SA
BRANCH  11  12
ATOM     12  C   UNL A   1      32.992  25.726  23.641  1.00  0.00     0.175 C 
BRANCH  12  13
ATOM     13  C   UNL A   1      33.571  26.619  24.727  1.00  0.00     0.232 C 
ATOM     14  C   UNL A   1      32.008  28.332  27.550  1.00  0.00     0.009 C 
ATOM     15  C   UNL A   1      32.616  29.400  26.636  1.00  0.00     0.006 C 
ATOM     16  C   UNL A   1      31.549  30.046  25.728  1.00  0.00     0.010 C 
ATOM     17  C   UNL A   1      33.774  28.825  25.803  1.00  0.00     0.122 C 
ATOM     18  C   UNL A   1      31.122  29.126  24.569  1.00  0.00     0.006 C 
ATOM     19  N   UNL A   1      33.275  27.975  24.723  1.00  0.00    -0.341 N 
ATOM     20  C   UNL A   1      32.363  28.651  23.803  1.00  0.00     0.122 C 
ATOM     21  C   UNL A   1      30.138  29.821  23.634  1.00  0.00     0.009 C 
ATOM     22  O   UNL A   1      34.330  26.119  25.565  1.00  0.00    -0.274 OA
ENDBRANCH  12  13
ENDBRANCH  11  12
ENDBRANCH   7  11
ENDBRANCH   3   6
ENDBRANCH   1   2
BRANCH   1  23
ATOM     23  C   UNL A   1      37.689  19.598  24.890  1.00  0.00     0.042 C 
BRANCH  23  24
ATOM     24  C   UNL A   1      38.904  20.289  25.507  1.00  0.00     0.118 C 
BRANCH  24  25
ATOM     25  N   UNL A   1      40.017  19.367  25.689  1.00  0.00    -0.352 N 
ATOM     26  C   UNL A   1      41.317  19.602  26.049  1.00  0.00     0.251 C 
ATOM     27  H   UNL A   1      39.798  18.421  25.527  1.00  0.00     0.163 HD
ATOM     28  O   UNL A   1      42.139  18.694  25.936  1.00  0.00    -0.269 OA
BRANCH  26  29
ATOM     29  C   UNL A   1      41.750  20.919  26.567  1.00  0.00     0.039 A 
ATOM     30  C   UNL A   1      41.617  21.167  27.937  1.00  0.00     0.014 A 
ATOM     31  C   UNL A   1      42.200  21.934  25.717  1.00  0.00     0.014 A 
ATOM     32  C   UNL A   1      41.959  22.417  28.457  1.00  0.00     0.010 A 
ATOM     33  C   UNL A   1      42.599  23.161  26.245  1.00  0.00     0.010 A 
ATOM     34  C   UNL A   1      42.466  23.420  27.618  1.00  0.00    -0.014 A 
BRANCH  34  35
ATOM     35  C   UNL A   1      42.831  24.753  28.159  1.00  0.00     0.031 A 
ATOM     36  C   UNL A   1      41.772  25.799  28.372  1.00  0.00     0.074 A 
ATOM     37  C   UNL A   1      44.121  25.034  28.422  1.00  0.00     0.049 A 
ATOM     38  N   UNL A   1      41.900  27.032  28.796  1.00  0.00    -0.248 NA
ATOM     39  C   UNL A   1      40.389  25.418  28.046  1.00  0.00     0.031 C 
ATOM     40  C   UNL A   1      45.244  24.119  28.219  1.00  0.00     0.029 A 
ATOM     41  N   UNL A   1      44.704  26.174  28.913  1.00  0.00    -0.354 N 
ATOM     42  C   UNL A   1      40.622  27.577  28.768  1.00  0.00     0.074 A 
ATOM     43  C   UNL A   1      39.740  26.557  28.246  1.00  0.00     0.031 C 
ATOM     44  C   UNL A   1      46.379  24.725  28.603  1.00  0.00     0.029 A 
ATOM     45  C   UNL A   1      46.067  26.078  29.052  1.00  0.00     0.049 A 
ATOM     46  H   UNL A   1      44.194  26.984  29.145  1.00  0.00     0.167 HD
ATOM     47  C   UNL A   1      40.217  28.808  29.161  1.00  0.00     0.037 A 
ATOM     48  C   UNL A   1      46.963  26.982  29.491  1.00  0.00     0.037 A 
ATOM     49  C   UNL A   1      41.091  29.813  29.708  1.00  0.00     0.049 A 
ATOM     50  C   UNL A   1      46.486  28.332  29.942  1.00  0.00     0.074 A 
ATOM     51  C   UNL A   1      40.770  31.075  30.178  1.00  0.00     0.029 A 
ATOM     52  N   UNL A   1      42.462  29.667  29.861  1.00  0.00    -0.354 N 
ATOM     53  N   UNL A   1      45.268  28.816  29.960  1.00  0.00    -0.248 NA
ATOM     54  C   UNL A   1      47.509  29.261  30.444  1.00  0.00     0.031 C 
ATOM     55  C   UNL A   1      41.951  31.702  30.590  1.00  0.00     0.029 A 
ATOM     56  C   UNL A   1      43.002  30.817  30.411  1.00  0.00     0.049 A 
ATOM     57  H   UNL A   1      42.975  28.863  29.614  1.00  0.00     0.167 HD
ATOM     58  C   UNL A   1      45.371  30.091  30.501  1.00  0.00     0.074 A 
ATOM     59  C   UNL A   1      46.771  30.301  30.808  1.00  0.00     0.031 C 
ATOM     60  C   UNL A   1      44.396  31.004  30.722  1.00  0.00     0.037 A 
BRANCH  47  61
ATOM     61  C   UNL A   1      38.760  29.133  29.017  1.00  0.00     0.057 A 
ATOM     62  C   UNL A   1      37.875  29.052  30.101  1.00  0.00     0.134 A 
ATOM     63  C   UNL A   1      38.237  29.557  27.788  1.00  0.00     0.134 A 
ATOM     64  F   UNL A   1      38.308  28.640  31.302  1.00  0.00    -0.206 F 
ATOM     65  C   UNL A   1      36.519  29.353  29.962  1.00  0.00     0.040 A 
ATOM     66  C   UNL A   1      36.888  29.886  27.643  1.00  0.00     0.040 A 
ATOM     67  F   UNL A   1      39.029  29.663  26.711  1.00  0.00    -0.206 F 
ATOM     68  C   UNL A   1      36.023  29.778  28.731  1.00  0.00     0.006 A 
ENDBRANCH  47  61
BRANCH  48  69
ATOM     69  C   UNL A   1      48.401  26.623  29.563  1.00  0.00     0.057 A 
ATOM     70  C   UNL A   1      48.921  25.957  30.678  1.00  0.00     0.134 A 
ATOM     71  C   UNL A   1      49.287  26.938  28.525  1.00  0.00     0.134 A 
ATOM     72  F   UNL A   1      48.125  25.646  31.710  1.00  0.00    -0.206 F 
ATOM     73  C   UNL A   1      50.275  25.631  30.768  1.00  0.00     0.040 A 
ATOM     74  C   UNL A   1      50.638  26.599  28.592  1.00  0.00     0.040 A 
ATOM     75  F   UNL A   1      48.847  27.569  27.427  1.00  0.00    -0.206 F 
ATOM     76  C   UNL A   1      51.137  25.949  29.721  1.00  0.00     0.006 A 
ENDBRANCH  48  69
BRANCH  60  77
ATOM     77  C   UNL A   1      44.805  32.296  31.364  1.00  0.00     0.057 A 
ATOM     78  C   UNL A   1      45.185  33.410  30.606  1.00  0.00     0.134 A 
ATOM     79  C   UNL A   1      44.794  32.432  32.758  1.00  0.00     0.134 A 
ATOM     80  F   UNL A   1      45.228  33.340  29.267  1.00  0.00    -0.206 F 
ATOM     81  C   UNL A   1      45.565  34.608  31.214  1.00  0.00     0.040 A 
ATOM     82  C   UNL A   1      45.150  33.631  33.376  1.00  0.00     0.040 A 
ATOM     83  F   UNL A   1      44.434  31.404  33.540  1.00  0.00    -0.206 F 
ATOM     84  C   UNL A   1      45.543  34.722  32.604  1.00  0.00     0.006 A 
ENDBRANCH  60  77
ENDBRANCH  34  35
ENDBRANCH  26  29
ENDBRANCH  24  25
ENDBRANCH  23  24
ENDBRANCH   1  23
TORSDOF 13
ENDMDL
