MODEL 1
REMARK VINA RESULT:      -9.6      0.000      0.000
REMARK SMILES O=C(C[N@H+]1CC[C@]2(C1)C[C@H](CBr)C2)NCCCNC(=O)c1ccc(-c2c3nc(c(-c4c(F)cccc4F)c4ccc([nH]4)c(-c4c(F)cccc4F)c4nc(c(-c5c(F)cccc5F)c5ccc2[nH]5)C=C4)C=C3)cc1
REMARK SMILES IDX 16 1 15 2 14 3 1 4 2 5 3 7 4 8 5 9 8 10 6 12 7 13 13 14 9 15
REMARK SMILES IDX 10 16 11 17 12 18 17 19 18 20 19 21 20 23 21 24 22 25 74 26
REMARK SMILES IDX 23 27 73 28 24 29 25 30 26 31 67 32 27 33 72 34 66 35 68 36
REMARK SMILES IDX 28 37 71 38 65 39 64 40 29 42 55 43 38 44 54 45 39 46 42 47
REMARK SMILES IDX 53 48 69 49 40 50 41 51 52 53 70 54 43 55 30 56 31 57 36 58
REMARK SMILES IDX 32 59 33 60 35 61 37 62 34 63 56 64 57 65 62 66 58 67 59 68
REMARK SMILES IDX 61 69 63 70 60 71 44 72 45 73 50 74 46 75 47 76 49 77 51 78
REMARK SMILES IDX 48 79
REMARK H PARENT 14 6 4 11 18 22 68 41 42 52
REMARK Flexibility Score: inf
ROOT
ATOM      1  C   UNL A   1      32.788  36.682  32.050  1.00  0.00     0.042 C 
ENDROOT
BRANCH   1   2
ATOM      2  C   UNL A   1      33.673  36.752  33.280  1.00  0.00     0.118 C 
BRANCH   2   3
ATOM      3  N   UNL A   1      34.021  35.453  33.816  1.00  0.00    -0.351 N 
ATOM      4  O   UNL A   1      36.134  35.406  32.905  1.00  0.00    -0.269 OA
ATOM      5  C   UNL A   1      35.317  34.972  33.711  1.00  0.00     0.275 C 
ATOM      6  H   UNL A   1      33.332  34.907  34.258  1.00  0.00     0.163 HD
BRANCH   5   7
ATOM      7  C   UNL A   1      35.646  33.868  34.715  1.00  0.00     0.363 C 
BRANCH   7   8
ATOM      8  N   UNL A   1      37.085  33.555  34.833  1.00  0.00    -0.327 N 
ATOM      9  C   UNL A   1      37.878  34.146  35.904  1.00  0.00     0.263 C 
ATOM     10  C   UNL A   1      37.359  32.131  34.815  1.00  0.00     0.269 C 
ATOM     11  H   UNL A   1      37.402  34.032  33.989  1.00  0.00     0.348 HD
ATOM     12  C   UNL A   1      39.133  33.281  36.038  1.00  0.00     0.074 C 
ATOM     13  C   UNL A   1      38.812  31.994  35.281  1.00  0.00     0.025 C 
ATOM     14  C   UNL A   1      39.942  31.816  34.227  1.00  0.00     0.017 C 
ATOM     15  C   UNL A   1      39.170  30.494  35.664  1.00  0.00     0.017 C 
ATOM     16  C   UNL A   1      39.543  30.333  34.135  1.00  0.00     0.001 C 
BRANCH  16  17
ATOM     17  C   UNL A   1      40.685  29.563  33.517  1.00  0.00     0.084 C 
ATOM     18  Br  UNL A   1      40.007  28.036  32.533  1.00  0.00    -0.093 Br
ENDBRANCH  16  17
ENDBRANCH   7   8
ENDBRANCH   5   7
ENDBRANCH   2   3
ENDBRANCH   1   2
BRANCH   1  19
ATOM     19  C   UNL A   1      33.525  36.476  30.731  1.00  0.00     0.118 C 
BRANCH  19  20
ATOM     20  N   UNL A   1      32.755  35.751  29.730  1.00  0.00    -0.352 N 
ATOM     21  C   UNL A   1      33.100  34.657  28.974  1.00  0.00     0.251 C 
ATOM     22  H   UNL A   1      31.848  36.099  29.570  1.00  0.00     0.163 HD
ATOM     23  O   UNL A   1      32.330  34.266  28.092  1.00  0.00    -0.269 OA
BRANCH  21  24
ATOM     24  C   UNL A   1      34.391  33.960  29.174  1.00  0.00     0.039 A 
ATOM     25  C   UNL A   1      35.351  34.023  28.159  1.00  0.00     0.014 A 
ATOM     26  C   UNL A   1      34.664  33.233  30.336  1.00  0.00     0.014 A 
ATOM     27  C   UNL A   1      36.598  33.421  28.340  1.00  0.00     0.010 A 
ATOM     28  C   UNL A   1      35.940  32.713  30.553  1.00  0.00     0.010 A 
ATOM     29  C   UNL A   1      36.921  32.793  29.556  1.00  0.00    -0.014 A 
BRANCH  29  30
ATOM     30  C   UNL A   1      38.281  32.234  29.784  1.00  0.00     0.031 A 
ATOM     31  C   UNL A   1      39.325  33.020  30.532  1.00  0.00     0.074 A 
ATOM     32  C   UNL A   1      38.589  31.018  29.289  1.00  0.00     0.049 A 
ATOM     33  N   UNL A   1      40.551  32.678  30.846  1.00  0.00    -0.248 NA
ATOM     34  C   UNL A   1      38.957  34.377  30.963  1.00  0.00     0.031 C 
ATOM     35  C   UNL A   1      37.695  30.178  28.490  1.00  0.00     0.029 A 
ATOM     36  N   UNL A   1      39.739  30.273  29.389  1.00  0.00    -0.354 N 
ATOM     37  C   UNL A   1      41.096  33.774  31.504  1.00  0.00     0.074 A 
ATOM     38  C   UNL A   1      40.092  34.816  31.486  1.00  0.00     0.031 C 
ATOM     39  C   UNL A   1      38.311  29.019  28.211  1.00  0.00     0.029 A 
ATOM     40  C   UNL A   1      39.655  29.045  28.778  1.00  0.00     0.049 A 
ATOM     41  H   UNL A   1      40.547  30.589  29.855  1.00  0.00     0.167 HD
ATOM     42  C   UNL A   1      42.310  33.894  32.094  1.00  0.00     0.037 A 
ATOM     43  C   UNL A   1      40.556  28.048  28.690  1.00  0.00     0.037 A 
ATOM     44  C   UNL A   1      43.304  32.853  32.124  1.00  0.00     0.049 A 
ATOM     45  C   UNL A   1      41.894  28.205  29.357  1.00  0.00     0.074 A 
ATOM     46  C   UNL A   1      44.542  32.860  32.744  1.00  0.00     0.029 A 
ATOM     47  N   UNL A   1      43.178  31.621  31.501  1.00  0.00    -0.354 N 
ATOM     48  N   UNL A   1      42.362  29.216  30.048  1.00  0.00    -0.248 NA
ATOM     49  C   UNL A   1      42.824  27.073  29.244  1.00  0.00     0.031 C 
ATOM     50  C   UNL A   1      45.185  31.652  32.452  1.00  0.00     0.029 A 
ATOM     51  C   UNL A   1      44.325  30.869  31.702  1.00  0.00     0.049 A 
ATOM     52  H   UNL A   1      42.391  31.324  30.989  1.00  0.00     0.167 HD
ATOM     53  C   UNL A   1      43.626  28.831  30.475  1.00  0.00     0.074 A 
ATOM     54  C   UNL A   1      43.841  27.486  29.986  1.00  0.00     0.031 C 
ATOM     55  C   UNL A   1      44.529  29.530  31.208  1.00  0.00     0.037 A 
BRANCH  42  56
ATOM     56  C   UNL A   1      42.628  35.202  32.765  1.00  0.00     0.057 A 
ATOM     57  C   UNL A   1      42.292  35.447  34.104  1.00  0.00     0.134 A 
ATOM     58  C   UNL A   1      43.309  36.214  32.077  1.00  0.00     0.134 A 
ATOM     59  F   UNL A   1      41.628  34.527  34.819  1.00  0.00    -0.206 F 
ATOM     60  C   UNL A   1      42.598  36.661  34.724  1.00  0.00     0.040 A 
ATOM     61  C   UNL A   1      43.647  37.419  32.696  1.00  0.00     0.040 A 
ATOM     62  F   UNL A   1      43.668  36.045  30.795  1.00  0.00    -0.206 F 
ATOM     63  C   UNL A   1      43.285  37.648  34.021  1.00  0.00     0.006 A 
ENDBRANCH  42  56
BRANCH  43  64
ATOM     64  C   UNL A   1      40.212  26.794  27.970  1.00  0.00     0.057 A 
ATOM     65  C   UNL A   1      39.424  25.806  28.571  1.00  0.00     0.134 A 
ATOM     66  C   UNL A   1      40.675  26.546  26.672  1.00  0.00     0.134 A 
ATOM     67  F   UNL A   1      38.966  25.976  29.821  1.00  0.00    -0.206 F 
ATOM     68  C   UNL A   1      39.130  24.607  27.921  1.00  0.00     0.040 A 
ATOM     69  C   UNL A   1      40.364  25.363  25.998  1.00  0.00     0.040 A 
ATOM     70  F   UNL A   1      41.428  27.456  26.036  1.00  0.00    -0.206 F 
ATOM     71  C   UNL A   1      39.597  24.385  26.627  1.00  0.00     0.006 A 
ENDBRANCH  43  64
BRANCH  55  72
ATOM     72  C   UNL A   1      45.815  28.832  31.553  1.00  0.00     0.057 A 
ATOM     73  C   UNL A   1      46.964  28.949  30.758  1.00  0.00     0.134 A 
ATOM     74  C   UNL A   1      45.907  28.037  32.703  1.00  0.00     0.134 A 
ATOM     75  F   UNL A   1      46.942  29.686  29.637  1.00  0.00    -0.206 F 
ATOM     76  C   UNL A   1      48.141  28.267  31.070  1.00  0.00     0.040 A 
ATOM     77  C   UNL A   1      47.088  27.377  33.044  1.00  0.00     0.040 A 
ATOM     78  F   UNL A   1      44.850  27.890  33.518  1.00  0.00    -0.206 F 
ATOM     79  C   UNL A   1      48.206  27.481  32.220  1.00  0.00     0.006 A 
ENDBRANCH  55  72
ENDBRANCH  29  30
ENDBRANCH  21  24
ENDBRANCH  19  20
ENDBRANCH   1  19
TORSDOF 12
ENDMDL
MODEL 2
REMARK VINA RESULT:      -9.5      4.885     11.240
REMARK SMILES O=C(C[N@H+]1CC[C@]2(C1)C[C@H](CBr)C2)NCCCNC(=O)c1ccc(-c2c3nc(c(-c4c(F)cccc4F)c4ccc([nH]4)c(-c4c(F)cccc4F)c4nc(c(-c5c(F)cccc5F)c5ccc2[nH]5)C=C4)C=C3)cc1
REMARK SMILES IDX 16 1 15 2 14 3 1 4 2 5 3 7 4 8 5 9 8 10 6 12 7 13 13 14 9 15
REMARK SMILES IDX 10 16 11 17 12 18 17 19 18 20 19 21 20 23 21 24 22 25 74 26
REMARK SMILES IDX 23 27 73 28 24 29 25 30 26 31 67 32 27 33 72 34 66 35 68 36
REMARK SMILES IDX 28 37 71 38 65 39 64 40 29 42 55 43 38 44 54 45 39 46 42 47
REMARK SMILES IDX 53 48 69 49 40 50 41 51 52 53 70 54 43 55 30 56 31 57 36 58
REMARK SMILES IDX 32 59 33 60 35 61 37 62 34 63 56 64 57 65 62 66 58 67 59 68
REMARK SMILES IDX 61 69 63 70 60 71 44 72 45 73 50 74 46 75 47 76 49 77 51 78
REMARK SMILES IDX 48 79
REMARK H PARENT 14 6 4 11 18 22 68 41 42 52
REMARK Flexibility Score: inf
ROOT
ATOM      1  C   UNL A   1      45.088  19.177  24.505  1.00  0.00     0.042 C 
ENDROOT
BRANCH   1   2
ATOM      2  C   UNL A   1      46.394  19.943  24.611  1.00  0.00     0.118 C 
BRANCH   2   3
ATOM      3  N   UNL A   1      46.314  21.294  24.095  1.00  0.00    -0.351 N 
ATOM      4  O   UNL A   1      45.969  22.283  26.145  1.00  0.00    -0.269 OA
ATOM      5  C   UNL A   1      46.276  22.376  24.960  1.00  0.00     0.275 C 
ATOM      6  H   UNL A   1      46.286  21.445  23.123  1.00  0.00     0.163 HD
BRANCH   5   7
ATOM      7  C   UNL A   1      46.685  23.698  24.310  1.00  0.00     0.363 C 
BRANCH   7   8
ATOM      8  N   UNL A   1      46.904  24.807  25.261  1.00  0.00    -0.327 N 
ATOM      9  C   UNL A   1      48.259  25.243  25.577  1.00  0.00     0.263 C 
ATOM     10  C   UNL A   1      46.124  25.988  24.944  1.00  0.00     0.269 C 
ATOM     11  H   UNL A   1      46.586  24.333  26.106  1.00  0.00     0.348 HD
ATOM     12  C   UNL A   1      48.133  26.650  26.166  1.00  0.00     0.074 C 
ATOM     13  C   UNL A   1      46.723  27.109  25.800  1.00  0.00     0.025 C 
ATOM     14  C   UNL A   1      46.034  27.503  27.138  1.00  0.00     0.017 C 
ATOM     15  C   UNL A   1      46.230  28.542  25.324  1.00  0.00     0.017 C 
ATOM     16  C   UNL A   1      45.016  28.306  26.309  1.00  0.00     0.001 C 
BRANCH  16  17
ATOM     17  C   UNL A   1      44.328  29.298  27.216  1.00  0.00     0.084 C 
ATOM     18  Br  UNL A   1      42.469  29.496  26.703  1.00  0.00    -0.093 Br
ENDBRANCH  16  17
ENDBRANCH   7   8
ENDBRANCH   5   7
ENDBRANCH   2   3
ENDBRANCH   1   2
BRANCH   1  19
ATOM     19  C   UNL A   1      44.240  19.163  25.771  1.00  0.00     0.118 C 
BRANCH  19  20
ATOM     20  N   UNL A   1      42.833  18.869  25.538  1.00  0.00    -0.352 N 
ATOM     21  C   UNL A   1      41.714  19.589  25.878  1.00  0.00     0.251 C 
ATOM     22  H   UNL A   1      42.657  18.024  25.064  1.00  0.00     0.163 HD
ATOM     23  O   UNL A   1      40.598  19.097  25.684  1.00  0.00    -0.269 OA
BRANCH  21  24
ATOM     24  C   UNL A   1      41.820  20.927  26.502  1.00  0.00     0.039 A 
ATOM     25  C   UNL A   1      41.441  21.074  27.841  1.00  0.00     0.014 A 
ATOM     26  C   UNL A   1      42.270  22.040  25.788  1.00  0.00     0.014 A 
ATOM     27  C   UNL A   1      41.579  22.312  28.473  1.00  0.00     0.010 A 
ATOM     28  C   UNL A   1      42.495  23.251  26.445  1.00  0.00     0.010 A 
ATOM     29  C   UNL A   1      42.146  23.404  27.794  1.00  0.00    -0.014 A 
BRANCH  29  30
ATOM     30  C   UNL A   1      42.381  24.696  28.495  1.00  0.00     0.031 A 
ATOM     31  C   UNL A   1      43.707  24.994  29.141  1.00  0.00     0.074 A 
ATOM     32  C   UNL A   1      41.381  25.597  28.574  1.00  0.00     0.049 A 
ATOM     33  N   UNL A   1      44.096  26.078  29.769  1.00  0.00    -0.248 NA
ATOM     34  C   UNL A   1      44.724  23.932  29.101  1.00  0.00     0.031 C 
ATOM     35  C   UNL A   1      40.027  25.409  28.050  1.00  0.00     0.029 A 
ATOM     36  N   UNL A   1      41.350  26.856  29.124  1.00  0.00    -0.354 N 
ATOM     37  C   UNL A   1      45.392  25.824  30.199  1.00  0.00     0.074 A 
ATOM     38  C   UNL A   1      45.702  24.463  29.819  1.00  0.00     0.031 C 
ATOM     39  C   UNL A   1      39.313  26.525  28.263  1.00  0.00     0.029 A 
ATOM     40  C   UNL A   1      40.143  27.495  28.968  1.00  0.00     0.049 A 
ATOM     41  H   UNL A   1      42.119  27.262  29.583  1.00  0.00     0.167 HD
ATOM     42  C   UNL A   1      46.258  26.656  30.827  1.00  0.00     0.037 A 
ATOM     43  C   UNL A   1      39.750  28.727  29.346  1.00  0.00     0.037 A 
ATOM     44  C   UNL A   1      45.956  28.015  31.194  1.00  0.00     0.049 A 
ATOM     45  C   UNL A   1      40.730  29.631  30.038  1.00  0.00     0.074 A 
ATOM     46  C   UNL A   1      46.784  28.955  31.784  1.00  0.00     0.029 A 
ATOM     47  N   UNL A   1      44.725  28.628  31.013  1.00  0.00    -0.354 N 
ATOM     48  N   UNL A   1      41.981  29.406  30.361  1.00  0.00    -0.248 NA
ATOM     49  C   UNL A   1      40.248  30.970  30.403  1.00  0.00     0.031 C 
ATOM     50  C   UNL A   1      46.039  30.118  32.006  1.00  0.00     0.029 A 
ATOM     51  C   UNL A   1      44.765  29.925  31.501  1.00  0.00     0.049 A 
ATOM     52  H   UNL A   1      43.938  28.205  30.600  1.00  0.00     0.167 HD
ATOM     53  C   UNL A   1      42.442  30.581  30.941  1.00  0.00     0.074 A 
ATOM     54  C   UNL A   1      41.344  31.524  30.902  1.00  0.00     0.031 C 
ATOM     55  C   UNL A   1      43.665  30.855  31.459  1.00  0.00     0.037 A 
BRANCH  42  56
ATOM     56  C   UNL A   1      47.624  26.118  31.153  1.00  0.00     0.057 A 
ATOM     57  C   UNL A   1      48.700  26.243  30.263  1.00  0.00     0.134 A 
ATOM     58  C   UNL A   1      47.877  25.500  32.385  1.00  0.00     0.134 A 
ATOM     59  F   UNL A   1      48.527  26.813  29.062  1.00  0.00    -0.206 F 
ATOM     60  C   UNL A   1      49.969  25.749  30.575  1.00  0.00     0.040 A 
ATOM     61  C   UNL A   1      49.148  25.030  32.720  1.00  0.00     0.040 A 
ATOM     62  F   UNL A   1      46.895  25.353  33.288  1.00  0.00    -0.206 F 
ATOM     63  C   UNL A   1      50.197  25.148  31.810  1.00  0.00     0.006 A 
ENDBRANCH  42  56
BRANCH  43  64
ATOM     64  C   UNL A   1      38.370  29.193  29.047  1.00  0.00     0.057 A 
ATOM     65  C   UNL A   1      38.024  29.660  27.773  1.00  0.00     0.134 A 
ATOM     66  C   UNL A   1      37.372  29.199  30.028  1.00  0.00     0.134 A 
ATOM     67  F   UNL A   1      38.941  29.697  26.796  1.00  0.00    -0.206 F 
ATOM     68  C   UNL A   1      36.744  30.140  27.493  1.00  0.00     0.040 A 
ATOM     69  C   UNL A   1      36.079  29.648  29.754  1.00  0.00     0.040 A 
ATOM     70  F   UNL A   1      37.637  28.756  31.266  1.00  0.00    -0.206 F 
ATOM     71  C   UNL A   1      35.765  30.130  28.485  1.00  0.00     0.006 A 
ENDBRANCH  43  64
BRANCH  55  72
ATOM     72  C   UNL A   1      43.886  32.244  31.990  1.00  0.00     0.057 A 
ATOM     73  C   UNL A   1      43.649  32.575  33.331  1.00  0.00     0.134 A 
ATOM     74  C   UNL A   1      44.349  33.263  31.148  1.00  0.00     0.134 A 
ATOM     75  F   UNL A   1      43.195  31.650  34.190  1.00  0.00    -0.206 F 
ATOM     76  C   UNL A   1      43.824  33.877  33.804  1.00  0.00     0.040 A 
ATOM     77  C   UNL A   1      44.559  34.561  31.616  1.00  0.00     0.040 A 
ATOM     78  F   UNL A   1      44.608  33.015  29.854  1.00  0.00    -0.206 F 
ATOM     79  C   UNL A   1      44.285  34.873  32.945  1.00  0.00     0.006 A 
ENDBRANCH  55  72
ENDBRANCH  29  30
ENDBRANCH  21  24
ENDBRANCH  19  20
ENDBRANCH   1  19
TORSDOF 12
ENDMDL
MODEL 3
REMARK VINA RESULT:      -9.5      2.526      4.571
REMARK SMILES O=C(C[N@H+]1CC[C@]2(C1)C[C@H](CBr)C2)NCCCNC(=O)c1ccc(-c2c3nc(c(-c4c(F)cccc4F)c4ccc([nH]4)c(-c4c(F)cccc4F)c4nc(c(-c5c(F)cccc5F)c5ccc2[nH]5)C=C4)C=C3)cc1
REMARK SMILES IDX 16 1 15 2 14 3 1 4 2 5 3 7 4 8 5 9 8 10 6 12 7 13 13 14 9 15
REMARK SMILES IDX 10 16 11 17 12 18 17 19 18 20 19 21 20 23 21 24 22 25 74 26
REMARK SMILES IDX 23 27 73 28 24 29 25 30 26 31 67 32 27 33 72 34 66 35 68 36
REMARK SMILES IDX 28 37 71 38 65 39 64 40 29 42 55 43 38 44 54 45 39 46 42 47
REMARK SMILES IDX 53 48 69 49 40 50 41 51 52 53 70 54 43 55 30 56 31 57 36 58
REMARK SMILES IDX 32 59 33 60 35 61 37 62 34 63 56 64 57 65 62 66 58 67 59 68
REMARK SMILES IDX 61 69 63 70 60 71 44 72 45 73 50 74 46 75 47 76 49 77 51 78
REMARK SMILES IDX 48 79
REMARK H PARENT 14 6 4 11 18 22 68 41 42 52
REMARK Flexibility Score: inf
ROOT
ATOM      1  C   UNL A   1      35.940  33.512  28.645  1.00  0.00     0.042 C 
ENDROOT
BRANCH   1   2
ATOM      2  C   UNL A   1      35.100  34.426  27.773  1.00  0.00     0.118 C 
BRANCH   2   3
ATOM      3  N   UNL A   1      34.650  35.621  28.455  1.00  0.00    -0.351 N 
ATOM      4  O   UNL A   1      32.442  34.981  28.568  1.00  0.00    -0.269 OA
ATOM      5  C   UNL A   1      33.357  35.704  28.948  1.00  0.00     0.275 C 
ATOM      6  H   UNL A   1      35.267  36.379  28.571  1.00  0.00     0.163 HD
BRANCH   5   7
ATOM      7  C   UNL A   1      33.181  36.764  30.036  1.00  0.00     0.363 C 
BRANCH   7   8
ATOM      8  N   UNL A   1      33.926  36.492  31.283  1.00  0.00    -0.327 N 
ATOM      9  C   UNL A   1      33.623  37.243  32.495  1.00  0.00     0.263 C 
ATOM     10  C   UNL A   1      33.954  35.085  31.632  1.00  0.00     0.269 C 
ATOM     11  H   UNL A   1      34.834  36.848  30.985  1.00  0.00     0.348 HD
ATOM     12  C   UNL A   1      34.184  36.425  33.661  1.00  0.00     0.074 C 
ATOM     13  C   UNL A   1      34.450  35.038  33.081  1.00  0.00     0.025 C 
ATOM     14  C   UNL A   1      35.946  34.727  33.369  1.00  0.00     0.017 C 
ATOM     15  C   UNL A   1      34.205  33.614  33.742  1.00  0.00     0.017 C 
ATOM     16  C   UNL A   1      35.621  33.240  33.142  1.00  0.00     0.001 C 
BRANCH  16  17
ATOM     17  C   UNL A   1      36.717  32.405  33.759  1.00  0.00     0.084 C 
ATOM     18  Br  UNL A   1      37.961  31.820  32.393  1.00  0.00    -0.093 Br
ENDBRANCH  16  17
ENDBRANCH   7   8
ENDBRANCH   5   7
ENDBRANCH   2   3
ENDBRANCH   1   2
BRANCH   1  19
ATOM     19  C   UNL A   1      35.151  32.559  29.535  1.00  0.00     0.118 C 
BRANCH  19  20
ATOM     20  N   UNL A   1      34.382  31.564  28.803  1.00  0.00    -0.352 N 
ATOM     21  C   UNL A   1      34.785  30.380  28.236  1.00  0.00     0.251 C 
ATOM     22  H   UNL A   1      33.425  31.772  28.696  1.00  0.00     0.163 HD
ATOM     23  O   UNL A   1      33.984  29.733  27.553  1.00  0.00    -0.269 OA
BRANCH  21  24
ATOM     24  C   UNL A   1      36.170  29.881  28.399  1.00  0.00     0.039 A 
ATOM     25  C   UNL A   1      37.057  30.004  27.325  1.00  0.00     0.014 A 
ATOM     26  C   UNL A   1      36.602  29.281  29.584  1.00  0.00     0.014 A 
ATOM     27  C   UNL A   1      38.384  29.592  27.465  1.00  0.00     0.010 A 
ATOM     28  C   UNL A   1      37.948  28.956  29.754  1.00  0.00     0.010 A 
ATOM     29  C   UNL A   1      38.855  29.100  28.695  1.00  0.00    -0.014 A 
BRANCH  29  30
ATOM     30  C   UNL A   1      40.290  28.749  28.874  1.00  0.00     0.031 A 
ATOM     31  C   UNL A   1      41.251  29.721  29.504  1.00  0.00     0.074 A 
ATOM     32  C   UNL A   1      40.739  27.554  28.438  1.00  0.00     0.049 A 
ATOM     33  N   UNL A   1      42.528  29.572  29.763  1.00  0.00    -0.248 NA
ATOM     34  C   UNL A   1      40.720  31.043  29.870  1.00  0.00     0.031 C 
ATOM     35  C   UNL A   1      39.930  26.546  27.751  1.00  0.00     0.029 A 
ATOM     36  N   UNL A   1      41.985  26.982  28.514  1.00  0.00    -0.354 N 
ATOM     37  C   UNL A   1      42.947  30.776  30.315  1.00  0.00     0.074 A 
ATOM     38  C   UNL A   1      41.808  31.668  30.293  1.00  0.00     0.031 C 
ATOM     39  C   UNL A   1      40.687  25.465  27.507  1.00  0.00     0.029 A 
ATOM     40  C   UNL A   1      42.042  25.714  27.988  1.00  0.00     0.049 A 
ATOM     41  H   UNL A   1      42.764  27.437  28.908  1.00  0.00     0.167 HD
ATOM     42  C   UNL A   1      44.162  31.103  30.820  1.00  0.00     0.037 A 
ATOM     43  C   UNL A   1      43.068  24.845  27.907  1.00  0.00     0.037 A 
ATOM     44  C   UNL A   1      45.292  30.212  30.853  1.00  0.00     0.049 A 
ATOM     45  C   UNL A   1      44.404  25.230  28.478  1.00  0.00     0.074 A 
ATOM     46  C   UNL A   1      46.548  30.432  31.394  1.00  0.00     0.029 A 
ATOM     47  N   UNL A   1      45.308  28.933  30.318  1.00  0.00    -0.354 N 
ATOM     48  N   UNL A   1      44.762  26.342  29.074  1.00  0.00    -0.248 NA
ATOM     49  C   UNL A   1      45.476  24.230  28.379  1.00  0.00     0.031 C 
ATOM     50  C   UNL A   1      47.338  29.305  31.140  1.00  0.00     0.029 A 
ATOM     51  C   UNL A   1      46.558  28.360  30.495  1.00  0.00     0.049 A 
ATOM     52  H   UNL A   1      44.545  28.495  29.877  1.00  0.00     0.167 HD
ATOM     53  C   UNL A   1      46.088  26.165  29.446  1.00  0.00     0.074 A 
ATOM     54  C   UNL A   1      46.463  24.830  29.029  1.00  0.00     0.031 C 
ATOM     55  C   UNL A   1      46.922  27.030  30.076  1.00  0.00     0.037 A 
BRANCH  42  56
ATOM     56  C   UNL A   1      44.328  32.486  31.386  1.00  0.00     0.057 A 
ATOM     57  C   UNL A   1      44.755  33.563  30.596  1.00  0.00     0.134 A 
ATOM     58  C   UNL A   1      44.024  32.754  32.727  1.00  0.00     0.134 A 
ATOM     59  F   UNL A   1      45.075  33.376  29.306  1.00  0.00    -0.206 F 
ATOM     60  C   UNL A   1      44.900  34.847  31.125  1.00  0.00     0.040 A 
ATOM     61  C   UNL A   1      44.135  34.040  33.259  1.00  0.00     0.040 A 
ATOM     62  F   UNL A   1      43.603  31.772  33.540  1.00  0.00    -0.206 F 
ATOM     63  C   UNL A   1      44.581  35.089  32.459  1.00  0.00     0.006 A 
ENDBRANCH  42  56
BRANCH  43  64
ATOM     64  C   UNL A   1      42.866  23.508  27.290  1.00  0.00     0.057 A 
ATOM     65  C   UNL A   1      42.415  22.421  28.048  1.00  0.00     0.134 A 
ATOM     66  C   UNL A   1      43.133  23.281  25.935  1.00  0.00     0.134 A 
ATOM     67  F   UNL A   1      42.159  22.571  29.356  1.00  0.00    -0.206 F 
ATOM     68  C   UNL A   1      42.262  21.151  27.489  1.00  0.00     0.040 A 
ATOM     69  C   UNL A   1      42.957  22.022  25.355  1.00  0.00     0.040 A 
ATOM     70  F   UNL A   1      43.560  24.281  25.151  1.00  0.00    -0.206 F 
ATOM     71  C   UNL A   1      42.529  20.951  26.136  1.00  0.00     0.006 A 
ENDBRANCH  43  64
BRANCH  55  72
ATOM     72  C   UNL A   1      48.308  26.540  30.383  1.00  0.00     0.057 A 
ATOM     73  C   UNL A   1      48.606  25.832  31.556  1.00  0.00     0.134 A 
ATOM     74  C   UNL A   1      49.361  26.775  29.489  1.00  0.00     0.134 A 
ATOM     75  F   UNL A   1      47.647  25.581  32.461  1.00  0.00    -0.206 F 
ATOM     76  C   UNL A   1      49.906  25.413  31.847  1.00  0.00     0.040 A 
ATOM     77  C   UNL A   1      50.659  26.333  29.753  1.00  0.00     0.040 A 
ATOM     78  F   UNL A   1      49.147  27.437  28.341  1.00  0.00    -0.206 F 
ATOM     79  C   UNL A   1      50.935  25.661  30.941  1.00  0.00     0.006 A 
ENDBRANCH  55  72
ENDBRANCH  29  30
ENDBRANCH  21  24
ENDBRANCH  19  20
ENDBRANCH   1  19
TORSDOF 12
ENDMDL
