MODEL 1
REMARK VINA RESULT:     -11.1      0.000      0.000
REMARK SMILES COc1ccc(CCNC(=O)c2cccnc2C(=O)NCCCNC(=O)c2ccc(-c3c4nc(c(-c5c(F)cccc5F)c5ccc([nH]5)c(-c5c(F)cccc5F)c5nc(c(-c6c(F)cccc6F)c6ccc3[nH]6)C=C5)C=C4)cc2)cc1OC
REMARK SMILES IDX 18 1 19 2 20 3 17 5 12 6 13 7 14 8 16 9 15 10 10 11 9 12
REMARK SMILES IDX 11 14 8 15 7 16 6 17 3 18 4 19 82 20 5 21 81 22 2 23 1 24
REMARK SMILES IDX 83 25 84 26 21 27 22 28 23 29 24 30 25 31 26 33 27 34 28 35
REMARK SMILES IDX 80 36 29 37 79 38 30 39 31 40 32 41 73 42 33 43 78 44 72 45
REMARK SMILES IDX 74 46 34 47 77 48 71 49 70 50 35 52 61 53 44 54 60 55 45 56
REMARK SMILES IDX 48 57 59 58 75 59 46 60 47 61 58 63 76 64 49 65 36 66 37 67
REMARK SMILES IDX 42 68 38 69 39 70 41 71 43 72 40 73 62 74 63 75 68 76 64 77
REMARK SMILES IDX 65 78 67 79 69 80 66 81 50 82 51 83 56 84 52 85 53 86 55 87
REMARK SMILES IDX 57 88 54 89
REMARK H PARENT 20 4 9 13 24 32 74 51 48 62
REMARK Flexibility Score: inf
ROOT
ATOM      1  C   UNL A   1      35.798  22.989  24.665  1.00  0.00     0.270 C 
ATOM      2  O   UNL A   1      36.296  24.076  25.006  1.00  0.00    -0.267 OA
ATOM      3  N   UNL A   1      36.610  21.949  25.013  1.00  0.00    -0.351 N 
ATOM      4  H   UNL A   1      37.476  22.266  25.357  1.00  0.00     0.163 HD
ENDROOT
BRANCH   1   5
ATOM      5  C   UNL A   1      34.458  23.017  23.937  1.00  0.00     0.140 A 
ATOM      6  C   UNL A   1      33.332  22.195  23.960  1.00  0.00     0.071 A 
ATOM      7  C   UNL A   1      32.204  22.571  23.194  1.00  0.00     0.018 A 
ATOM      8  C   UNL A   1      32.225  23.701  22.390  1.00  0.00     0.021 A 
ATOM      9  N   UNL A   1      34.462  24.115  23.103  1.00  0.00    -0.250 NA
ATOM     10  C   UNL A   1      33.380  24.439  22.372  1.00  0.00     0.112 A 
BRANCH   6  11
ATOM     11  C   UNL A   1      33.051  21.064  24.842  1.00  0.00     0.253 C 
ATOM     12  N   UNL A   1      32.824  21.232  26.192  1.00  0.00    -0.352 N 
ATOM     13  H   UNL A   1      32.453  20.444  26.651  1.00  0.00     0.163 HD
ATOM     14  O   UNL A   1      33.138  19.932  24.369  1.00  0.00    -0.269 OA
BRANCH  12  15
ATOM     15  C   UNL A   1      33.049  22.395  27.048  1.00  0.00     0.121 C 
BRANCH  15  16
ATOM     16  C   UNL A   1      31.822  23.299  27.265  1.00  0.00     0.057 C 
BRANCH  16  17
ATOM     17  C   UNL A   1      31.672  24.494  26.341  1.00  0.00    -0.042 A 
ATOM     18  C   UNL A   1      31.419  26.723  24.597  1.00  0.00     0.160 A 
ATOM     19  C   UNL A   1      30.346  25.854  24.811  1.00  0.00     0.051 A 
ATOM     20  C   UNL A   1      32.639  26.478  25.240  1.00  0.00     0.160 A 
ATOM     21  C   UNL A   1      30.474  24.758  25.674  1.00  0.00     0.008 A 
ATOM     22  C   UNL A   1      32.749  25.362  26.097  1.00  0.00     0.054 A 
BRANCH  18  23
ATOM     23  O   UNL A   1      31.167  27.893  23.932  1.00  0.00    -0.493 OA
ATOM     24  C   UNL A   1      30.577  27.713  22.647  1.00  0.00     0.278 C 
ENDBRANCH  18  23
BRANCH  20  25
ATOM     25  O   UNL A   1      33.794  27.213  25.177  1.00  0.00    -0.493 OA
ATOM     26  C   UNL A   1      33.903  28.378  25.980  1.00  0.00     0.278 C 
ENDBRANCH  20  25
ENDBRANCH  16  17
ENDBRANCH  15  16
ENDBRANCH  12  15
ENDBRANCH   6  11
ENDBRANCH   1   5
BRANCH   3  27
ATOM     27  C   UNL A   1      36.536  20.517  25.008  1.00  0.00     0.118 C 
BRANCH  27  28
ATOM     28  C   UNL A   1      37.887  19.883  24.755  1.00  0.00     0.042 C 
BRANCH  28  29
ATOM     29  C   UNL A   1      38.923  20.318  25.776  1.00  0.00     0.118 C 
BRANCH  29  30
ATOM     30  N   UNL A   1      40.032  19.366  25.863  1.00  0.00    -0.352 N 
ATOM     31  C   UNL A   1      41.372  19.561  26.113  1.00  0.00     0.251 C 
ATOM     32  H   UNL A   1      39.775  18.427  25.717  1.00  0.00     0.163 HD
ATOM     33  O   UNL A   1      42.172  18.661  25.901  1.00  0.00    -0.269 OA
BRANCH  31  34
ATOM     34  C   UNL A   1      41.848  20.872  26.601  1.00  0.00     0.039 A 
ATOM     35  C   UNL A   1      42.238  21.850  25.681  1.00  0.00     0.014 A 
ATOM     36  C   UNL A   1      41.900  21.142  27.969  1.00  0.00     0.014 A 
ATOM     37  C   UNL A   1      42.558  23.131  26.134  1.00  0.00     0.010 A 
ATOM     38  C   UNL A   1      42.111  22.437  28.410  1.00  0.00     0.010 A 
ATOM     39  C   UNL A   1      42.438  23.445  27.495  1.00  0.00    -0.014 A 
BRANCH  39  40
ATOM     40  C   UNL A   1      42.706  24.806  28.008  1.00  0.00     0.031 A 
ATOM     41  C   UNL A   1      44.120  25.226  28.254  1.00  0.00     0.074 A 
ATOM     42  C   UNL A   1      41.686  25.607  28.365  1.00  0.00     0.049 A 
ATOM     43  N   UNL A   1      44.565  26.318  28.815  1.00  0.00    -0.248 NA
ATOM     44  C   UNL A   1      45.167  24.254  27.903  1.00  0.00     0.031 C 
ATOM     45  C   UNL A   1      40.275  25.235  28.320  1.00  0.00     0.029 A 
ATOM     46  N   UNL A   1      41.671  26.899  28.827  1.00  0.00    -0.354 N 
ATOM     47  C   UNL A   1      45.928  26.122  28.973  1.00  0.00     0.074 A 
ATOM     48  C   UNL A   1      46.236  24.812  28.447  1.00  0.00     0.031 C 
ATOM     49  C   UNL A   1      39.529  26.311  28.619  1.00  0.00     0.029 A 
ATOM     50  C   UNL A   1      40.408  27.432  28.927  1.00  0.00     0.049 A 
ATOM     51  H   UNL A   1      42.488  27.396  29.064  1.00  0.00     0.167 HD
ATOM     52  C   UNL A   1      46.831  26.958  29.535  1.00  0.00     0.037 A 
ATOM     53  C   UNL A   1      40.020  28.691  29.211  1.00  0.00     0.037 A 
ATOM     54  C   UNL A   1      46.506  28.270  30.024  1.00  0.00     0.049 A 
ATOM     55  C   UNL A   1      41.072  29.674  29.656  1.00  0.00     0.074 A 
ATOM     56  C   UNL A   1      47.349  29.216  30.578  1.00  0.00     0.029 A 
ATOM     57  N   UNL A   1      45.233  28.825  30.007  1.00  0.00    -0.354 N 
ATOM     58  N   UNL A   1      42.368  29.501  29.762  1.00  0.00    -0.248 NA
ATOM     59  C   UNL A   1      40.608  31.005  30.072  1.00  0.00     0.031 C 
ATOM     60  C   UNL A   1      46.580  30.329  30.932  1.00  0.00     0.029 A 
ATOM     61  C   UNL A   1      45.268  30.100  30.545  1.00  0.00     0.049 A 
ATOM     62  H   UNL A   1      44.427  28.378  29.663  1.00  0.00     0.167 HD
ATOM     63  C   UNL A   1      42.869  30.688  30.281  1.00  0.00     0.074 A 
ATOM     64  C   UNL A   1      41.747  31.595  30.408  1.00  0.00     0.031 C 
ATOM     65  C   UNL A   1      44.137  30.986  30.654  1.00  0.00     0.037 A 
BRANCH  52  66
ATOM     66  C   UNL A   1      48.234  26.451  29.686  1.00  0.00     0.057 A 
ATOM     67  C   UNL A   1      49.205  26.635  28.693  1.00  0.00     0.134 A 
ATOM     68  C   UNL A   1      48.616  25.759  30.841  1.00  0.00     0.134 A 
ATOM     69  F   UNL A   1      48.899  27.268  27.551  1.00  0.00    -0.206 F 
ATOM     70  C   UNL A   1      50.495  26.119  28.831  1.00  0.00     0.040 A 
ATOM     71  C   UNL A   1      49.911  25.269  31.006  1.00  0.00     0.040 A 
ATOM     72  F   UNL A   1      47.735  25.545  31.831  1.00  0.00    -0.206 F 
ATOM     73  C   UNL A   1      50.852  25.440  29.994  1.00  0.00     0.006 A 
ENDBRANCH  52  66
BRANCH  53  74
ATOM     74  C   UNL A   1      38.604  29.121  29.046  1.00  0.00     0.057 A 
ATOM     75  C   UNL A   1      38.156  29.601  27.806  1.00  0.00     0.134 A 
ATOM     76  C   UNL A   1      37.670  29.085  30.087  1.00  0.00     0.134 A 
ATOM     77  F   UNL A   1      39.000  29.671  26.766  1.00  0.00    -0.206 F 
ATOM     78  C   UNL A   1      36.848  30.050  27.615  1.00  0.00     0.040 A 
ATOM     79  C   UNL A   1      36.347  29.495  29.900  1.00  0.00     0.040 A 
ATOM     80  F   UNL A   1      38.025  28.641  31.302  1.00  0.00    -0.206 F 
ATOM     81  C   UNL A   1      35.936  29.991  28.664  1.00  0.00     0.006 A 
ENDBRANCH  53  74
BRANCH  65  82
ATOM     82  C   UNL A   1      44.383  32.347  31.233  1.00  0.00     0.057 A 
ATOM     83  C   UNL A   1      44.345  32.575  32.614  1.00  0.00     0.134 A 
ATOM     84  C   UNL A   1      44.746  33.418  30.407  1.00  0.00     0.134 A 
ATOM     85  F   UNL A   1      43.995  31.591  33.457  1.00  0.00    -0.206 F 
ATOM     86  C   UNL A   1      44.650  33.825  33.154  1.00  0.00     0.040 A 
ATOM     87  C   UNL A   1      45.080  34.664  30.937  1.00  0.00     0.040 A 
ATOM     88  F   UNL A   1      44.811  33.260  29.077  1.00  0.00    -0.206 F 
ATOM     89  C   UNL A   1      45.030  34.870  32.315  1.00  0.00     0.006 A 
ENDBRANCH  65  82
ENDBRANCH  39  40
ENDBRANCH  31  34
ENDBRANCH  29  30
ENDBRANCH  28  29
ENDBRANCH  27  28
ENDBRANCH   3  27
TORSDOF 16
ENDMDL
MODEL 2
REMARK VINA RESULT:     -10.9      1.546      6.322
REMARK SMILES COc1ccc(CCNC(=O)c2cccnc2C(=O)NCCCNC(=O)c2ccc(-c3c4nc(c(-c5c(F)cccc5F)c5ccc([nH]5)c(-c5c(F)cccc5F)c5nc(c(-c6c(F)cccc6F)c6ccc3[nH]6)C=C5)C=C4)cc2)cc1OC
REMARK SMILES IDX 18 1 19 2 20 3 17 5 12 6 13 7 14 8 16 9 15 10 10 11 9 12
REMARK SMILES IDX 11 14 8 15 7 16 6 17 3 18 4 19 82 20 5 21 81 22 2 23 1 24
REMARK SMILES IDX 83 25 84 26 21 27 22 28 23 29 24 30 25 31 26 33 27 34 28 35
REMARK SMILES IDX 80 36 29 37 79 38 30 39 31 40 32 41 73 42 33 43 78 44 72 45
REMARK SMILES IDX 74 46 34 47 77 48 71 49 70 50 35 52 61 53 44 54 60 55 45 56
REMARK SMILES IDX 48 57 59 58 75 59 46 60 47 61 58 63 76 64 49 65 36 66 37 67
REMARK SMILES IDX 42 68 38 69 39 70 41 71 43 72 40 73 62 74 63 75 68 76 64 77
REMARK SMILES IDX 65 78 67 79 69 80 66 81 50 82 51 83 56 84 52 85 53 86 55 87
REMARK SMILES IDX 57 88 54 89
REMARK H PARENT 20 4 9 13 24 32 74 51 48 62
REMARK Flexibility Score: inf
ROOT
ATOM      1  C   UNL A   1      35.628  22.840  24.872  1.00  0.00     0.270 C 
ATOM      2  O   UNL A   1      36.191  23.824  25.382  1.00  0.00    -0.267 OA
ATOM      3  N   UNL A   1      36.312  21.691  25.146  1.00  0.00    -0.351 N 
ATOM      4  H   UNL A   1      37.170  21.877  25.589  1.00  0.00     0.163 HD
ENDROOT
BRANCH   1   5
ATOM      5  C   UNL A   1      34.363  23.086  24.058  1.00  0.00     0.140 A 
ATOM      6  C   UNL A   1      33.105  22.484  24.026  1.00  0.00     0.071 A 
ATOM      7  C   UNL A   1      32.114  23.032  23.179  1.00  0.00     0.018 A 
ATOM      8  C   UNL A   1      32.390  24.111  22.352  1.00  0.00     0.021 A 
ATOM      9  N   UNL A   1      34.618  24.136  23.201  1.00  0.00    -0.250 NA
ATOM     10  C   UNL A   1      33.660  24.626  22.393  1.00  0.00     0.112 A 
BRANCH   6  11
ATOM     11  C   UNL A   1      32.569  21.453  24.912  1.00  0.00     0.253 C 
ATOM     12  N   UNL A   1      32.100  21.751  26.175  1.00  0.00    -0.352 N 
ATOM     13  H   UNL A   1      31.585  21.031  26.606  1.00  0.00     0.163 HD
ATOM     14  O   UNL A   1      32.653  20.282  24.548  1.00  0.00    -0.269 OA
BRANCH  12  15
ATOM     15  C   UNL A   1      32.249  22.966  26.973  1.00  0.00     0.121 C 
BRANCH  15  16
ATOM     16  C   UNL A   1      31.229  24.081  26.671  1.00  0.00     0.057 C 
BRANCH  16  17
ATOM     17  C   UNL A   1      31.763  25.351  26.034  1.00  0.00    -0.042 A 
ATOM     18  C   UNL A   1      32.738  27.745  24.855  1.00  0.00     0.160 A 
ATOM     19  C   UNL A   1      33.596  26.883  25.543  1.00  0.00     0.051 A 
ATOM     20  C   UNL A   1      31.377  27.429  24.763  1.00  0.00     0.160 A 
ATOM     21  C   UNL A   1      33.111  25.702  26.120  1.00  0.00     0.008 A 
ATOM     22  C   UNL A   1      30.908  26.239  25.361  1.00  0.00     0.054 A 
BRANCH  18  23
ATOM     23  O   UNL A   1      33.304  28.754  24.123  1.00  0.00    -0.493 OA
ATOM     24  C   UNL A   1      33.889  28.323  22.896  1.00  0.00     0.278 C 
ENDBRANCH  18  23
BRANCH  20  25
ATOM     25  O   UNL A   1      30.385  28.126  24.124  1.00  0.00    -0.493 OA
ATOM     26  C   UNL A   1      30.127  27.843  22.757  1.00  0.00     0.278 C 
ENDBRANCH  20  25
ENDBRANCH  16  17
ENDBRANCH  15  16
ENDBRANCH  12  15
ENDBRANCH   6  11
ENDBRANCH   1   5
BRANCH   3  27
ATOM     27  C   UNL A   1      36.110  20.283  24.956  1.00  0.00     0.118 C 
BRANCH  27  28
ATOM     28  C   UNL A   1      37.421  19.541  24.808  1.00  0.00     0.042 C 
BRANCH  28  29
ATOM     29  C   UNL A   1      38.493  20.083  25.738  1.00  0.00     0.118 C 
BRANCH  29  30
ATOM     30  N   UNL A   1      39.661  19.202  25.788  1.00  0.00    -0.352 N 
ATOM     31  C   UNL A   1      40.994  19.482  25.994  1.00  0.00     0.251 C 
ATOM     32  H   UNL A   1      39.460  18.248  25.651  1.00  0.00     0.163 HD
ATOM     33  O   UNL A   1      41.842  18.633  25.757  1.00  0.00    -0.269 OA
BRANCH  31  34
ATOM     34  C   UNL A   1      41.402  20.821  26.468  1.00  0.00     0.039 A 
ATOM     35  C   UNL A   1      42.159  20.937  27.637  1.00  0.00     0.014 A 
ATOM     36  C   UNL A   1      41.046  21.964  25.751  1.00  0.00     0.014 A 
ATOM     37  C   UNL A   1      42.659  22.186  28.011  1.00  0.00     0.010 A 
ATOM     38  C   UNL A   1      41.628  23.182  26.060  1.00  0.00     0.010 A 
ATOM     39  C   UNL A   1      42.444  23.303  27.191  1.00  0.00    -0.014 A 
BRANCH  39  40
ATOM     40  C   UNL A   1      43.009  24.630  27.517  1.00  0.00     0.031 A 
ATOM     41  C   UNL A   1      42.123  25.667  28.132  1.00  0.00     0.074 A 
ATOM     42  C   UNL A   1      44.266  24.938  27.151  1.00  0.00     0.049 A 
ATOM     43  N   UNL A   1      42.381  26.923  28.377  1.00  0.00    -0.248 NA
ATOM     44  C   UNL A   1      40.741  25.261  28.428  1.00  0.00     0.031 C 
ATOM     45  C   UNL A   1      45.159  24.058  26.403  1.00  0.00     0.029 A 
ATOM     46  N   UNL A   1      45.016  26.067  27.362  1.00  0.00    -0.354 N 
ATOM     47  C   UNL A   1      41.171  27.479  28.762  1.00  0.00     0.074 A 
ATOM     48  C   UNL A   1      40.183  26.424  28.721  1.00  0.00     0.031 C 
ATOM     49  C   UNL A   1      46.372  24.630  26.324  1.00  0.00     0.029 A 
ATOM     50  C   UNL A   1      46.328  25.936  26.970  1.00  0.00     0.049 A 
ATOM     51  H   UNL A   1      44.651  26.892  27.757  1.00  0.00     0.167 HD
ATOM     52  C   UNL A   1      40.911  28.764  29.092  1.00  0.00     0.037 A 
ATOM     53  C   UNL A   1      47.371  26.773  27.143  1.00  0.00     0.037 A 
ATOM     54  C   UNL A   1      41.916  29.790  29.156  1.00  0.00     0.049 A 
ATOM     55  C   UNL A   1      47.094  28.146  27.696  1.00  0.00     0.074 A 
ATOM     56  C   UNL A   1      41.772  31.117  29.516  1.00  0.00     0.029 A 
ATOM     57  N   UNL A   1      43.260  29.596  28.861  1.00  0.00    -0.354 N 
ATOM     58  N   UNL A   1      45.955  28.656  28.102  1.00  0.00    -0.248 NA
ATOM     59  C   UNL A   1      48.227  29.080  27.764  1.00  0.00     0.031 C 
ATOM     60  C   UNL A   1      43.020  31.736  29.401  1.00  0.00     0.029 A 
ATOM     61  C   UNL A   1      43.954  30.782  29.027  1.00  0.00     0.049 A 
ATOM     62  H   UNL A   1      43.658  28.743  28.577  1.00  0.00     0.167 HD
ATOM     63  C   UNL A   1      46.230  29.973  28.447  1.00  0.00     0.074 A 
ATOM     64  C   UNL A   1      47.653  30.166  28.264  1.00  0.00     0.031 C 
ATOM     65  C   UNL A   1      45.374  30.945  28.845  1.00  0.00     0.037 A 
BRANCH  52  66
ATOM     66  C   UNL A   1      39.482  29.128  29.362  1.00  0.00     0.057 A 
ATOM     67  C   UNL A   1      38.921  29.054  30.643  1.00  0.00     0.134 A 
ATOM     68  C   UNL A   1      38.650  29.551  28.317  1.00  0.00     0.134 A 
ATOM     69  F   UNL A   1      39.655  28.633  31.684  1.00  0.00    -0.206 F 
ATOM     70  C   UNL A   1      37.577  29.355  30.869  1.00  0.00     0.040 A 
ATOM     71  C   UNL A   1      37.315  29.888  28.537  1.00  0.00     0.040 A 
ATOM     72  F   UNL A   1      39.122  29.642  27.065  1.00  0.00    -0.206 F 
ATOM     73  C   UNL A   1      36.772  29.781  29.814  1.00  0.00     0.006 A 
ENDBRANCH  52  66
BRANCH  53  74
ATOM     74  C   UNL A   1      48.765  26.344  26.844  1.00  0.00     0.057 A 
ATOM     75  C   UNL A   1      49.512  25.658  27.815  1.00  0.00     0.134 A 
ATOM     76  C   UNL A   1      49.397  26.602  25.624  1.00  0.00     0.134 A 
ATOM     77  F   UNL A   1      48.971  25.385  29.012  1.00  0.00    -0.206 F 
ATOM     78  C   UNL A   1      50.834  25.270  27.594  1.00  0.00     0.040 A 
ATOM     79  C   UNL A   1      50.708  26.185  25.374  1.00  0.00     0.040 A 
ATOM     80  F   UNL A   1      48.749  27.254  24.648  1.00  0.00    -0.206 F 
ATOM     81  C   UNL A   1      51.435  25.528  26.365  1.00  0.00     0.006 A 
ENDBRANCH  53  74
BRANCH  65  82
ATOM     82  C   UNL A   1      45.949  32.304  29.109  1.00  0.00     0.057 A 
ATOM     83  C   UNL A   1      46.460  32.653  30.366  1.00  0.00     0.134 A 
ATOM     84  C   UNL A   1      46.071  33.240  28.075  1.00  0.00     0.134 A 
ATOM     85  F   UNL A   1      46.365  31.803  31.400  1.00  0.00    -0.206 F 
ATOM     86  C   UNL A   1      47.066  33.891  30.588  1.00  0.00     0.040 A 
ATOM     87  C   UNL A   1      46.698  34.470  28.278  1.00  0.00     0.040 A 
ATOM     88  F   UNL A   1      45.611  32.962  26.847  1.00  0.00    -0.206 F 
ATOM     89  C   UNL A   1      47.195  34.798  29.538  1.00  0.00     0.006 A 
ENDBRANCH  65  82
ENDBRANCH  39  40
ENDBRANCH  31  34
ENDBRANCH  29  30
ENDBRANCH  28  29
ENDBRANCH  27  28
ENDBRANCH   3  27
TORSDOF 16
ENDMDL
MODEL 3
REMARK VINA RESULT:     -10.5      2.932      8.112
REMARK SMILES COc1ccc(CCNC(=O)c2cccnc2C(=O)NCCCNC(=O)c2ccc(-c3c4nc(c(-c5c(F)cccc5F)c5ccc([nH]5)c(-c5c(F)cccc5F)c5nc(c(-c6c(F)cccc6F)c6ccc3[nH]6)C=C5)C=C4)cc2)cc1OC
REMARK SMILES IDX 18 1 19 2 20 3 17 5 12 6 13 7 14 8 16 9 15 10 10 11 9 12
REMARK SMILES IDX 11 14 8 15 7 16 6 17 3 18 4 19 82 20 5 21 81 22 2 23 1 24
REMARK SMILES IDX 83 25 84 26 21 27 22 28 23 29 24 30 25 31 26 33 27 34 28 35
REMARK SMILES IDX 80 36 29 37 79 38 30 39 31 40 32 41 73 42 33 43 78 44 72 45
REMARK SMILES IDX 74 46 34 47 77 48 71 49 70 50 35 52 61 53 44 54 60 55 45 56
REMARK SMILES IDX 48 57 59 58 75 59 46 60 47 61 58 63 76 64 49 65 36 66 37 67
REMARK SMILES IDX 42 68 38 69 39 70 41 71 43 72 40 73 62 74 63 75 68 76 64 77
REMARK SMILES IDX 65 78 67 79 69 80 66 81 50 82 51 83 56 84 52 85 53 86 55 87
REMARK SMILES IDX 57 88 54 89
REMARK H PARENT 20 4 9 13 24 32 74 51 48 62
REMARK Flexibility Score: inf
ROOT
ATOM      1  C   UNL A   1      32.040  29.684  25.869  1.00  0.00     0.270 C 
ATOM      2  O   UNL A   1      31.421  30.760  25.938  1.00  0.00    -0.267 OA
ATOM      3  N   UNL A   1      33.325  29.832  26.303  1.00  0.00    -0.351 N 
ATOM      4  H   UNL A   1      33.543  30.777  26.473  1.00  0.00     0.163 HD
ENDROOT
BRANCH   1   5
ATOM      5  C   UNL A   1      31.299  28.471  25.318  1.00  0.00     0.140 A 
ATOM      6  C   UNL A   1      30.788  28.142  24.062  1.00  0.00     0.071 A 
ATOM      7  C   UNL A   1      30.212  26.864  23.880  1.00  0.00     0.018 A 
ATOM      8  C   UNL A   1      30.102  25.967  24.933  1.00  0.00     0.021 A 
ATOM      9  N   UNL A   1      31.145  27.573  26.354  1.00  0.00    -0.250 NA
ATOM     10  C   UNL A   1      30.578  26.369  26.154  1.00  0.00     0.112 A 
BRANCH   6  11
ATOM     11  C   UNL A   1      30.937  28.868  22.803  1.00  0.00     0.253 C 
ATOM     12  N   UNL A   1      32.078  28.766  22.035  1.00  0.00    -0.352 N 
ATOM     13  H   UNL A   1      31.998  29.130  21.123  1.00  0.00     0.163 HD
ATOM     14  O   UNL A   1      30.059  29.673  22.497  1.00  0.00    -0.269 OA
BRANCH  12  15
ATOM     15  C   UNL A   1      33.386  28.203  22.361  1.00  0.00     0.121 C 
BRANCH  15  16
ATOM     16  C   UNL A   1      33.586  26.728  21.964  1.00  0.00     0.057 C 
BRANCH  16  17
ATOM     17  C   UNL A   1      33.655  25.713  23.090  1.00  0.00    -0.042 A 
ATOM     18  C   UNL A   1      33.802  23.795  25.180  1.00  0.00     0.160 A 
ATOM     19  C   UNL A   1      33.995  25.154  25.439  1.00  0.00     0.051 A 
ATOM     20  C   UNL A   1      33.550  23.375  23.868  1.00  0.00     0.160 A 
ATOM     21  C   UNL A   1      33.919  26.096  24.406  1.00  0.00     0.008 A 
ATOM     22  C   UNL A   1      33.488  24.341  22.841  1.00  0.00     0.054 A 
BRANCH  18  23
ATOM     23  O   UNL A   1      33.661  22.956  26.254  1.00  0.00    -0.493 OA
ATOM     24  C   UNL A   1      34.847  22.239  26.588  1.00  0.00     0.278 C 
ENDBRANCH  18  23
BRANCH  20  25
ATOM     25  O   UNL A   1      33.318  22.103  23.414  1.00  0.00    -0.493 OA
ATOM     26  C   UNL A   1      32.092  21.831  22.752  1.00  0.00     0.278 C 
ENDBRANCH  20  25
ENDBRANCH  16  17
ENDBRANCH  15  16
ENDBRANCH  12  15
ENDBRANCH   6  11
ENDBRANCH   1   5
BRANCH   3  27
ATOM     27  C   UNL A   1      34.443  28.975  26.575  1.00  0.00     0.118 C 
BRANCH  27  28
ATOM     28  C   UNL A   1      35.137  29.348  27.867  1.00  0.00     0.042 C 
BRANCH  28  29
ATOM     29  C   UNL A   1      35.033  30.833  28.165  1.00  0.00     0.118 C 
BRANCH  29  30
ATOM     30  N   UNL A   1      35.198  31.113  29.592  1.00  0.00    -0.352 N 
ATOM     31  C   UNL A   1      36.207  30.776  30.467  1.00  0.00     0.251 C 
ATOM     32  H   UNL A   1      34.462  31.628  29.995  1.00  0.00     0.163 HD
ATOM     33  O   UNL A   1      36.038  30.895  31.672  1.00  0.00    -0.269 OA
BRANCH  31  34
ATOM     34  C   UNL A   1      37.482  30.236  29.950  1.00  0.00     0.039 A 
ATOM     35  C   UNL A   1      38.029  30.765  28.777  1.00  0.00     0.014 A 
ATOM     36  C   UNL A   1      38.145  29.213  30.628  1.00  0.00     0.014 A 
ATOM     37  C   UNL A   1      39.295  30.352  28.361  1.00  0.00     0.010 A 
ATOM     38  C   UNL A   1      39.443  28.882  30.279  1.00  0.00     0.010 A 
ATOM     39  C   UNL A   1      40.032  29.452  29.145  1.00  0.00    -0.014 A 
BRANCH  39  40
ATOM     40  C   UNL A   1      41.403  29.037  28.775  1.00  0.00     0.031 A 
ATOM     41  C   UNL A   1      41.626  27.659  28.235  1.00  0.00     0.074 A 
ATOM     42  C   UNL A   1      42.448  29.842  29.038  1.00  0.00     0.049 A 
ATOM     43  N   UNL A   1      42.753  27.056  27.970  1.00  0.00    -0.248 NA
ATOM     44  C   UNL A   1      40.429  26.822  28.052  1.00  0.00     0.031 C 
ATOM     45  C   UNL A   1      42.358  31.135  29.710  1.00  0.00     0.029 A 
ATOM     46  N   UNL A   1      43.785  29.703  28.767  1.00  0.00    -0.354 N 
ATOM     47  C   UNL A   1      42.409  25.743  27.686  1.00  0.00     0.074 A 
ATOM     48  C   UNL A   1      40.972  25.640  27.806  1.00  0.00     0.031 C 
ATOM     49  C   UNL A   1      43.566  31.722  29.690  1.00  0.00     0.029 A 
ATOM     50  C   UNL A   1      44.523  30.828  29.051  1.00  0.00     0.049 A 
ATOM     51  H   UNL A   1      44.179  28.876  28.404  1.00  0.00     0.167 HD
ATOM     52  C   UNL A   1      43.231  24.714  27.379  1.00  0.00     0.037 A 
ATOM     53  C   UNL A   1      45.818  31.101  28.794  1.00  0.00     0.037 A 
ATOM     54  C   UNL A   1      44.655  24.847  27.234  1.00  0.00     0.049 A 
ATOM     55  C   UNL A   1      46.686  29.989  28.267  1.00  0.00     0.074 A 
ATOM     56  C   UNL A   1      45.580  23.879  26.889  1.00  0.00     0.029 A 
ATOM     57  N   UNL A   1      45.359  26.029  27.418  1.00  0.00    -0.354 N 
ATOM     58  N   UNL A   1      46.351  28.760  27.956  1.00  0.00    -0.248 NA
ATOM     59  C   UNL A   1      48.119  30.279  28.108  1.00  0.00     0.031 C 
ATOM     60  C   UNL A   1      46.849  24.466  26.901  1.00  0.00     0.029 A 
ATOM     61  C   UNL A   1      46.708  25.814  27.198  1.00  0.00     0.049 A 
ATOM     62  H   UNL A   1      44.958  26.892  27.668  1.00  0.00     0.167 HD
ATOM     63  C   UNL A   1      47.530  28.125  27.590  1.00  0.00     0.074 A 
ATOM     64  C   UNL A   1      48.580  29.120  27.657  1.00  0.00     0.031 C 
ATOM     65  C   UNL A   1      47.733  26.825  27.264  1.00  0.00     0.037 A 
BRANCH  52  66
ATOM     66  C   UNL A   1      42.607  23.359  27.226  1.00  0.00     0.057 A 
ATOM     67  C   UNL A   1      42.238  22.578  28.328  1.00  0.00     0.134 A 
ATOM     68  C   UNL A   1      42.381  22.824  25.952  1.00  0.00     0.134 A 
ATOM     69  F   UNL A   1      42.449  23.021  29.577  1.00  0.00    -0.206 F 
ATOM     70  C   UNL A   1      41.698  21.300  28.169  1.00  0.00     0.040 A 
ATOM     71  C   UNL A   1      41.811  21.563  25.779  1.00  0.00     0.040 A 
ATOM     72  F   UNL A   1      42.714  23.517  24.852  1.00  0.00    -0.206 F 
ATOM     73  C   UNL A   1      41.477  20.794  26.890  1.00  0.00     0.006 A 
ENDBRANCH  52  66
BRANCH  53  74
ATOM     74  C   UNL A   1      46.370  32.472  28.978  1.00  0.00     0.057 A 
ATOM     75  C   UNL A   1      46.947  32.837  30.204  1.00  0.00     0.134 A 
ATOM     76  C   UNL A   1      46.336  33.448  27.977  1.00  0.00     0.134 A 
ATOM     77  F   UNL A   1      47.005  31.953  31.212  1.00  0.00    -0.206 F 
ATOM     78  C   UNL A   1      47.443  34.121  30.435  1.00  0.00     0.040 A 
ATOM     79  C   UNL A   1      46.865  34.726  28.181  1.00  0.00     0.040 A 
ATOM     80  F   UNL A   1      45.799  33.174  26.780  1.00  0.00    -0.206 F 
ATOM     81  C   UNL A   1      47.409  35.070  29.417  1.00  0.00     0.006 A 
ENDBRANCH  53  74
BRANCH  65  82
ATOM     82  C   UNL A   1      49.137  26.402  26.955  1.00  0.00     0.057 A 
ATOM     83  C   UNL A   1      49.965  25.834  27.931  1.00  0.00     0.134 A 
ATOM     84  C   UNL A   1      49.635  26.485  25.648  1.00  0.00     0.134 A 
ATOM     85  F   UNL A   1      49.549  25.736  29.203  1.00  0.00    -0.206 F 
ATOM     86  C   UNL A   1      51.244  25.371  27.621  1.00  0.00     0.040 A 
ATOM     87  C   UNL A   1      50.901  26.001  25.320  1.00  0.00     0.040 A 
ATOM     88  F   UNL A   1      48.887  27.009  24.667  1.00  0.00    -0.206 F 
ATOM     89  C   UNL A   1      51.711  25.444  26.309  1.00  0.00     0.006 A 
ENDBRANCH  65  82
ENDBRANCH  39  40
ENDBRANCH  31  34
ENDBRANCH  29  30
ENDBRANCH  28  29
ENDBRANCH  27  28
ENDBRANCH   3  27
TORSDOF 16
ENDMDL
