MODEL 1
REMARK VINA RESULT:      -9.8      0.000      0.000
REMARK SMILES NS(=O)(=O)c1ccc(-n2nc(C(=O)NCCCCCCCCCCC(=O)NCCCNC(=O)c3ccc(-c4c5nc(c(-c6c(F)cccc6F)c6ccc([nH]6)c(-c6c(F)cccc6F)c6nc(c(-c7c(F)cccc7F)c7ccc4[nH]7)C=C6)C=C5)cc3)cc2-c2ccccc2)cc1
REMARK SMILES IDX 21 1 20 2 19 3 18 4 17 5 16 6 15 7 14 8 12 9 13 10 11 12
REMARK SMILES IDX 9 13 10 14 89 15 88 16 8 17 5 18 6 19 97 20 7 21 96 22 2 23
REMARK SMILES IDX 3 24 4 25 1 26 90 29 91 30 95 31 92 32 94 33 93 34 22 35
REMARK SMILES IDX 23 36 24 37 25 38 26 39 27 40 28 42 29 43 30 44 31 45 32 46
REMARK SMILES IDX 33 48 34 49 35 50 87 51 36 52 86 53 37 54 38 55 39 56 80 57
REMARK SMILES IDX 40 58 85 59 79 60 81 61 41 62 84 63 78 64 77 65 42 67 68 68
REMARK SMILES IDX 51 69 67 70 52 71 55 72 66 73 82 74 53 75 54 76 65 78 83 79
REMARK SMILES IDX 56 80 43 81 44 82 49 83 45 84 46 85 48 86 50 87 47 88 69 89
REMARK SMILES IDX 70 90 75 91 71 92 72 93 74 94 76 95 73 96 57 97 58 98 63 99
REMARK SMILES IDX 59 100 60 101 62 102 64 103 61 104
REMARK H PARENT 14 11 1 27 1 28 27 41 31 47 81 66 55 77
REMARK Flexibility Score: inf
ROOT
ATOM      1  C   UNL A   1      39.184  25.839  28.053  1.00  0.00     0.000 C 
ENDROOT
BRANCH   1   2
ATOM      2  C   UNL A   1      39.311  25.014  26.782  1.00  0.00     0.000 C 
BRANCH   2   3
ATOM      3  C   UNL A   1      39.218  23.510  27.043  1.00  0.00     0.000 C 
BRANCH   3   4
ATOM      4  C   UNL A   1      38.328  22.759  26.043  1.00  0.00     0.000 C 
BRANCH   4   5
ATOM      5  C   UNL A   1      37.086  23.547  25.601  1.00  0.00     0.002 C 
BRANCH   5   6
ATOM      6  C   UNL A   1      36.275  22.842  24.508  1.00  0.00     0.021 C 
BRANCH   6   7
ATOM      7  C   UNL A   1      35.007  22.200  25.069  1.00  0.00     0.116 C 
BRANCH   7   8
ATOM      8  N   UNL A   1      34.095  21.897  23.997  1.00  0.00    -0.351 N 
ATOM      9  C   UNL A   1      33.004  22.567  23.506  1.00  0.00     0.271 C 
ATOM     10  O   UNL A   1      32.398  22.006  22.589  1.00  0.00    -0.267 OA
ATOM     11  H   UNL A   1      34.292  21.053  23.529  1.00  0.00     0.163 HD
BRANCH   9  12
ATOM     12  C   UNL A   1      32.632  23.906  24.006  1.00  0.00     0.151 A 
ATOM     13  N   UNL A   1      31.735  25.854  23.888  1.00  0.00    -0.232 N 
ATOM     14  N   UNL A   1      31.682  24.613  23.365  1.00  0.00    -0.162 NA
ATOM     15  C   UNL A   1      32.606  25.937  24.957  1.00  0.00     0.075 A 
ATOM     16  C   UNL A   1      33.089  24.656  25.118  1.00  0.00     0.065 A 
BRANCH  13  17
ATOM     17  C   UNL A   1      30.914  26.873  23.364  1.00  0.00     0.065 A 
ATOM     18  C   UNL A   1      29.303  28.972  22.559  1.00  0.00     0.082 A 
ATOM     19  C   UNL A   1      30.671  29.007  22.273  1.00  0.00     0.024 A 
ATOM     20  C   UNL A   1      28.727  27.875  23.209  1.00  0.00     0.024 A 
ATOM     21  C   UNL A   1      31.485  27.960  22.694  1.00  0.00     0.030 A 
ATOM     22  C   UNL A   1      29.532  26.800  23.582  1.00  0.00     0.030 A 
BRANCH  18  23
ATOM     23  S   UNL A   1      28.294  30.368  22.172  1.00  0.00     0.238 S 
ATOM     24  O   UNL A   1      27.339  30.565  23.234  1.00  0.00    -0.207 OA
ATOM     25  O   UNL A   1      27.920  30.292  20.778  1.00  0.00    -0.207 OA
BRANCH  23  26
ATOM     26  N   UNL A   1      29.361  31.661  22.302  1.00  0.00    -0.225 NA
ATOM     27  H   UNL A   1      29.251  32.103  23.215  1.00  0.00     0.137 HD
ATOM     28  H   UNL A   1      29.161  32.343  21.569  1.00  0.00     0.137 HD
ENDBRANCH  23  26
ENDBRANCH  18  23
ENDBRANCH  13  17
BRANCH  15  29
ATOM     29  C   UNL A   1      32.820  27.092  25.818  1.00  0.00     0.000 A 
ATOM     30  C   UNL A   1      31.909  27.399  26.833  1.00  0.00     0.010 A 
ATOM     31  C   UNL A   1      33.964  27.885  25.654  1.00  0.00     0.010 A 
ATOM     32  C   UNL A   1      32.131  28.493  27.669  1.00  0.00     0.001 A 
ATOM     33  C   UNL A   1      34.181  28.983  26.489  1.00  0.00     0.001 A 
ATOM     34  C   UNL A   1      33.266  29.285  27.496  1.00  0.00     0.000 A 
ENDBRANCH  15  29
ENDBRANCH   9  12
ENDBRANCH   7   8
ENDBRANCH   6   7
ENDBRANCH   5   6
ENDBRANCH   4   5
ENDBRANCH   3   4
ENDBRANCH   2   3
ENDBRANCH   1   2
BRANCH   1  35
ATOM     35  C   UNL A   1      39.640  27.290  27.862  1.00  0.00     0.001 C 
BRANCH  35  36
ATOM     36  C   UNL A   1      39.086  28.245  28.905  1.00  0.00     0.010 C 
BRANCH  36  37
ATOM     37  C   UNL A   1      38.135  29.309  28.358  1.00  0.00     0.100 C 
BRANCH  37  38
ATOM     38  C   UNL A   1      37.034  29.701  29.324  1.00  0.00     0.219 C 
ATOM     39  O   UNL A   1      36.747  28.962  30.270  1.00  0.00    -0.275 OA
ATOM     40  N   UNL A   1      36.331  30.862  29.191  1.00  0.00    -0.356 N 
ATOM     41  H   UNL A   1      35.616  30.977  29.858  1.00  0.00     0.163 HD
BRANCH  40  42
ATOM     42  C   UNL A   1      36.443  31.967  28.243  1.00  0.00     0.117 C 
BRANCH  42  43
ATOM     43  C   UNL A   1      36.414  33.352  28.914  1.00  0.00     0.042 C 
BRANCH  43  44
ATOM     44  C   UNL A   1      37.778  33.919  29.234  1.00  0.00     0.118 C 
BRANCH  44  45
ATOM     45  N   UNL A   1      37.916  34.366  30.619  1.00  0.00    -0.352 N 
ATOM     46  C   UNL A   1      38.580  33.704  31.640  1.00  0.00     0.251 C 
ATOM     47  H   UNL A   1      37.494  35.225  30.850  1.00  0.00     0.163 HD
ATOM     48  O   UNL A   1      38.316  33.919  32.816  1.00  0.00    -0.269 OA
BRANCH  46  49
ATOM     49  C   UNL A   1      39.609  32.718  31.266  1.00  0.00     0.039 A 
ATOM     50  C   UNL A   1      40.936  33.079  31.025  1.00  0.00     0.014 A 
ATOM     51  C   UNL A   1      39.222  31.384  31.262  1.00  0.00     0.014 A 
ATOM     52  C   UNL A   1      41.880  32.066  30.875  1.00  0.00     0.010 A 
ATOM     53  C   UNL A   1      40.176  30.412  31.356  1.00  0.00     0.010 A 
ATOM     54  C   UNL A   1      41.496  30.729  31.073  1.00  0.00    -0.014 A 
BRANCH  54  55
ATOM     55  C   UNL A   1      42.474  29.647  31.103  1.00  0.00     0.031 A 
ATOM     56  C   UNL A   1      42.682  29.058  32.454  1.00  0.00     0.074 A 
ATOM     57  C   UNL A   1      42.977  29.077  29.983  1.00  0.00     0.049 A 
ATOM     58  N   UNL A   1      43.737  29.132  33.193  1.00  0.00    -0.248 NA
ATOM     59  C   UNL A   1      41.522  28.453  33.135  1.00  0.00     0.031 C 
ATOM     60  C   UNL A   1      42.617  29.336  28.581  1.00  0.00     0.029 A 
ATOM     61  N   UNL A   1      43.864  28.051  29.865  1.00  0.00    -0.354 N 
ATOM     62  C   UNL A   1      43.460  28.375  34.328  1.00  0.00     0.074 A 
ATOM     63  C   UNL A   1      42.036  28.170  34.334  1.00  0.00     0.031 C 
ATOM     64  C   UNL A   1      43.081  28.341  27.795  1.00  0.00     0.029 A 
ATOM     65  C   UNL A   1      43.931  27.482  28.594  1.00  0.00     0.049 A 
ATOM     66  H   UNL A   1      44.415  27.736  30.616  1.00  0.00     0.167 HD
ATOM     67  C   UNL A   1      44.461  27.741  34.999  1.00  0.00     0.037 A 
ATOM     68  C   UNL A   1      44.628  26.375  28.236  1.00  0.00     0.037 A 
ATOM     69  C   UNL A   1      45.745  28.310  34.663  1.00  0.00     0.049 A 
ATOM     70  C   UNL A   1      45.644  26.145  29.290  1.00  0.00     0.074 A 
ATOM     71  C   UNL A   1      46.293  29.578  34.724  1.00  0.00     0.029 A 
ATOM     72  N   UNL A   1      46.552  27.605  33.804  1.00  0.00    -0.354 N 
ATOM     73  N   UNL A   1      46.664  26.929  29.499  1.00  0.00    -0.248 NA
ATOM     74  C   UNL A   1      45.263  25.297  30.407  1.00  0.00     0.031 C 
ATOM     75  C   UNL A   1      47.067  29.702  33.532  1.00  0.00     0.029 A 
ATOM     76  C   UNL A   1      47.018  28.482  32.860  1.00  0.00     0.049 A 
ATOM     77  H   UNL A   1      46.758  26.643  33.858  1.00  0.00     0.167 HD
ATOM     78  C   UNL A   1      46.769  27.002  30.879  1.00  0.00     0.074 A 
ATOM     79  C   UNL A   1      45.934  25.912  31.383  1.00  0.00     0.031 C 
ATOM     80  C   UNL A   1      47.279  28.114  31.487  1.00  0.00     0.037 A 
BRANCH  67  81
ATOM     81  C   UNL A   1      44.326  26.360  35.606  1.00  0.00     0.057 A 
ATOM     82  C   UNL A   1      44.826  26.137  36.903  1.00  0.00     0.134 A 
ATOM     83  C   UNL A   1      44.014  25.189  34.883  1.00  0.00     0.134 A 
ATOM     84  F   UNL A   1      45.170  27.164  37.695  1.00  0.00    -0.206 F 
ATOM     85  C   UNL A   1      45.085  24.852  37.400  1.00  0.00     0.040 A 
ATOM     86  C   UNL A   1      44.219  23.903  35.391  1.00  0.00     0.040 A 
ATOM     87  F   UNL A   1      43.591  25.208  33.616  1.00  0.00    -0.206 F 
ATOM     88  C   UNL A   1      44.791  23.730  36.640  1.00  0.00     0.006 A 
ENDBRANCH  67  81
BRANCH  68  89
ATOM     89  C   UNL A   1      44.310  25.335  27.229  1.00  0.00     0.057 A 
ATOM     90  C   UNL A   1      43.087  24.646  27.275  1.00  0.00     0.134 A 
ATOM     91  C   UNL A   1      45.040  25.212  26.034  1.00  0.00     0.134 A 
ATOM     92  F   UNL A   1      42.305  24.722  28.361  1.00  0.00    -0.206 F 
ATOM     93  C   UNL A   1      42.594  23.922  26.182  1.00  0.00     0.040 A 
ATOM     94  C   UNL A   1      44.561  24.487  24.936  1.00  0.00     0.040 A 
ATOM     95  F   UNL A   1      46.194  25.870  25.858  1.00  0.00    -0.206 F 
ATOM     96  C   UNL A   1      43.324  23.856  25.000  1.00  0.00     0.006 A 
ENDBRANCH  68  89
BRANCH  80  97
ATOM     97  C   UNL A   1      47.966  29.140  30.625  1.00  0.00     0.057 A 
ATOM     98  C   UNL A   1      47.324  30.232  30.018  1.00  0.00     0.134 A 
ATOM     99  C   UNL A   1      49.361  29.097  30.526  1.00  0.00     0.134 A 
ATOM    100  F   UNL A   1      46.004  30.417  30.135  1.00  0.00    -0.206 F 
ATOM    101  C   UNL A   1      48.037  31.209  29.313  1.00  0.00     0.040 A 
ATOM    102  C   UNL A   1      50.087  30.084  29.854  1.00  0.00     0.040 A 
ATOM    103  F   UNL A   1      50.049  28.111  31.122  1.00  0.00    -0.206 F 
ATOM    104  C   UNL A   1      49.425  31.140  29.237  1.00  0.00     0.006 A 
ENDBRANCH  80  97
ENDBRANCH  54  55
ENDBRANCH  46  49
ENDBRANCH  44  45
ENDBRANCH  43  44
ENDBRANCH  42  43
ENDBRANCH  40  42
ENDBRANCH  37  38
ENDBRANCH  36  37
ENDBRANCH  35  36
ENDBRANCH   1  35
TORSDOF 25
ENDMDL
MODEL 2
REMARK VINA RESULT:      -9.7      3.872      8.285
REMARK SMILES NS(=O)(=O)c1ccc(-n2nc(C(=O)NCCCCCCCCCCC(=O)NCCCNC(=O)c3ccc(-c4c5nc(c(-c6c(F)cccc6F)c6ccc([nH]6)c(-c6c(F)cccc6F)c6nc(c(-c7c(F)cccc7F)c7ccc4[nH]7)C=C6)C=C5)cc3)cc2-c2ccccc2)cc1
REMARK SMILES IDX 21 1 20 2 19 3 18 4 17 5 16 6 15 7 14 8 12 9 13 10 11 12
REMARK SMILES IDX 9 13 10 14 89 15 88 16 8 17 5 18 6 19 97 20 7 21 96 22 2 23
REMARK SMILES IDX 3 24 4 25 1 26 90 29 91 30 95 31 92 32 94 33 93 34 22 35
REMARK SMILES IDX 23 36 24 37 25 38 26 39 27 40 28 42 29 43 30 44 31 45 32 46
REMARK SMILES IDX 33 48 34 49 35 50 87 51 36 52 86 53 37 54 38 55 39 56 80 57
REMARK SMILES IDX 40 58 85 59 79 60 81 61 41 62 84 63 78 64 77 65 42 67 68 68
REMARK SMILES IDX 51 69 67 70 52 71 55 72 66 73 82 74 53 75 54 76 65 78 83 79
REMARK SMILES IDX 56 80 43 81 44 82 49 83 45 84 46 85 48 86 50 87 47 88 69 89
REMARK SMILES IDX 70 90 75 91 71 92 72 93 74 94 76 95 73 96 57 97 58 98 63 99
REMARK SMILES IDX 59 100 60 101 62 102 64 103 61 104
REMARK H PARENT 14 11 1 27 1 28 27 41 31 47 81 66 55 77
REMARK Flexibility Score: inf
ROOT
ATOM      1  C   UNL A   1      39.834  23.326  26.516  1.00  0.00     0.000 C 
ENDROOT
BRANCH   1   2
ATOM      2  C   UNL A   1      38.368  23.636  26.260  1.00  0.00     0.000 C 
BRANCH   2   3
ATOM      3  C   UNL A   1      37.661  22.538  25.464  1.00  0.00     0.000 C 
BRANCH   3   4
ATOM      4  C   UNL A   1      36.189  22.339  25.850  1.00  0.00     0.000 C 
BRANCH   4   5
ATOM      5  C   UNL A   1      35.490  21.209  25.080  1.00  0.00     0.002 C 
BRANCH   5   6
ATOM      6  C   UNL A   1      34.266  20.642  25.808  1.00  0.00     0.021 C 
BRANCH   6   7
ATOM      7  C   UNL A   1      33.045  21.547  25.652  1.00  0.00     0.116 C 
BRANCH   7   8
ATOM      8  N   UNL A   1      32.601  21.540  24.283  1.00  0.00    -0.351 N 
ATOM      9  C   UNL A   1      32.012  22.504  23.505  1.00  0.00     0.271 C 
ATOM     10  O   UNL A   1      31.709  22.159  22.360  1.00  0.00    -0.267 OA
ATOM     11  H   UNL A   1      32.749  20.684  23.817  1.00  0.00     0.163 HD
BRANCH   9  12
ATOM     12  C   UNL A   1      31.823  23.883  23.999  1.00  0.00     0.151 A 
ATOM     13  N   UNL A   1      31.176  25.928  23.880  1.00  0.00    -0.232 N 
ATOM     14  N   UNL A   1      30.956  24.699  23.371  1.00  0.00    -0.162 NA
ATOM     15  C   UNL A   1      32.075  25.908  24.929  1.00  0.00     0.075 A 
ATOM     16  C   UNL A   1      32.396  24.578  25.093  1.00  0.00     0.065 A 
BRANCH  13  17
ATOM     17  C   UNL A   1      30.478  27.038  23.363  1.00  0.00     0.065 A 
ATOM     18  C   UNL A   1      29.104  29.306  22.577  1.00  0.00     0.082 A 
ATOM     19  C   UNL A   1      30.485  29.233  22.369  1.00  0.00     0.024 A 
ATOM     20  C   UNL A   1      28.399  28.235  23.138  1.00  0.00     0.024 A 
ATOM     21  C   UNL A   1      31.179  28.099  22.781  1.00  0.00     0.030 A 
ATOM     22  C   UNL A   1      29.085  27.078  23.501  1.00  0.00     0.030 A 
BRANCH  18  23
ATOM     23  S   UNL A   1      28.243  30.801  22.205  1.00  0.00     0.238 S 
ATOM     24  O   UNL A   1      27.433  31.171  23.339  1.00  0.00    -0.207 OA
ATOM     25  O   UNL A   1      27.724  30.710  20.860  1.00  0.00    -0.207 OA
BRANCH  23  26
ATOM     26  N   UNL A   1      29.472  31.950  22.157  1.00  0.00    -0.225 NA
ATOM     27  H   UNL A   1      30.378  31.479  22.160  1.00  0.00     0.137 HD
ATOM     28  H   UNL A   1      29.402  32.557  22.974  1.00  0.00     0.137 HD
ENDBRANCH  23  26
ENDBRANCH  18  23
ENDBRANCH  13  17
BRANCH  15  29
ATOM     29  C   UNL A   1      32.452  27.034  25.773  1.00  0.00     0.000 A 
ATOM     30  C   UNL A   1      33.632  27.742  25.526  1.00  0.00     0.010 A 
ATOM     31  C   UNL A   1      31.614  27.435  26.822  1.00  0.00     0.010 A 
ATOM     32  C   UNL A   1      33.977  28.833  26.324  1.00  0.00     0.001 A 
ATOM     33  C   UNL A   1      31.963  28.524  27.622  1.00  0.00     0.001 A 
ATOM     34  C   UNL A   1      33.143  29.222  27.371  1.00  0.00     0.000 A 
ENDBRANCH  15  29
ENDBRANCH   9  12
ENDBRANCH   7   8
ENDBRANCH   6   7
ENDBRANCH   5   6
ENDBRANCH   4   5
ENDBRANCH   3   4
ENDBRANCH   2   3
ENDBRANCH   1   2
BRANCH   1  35
ATOM     35  C   UNL A   1      40.069  21.858  26.886  1.00  0.00     0.001 C 
BRANCH  35  36
ATOM     36  C   UNL A   1      41.485  21.380  26.612  1.00  0.00     0.010 C 
BRANCH  36  37
ATOM     37  C   UNL A   1      42.389  22.411  25.936  1.00  0.00     0.100 C 
BRANCH  37  38
ATOM     38  C   UNL A   1      43.707  21.841  25.446  1.00  0.00     0.219 C 
ATOM     39  O   UNL A   1      43.751  20.707  24.963  1.00  0.00    -0.275 OA
ATOM     40  N   UNL A   1      44.873  22.545  25.518  1.00  0.00    -0.356 N 
ATOM     41  H   UNL A   1      45.662  22.047  25.206  1.00  0.00     0.163 HD
BRANCH  40  42
ATOM     42  C   UNL A   1      45.167  23.902  25.970  1.00  0.00     0.117 C 
BRANCH  42  43
ATOM     43  C   UNL A   1      46.402  23.986  26.886  1.00  0.00     0.042 C 
BRANCH  43  44
ATOM     44  C   UNL A   1      47.023  25.361  26.968  1.00  0.00     0.118 C 
BRANCH  44  45
ATOM     45  N   UNL A   1      47.189  26.007  25.667  1.00  0.00    -0.352 N 
ATOM     46  C   UNL A   1      46.507  27.121  25.204  1.00  0.00     0.251 C 
ATOM     47  H   UNL A   1      47.854  25.610  25.058  1.00  0.00     0.163 HD
ATOM     48  O   UNL A   1      46.401  27.350  24.006  1.00  0.00    -0.269 OA
BRANCH  46  49
ATOM     49  C   UNL A   1      45.899  28.019  26.201  1.00  0.00     0.039 A 
ATOM     50  C   UNL A   1      46.654  28.922  26.951  1.00  0.00     0.014 A 
ATOM     51  C   UNL A   1      44.513  28.003  26.292  1.00  0.00     0.014 A 
ATOM     52  C   UNL A   1      45.982  29.868  27.722  1.00  0.00     0.010 A 
ATOM     53  C   UNL A   1      43.868  29.071  26.847  1.00  0.00     0.010 A 
ATOM     54  C   UNL A   1      44.583  29.956  27.640  1.00  0.00    -0.014 A 
BRANCH  54  55
ATOM     55  C   UNL A   1      43.843  31.038  28.283  1.00  0.00     0.031 A 
ATOM     56  C   UNL A   1      44.175  32.391  27.760  1.00  0.00     0.074 A 
ATOM     57  C   UNL A   1      42.795  30.821  29.112  1.00  0.00     0.049 A 
ATOM     58  N   UNL A   1      44.787  33.346  28.375  1.00  0.00    -0.248 NA
ATOM     59  C   UNL A   1      43.943  32.660  26.329  1.00  0.00     0.031 C 
ATOM     60  C   UNL A   1      42.150  29.547  29.462  1.00  0.00     0.029 A 
ATOM     61  N   UNL A   1      42.004  31.726  29.751  1.00  0.00    -0.354 N 
ATOM     62  C   UNL A   1      44.801  34.419  27.490  1.00  0.00     0.074 A 
ATOM     63  C   UNL A   1      44.470  33.879  26.199  1.00  0.00     0.031 C 
ATOM     64  C   UNL A   1      40.947  29.781  30.030  1.00  0.00     0.029 A 
ATOM     65  C   UNL A   1      40.818  31.204  30.264  1.00  0.00     0.049 A 
ATOM     66  H   UNL A   1      42.251  32.674  29.845  1.00  0.00     0.167 HD
ATOM     67  C   UNL A   1      44.797  35.700  27.955  1.00  0.00     0.037 A 
ATOM     68  C   UNL A   1      39.801  31.902  30.827  1.00  0.00     0.037 A 
ATOM     69  C   UNL A   1      45.215  35.746  29.337  1.00  0.00     0.049 A 
ATOM     70  C   UNL A   1      40.346  33.226  31.212  1.00  0.00     0.074 A 
ATOM     71  C   UNL A   1      46.339  35.331  30.028  1.00  0.00     0.029 A 
ATOM     72  N   UNL A   1      44.244  35.926  30.292  1.00  0.00    -0.354 N 
ATOM     73  N   UNL A   1      41.221  33.402  32.162  1.00  0.00    -0.248 NA
ATOM     74  C   UNL A   1      40.263  34.291  30.227  1.00  0.00     0.031 C 
ATOM     75  C   UNL A   1      45.840  34.802  31.256  1.00  0.00     0.029 A 
ATOM     76  C   UNL A   1      44.461  35.002  31.282  1.00  0.00     0.049 A 
ATOM     77  H   UNL A   1      43.524  36.597  30.270  1.00  0.00     0.167 HD
ATOM     78  C   UNL A   1      42.091  34.357  31.660  1.00  0.00     0.074 A 
ATOM     79  C   UNL A   1      41.404  34.927  30.500  1.00  0.00     0.031 C 
ATOM     80  C   UNL A   1      43.401  34.387  32.047  1.00  0.00     0.037 A 
BRANCH  67  81
ATOM     81  C   UNL A   1      44.018  36.828  27.312  1.00  0.00     0.057 A 
ATOM     82  C   UNL A   1      44.656  38.068  27.114  1.00  0.00     0.134 A 
ATOM     83  C   UNL A   1      42.615  36.855  27.159  1.00  0.00     0.134 A 
ATOM     84  F   UNL A   1      45.987  38.184  27.236  1.00  0.00    -0.206 F 
ATOM     85  C   UNL A   1      43.946  39.253  26.880  1.00  0.00     0.040 A 
ATOM     86  C   UNL A   1      41.902  38.022  26.875  1.00  0.00     0.040 A 
ATOM     87  F   UNL A   1      41.841  35.788  27.374  1.00  0.00    -0.206 F 
ATOM     88  C   UNL A   1      42.563  39.235  26.770  1.00  0.00     0.006 A 
ENDBRANCH  67  81
BRANCH  68  89
ATOM     89  C   UNL A   1      38.341  31.647  30.798  1.00  0.00     0.057 A 
ATOM     90  C   UNL A   1      37.671  31.197  31.946  1.00  0.00     0.134 A 
ATOM     91  C   UNL A   1      37.525  32.128  29.759  1.00  0.00     0.134 A 
ATOM     92  F   UNL A   1      38.361  30.744  33.003  1.00  0.00    -0.206 F 
ATOM     93  C   UNL A   1      36.278  31.270  32.078  1.00  0.00     0.040 A 
ATOM     94  C   UNL A   1      36.132  32.202  29.875  1.00  0.00     0.040 A 
ATOM     95  F   UNL A   1      38.058  32.633  28.638  1.00  0.00    -0.206 F 
ATOM     96  C   UNL A   1      35.505  31.791  31.045  1.00  0.00     0.006 A 
ENDBRANCH  68  89
BRANCH  80  97
ATOM     97  C   UNL A   1      43.811  33.539  33.221  1.00  0.00     0.057 A 
ATOM     98  C   UNL A   1      43.654  33.907  34.567  1.00  0.00     0.134 A 
ATOM     99  C   UNL A   1      44.253  32.234  32.975  1.00  0.00     0.134 A 
ATOM    100  F   UNL A   1      43.148  35.099  34.908  1.00  0.00    -0.206 F 
ATOM    101  C   UNL A   1      43.961  33.031  35.615  1.00  0.00     0.040 A 
ATOM    102  C   UNL A   1      44.530  31.338  34.011  1.00  0.00     0.040 A 
ATOM    103  F   UNL A   1      44.381  31.792  31.714  1.00  0.00    -0.206 F 
ATOM    104  C   UNL A   1      44.394  31.738  35.336  1.00  0.00     0.006 A 
ENDBRANCH  80  97
ENDBRANCH  54  55
ENDBRANCH  46  49
ENDBRANCH  44  45
ENDBRANCH  43  44
ENDBRANCH  42  43
ENDBRANCH  40  42
ENDBRANCH  37  38
ENDBRANCH  36  37
ENDBRANCH  35  36
ENDBRANCH   1  35
TORSDOF 25
ENDMDL
MODEL 3
REMARK VINA RESULT:      -9.7      5.369      9.699
REMARK SMILES NS(=O)(=O)c1ccc(-n2nc(C(=O)NCCCCCCCCCCC(=O)NCCCNC(=O)c3ccc(-c4c5nc(c(-c6c(F)cccc6F)c6ccc([nH]6)c(-c6c(F)cccc6F)c6nc(c(-c7c(F)cccc7F)c7ccc4[nH]7)C=C6)C=C5)cc3)cc2-c2ccccc2)cc1
REMARK SMILES IDX 21 1 20 2 19 3 18 4 17 5 16 6 15 7 14 8 12 9 13 10 11 12
REMARK SMILES IDX 9 13 10 14 89 15 88 16 8 17 5 18 6 19 97 20 7 21 96 22 2 23
REMARK SMILES IDX 3 24 4 25 1 26 90 29 91 30 95 31 92 32 94 33 93 34 22 35
REMARK SMILES IDX 23 36 24 37 25 38 26 39 27 40 28 42 29 43 30 44 31 45 32 46
REMARK SMILES IDX 33 48 34 49 35 50 87 51 36 52 86 53 37 54 38 55 39 56 80 57
REMARK SMILES IDX 40 58 85 59 79 60 81 61 41 62 84 63 78 64 77 65 42 67 68 68
REMARK SMILES IDX 51 69 67 70 52 71 55 72 66 73 82 74 53 75 54 76 65 78 83 79
REMARK SMILES IDX 56 80 43 81 44 82 49 83 45 84 46 85 48 86 50 87 47 88 69 89
REMARK SMILES IDX 70 90 75 91 71 92 72 93 74 94 76 95 73 96 57 97 58 98 63 99
REMARK SMILES IDX 59 100 60 101 62 102 64 103 61 104
REMARK H PARENT 14 11 1 27 1 28 27 41 31 47 81 66 55 77
REMARK Flexibility Score: inf
ROOT
ATOM      1  C   UNL A   1      34.199  29.795  27.439  1.00  0.00     0.000 C 
ENDROOT
BRANCH   1   2
ATOM      2  C   UNL A   1      34.058  28.404  26.842  1.00  0.00     0.000 C 
BRANCH   2   3
ATOM      3  C   UNL A   1      33.560  28.429  25.396  1.00  0.00     0.000 C 
BRANCH   3   4
ATOM      4  C   UNL A   1      32.046  28.219  25.256  1.00  0.00     0.000 C 
BRANCH   4   5
ATOM      5  C   UNL A   1      31.594  27.873  23.830  1.00  0.00     0.002 C 
BRANCH   5   6
ATOM      6  C   UNL A   1      30.087  27.621  23.713  1.00  0.00     0.021 C 
BRANCH   6   7
ATOM      7  C   UNL A   1      29.759  26.129  23.729  1.00  0.00     0.116 C 
BRANCH   7   8
ATOM      8  N   UNL A   1      29.450  25.710  25.071  1.00  0.00    -0.351 N 
ATOM      9  C   UNL A   1      29.974  24.721  25.865  1.00  0.00     0.271 C 
ATOM     10  O   UNL A   1      29.447  24.589  26.973  1.00  0.00    -0.267 OA
ATOM     11  H   UNL A   1      28.730  26.229  25.498  1.00  0.00     0.163 HD
BRANCH   9  12
ATOM     12  C   UNL A   1      31.138  23.922  25.435  1.00  0.00     0.151 A 
ATOM     13  N   UNL A   1      32.250  22.114  25.104  1.00  0.00    -0.232 N 
ATOM     14  N   UNL A   1      31.000  22.596  25.249  1.00  0.00    -0.162 NA
ATOM     15  C   UNL A   1      33.197  23.119  25.052  1.00  0.00     0.075 A 
ATOM     16  C   UNL A   1      32.473  24.289  25.136  1.00  0.00     0.065 A 
BRANCH  13  17
ATOM     17  C   UNL A   1      32.458  20.726  24.976  1.00  0.00     0.065 A 
ATOM     18  C   UNL A   1      33.101  18.053  24.672  1.00  0.00     0.082 A 
ATOM     19  C   UNL A   1      33.026  18.600  25.956  1.00  0.00     0.024 A 
ATOM     20  C   UNL A   1      32.816  18.825  23.540  1.00  0.00     0.024 A 
ATOM     21  C   UNL A   1      32.721  19.949  26.109  1.00  0.00     0.030 A 
ATOM     22  C   UNL A   1      32.457  20.162  23.695  1.00  0.00     0.030 A 
BRANCH  18  23
ATOM     23  S   UNL A   1      33.643  16.387  24.461  1.00  0.00     0.238 S 
ATOM     24  O   UNL A   1      34.757  16.141  25.343  1.00  0.00    -0.207 OA
ATOM     25  O   UNL A   1      33.674  16.088  23.048  1.00  0.00    -0.207 OA
BRANCH  23  26
ATOM     26  N   UNL A   1      32.375  15.486  25.103  1.00  0.00    -0.225 NA
ATOM     27  H   UNL A   1      31.638  16.116  25.422  1.00  0.00     0.137 HD
ATOM     28  H   UNL A   1      32.714  14.935  25.892  1.00  0.00     0.137 HD
ENDBRANCH  23  26
ENDBRANCH  18  23
ENDBRANCH  13  17
BRANCH  15  29
ATOM     29  C   UNL A   1      34.621  22.961  24.792  1.00  0.00     0.000 A 
ATOM     30  C   UNL A   1      35.130  23.130  23.501  1.00  0.00     0.010 A 
ATOM     31  C   UNL A   1      35.498  22.671  25.846  1.00  0.00     0.010 A 
ATOM     32  C   UNL A   1      36.498  22.999  23.262  1.00  0.00     0.001 A 
ATOM     33  C   UNL A   1      36.866  22.536  25.604  1.00  0.00     0.001 A 
ATOM     34  C   UNL A   1      37.365  22.701  24.313  1.00  0.00     0.000 A 
ENDBRANCH  15  29
ENDBRANCH   9  12
ENDBRANCH   7   8
ENDBRANCH   6   7
ENDBRANCH   5   6
ENDBRANCH   4   5
ENDBRANCH   3   4
ENDBRANCH   2   3
ENDBRANCH   1   2
BRANCH   1  35
ATOM     35  C   UNL A   1      35.662  30.206  27.635  1.00  0.00     0.001 C 
BRANCH  35  36
ATOM     36  C   UNL A   1      35.838  31.665  28.018  1.00  0.00     0.010 C 
BRANCH  36  37
ATOM     37  C   UNL A   1      36.464  31.896  29.394  1.00  0.00     0.100 C 
BRANCH  37  38
ATOM     38  C   UNL A   1      35.449  32.037  30.512  1.00  0.00     0.219 C 
ATOM     39  O   UNL A   1      34.304  32.422  30.265  1.00  0.00    -0.275 OA
ATOM     40  N   UNL A   1      35.755  31.748  31.810  1.00  0.00    -0.356 N 
ATOM     41  H   UNL A   1      35.022  31.921  32.443  1.00  0.00     0.163 HD
BRANCH  40  42
ATOM     42  C   UNL A   1      36.968  31.228  32.433  1.00  0.00     0.117 C 
BRANCH  42  43
ATOM     43  C   UNL A   1      37.417  32.038  33.664  1.00  0.00     0.042 C 
BRANCH  43  44
ATOM     44  C   UNL A   1      38.204  31.242  34.680  1.00  0.00     0.118 C 
BRANCH  44  45
ATOM     45  N   UNL A   1      38.007  31.694  36.057  1.00  0.00    -0.352 N 
ATOM     46  C   UNL A   1      38.920  32.385  36.838  1.00  0.00     0.251 C 
ATOM     47  H   UNL A   1      37.138  31.485  36.470  1.00  0.00     0.163 HD
ATOM     48  O   UNL A   1      38.851  32.369  38.061  1.00  0.00    -0.269 OA
BRANCH  46  49
ATOM     49  C   UNL A   1      39.987  33.132  36.152  1.00  0.00     0.039 A 
ATOM     50  C   UNL A   1      41.252  32.588  35.924  1.00  0.00     0.014 A 
ATOM     51  C   UNL A   1      39.647  34.379  35.642  1.00  0.00     0.014 A 
ATOM     52  C   UNL A   1      42.133  33.281  35.097  1.00  0.00     0.010 A 
ATOM     53  C   UNL A   1      40.411  34.926  34.651  1.00  0.00     0.010 A 
ATOM     54  C   UNL A   1      41.692  34.439  34.436  1.00  0.00    -0.014 A 
BRANCH  54  55
ATOM     55  C   UNL A   1      42.507  35.103  33.425  1.00  0.00     0.031 A 
ATOM     56  C   UNL A   1      42.562  34.383  32.124  1.00  0.00     0.074 A 
ATOM     57  C   UNL A   1      42.983  36.362  33.573  1.00  0.00     0.049 A 
ATOM     58  N   UNL A   1      43.579  33.792  31.592  1.00  0.00    -0.248 NA
ATOM     59  C   UNL A   1      41.297  34.150  31.404  1.00  0.00     0.031 C 
ATOM     60  C   UNL A   1      42.734  37.315  34.665  1.00  0.00     0.029 A 
ATOM     61  N   UNL A   1      43.724  37.108  32.708  1.00  0.00    -0.354 N 
ATOM     62  C   UNL A   1      43.142  33.323  30.357  1.00  0.00     0.074 A 
ATOM     63  C   UNL A   1      41.705  33.380  30.392  1.00  0.00     0.031 C 
ATOM     64  C   UNL A   1      43.095  38.559  34.283  1.00  0.00     0.029 A 
ATOM     65  C   UNL A   1      43.776  38.468  33.008  1.00  0.00     0.049 A 
ATOM     66  H   UNL A   1      44.187  36.718  31.933  1.00  0.00     0.167 HD
ATOM     67  C   UNL A   1      44.010  33.208  29.313  1.00  0.00     0.037 A 
ATOM     68  C   UNL A   1      44.330  39.446  32.249  1.00  0.00     0.037 A 
ATOM     69  C   UNL A   1      45.376  33.191  29.782  1.00  0.00     0.049 A 
ATOM     70  C   UNL A   1      45.250  38.783  31.294  1.00  0.00     0.074 A 
ATOM     71  C   UNL A   1      46.091  32.407  30.670  1.00  0.00     0.029 A 
ATOM     72  N   UNL A   1      46.120  34.335  29.624  1.00  0.00    -0.354 N 
ATOM     73  N   UNL A   1      46.356  38.191  31.644  1.00  0.00    -0.248 NA
ATOM     74  C   UNL A   1      44.698  38.379  30.011  1.00  0.00     0.031 C 
ATOM     75  C   UNL A   1      46.934  33.321  31.370  1.00  0.00     0.029 A 
ATOM     76  C   UNL A   1      46.751  34.587  30.814  1.00  0.00     0.049 A 
ATOM     77  H   UNL A   1      46.188  34.875  28.804  1.00  0.00     0.167 HD
ATOM     78  C   UNL A   1      46.401  37.046  30.863  1.00  0.00     0.074 A 
ATOM     79  C   UNL A   1      45.397  37.258  29.820  1.00  0.00     0.031 C 
ATOM     80  C   UNL A   1      47.028  35.916  31.307  1.00  0.00     0.037 A 
BRANCH  67  81
ATOM     81  C   UNL A   1      43.654  33.541  27.880  1.00  0.00     0.057 A 
ATOM     82  C   UNL A   1      44.065  32.665  26.857  1.00  0.00     0.134 A 
ATOM     83  C   UNL A   1      43.207  34.803  27.433  1.00  0.00     0.134 A 
ATOM     84  F   UNL A   1      44.520  31.436  27.145  1.00  0.00    -0.206 F 
ATOM     85  C   UNL A   1      44.116  33.049  25.511  1.00  0.00     0.040 A 
ATOM     86  C   UNL A   1      43.206  35.177  26.087  1.00  0.00     0.040 A 
ATOM     87  F   UNL A   1      42.843  35.782  28.266  1.00  0.00    -0.206 F 
ATOM     88  C   UNL A   1      43.696  34.313  25.122  1.00  0.00     0.006 A 
ENDBRANCH  67  81
BRANCH  68  89
ATOM     89  C   UNL A   1      43.923  40.860  32.073  1.00  0.00     0.057 A 
ATOM     90  C   UNL A   1      42.769  41.186  31.342  1.00  0.00     0.134 A 
ATOM     91  C   UNL A   1      44.460  41.890  32.864  1.00  0.00     0.134 A 
ATOM     92  F   UNL A   1      42.165  40.264  30.578  1.00  0.00    -0.206 F 
ATOM     93  C   UNL A   1      42.155  42.442  31.432  1.00  0.00     0.040 A 
ATOM     94  C   UNL A   1      43.860  43.151  32.959  1.00  0.00     0.040 A 
ATOM     95  F   UNL A   1      45.528  41.677  33.645  1.00  0.00    -0.206 F 
ATOM     96  C   UNL A   1      42.691  43.425  32.257  1.00  0.00     0.006 A 
ENDBRANCH  68  89
BRANCH  80  97
ATOM     97  C   UNL A   1      47.893  36.023  32.534  1.00  0.00     0.057 A 
ATOM     98  C   UNL A   1      47.440  35.834  33.850  1.00  0.00     0.134 A 
ATOM     99  C   UNL A   1      49.273  36.182  32.362  1.00  0.00     0.134 A 
ATOM    100  F   UNL A   1      46.153  35.579  34.113  1.00  0.00    -0.206 F 
ATOM    101  C   UNL A   1      48.315  35.845  34.942  1.00  0.00     0.040 A 
ATOM    102  C   UNL A   1      50.161  36.160  33.440  1.00  0.00     0.040 A 
ATOM    103  F   UNL A   1      49.787  36.318  31.130  1.00  0.00    -0.206 F 
ATOM    104  C   UNL A   1      49.683  36.001  34.737  1.00  0.00     0.006 A 
ENDBRANCH  80  97
ENDBRANCH  54  55
ENDBRANCH  46  49
ENDBRANCH  44  45
ENDBRANCH  43  44
ENDBRANCH  42  43
ENDBRANCH  40  42
ENDBRANCH  37  38
ENDBRANCH  36  37
ENDBRANCH  35  36
ENDBRANCH   1  35
TORSDOF 25
ENDMDL
