MODEL 1
REMARK VINA RESULT:     -13.1      0.000      0.000
REMARK SMILES Cc1ccccc1/C=C1\SC(=O)N(CC(=O)Nc2ccccc2C(=O)NCCCNC(=O)c2ccc(-c3c4nc(c(-c5c(F)cccc5F)c5ccc([nH]5)c(-c5c(F)cccc5F)c5nc(c(-c6c(F)cccc6F)c6ccc3[nH]6)C=C5)C=C4)cc2)C1=O
REMARK SMILES IDX 27 1 26 2 24 3 25 4 23 6 18 7 19 8 20 9 22 10 21 11 17 12
REMARK SMILES IDX 15 13 16 14 14 16 13 17 8 18 9 19 10 20 87 21 11 22 88 23
REMARK SMILES IDX 12 24 7 25 1 26 2 27 3 28 4 29 6 30 5 31 28 32 29 33 30 34
REMARK SMILES IDX 31 35 32 37 33 38 34 39 86 40 35 41 85 42 36 43 37 44 38 45
REMARK SMILES IDX 79 46 39 47 84 48 78 49 80 50 40 51 83 52 77 53 76 54 41 56
REMARK SMILES IDX 67 57 50 58 66 59 51 60 54 61 65 62 81 63 52 64 53 65 64 67
REMARK SMILES IDX 82 68 55 69 42 70 43 71 48 72 44 73 45 74 47 75 49 76 46 77
REMARK SMILES IDX 68 78 69 79 74 80 70 81 71 82 73 83 75 84 72 85 56 86 57 87
REMARK SMILES IDX 62 88 58 89 59 90 61 91 63 92 60 93
REMARK H PARENT 26 5 17 15 30 36 80 55 54 66
REMARK Flexibility Score: inf
ROOT
ATOM      1  C   UNL A   1      36.639  23.484  24.782  1.00  0.00     0.118 C 
ENDROOT
BRANCH   1   2
ATOM      2  N   UNL A   1      35.788  23.362  25.970  1.00  0.00    -0.352 N 
ATOM      3  C   UNL A   1      34.804  22.520  26.449  1.00  0.00     0.253 C 
ATOM      4  O   UNL A   1      34.484  22.660  27.629  1.00  0.00    -0.269 OA
ATOM      5  H   UNL A   1      35.972  24.087  26.611  1.00  0.00     0.163 HD
BRANCH   3   6
ATOM      6  C   UNL A   1      34.107  21.468  25.670  1.00  0.00     0.063 A 
ATOM      7  C   UNL A   1      32.692  21.345  25.610  1.00  0.00     0.054 A 
ATOM      8  C   UNL A   1      32.142  20.175  25.036  1.00  0.00     0.027 A 
ATOM      9  C   UNL A   1      32.935  19.146  24.538  1.00  0.00     0.002 A 
ATOM     10  C   UNL A   1      34.879  20.379  25.223  1.00  0.00     0.016 A 
ATOM     11  C   UNL A   1      34.310  19.241  24.649  1.00  0.00     0.001 A 
BRANCH   7  12
ATOM     12  N   UNL A   1      31.710  22.094  26.296  1.00  0.00    -0.324 N 
ATOM     13  C   UNL A   1      30.950  23.202  26.103  1.00  0.00     0.244 C 
ATOM     14  O   UNL A   1      30.252  23.545  27.068  1.00  0.00    -0.273 OA
ATOM     15  H   UNL A   1      31.519  21.691  27.175  1.00  0.00     0.170 HD
BRANCH  13  16
ATOM     16  C   UNL A   1      30.753  23.894  24.766  1.00  0.00     0.230 C 
BRANCH  16  17
ATOM     17  N   UNL A   1      31.383  25.179  24.629  1.00  0.00    -0.259 N 
ATOM     18  C   UNL A   1      31.528  28.459  25.761  1.00  0.00     0.029 C 
ATOM     19  C   UNL A   1      31.721  27.480  24.854  1.00  0.00     0.083 C 
ATOM     20  S   UNL A   1      33.126  26.926  24.050  1.00  0.00    -0.022 SA
ATOM     21  C   UNL A   1      30.698  26.377  24.770  1.00  0.00     0.268 C 
ATOM     22  C   UNL A   1      32.654  25.262  24.168  1.00  0.00     0.294 C 
ATOM     23  O   UNL A   1      29.499  26.538  24.846  1.00  0.00    -0.268 OA
ATOM     24  O   UNL A   1      33.407  24.343  23.849  1.00  0.00    -0.261 OA
BRANCH  18  25
ATOM     25  C   UNL A   1      32.437  29.332  26.573  1.00  0.00    -0.021 A 
ATOM     26  C   UNL A   1      31.282  31.628  26.449  1.00  0.00     0.045 C 
ATOM     27  C   UNL A   1      32.392  30.715  26.805  1.00  0.00    -0.044 A 
ATOM     28  C   UNL A   1      33.478  31.389  27.415  1.00  0.00     0.004 A 
ATOM     29  C   UNL A   1      34.587  30.707  27.877  1.00  0.00     0.000 A 
ATOM     30  C   UNL A   1      33.566  28.662  27.100  1.00  0.00     0.008 A 
ATOM     31  C   UNL A   1      34.617  29.331  27.743  1.00  0.00     0.001 A 
ENDBRANCH  18  25
ENDBRANCH  16  17
ENDBRANCH  13  16
ENDBRANCH   7  12
ENDBRANCH   3   6
ENDBRANCH   1   2
BRANCH   1  32
ATOM     32  C   UNL A   1      37.700  22.402  24.574  1.00  0.00     0.042 C 
BRANCH  32  33
ATOM     33  C   UNL A   1      38.313  21.830  25.860  1.00  0.00     0.118 C 
BRANCH  33  34
ATOM     34  N   UNL A   1      39.778  21.780  25.912  1.00  0.00    -0.352 N 
ATOM     35  C   UNL A   1      40.721  22.760  26.194  1.00  0.00     0.251 C 
ATOM     36  H   UNL A   1      40.160  20.896  25.712  1.00  0.00     0.163 HD
ATOM     37  O   UNL A   1      41.913  22.454  26.160  1.00  0.00    -0.269 OA
BRANCH  35  38
ATOM     38  C   UNL A   1      40.340  24.128  26.657  1.00  0.00     0.039 A 
ATOM     39  C   UNL A   1      40.929  25.246  26.030  1.00  0.00     0.014 A 
ATOM     40  C   UNL A   1      39.571  24.324  27.796  1.00  0.00     0.014 A 
ATOM     41  C   UNL A   1      40.951  26.493  26.675  1.00  0.00     0.010 A 
ATOM     42  C   UNL A   1      39.658  25.530  28.472  1.00  0.00     0.010 A 
ATOM     43  C   UNL A   1      40.405  26.599  27.950  1.00  0.00    -0.014 A 
BRANCH  43  44
ATOM     44  C   UNL A   1      40.577  27.733  28.862  1.00  0.00     0.031 A 
ATOM     45  C   UNL A   1      39.633  28.875  28.774  1.00  0.00     0.074 A 
ATOM     46  C   UNL A   1      41.452  27.669  29.896  1.00  0.00     0.049 A 
ATOM     47  N   UNL A   1      39.738  29.964  29.457  1.00  0.00    -0.248 NA
ATOM     48  C   UNL A   1      38.529  28.913  27.814  1.00  0.00     0.031 C 
ATOM     49  C   UNL A   1      41.386  28.408  31.158  1.00  0.00     0.029 A 
ATOM     50  N   UNL A   1      42.713  27.058  29.931  1.00  0.00    -0.354 N 
ATOM     51  C   UNL A   1      38.606  30.713  29.238  1.00  0.00     0.074 A 
ATOM     52  C   UNL A   1      37.956  30.081  28.121  1.00  0.00     0.031 C 
ATOM     53  C   UNL A   1      42.602  28.423  31.724  1.00  0.00     0.029 A 
ATOM     54  C   UNL A   1      43.525  27.860  30.757  1.00  0.00     0.049 A 
ATOM     55  H   UNL A   1      42.979  26.230  29.470  1.00  0.00     0.167 HD
ATOM     56  C   UNL A   1      38.300  31.711  30.112  1.00  0.00     0.037 A 
ATOM     57  C   UNL A   1      44.667  28.445  30.306  1.00  0.00     0.037 A 
ATOM     58  C   UNL A   1      39.454  32.026  30.953  1.00  0.00     0.049 A 
ATOM     59  C   UNL A   1      44.688  29.928  30.531  1.00  0.00     0.074 A 
ATOM     60  C   UNL A   1      39.795  31.714  32.257  1.00  0.00     0.029 A 
ATOM     61  N   UNL A   1      40.599  32.554  30.359  1.00  0.00    -0.354 N 
ATOM     62  N   UNL A   1      43.611  30.640  30.708  1.00  0.00    -0.248 NA
ATOM     63  C   UNL A   1      45.906  30.729  30.530  1.00  0.00     0.031 C 
ATOM     64  C   UNL A   1      41.184  31.975  32.414  1.00  0.00     0.029 A 
ATOM     65  C   UNL A   1      41.673  32.491  31.224  1.00  0.00     0.049 A 
ATOM     66  H   UNL A   1      40.637  32.922  29.446  1.00  0.00     0.167 HD
ATOM     67  C   UNL A   1      43.951  31.960  30.765  1.00  0.00     0.074 A 
ATOM     68  C   UNL A   1      45.401  31.964  30.691  1.00  0.00     0.031 C 
ATOM     69  C   UNL A   1      43.000  32.934  30.808  1.00  0.00     0.037 A 
BRANCH  56  70
ATOM     70  C   UNL A   1      36.917  32.293  30.350  1.00  0.00     0.057 A 
ATOM     71  C   UNL A   1      36.495  33.427  29.621  1.00  0.00     0.134 A 
ATOM     72  C   UNL A   1      36.006  31.894  31.350  1.00  0.00     0.134 A 
ATOM     73  F   UNL A   1      37.245  33.946  28.638  1.00  0.00    -0.206 F 
ATOM     74  C   UNL A   1      35.294  34.107  29.880  1.00  0.00     0.040 A 
ATOM     75  C   UNL A   1      34.783  32.539  31.589  1.00  0.00     0.040 A 
ATOM     76  F   UNL A   1      36.257  30.896  32.201  1.00  0.00    -0.206 F 
ATOM     77  C   UNL A   1      34.427  33.660  30.863  1.00  0.00     0.006 A 
ENDBRANCH  56  70
BRANCH  57  78
ATOM     78  C   UNL A   1      45.243  27.767  29.116  1.00  0.00     0.057 A 
ATOM     79  C   UNL A   1      46.050  26.634  29.300  1.00  0.00     0.134 A 
ATOM     80  C   UNL A   1      44.694  27.964  27.844  1.00  0.00     0.134 A 
ATOM     81  F   UNL A   1      46.601  26.384  30.499  1.00  0.00    -0.206 F 
ATOM     82  C   UNL A   1      46.216  25.680  28.293  1.00  0.00     0.040 A 
ATOM     83  C   UNL A   1      44.854  27.016  26.828  1.00  0.00     0.040 A 
ATOM     84  F   UNL A   1      43.900  29.016  27.599  1.00  0.00    -0.206 F 
ATOM     85  C   UNL A   1      45.587  25.853  27.063  1.00  0.00     0.006 A 
ENDBRANCH  57  78
BRANCH  69  86
ATOM     86  C   UNL A   1      43.264  34.385  30.509  1.00  0.00     0.057 A 
ATOM     87  C   UNL A   1      43.522  35.354  31.494  1.00  0.00     0.134 A 
ATOM     88  C   UNL A   1      43.414  34.828  29.180  1.00  0.00     0.134 A 
ATOM     89  F   UNL A   1      43.552  35.044  32.798  1.00  0.00    -0.206 F 
ATOM     90  C   UNL A   1      43.824  36.684  31.182  1.00  0.00     0.040 A 
ATOM     91  C   UNL A   1      43.772  36.140  28.858  1.00  0.00     0.040 A 
ATOM     92  F   UNL A   1      43.248  33.997  28.141  1.00  0.00    -0.206 F 
ATOM     93  C   UNL A   1      43.958  37.081  29.859  1.00  0.00     0.006 A 
ENDBRANCH  69  86
ENDBRANCH  43  44
ENDBRANCH  35  38
ENDBRANCH  33  34
ENDBRANCH  32  33
ENDBRANCH   1  32
TORSDOF 14
ENDMDL
MODEL 2
REMARK VINA RESULT:     -13.0      3.106      8.636
REMARK SMILES Cc1ccccc1/C=C1\SC(=O)N(CC(=O)Nc2ccccc2C(=O)NCCCNC(=O)c2ccc(-c3c4nc(c(-c5c(F)cccc5F)c5ccc([nH]5)c(-c5c(F)cccc5F)c5nc(c(-c6c(F)cccc6F)c6ccc3[nH]6)C=C5)C=C4)cc2)C1=O
REMARK SMILES IDX 27 1 26 2 24 3 25 4 23 6 18 7 19 8 20 9 22 10 21 11 17 12
REMARK SMILES IDX 15 13 16 14 14 16 13 17 8 18 9 19 10 20 87 21 11 22 88 23
REMARK SMILES IDX 12 24 7 25 1 26 2 27 3 28 4 29 6 30 5 31 28 32 29 33 30 34
REMARK SMILES IDX 31 35 32 37 33 38 34 39 86 40 35 41 85 42 36 43 37 44 38 45
REMARK SMILES IDX 79 46 39 47 84 48 78 49 80 50 40 51 83 52 77 53 76 54 41 56
REMARK SMILES IDX 67 57 50 58 66 59 51 60 54 61 65 62 81 63 52 64 53 65 64 67
REMARK SMILES IDX 82 68 55 69 42 70 43 71 48 72 44 73 45 74 47 75 49 76 46 77
REMARK SMILES IDX 68 78 69 79 74 80 70 81 71 82 73 83 75 84 72 85 56 86 57 87
REMARK SMILES IDX 62 88 58 89 59 90 61 91 63 92 60 93
REMARK H PARENT 26 5 17 15 30 36 80 55 54 66
REMARK Flexibility Score: inf
ROOT
ATOM      1  C   UNL A   1      33.996  27.709  26.099  1.00  0.00     0.118 C 
ENDROOT
BRANCH   1   2
ATOM      2  N   UNL A   1      32.706  27.251  26.627  1.00  0.00    -0.352 N 
ATOM      3  C   UNL A   1      31.394  27.165  26.207  1.00  0.00     0.253 C 
ATOM      4  O   UNL A   1      30.632  26.500  26.910  1.00  0.00    -0.269 OA
ATOM      5  H   UNL A   1      32.805  26.906  27.545  1.00  0.00     0.163 HD
BRANCH   3   6
ATOM      6  C   UNL A   1      30.828  27.794  24.989  1.00  0.00     0.063 A 
ATOM      7  C   UNL A   1      30.406  27.057  23.850  1.00  0.00     0.054 A 
ATOM      8  C   UNL A   1      30.104  27.766  22.663  1.00  0.00     0.027 A 
ATOM      9  C   UNL A   1      30.214  29.150  22.575  1.00  0.00     0.002 A 
ATOM     10  C   UNL A   1      30.996  29.185  24.845  1.00  0.00     0.016 A 
ATOM     11  C   UNL A   1      30.680  29.860  23.665  1.00  0.00     0.001 A 
BRANCH   7  12
ATOM     12  N   UNL A   1      30.501  25.668  23.611  1.00  0.00    -0.324 N 
ATOM     13  C   UNL A   1      31.461  24.717  23.484  1.00  0.00     0.244 C 
ATOM     14  O   UNL A   1      31.055  23.586  23.178  1.00  0.00    -0.273 OA
ATOM     15  H   UNL A   1      29.605  25.273  23.506  1.00  0.00     0.170 HD
BRANCH  13  16
ATOM     16  C   UNL A   1      32.915  24.896  23.883  1.00  0.00     0.230 C 
BRANCH  16  17
ATOM     17  N   UNL A   1      33.565  23.729  24.416  1.00  0.00    -0.259 N 
ATOM     18  C   UNL A   1      36.335  21.642  24.256  1.00  0.00     0.029 C 
ATOM     19  C   UNL A   1      35.056  21.936  24.563  1.00  0.00     0.083 C 
ATOM     20  S   UNL A   1      34.194  21.888  26.040  1.00  0.00    -0.022 SA
ATOM     21  C   UNL A   1      34.294  22.845  23.634  1.00  0.00     0.268 C 
ATOM     22  C   UNL A   1      33.329  23.351  25.694  1.00  0.00     0.294 C 
ATOM     23  O   UNL A   1      34.350  22.803  22.424  1.00  0.00    -0.268 OA
ATOM     24  O   UNL A   1      32.615  23.902  26.530  1.00  0.00    -0.261 OA
BRANCH  18  25
ATOM     25  C   UNL A   1      37.564  21.335  25.058  1.00  0.00    -0.021 A 
ATOM     26  C   UNL A   1      38.100  23.595  26.166  1.00  0.00     0.045 C 
ATOM     27  C   UNL A   1      38.385  22.185  25.815  1.00  0.00    -0.044 A 
ATOM     28  C   UNL A   1      39.634  21.740  26.314  1.00  0.00     0.004 A 
ATOM     29  C   UNL A   1      40.058  20.436  26.147  1.00  0.00     0.000 A 
ATOM     30  C   UNL A   1      38.009  19.997  24.947  1.00  0.00     0.008 A 
ATOM     31  C   UNL A   1      39.226  19.553  25.483  1.00  0.00     0.001 A 
ENDBRANCH  18  25
ENDBRANCH  16  17
ENDBRANCH  13  16
ENDBRANCH   7  12
ENDBRANCH   3   6
ENDBRANCH   1   2
BRANCH   1  32
ATOM     32  C   UNL A   1      34.267  29.214  26.142  1.00  0.00     0.042 C 
BRANCH  32  33
ATOM     33  C   UNL A   1      33.776  29.933  27.406  1.00  0.00     0.118 C 
BRANCH  33  34
ATOM     34  N   UNL A   1      34.504  31.149  27.783  1.00  0.00    -0.352 N 
ATOM     35  C   UNL A   1      35.789  31.336  28.276  1.00  0.00     0.251 C 
ATOM     36  H   UNL A   1      33.991  31.981  27.665  1.00  0.00     0.163 HD
ATOM     37  O   UNL A   1      36.161  32.482  28.525  1.00  0.00    -0.269 OA
BRANCH  35  38
ATOM     38  C   UNL A   1      36.772  30.217  28.392  1.00  0.00     0.039 A 
ATOM     39  C   UNL A   1      36.825  29.482  29.595  1.00  0.00     0.014 A 
ATOM     40  C   UNL A   1      37.748  30.001  27.428  1.00  0.00     0.014 A 
ATOM     41  C   UNL A   1      37.969  28.737  29.922  1.00  0.00     0.010 A 
ATOM     42  C   UNL A   1      38.910  29.332  27.781  1.00  0.00     0.010 A 
ATOM     43  C   UNL A   1      39.054  28.757  29.053  1.00  0.00    -0.014 A 
BRANCH  43  44
ATOM     44  C   UNL A   1      40.402  28.266  29.356  1.00  0.00     0.031 A 
ATOM     45  C   UNL A   1      40.806  26.925  28.863  1.00  0.00     0.074 A 
ATOM     46  C   UNL A   1      41.334  29.083  29.906  1.00  0.00     0.049 A 
ATOM     47  N   UNL A   1      41.925  26.350  29.143  1.00  0.00    -0.248 NA
ATOM     48  C   UNL A   1      39.912  26.072  28.077  1.00  0.00     0.031 C 
ATOM     49  C   UNL A   1      42.788  28.972  29.786  1.00  0.00     0.029 A 
ATOM     50  N   UNL A   1      41.153  30.084  30.870  1.00  0.00    -0.354 N 
ATOM     51  C   UNL A   1      42.018  25.208  28.384  1.00  0.00     0.074 A 
ATOM     52  C   UNL A   1      40.698  25.016  27.844  1.00  0.00     0.031 C 
ATOM     53  C   UNL A   1      43.367  29.660  30.781  1.00  0.00     0.029 A 
ATOM     54  C   UNL A   1      42.305  30.076  31.679  1.00  0.00     0.049 A 
ATOM     55  H   UNL A   1      40.373  30.678  30.962  1.00  0.00     0.167 HD
ATOM     56  C   UNL A   1      43.239  24.630  28.213  1.00  0.00     0.037 A 
ATOM     57  C   UNL A   1      42.252  29.844  33.018  1.00  0.00     0.037 A 
ATOM     58  C   UNL A   1      44.196  25.161  29.182  1.00  0.00     0.049 A 
ATOM     59  C   UNL A   1      43.150  28.722  33.449  1.00  0.00     0.074 A 
ATOM     60  C   UNL A   1      45.217  26.091  29.100  1.00  0.00     0.029 A 
ATOM     61  N   UNL A   1      43.990  24.918  30.539  1.00  0.00    -0.354 N 
ATOM     62  N   UNL A   1      43.576  27.796  32.638  1.00  0.00    -0.248 NA
ATOM     63  C   UNL A   1      43.599  28.527  34.822  1.00  0.00     0.031 C 
ATOM     64  C   UNL A   1      45.561  26.473  30.425  1.00  0.00     0.029 A 
ATOM     65  C   UNL A   1      44.786  25.739  31.311  1.00  0.00     0.049 A 
ATOM     66  H   UNL A   1      43.362  24.249  30.898  1.00  0.00     0.167 HD
ATOM     67  C   UNL A   1      44.268  26.860  33.350  1.00  0.00     0.074 A 
ATOM     68  C   UNL A   1      44.292  27.381  34.705  1.00  0.00     0.031 C 
ATOM     69  C   UNL A   1      44.708  25.710  32.768  1.00  0.00     0.037 A 
BRANCH  56  70
ATOM     70  C   UNL A   1      43.639  23.718  27.065  1.00  0.00     0.057 A 
ATOM     71  C   UNL A   1      44.262  24.261  25.920  1.00  0.00     0.134 A 
ATOM     72  C   UNL A   1      43.334  22.346  26.947  1.00  0.00     0.134 A 
ATOM     73  F   UNL A   1      44.612  25.554  25.859  1.00  0.00    -0.206 F 
ATOM     74  C   UNL A   1      44.534  23.512  24.763  1.00  0.00     0.040 A 
ATOM     75  C   UNL A   1      43.641  21.578  25.813  1.00  0.00     0.040 A 
ATOM     76  F   UNL A   1      42.671  21.668  27.886  1.00  0.00    -0.206 F 
ATOM     77  C   UNL A   1      44.230  22.162  24.708  1.00  0.00     0.006 A 
ENDBRANCH  56  70
BRANCH  57  78
ATOM     78  C   UNL A   1      40.920  30.129  33.610  1.00  0.00     0.057 A 
ATOM     79  C   UNL A   1      40.621  31.439  34.018  1.00  0.00     0.134 A 
ATOM     80  C   UNL A   1      39.843  29.260  33.405  1.00  0.00     0.134 A 
ATOM     81  F   UNL A   1      41.609  32.324  34.225  1.00  0.00    -0.206 F 
ATOM     82  C   UNL A   1      39.304  31.895  34.112  1.00  0.00     0.040 A 
ATOM     83  C   UNL A   1      38.521  29.706  33.496  1.00  0.00     0.040 A 
ATOM     84  F   UNL A   1      40.052  28.000  32.998  1.00  0.00    -0.206 F 
ATOM     85  C   UNL A   1      38.249  31.036  33.815  1.00  0.00     0.006 A 
ENDBRANCH  57  78
BRANCH  69  86
ATOM     86  C   UNL A   1      45.143  24.490  33.533  1.00  0.00     0.057 A 
ATOM     87  C   UNL A   1      44.334  23.356  33.727  1.00  0.00     0.134 A 
ATOM     88  C   UNL A   1      46.473  24.359  33.979  1.00  0.00     0.134 A 
ATOM     89  F   UNL A   1      43.090  23.285  33.233  1.00  0.00    -0.206 F 
ATOM     90  C   UNL A   1      44.788  22.211  34.391  1.00  0.00     0.040 A 
ATOM     91  C   UNL A   1      46.953  23.198  34.592  1.00  0.00     0.040 A 
ATOM     92  F   UNL A   1      47.369  25.343  33.813  1.00  0.00    -0.206 F 
ATOM     93  C   UNL A   1      46.105  22.125  34.820  1.00  0.00     0.006 A 
ENDBRANCH  69  86
ENDBRANCH  43  44
ENDBRANCH  35  38
ENDBRANCH  33  34
ENDBRANCH  32  33
ENDBRANCH   1  32
TORSDOF 14
ENDMDL
MODEL 3
REMARK VINA RESULT:     -12.9      2.914      8.323
REMARK SMILES Cc1ccccc1/C=C1\SC(=O)N(CC(=O)Nc2ccccc2C(=O)NCCCNC(=O)c2ccc(-c3c4nc(c(-c5c(F)cccc5F)c5ccc([nH]5)c(-c5c(F)cccc5F)c5nc(c(-c6c(F)cccc6F)c6ccc3[nH]6)C=C5)C=C4)cc2)C1=O
REMARK SMILES IDX 27 1 26 2 24 3 25 4 23 6 18 7 19 8 20 9 22 10 21 11 17 12
REMARK SMILES IDX 15 13 16 14 14 16 13 17 8 18 9 19 10 20 87 21 11 22 88 23
REMARK SMILES IDX 12 24 7 25 1 26 2 27 3 28 4 29 6 30 5 31 28 32 29 33 30 34
REMARK SMILES IDX 31 35 32 37 33 38 34 39 86 40 35 41 85 42 36 43 37 44 38 45
REMARK SMILES IDX 79 46 39 47 84 48 78 49 80 50 40 51 83 52 77 53 76 54 41 56
REMARK SMILES IDX 67 57 50 58 66 59 51 60 54 61 65 62 81 63 52 64 53 65 64 67
REMARK SMILES IDX 82 68 55 69 42 70 43 71 48 72 44 73 45 74 47 75 49 76 46 77
REMARK SMILES IDX 68 78 69 79 74 80 70 81 71 82 73 83 75 84 72 85 56 86 57 87
REMARK SMILES IDX 62 88 58 89 59 90 61 91 63 92 60 93
REMARK H PARENT 26 5 17 15 30 36 80 55 54 66
REMARK Flexibility Score: inf
ROOT
ATOM      1  C   UNL A   1      33.709  29.631  26.044  1.00  0.00     0.118 C 
ENDROOT
BRANCH   1   2
ATOM      2  N   UNL A   1      33.898  28.180  26.146  1.00  0.00    -0.352 N 
ATOM      3  C   UNL A   1      33.222  27.027  25.798  1.00  0.00     0.253 C 
ATOM      4  O   UNL A   1      33.851  25.972  25.881  1.00  0.00    -0.269 OA
ATOM      5  H   UNL A   1      34.751  27.966  26.589  1.00  0.00     0.163 HD
BRANCH   3   6
ATOM      6  C   UNL A   1      31.815  26.952  25.333  1.00  0.00     0.063 A 
ATOM      7  C   UNL A   1      30.893  25.969  25.783  1.00  0.00     0.054 A 
ATOM      8  C   UNL A   1      29.657  25.844  25.105  1.00  0.00     0.027 A 
ATOM      9  C   UNL A   1      29.322  26.643  24.016  1.00  0.00     0.002 A 
ATOM     10  C   UNL A   1      31.475  27.694  24.186  1.00  0.00     0.016 A 
ATOM     11  C   UNL A   1      30.243  27.559  23.543  1.00  0.00     0.001 A 
BRANCH   7  12
ATOM     12  N   UNL A   1      31.119  24.875  26.648  1.00  0.00    -0.324 N 
ATOM     13  C   UNL A   1      31.179  23.520  26.587  1.00  0.00     0.244 C 
ATOM     14  O   UNL A   1      31.329  22.943  27.674  1.00  0.00    -0.273 OA
ATOM     15  H   UNL A   1      31.281  25.188  27.567  1.00  0.00     0.170 HD
BRANCH  13  16
ATOM     16  C   UNL A   1      31.283  22.715  25.303  1.00  0.00     0.230 C 
BRANCH  16  17
ATOM     17  N   UNL A   1      32.587  22.197  24.994  1.00  0.00    -0.259 N 
ATOM     18  C   UNL A   1      35.935  22.942  24.450  1.00  0.00     0.029 C 
ATOM     19  C   UNL A   1      34.830  22.178  24.338  1.00  0.00     0.083 C 
ATOM     20  S   UNL A   1      34.510  20.558  24.786  1.00  0.00    -0.022 SA
ATOM     21  C   UNL A   1      33.499  22.869  24.194  1.00  0.00     0.268 C 
ATOM     22  C   UNL A   1      32.906  20.925  25.333  1.00  0.00     0.294 C 
ATOM     23  O   UNL A   1      33.301  23.853  23.515  1.00  0.00    -0.268 OA
ATOM     24  O   UNL A   1      32.211  20.099  25.924  1.00  0.00    -0.261 OA
BRANCH  18  25
ATOM     25  C   UNL A   1      37.253  22.788  25.148  1.00  0.00    -0.021 A 
ATOM     26  C   UNL A   1      37.859  20.331  24.683  1.00  0.00     0.045 C 
ATOM     27  C   UNL A   1      38.050  21.648  25.332  1.00  0.00    -0.044 A 
ATOM     28  C   UNL A   1      39.152  21.664  26.221  1.00  0.00     0.004 A 
ATOM     29  C   UNL A   1      39.535  22.816  26.880  1.00  0.00     0.000 A 
ATOM     30  C   UNL A   1      37.702  23.959  25.802  1.00  0.00     0.008 A 
ATOM     31  C   UNL A   1      38.822  23.977  26.646  1.00  0.00     0.001 A 
ENDBRANCH  18  25
ENDBRANCH  16  17
ENDBRANCH  13  16
ENDBRANCH   7  12
ENDBRANCH   3   6
ENDBRANCH   1   2
BRANCH   1  32
ATOM     32  C   UNL A   1      33.348  30.375  27.331  1.00  0.00     0.042 C 
BRANCH  32  33
ATOM     33  C   UNL A   1      34.336  31.472  27.753  1.00  0.00     0.118 C 
BRANCH  33  34
ATOM     34  N   UNL A   1      33.755  32.654  28.398  1.00  0.00    -0.352 N 
ATOM     35  C   UNL A   1      34.223  33.465  29.423  1.00  0.00     0.251 C 
ATOM     36  H   UNL A   1      32.877  32.920  28.040  1.00  0.00     0.163 HD
ATOM     37  O   UNL A   1      33.522  34.407  29.793  1.00  0.00    -0.269 OA
BRANCH  35  38
ATOM     38  C   UNL A   1      35.592  33.314  30.001  1.00  0.00     0.039 A 
ATOM     39  C   UNL A   1      36.696  33.795  29.267  1.00  0.00     0.014 A 
ATOM     40  C   UNL A   1      35.822  32.557  31.142  1.00  0.00     0.014 A 
ATOM     41  C   UNL A   1      37.989  33.317  29.533  1.00  0.00     0.010 A 
ATOM     42  C   UNL A   1      37.082  32.023  31.357  1.00  0.00     0.010 A 
ATOM     43  C   UNL A   1      38.157  32.345  30.513  1.00  0.00    -0.014 A 
BRANCH  43  44
ATOM     44  C   UNL A   1      39.370  31.553  30.733  1.00  0.00     0.031 A 
ATOM     45  C   UNL A   1      39.542  30.279  29.992  1.00  0.00     0.074 A 
ATOM     46  C   UNL A   1      40.409  32.054  31.447  1.00  0.00     0.049 A 
ATOM     47  N   UNL A   1      40.517  29.455  30.170  1.00  0.00    -0.248 NA
ATOM     48  C   UNL A   1      38.547  29.782  29.040  1.00  0.00     0.031 C 
ATOM     49  C   UNL A   1      41.821  31.688  31.331  1.00  0.00     0.029 A 
ATOM     50  N   UNL A   1      40.368  32.869  32.587  1.00  0.00    -0.354 N 
ATOM     51  C   UNL A   1      40.434  28.482  29.201  1.00  0.00     0.074 A 
ATOM     52  C   UNL A   1      39.132  28.657  28.615  1.00  0.00     0.031 C 
ATOM     53  C   UNL A   1      42.465  32.048  32.451  1.00  0.00     0.029 A 
ATOM     54  C   UNL A   1      41.454  32.483  33.397  1.00  0.00     0.049 A 
ATOM     55  H   UNL A   1      39.709  33.574  32.783  1.00  0.00     0.167 HD
ATOM     56  C   UNL A   1      41.532  27.722  28.939  1.00  0.00     0.037 A 
ATOM     57  C   UNL A   1      41.287  32.015  34.662  1.00  0.00     0.037 A 
ATOM     58  C   UNL A   1      42.520  27.863  30.008  1.00  0.00     0.049 A 
ATOM     59  C   UNL A   1      41.935  30.679  34.877  1.00  0.00     0.074 A 
ATOM     60  C   UNL A   1      43.700  28.575  30.127  1.00  0.00     0.029 A 
ATOM     61  N   UNL A   1      42.200  27.410  31.287  1.00  0.00    -0.354 N 
ATOM     62  N   UNL A   1      42.222  29.859  33.906  1.00  0.00    -0.248 NA
ATOM     63  C   UNL A   1      42.266  30.142  36.191  1.00  0.00     0.031 C 
ATOM     64  C   UNL A   1      44.038  28.623  31.506  1.00  0.00     0.029 A 
ATOM     65  C   UNL A   1      43.094  27.899  32.218  1.00  0.00     0.049 A 
ATOM     66  H   UNL A   1      41.440  26.820  31.497  1.00  0.00     0.167 HD
ATOM     67  C   UNL A   1      42.688  28.689  34.430  1.00  0.00     0.074 A 
ATOM     68  C   UNL A   1      42.737  28.928  35.861  1.00  0.00     0.031 C 
ATOM     69  C   UNL A   1      42.935  27.608  33.639  1.00  0.00     0.037 A 
BRANCH  56  70
ATOM     70  C   UNL A   1      41.815  26.986  27.640  1.00  0.00     0.057 A 
ATOM     71  C   UNL A   1      42.072  25.597  27.659  1.00  0.00     0.134 A 
ATOM     72  C   UNL A   1      41.985  27.575  26.370  1.00  0.00     0.134 A 
ATOM     73  F   UNL A   1      41.967  24.881  28.787  1.00  0.00    -0.206 F 
ATOM     74  C   UNL A   1      42.479  24.874  26.526  1.00  0.00     0.040 A 
ATOM     75  C   UNL A   1      42.349  26.854  25.221  1.00  0.00     0.040 A 
ATOM     76  F   UNL A   1      41.871  28.889  26.159  1.00  0.00    -0.206 F 
ATOM     77  C   UNL A   1      42.612  25.500  25.298  1.00  0.00     0.006 A 
ENDBRANCH  56  70
BRANCH  57  78
ATOM     78  C   UNL A   1      40.003  32.435  35.279  1.00  0.00     0.057 A 
ATOM     79  C   UNL A   1      39.909  33.711  35.858  1.00  0.00     0.134 A 
ATOM     80  C   UNL A   1      38.806  31.790  34.950  1.00  0.00     0.134 A 
ATOM     81  F   UNL A   1      41.021  34.385  36.190  1.00  0.00    -0.206 F 
ATOM     82  C   UNL A   1      38.681  34.361  36.004  1.00  0.00     0.040 A 
ATOM     83  C   UNL A   1      37.571  32.432  35.093  1.00  0.00     0.040 A 
ATOM     84  F   UNL A   1      38.818  30.578  34.379  1.00  0.00    -0.206 F 
ATOM     85  C   UNL A   1      37.510  33.734  35.587  1.00  0.00     0.006 A 
ENDBRANCH  57  78
BRANCH  69  86
ATOM     86  C   UNL A   1      43.093  26.203  34.155  1.00  0.00     0.057 A 
ATOM     87  C   UNL A   1      42.095  25.512  34.864  1.00  0.00     0.134 A 
ATOM     88  C   UNL A   1      44.225  25.437  33.815  1.00  0.00     0.134 A 
ATOM     89  F   UNL A   1      40.907  26.070  35.135  1.00  0.00    -0.206 F 
ATOM     90  C   UNL A   1      42.248  24.184  35.278  1.00  0.00     0.040 A 
ATOM     91  C   UNL A   1      44.363  24.093  34.175  1.00  0.00     0.040 A 
ATOM     92  F   UNL A   1      45.233  25.954  33.096  1.00  0.00    -0.206 F 
ATOM     93  C   UNL A   1      43.382  23.466  34.927  1.00  0.00     0.006 A 
ENDBRANCH  69  86
ENDBRANCH  43  44
ENDBRANCH  35  38
ENDBRANCH  33  34
ENDBRANCH  32  33
ENDBRANCH   1  32
TORSDOF 14
ENDMDL
