MODEL 1
REMARK VINA RESULT:     -12.6      0.000      0.000
REMARK SMILES O=C(NCCCNC(=O)c1[nH]ncc1C[N@H+]1CCC[C@@H](C(=O)c2ccc(Oc3ccccc3)cc2)C1)c1ccc(-c2c3nc(c(-c4c(F)cccc4F)c4ccc([nH]4)c(-c4c(F)cccc4F)c4nc(c(-c5c(F)cccc5F)c5ccc2[nH]5)C=C4)C=C3)cc1
REMARK SMILES IDX 7 1 8 2 9 3 6 5 5 6 4 7 3 8 1 9 2 10 37 12 38 13 90 14 39 15
REMARK SMILES IDX 89 16 40 17 41 18 42 19 83 20 43 21 88 22 82 23 84 24 44 25
REMARK SMILES IDX 87 26 81 27 80 28 45 30 71 31 54 32 70 33 55 34 58 35 69 36
REMARK SMILES IDX 85 37 56 38 57 39 68 41 86 42 59 43 46 44 47 45 52 46 48 47
REMARK SMILES IDX 49 48 51 49 53 50 50 51 72 52 73 53 78 54 74 55 75 56 77 57
REMARK SMILES IDX 79 58 76 59 60 60 61 61 66 62 62 63 63 64 65 65 67 66 64 67
REMARK SMILES IDX 10 68 11 69 14 70 12 71 13 73 15 74 16 75 17 76 36 77 18 79
REMARK SMILES IDX 20 80 19 81 21 82 22 83 23 84 24 85 35 86 25 87 34 88 26 89
REMARK SMILES IDX 27 90 28 91 29 92 33 93 30 94 32 95 31 96
REMARK H PARENT 7 4 3 11 84 29 58 40 11 72 16 78
REMARK Flexibility Score: inf
ROOT
ATOM      1  N   UNL A   1      32.714  29.982  26.712  1.00  0.00    -0.351 N 
ATOM      2  C   UNL A   1      33.459  29.088  25.988  1.00  0.00     0.269 C 
ATOM      3  O   UNL A   1      34.400  28.516  26.535  1.00  0.00    -0.268 OA
ATOM      4  H   UNL A   1      33.110  30.270  27.565  1.00  0.00     0.163 HD
ENDROOT
BRANCH   1   5
ATOM      5  C   UNL A   1      31.416  30.565  26.395  1.00  0.00     0.118 C 
BRANCH   5   6
ATOM      6  C   UNL A   1      31.388  32.071  26.571  1.00  0.00     0.042 C 
BRANCH   6   7
ATOM      7  C   UNL A   1      32.714  32.640  27.032  1.00  0.00     0.118 C 
BRANCH   7   8
ATOM      8  N   UNL A   1      32.575  33.962  27.629  1.00  0.00    -0.352 N 
ATOM      9  O   UNL A   1      32.819  35.577  29.177  1.00  0.00    -0.269 OA
ATOM     10  C   UNL A   1      33.233  34.529  28.691  1.00  0.00     0.251 C 
ATOM     11  H   UNL A   1      31.901  34.540  27.203  1.00  0.00     0.163 HD
BRANCH  10  12
ATOM     12  C   UNL A   1      34.424  33.869  29.263  1.00  0.00     0.039 A 
ATOM     13  C   UNL A   1      34.289  32.794  30.144  1.00  0.00     0.014 A 
ATOM     14  C   UNL A   1      35.693  34.315  28.889  1.00  0.00     0.014 A 
ATOM     15  C   UNL A   1      35.409  32.275  30.779  1.00  0.00     0.010 A 
ATOM     16  C   UNL A   1      36.825  33.717  29.444  1.00  0.00     0.010 A 
ATOM     17  C   UNL A   1      36.689  32.712  30.415  1.00  0.00    -0.014 A 
BRANCH  17  18
ATOM     18  C   UNL A   1      37.883  32.055  30.997  1.00  0.00     0.031 A 
ATOM     19  C   UNL A   1      38.630  31.003  30.235  1.00  0.00     0.074 A 
ATOM     20  C   UNL A   1      38.265  32.397  32.242  1.00  0.00     0.049 A 
ATOM     21  N   UNL A   1      39.632  30.257  30.625  1.00  0.00    -0.248 NA
ATOM     22  C   UNL A   1      38.186  30.745  28.857  1.00  0.00     0.031 C 
ATOM     23  C   UNL A   1      37.609  33.406  33.078  1.00  0.00     0.029 A 
ATOM     24  N   UNL A   1      39.284  31.925  33.028  1.00  0.00    -0.354 N 
ATOM     25  C   UNL A   1      39.921  29.422  29.555  1.00  0.00     0.074 A 
ATOM     26  C   UNL A   1      38.973  29.736  28.507  1.00  0.00     0.031 C 
ATOM     27  C   UNL A   1      38.244  33.482  34.254  1.00  0.00     0.029 A 
ATOM     28  C   UNL A   1      39.301  32.479  34.283  1.00  0.00     0.049 A 
ATOM     29  H   UNL A   1      39.937  31.255  32.722  1.00  0.00     0.167 HD
ATOM     30  C   UNL A   1      40.892  28.481  29.461  1.00  0.00     0.037 A 
ATOM     31  C   UNL A   1      40.051  32.182  35.360  1.00  0.00     0.037 A 
ATOM     32  C   UNL A   1      41.826  28.181  30.515  1.00  0.00     0.049 A 
ATOM     33  C   UNL A   1      41.088  31.105  35.250  1.00  0.00     0.074 A 
ATOM     34  C   UNL A   1      42.877  27.280  30.506  1.00  0.00     0.029 A 
ATOM     35  N   UNL A   1      41.812  28.765  31.775  1.00  0.00    -0.354 N 
ATOM     36  N   UNL A   1      41.383  30.350  34.220  1.00  0.00    -0.248 NA
ATOM     37  C   UNL A   1      41.895  30.836  36.447  1.00  0.00     0.031 C 
ATOM     38  C   UNL A   1      43.454  27.269  31.779  1.00  0.00     0.029 A 
ATOM     39  C   UNL A   1      42.811  28.215  32.563  1.00  0.00     0.049 A 
ATOM     40  H   UNL A   1      41.184  29.465  32.067  1.00  0.00     0.167 HD
ATOM     41  C   UNL A   1      42.427  29.534  34.633  1.00  0.00     0.074 A 
ATOM     42  C   UNL A   1      42.714  29.889  36.009  1.00  0.00     0.031 C 
ATOM     43  C   UNL A   1      43.089  28.583  33.930  1.00  0.00     0.037 A 
BRANCH  30  44
ATOM     44  C   UNL A   1      40.957  27.680  28.190  1.00  0.00     0.057 A 
ATOM     45  C   UNL A   1      40.277  26.466  28.033  1.00  0.00     0.134 A 
ATOM     46  C   UNL A   1      41.713  28.138  27.101  1.00  0.00     0.134 A 
ATOM     47  F   UNL A   1      39.543  25.963  29.037  1.00  0.00    -0.206 F 
ATOM     48  C   UNL A   1      40.380  25.716  26.858  1.00  0.00     0.040 A 
ATOM     49  C   UNL A   1      41.797  27.415  25.911  1.00  0.00     0.040 A 
ATOM     50  F   UNL A   1      42.382  29.300  27.176  1.00  0.00    -0.206 F 
ATOM     51  C   UNL A   1      41.139  26.193  25.793  1.00  0.00     0.006 A 
ENDBRANCH  30  44
BRANCH  31  52
ATOM     52  C   UNL A   1      39.813  32.913  36.627  1.00  0.00     0.057 A 
ATOM     53  C   UNL A   1      40.569  34.038  36.970  1.00  0.00     0.134 A 
ATOM     54  C   UNL A   1      38.774  32.542  37.492  1.00  0.00     0.134 A 
ATOM     55  F   UNL A   1      41.581  34.435  36.186  1.00  0.00    -0.206 F 
ATOM     56  C   UNL A   1      40.304  34.767  38.130  1.00  0.00     0.040 A 
ATOM     57  C   UNL A   1      38.481  33.277  38.641  1.00  0.00     0.040 A 
ATOM     58  F   UNL A   1      38.002  31.482  37.208  1.00  0.00    -0.206 F 
ATOM     59  C   UNL A   1      39.250  34.393  38.964  1.00  0.00     0.006 A 
ENDBRANCH  31  52
BRANCH  43  60
ATOM     60  C   UNL A   1      44.225  27.882  34.616  1.00  0.00     0.057 A 
ATOM     61  C   UNL A   1      44.059  26.651  35.261  1.00  0.00     0.134 A 
ATOM     62  C   UNL A   1      45.521  28.413  34.557  1.00  0.00     0.134 A 
ATOM     63  F   UNL A   1      42.843  26.095  35.365  1.00  0.00    -0.206 F 
ATOM     64  C   UNL A   1      45.142  25.975  35.827  1.00  0.00     0.040 A 
ATOM     65  C   UNL A   1      46.614  27.735  35.095  1.00  0.00     0.040 A 
ATOM     66  F   UNL A   1      45.748  29.588  33.949  1.00  0.00    -0.206 F 
ATOM     67  C   UNL A   1      46.425  26.511  35.734  1.00  0.00     0.006 A 
ENDBRANCH  43  60
ENDBRANCH  17  18
ENDBRANCH  10  12
ENDBRANCH   7   8
ENDBRANCH   6   7
ENDBRANCH   5   6
ENDBRANCH   1   5
BRANCH   2  68
ATOM     68  C   UNL A   1      33.062  28.812  24.642  1.00  0.00     0.131 A 
ATOM     69  N   UNL A   1      33.531  29.535  23.582  1.00  0.00    -0.272 N 
ATOM     70  C   UNL A   1      32.195  27.868  24.104  1.00  0.00     0.057 A 
ATOM     71  N   UNL A   1      33.260  28.972  22.395  1.00  0.00    -0.183 NA
ATOM     72  H   UNL A   1      34.020  30.384  23.679  1.00  0.00     0.190 HD
ATOM     73  C   UNL A   1      32.464  27.951  22.715  1.00  0.00     0.145 A 
BRANCH  70  74
ATOM     74  C   UNL A   1      31.325  26.900  24.854  1.00  0.00     0.303 C 
BRANCH  74  75
ATOM     75  N   UNL A   1      32.028  25.795  25.509  1.00  0.00    -0.330 N 
ATOM     76  C   UNL A   1      31.152  24.736  26.004  1.00  0.00     0.262 C 
ATOM     77  C   UNL A   1      33.122  25.277  24.702  1.00  0.00     0.274 C 
ATOM     78  H   UNL A   1      32.440  26.206  26.346  1.00  0.00     0.348 HD
ATOM     79  C   UNL A   1      31.970  23.737  26.825  1.00  0.00     0.062 C 
ATOM     80  C   UNL A   1      34.030  24.291  25.438  1.00  0.00     0.116 C 
ATOM     81  C   UNL A   1      33.153  23.173  26.033  1.00  0.00     0.023 C 
BRANCH  80  82
ATOM     82  C   UNL A   1      35.079  23.691  24.483  1.00  0.00     0.171 C 
ATOM     83  O   UNL A   1      34.969  23.734  23.260  1.00  0.00    -0.294 OA
BRANCH  82  84
ATOM     84  C   UNL A   1      36.296  23.046  25.051  1.00  0.00     0.018 A 
ATOM     85  C   UNL A   1      36.640  21.767  24.610  1.00  0.00     0.015 A 
ATOM     86  C   UNL A   1      37.144  23.737  25.922  1.00  0.00     0.015 A 
ATOM     87  C   UNL A   1      37.854  21.201  25.007  1.00  0.00     0.048 A 
ATOM     88  C   UNL A   1      38.378  23.183  26.280  1.00  0.00     0.048 A 
ATOM     89  C   UNL A   1      38.735  21.906  25.836  1.00  0.00     0.127 A 
BRANCH  89  90
ATOM     90  O   UNL A   1      39.921  21.254  26.105  1.00  0.00    -0.457 OA
BRANCH  90  91
ATOM     91  C   UNL A   1      40.971  21.947  26.657  1.00  0.00     0.127 A 
ATOM     92  C   UNL A   1      42.013  22.319  25.807  1.00  0.00     0.047 A 
ATOM     93  C   UNL A   1      41.062  22.193  28.028  1.00  0.00     0.047 A 
ATOM     94  C   UNL A   1      43.118  23.000  26.320  1.00  0.00     0.004 A 
ATOM     95  C   UNL A   1      42.157  22.892  28.535  1.00  0.00     0.004 A 
ATOM     96  C   UNL A   1      43.182  23.299  27.681  1.00  0.00     0.000 A 
ENDBRANCH  90  91
ENDBRANCH  89  90
ENDBRANCH  82  84
ENDBRANCH  80  82
ENDBRANCH  74  75
ENDBRANCH  70  74
ENDBRANCH   2  68
TORSDOF 16
ENDMDL
MODEL 2
REMARK VINA RESULT:     -12.5      4.190     10.367
REMARK SMILES O=C(NCCCNC(=O)c1[nH]ncc1C[N@H+]1CCC[C@@H](C(=O)c2ccc(Oc3ccccc3)cc2)C1)c1ccc(-c2c3nc(c(-c4c(F)cccc4F)c4ccc([nH]4)c(-c4c(F)cccc4F)c4nc(c(-c5c(F)cccc5F)c5ccc2[nH]5)C=C4)C=C3)cc1
REMARK SMILES IDX 7 1 8 2 9 3 6 5 5 6 4 7 3 8 1 9 2 10 37 12 38 13 90 14 39 15
REMARK SMILES IDX 89 16 40 17 41 18 42 19 83 20 43 21 88 22 82 23 84 24 44 25
REMARK SMILES IDX 87 26 81 27 80 28 45 30 71 31 54 32 70 33 55 34 58 35 69 36
REMARK SMILES IDX 85 37 56 38 57 39 68 41 86 42 59 43 46 44 47 45 52 46 48 47
REMARK SMILES IDX 49 48 51 49 53 50 50 51 72 52 73 53 78 54 74 55 75 56 77 57
REMARK SMILES IDX 79 58 76 59 60 60 61 61 66 62 62 63 63 64 65 65 67 66 64 67
REMARK SMILES IDX 10 68 11 69 14 70 12 71 13 73 15 74 16 75 17 76 36 77 18 79
REMARK SMILES IDX 20 80 19 81 21 82 22 83 23 84 24 85 35 86 25 87 34 88 26 89
REMARK SMILES IDX 27 90 28 91 29 92 33 93 30 94 32 95 31 96
REMARK H PARENT 7 4 3 11 84 29 58 40 11 72 16 78
REMARK Flexibility Score: inf
ROOT
ATOM      1  N   UNL A   1      37.220  21.743  25.280  1.00  0.00    -0.351 N 
ATOM      2  C   UNL A   1      36.380  22.679  25.824  1.00  0.00     0.269 C 
ATOM      3  O   UNL A   1      36.758  23.847  25.899  1.00  0.00    -0.268 OA
ATOM      4  H   UNL A   1      38.158  22.024  25.177  1.00  0.00     0.163 HD
ENDROOT
BRANCH   1   5
ATOM      5  C   UNL A   1      36.920  20.389  24.830  1.00  0.00     0.118 C 
BRANCH   5   6
ATOM      6  C   UNL A   1      38.102  19.449  24.962  1.00  0.00     0.042 C 
BRANCH   6   7
ATOM      7  C   UNL A   1      39.225  20.021  25.804  1.00  0.00     0.118 C 
BRANCH   7   8
ATOM      8  N   UNL A   1      40.362  19.115  25.902  1.00  0.00    -0.352 N 
ATOM      9  O   UNL A   1      42.525  18.493  25.926  1.00  0.00    -0.269 OA
ATOM     10  C   UNL A   1      41.695  19.383  26.088  1.00  0.00     0.251 C 
ATOM     11  H   UNL A   1      40.139  18.159  25.824  1.00  0.00     0.163 HD
BRANCH  10  12
ATOM     12  C   UNL A   1      42.133  20.744  26.460  1.00  0.00     0.039 A 
ATOM     13  C   UNL A   1      42.375  21.074  27.794  1.00  0.00     0.014 A 
ATOM     14  C   UNL A   1      42.330  21.692  25.455  1.00  0.00     0.014 A 
ATOM     15  C   UNL A   1      42.651  22.389  28.143  1.00  0.00     0.010 A 
ATOM     16  C   UNL A   1      42.717  22.989  25.796  1.00  0.00     0.010 A 
ATOM     17  C   UNL A   1      42.853  23.353  27.146  1.00  0.00    -0.014 A 
BRANCH  17  18
ATOM     18  C   UNL A   1      43.283  24.720  27.521  1.00  0.00     0.031 A 
ATOM     19  C   UNL A   1      42.309  25.700  28.102  1.00  0.00     0.074 A 
ATOM     20  C   UNL A   1      44.561  25.079  27.298  1.00  0.00     0.049 A 
ATOM     21  N   UNL A   1      42.486  26.963  28.396  1.00  0.00    -0.248 NA
ATOM     22  C   UNL A   1      40.953  25.200  28.377  1.00  0.00     0.031 C 
ATOM     23  C   UNL A   1      45.595  24.207  26.735  1.00  0.00     0.029 A 
ATOM     24  N   UNL A   1      45.206  26.271  27.502  1.00  0.00    -0.354 N 
ATOM     25  C   UNL A   1      41.261  27.418  28.863  1.00  0.00     0.074 A 
ATOM     26  C   UNL A   1      40.341  26.302  28.790  1.00  0.00     0.031 C 
ATOM     27  C   UNL A   1      46.743  24.890  26.644  1.00  0.00     0.029 A 
ATOM     28  C   UNL A   1      46.509  26.263  27.071  1.00  0.00     0.049 A 
ATOM     29  H   UNL A   1      44.776  27.054  27.916  1.00  0.00     0.167 HD
ATOM     30  C   UNL A   1      40.938  28.655  29.310  1.00  0.00     0.037 A 
ATOM     31  C   UNL A   1      47.406  27.261  26.982  1.00  0.00     0.037 A 
ATOM     32  C   UNL A   1      41.867  29.755  29.374  1.00  0.00     0.049 A 
ATOM     33  C   UNL A   1      47.015  28.634  27.439  1.00  0.00     0.074 A 
ATOM     34  C   UNL A   1      41.655  31.036  29.854  1.00  0.00     0.029 A 
ATOM     35  N   UNL A   1      43.181  29.708  28.927  1.00  0.00    -0.354 N 
ATOM     36  N   UNL A   1      45.867  29.045  27.919  1.00  0.00    -0.248 NA
ATOM     37  C   UNL A   1      48.040  29.682  27.342  1.00  0.00     0.031 C 
ATOM     38  C   UNL A   1      42.818  31.781  29.636  1.00  0.00     0.029 A 
ATOM     39  C   UNL A   1      43.779  30.948  29.086  1.00  0.00     0.049 A 
ATOM     40  H   UNL A   1      43.622  28.912  28.552  1.00  0.00     0.167 HD
ATOM     41  C   UNL A   1      46.035  30.392  28.207  1.00  0.00     0.074 A 
ATOM     42  C   UNL A   1      47.399  30.728  27.849  1.00  0.00     0.031 C 
ATOM     43  C   UNL A   1      45.141  31.266  28.729  1.00  0.00     0.037 A 
BRANCH  30  44
ATOM     44  C   UNL A   1      39.511  28.892  29.722  1.00  0.00     0.057 A 
ATOM     45  C   UNL A   1      38.540  29.355  28.826  1.00  0.00     0.134 A 
ATOM     46  C   UNL A   1      39.103  28.646  31.040  1.00  0.00     0.134 A 
ATOM     47  F   UNL A   1      38.861  29.621  27.551  1.00  0.00    -0.206 F 
ATOM     48  C   UNL A   1      37.227  29.606  29.234  1.00  0.00     0.040 A 
ATOM     49  C   UNL A   1      37.788  28.861  31.453  1.00  0.00     0.040 A 
ATOM     50  F   UNL A   1      39.978  28.190  31.951  1.00  0.00    -0.206 F 
ATOM     51  C   UNL A   1      36.848  29.355  30.551  1.00  0.00     0.006 A 
ENDBRANCH  30  44
BRANCH  31  52
ATOM     52  C   UNL A   1      48.746  26.976  26.414  1.00  0.00     0.057 A 
ATOM     53  C   UNL A   1      49.800  26.542  27.221  1.00  0.00     0.134 A 
ATOM     54  C   UNL A   1      48.980  27.067  25.035  1.00  0.00     0.134 A 
ATOM     55  F   UNL A   1      49.637  26.444  28.549  1.00  0.00    -0.206 F 
ATOM     56  C   UNL A   1      51.043  26.210  26.680  1.00  0.00     0.040 A 
ATOM     57  C   UNL A   1      50.209  26.713  24.477  1.00  0.00     0.040 A 
ATOM     58  F   UNL A   1      48.002  27.460  24.206  1.00  0.00    -0.206 F 
ATOM     59  C   UNL A   1      51.246  26.285  25.302  1.00  0.00     0.006 A 
ENDBRANCH  31  52
BRANCH  43  60
ATOM     60  C   UNL A   1      45.614  32.666  28.990  1.00  0.00     0.057 A 
ATOM     61  C   UNL A   1      45.413  33.702  28.070  1.00  0.00     0.134 A 
ATOM     62  C   UNL A   1      46.205  32.995  30.218  1.00  0.00     0.134 A 
ATOM     63  F   UNL A   1      44.866  33.453  26.871  1.00  0.00    -0.206 F 
ATOM     64  C   UNL A   1      45.790  35.015  28.361  1.00  0.00     0.040 A 
ATOM     65  C   UNL A   1      46.561  34.306  30.530  1.00  0.00     0.040 A 
ATOM     66  F   UNL A   1      46.420  32.047  31.144  1.00  0.00    -0.206 F 
ATOM     67  C   UNL A   1      46.354  35.321  29.599  1.00  0.00     0.006 A 
ENDBRANCH  43  60
ENDBRANCH  17  18
ENDBRANCH  10  12
ENDBRANCH   7   8
ENDBRANCH   6   7
ENDBRANCH   5   6
ENDBRANCH   1   5
BRANCH   2  68
ATOM     68  C   UNL A   1      35.071  22.262  26.219  1.00  0.00     0.131 A 
ATOM     69  N   UNL A   1      34.840  21.597  27.390  1.00  0.00    -0.272 N 
ATOM     70  C   UNL A   1      33.831  22.386  25.602  1.00  0.00     0.057 A 
ATOM     71  N   UNL A   1      33.540  21.523  27.711  1.00  0.00    -0.183 NA
ATOM     72  H   UNL A   1      35.557  21.210  27.943  1.00  0.00     0.190 HD
ATOM     73  C   UNL A   1      32.930  22.018  26.633  1.00  0.00     0.145 A 
BRANCH  70  74
ATOM     74  C   UNL A   1      33.546  22.937  24.234  1.00  0.00     0.303 C 
BRANCH  74  75
ATOM     75  N   UNL A   1      33.645  24.393  24.106  1.00  0.00    -0.330 N 
ATOM     76  C   UNL A   1      33.179  24.915  22.824  1.00  0.00     0.262 C 
ATOM     77  C   UNL A   1      33.053  25.090  25.237  1.00  0.00     0.274 C 
ATOM     78  H   UNL A   1      34.645  24.590  24.121  1.00  0.00     0.348 HD
ATOM     79  C   UNL A   1      33.500  26.408  22.732  1.00  0.00     0.062 C 
ATOM     80  C   UNL A   1      33.341  26.592  25.265  1.00  0.00     0.116 C 
ATOM     81  C   UNL A   1      32.921  27.194  23.912  1.00  0.00     0.023 C 
BRANCH  80  82
ATOM     82  C   UNL A   1      32.576  27.277  26.413  1.00  0.00     0.171 C 
ATOM     83  O   UNL A   1      31.645  26.739  27.008  1.00  0.00    -0.294 OA
BRANCH  82  84
ATOM     84  C   UNL A   1      32.983  28.644  26.845  1.00  0.00     0.018 A 
ATOM     85  C   UNL A   1      34.343  28.912  27.014  1.00  0.00     0.015 A 
ATOM     86  C   UNL A   1      32.046  29.673  26.974  1.00  0.00     0.015 A 
ATOM     87  C   UNL A   1      34.764  30.220  27.268  1.00  0.00     0.048 A 
ATOM     88  C   UNL A   1      32.477  30.987  27.185  1.00  0.00     0.048 A 
ATOM     89  C   UNL A   1      33.838  31.268  27.346  1.00  0.00     0.127 A 
BRANCH  89  90
ATOM     90  O   UNL A   1      34.392  32.515  27.546  1.00  0.00    -0.457 OA
BRANCH  90  91
ATOM     91  C   UNL A   1      35.178  32.744  28.649  1.00  0.00     0.127 A 
ATOM     92  C   UNL A   1      36.515  33.074  28.427  1.00  0.00     0.047 A 
ATOM     93  C   UNL A   1      34.706  32.562  29.950  1.00  0.00     0.047 A 
ATOM     94  C   UNL A   1      37.367  33.290  29.512  1.00  0.00     0.004 A 
ATOM     95  C   UNL A   1      35.553  32.799  31.033  1.00  0.00     0.004 A 
ATOM     96  C   UNL A   1      36.880  33.166  30.815  1.00  0.00     0.000 A 
ENDBRANCH  90  91
ENDBRANCH  89  90
ENDBRANCH  82  84
ENDBRANCH  80  82
ENDBRANCH  74  75
ENDBRANCH  70  74
ENDBRANCH   2  68
TORSDOF 16
ENDMDL
MODEL 3
REMARK VINA RESULT:     -12.4      4.275     10.420
REMARK SMILES O=C(NCCCNC(=O)c1[nH]ncc1C[N@H+]1CCC[C@@H](C(=O)c2ccc(Oc3ccccc3)cc2)C1)c1ccc(-c2c3nc(c(-c4c(F)cccc4F)c4ccc([nH]4)c(-c4c(F)cccc4F)c4nc(c(-c5c(F)cccc5F)c5ccc2[nH]5)C=C4)C=C3)cc1
REMARK SMILES IDX 7 1 8 2 9 3 6 5 5 6 4 7 3 8 1 9 2 10 37 12 38 13 90 14 39 15
REMARK SMILES IDX 89 16 40 17 41 18 42 19 83 20 43 21 88 22 82 23 84 24 44 25
REMARK SMILES IDX 87 26 81 27 80 28 45 30 71 31 54 32 70 33 55 34 58 35 69 36
REMARK SMILES IDX 85 37 56 38 57 39 68 41 86 42 59 43 46 44 47 45 52 46 48 47
REMARK SMILES IDX 49 48 51 49 53 50 50 51 72 52 73 53 78 54 74 55 75 56 77 57
REMARK SMILES IDX 79 58 76 59 60 60 61 61 66 62 62 63 63 64 65 65 67 66 64 67
REMARK SMILES IDX 10 68 11 69 14 70 12 71 13 73 15 74 16 75 17 76 36 77 18 79
REMARK SMILES IDX 20 80 19 81 21 82 22 83 23 84 24 85 35 86 25 87 34 88 26 89
REMARK SMILES IDX 27 90 28 91 29 92 33 93 30 94 32 95 31 96
REMARK H PARENT 7 4 3 11 84 29 58 40 11 72 16 78
REMARK Flexibility Score: inf
ROOT
ATOM      1  N   UNL A   1      37.153  21.698  25.281  1.00  0.00    -0.351 N 
ATOM      2  C   UNL A   1      36.287  22.645  25.762  1.00  0.00     0.269 C 
ATOM      3  O   UNL A   1      36.623  23.828  25.736  1.00  0.00    -0.268 OA
ATOM      4  H   UNL A   1      38.078  22.003  25.140  1.00  0.00     0.163 HD
ENDROOT
BRANCH   1   5
ATOM      5  C   UNL A   1      36.896  20.302  24.948  1.00  0.00     0.118 C 
BRANCH   5   6
ATOM      6  C   UNL A   1      38.161  19.469  24.886  1.00  0.00     0.042 C 
BRANCH   6   7
ATOM      7  C   UNL A   1      39.240  19.955  25.834  1.00  0.00     0.118 C 
BRANCH   7   8
ATOM      8  N   UNL A   1      40.362  19.029  25.920  1.00  0.00    -0.352 N 
ATOM      9  O   UNL A   1      42.514  18.370  25.923  1.00  0.00    -0.269 OA
ATOM     10  C   UNL A   1      41.700  19.273  26.095  1.00  0.00     0.251 C 
ATOM     11  H   UNL A   1      40.122  18.077  25.840  1.00  0.00     0.163 HD
BRANCH  10  12
ATOM     12  C   UNL A   1      42.165  20.625  26.468  1.00  0.00     0.039 A 
ATOM     13  C   UNL A   1      42.481  21.566  25.486  1.00  0.00     0.014 A 
ATOM     14  C   UNL A   1      42.260  20.962  27.819  1.00  0.00     0.014 A 
ATOM     15  C   UNL A   1      43.046  22.781  25.848  1.00  0.00     0.010 A 
ATOM     16  C   UNL A   1      42.724  22.226  28.184  1.00  0.00     0.010 A 
ATOM     17  C   UNL A   1      43.147  23.134  27.200  1.00  0.00    -0.014 A 
BRANCH  17  18
ATOM     18  C   UNL A   1      43.622  24.487  27.572  1.00  0.00     0.031 A 
ATOM     19  C   UNL A   1      42.662  25.537  28.042  1.00  0.00     0.074 A 
ATOM     20  C   UNL A   1      44.933  24.768  27.447  1.00  0.00     0.049 A 
ATOM     21  N   UNL A   1      42.886  26.797  28.314  1.00  0.00    -0.248 NA
ATOM     22  C   UNL A   1      41.262  25.122  28.216  1.00  0.00     0.031 C 
ATOM     23  C   UNL A   1      45.958  23.823  26.996  1.00  0.00     0.029 A 
ATOM     24  N   UNL A   1      45.626  25.928  27.672  1.00  0.00    -0.354 N 
ATOM     25  C   UNL A   1      41.655  27.334  28.665  1.00  0.00     0.074 A 
ATOM     26  C   UNL A   1      40.682  26.268  28.546  1.00  0.00     0.031 C 
ATOM     27  C   UNL A   1      47.147  24.438  26.983  1.00  0.00     0.029 A 
ATOM     28  C   UNL A   1      46.958  25.835  27.352  1.00  0.00     0.049 A 
ATOM     29  H   UNL A   1      45.210  26.747  28.026  1.00  0.00     0.167 HD
ATOM     30  C   UNL A   1      41.369  28.601  29.050  1.00  0.00     0.037 A 
ATOM     31  C   UNL A   1      47.915  26.779  27.311  1.00  0.00     0.037 A 
ATOM     32  C   UNL A   1      42.351  29.649  29.161  1.00  0.00     0.049 A 
ATOM     33  C   UNL A   1      47.568  28.186  27.695  1.00  0.00     0.074 A 
ATOM     34  C   UNL A   1      42.174  30.955  29.586  1.00  0.00     0.029 A 
ATOM     35  N   UNL A   1      43.692  29.516  28.827  1.00  0.00    -0.354 N 
ATOM     36  N   UNL A   1      46.409  28.674  28.066  1.00  0.00    -0.248 NA
ATOM     37  C   UNL A   1      48.655  29.172  27.655  1.00  0.00     0.031 C 
ATOM     38  C   UNL A   1      43.391  31.628  29.446  1.00  0.00     0.029 A 
ATOM     39  C   UNL A   1      44.345  30.725  29.001  1.00  0.00     0.049 A 
ATOM     40  H   UNL A   1      44.116  28.685  28.512  1.00  0.00     0.167 HD
ATOM     41  C   UNL A   1      46.630  30.019  28.330  1.00  0.00     0.074 A 
ATOM     42  C   UNL A   1      48.036  30.268  28.078  1.00  0.00     0.031 C 
ATOM     43  C   UNL A   1      45.747  30.957  28.751  1.00  0.00     0.037 A 
BRANCH  30  44
ATOM     44  C   UNL A   1      39.929  28.929  29.333  1.00  0.00     0.057 A 
ATOM     45  C   UNL A   1      39.380  28.846  30.619  1.00  0.00     0.134 A 
ATOM     46  C   UNL A   1      39.078  29.341  28.298  1.00  0.00     0.134 A 
ATOM     47  F   UNL A   1      40.134  28.449  31.656  1.00  0.00    -0.206 F 
ATOM     48  C   UNL A   1      38.031  29.117  30.859  1.00  0.00     0.040 A 
ATOM     49  C   UNL A   1      37.737  29.648  28.530  1.00  0.00     0.040 A 
ATOM     50  F   UNL A   1      39.538  29.455  27.042  1.00  0.00    -0.206 F 
ATOM     51  C   UNL A   1      37.207  29.524  29.812  1.00  0.00     0.006 A 
ENDBRANCH  30  44
BRANCH  31  52
ATOM     52  C   UNL A   1      49.278  26.403  26.865  1.00  0.00     0.057 A 
ATOM     53  C   UNL A   1      49.686  26.588  25.541  1.00  0.00     0.134 A 
ATOM     54  C   UNL A   1      50.228  25.915  27.773  1.00  0.00     0.134 A 
ATOM     55  F   UNL A   1      48.818  27.044  24.625  1.00  0.00    -0.206 F 
ATOM     56  C   UNL A   1      50.988  26.297  25.132  1.00  0.00     0.040 A 
ATOM     57  C   UNL A   1      51.540  25.645  27.385  1.00  0.00     0.040 A 
ATOM     58  F   UNL A   1      49.902  25.734  29.061  1.00  0.00    -0.206 F 
ATOM     59  C   UNL A   1      51.922  25.834  26.059  1.00  0.00     0.006 A 
ENDBRANCH  31  52
BRANCH  43  60
ATOM     60  C   UNL A   1      46.277  32.337  29.012  1.00  0.00     0.057 A 
ATOM     61  C   UNL A   1      46.797  32.711  30.256  1.00  0.00     0.134 A 
ATOM     62  C   UNL A   1      46.341  33.276  27.973  1.00  0.00     0.134 A 
ATOM     63  F   UNL A   1      46.753  31.865  31.295  1.00  0.00    -0.206 F 
ATOM     64  C   UNL A   1      47.357  33.974  30.459  1.00  0.00     0.040 A 
ATOM     65  C   UNL A   1      46.922  34.530  28.157  1.00  0.00     0.040 A 
ATOM     66  F   UNL A   1      45.865  32.976  26.754  1.00  0.00    -0.206 F 
ATOM     67  C   UNL A   1      47.432  34.883  29.404  1.00  0.00     0.006 A 
ENDBRANCH  43  60
ENDBRANCH  17  18
ENDBRANCH  10  12
ENDBRANCH   7   8
ENDBRANCH   6   7
ENDBRANCH   5   6
ENDBRANCH   1   5
BRANCH   2  68
ATOM     68  C   UNL A   1      35.000  22.216  26.213  1.00  0.00     0.131 A 
ATOM     69  N   UNL A   1      34.816  21.612  27.424  1.00  0.00    -0.272 N 
ATOM     70  C   UNL A   1      33.743  22.271  25.621  1.00  0.00     0.057 A 
ATOM     71  N   UNL A   1      33.527  21.521  27.781  1.00  0.00    -0.183 NA
ATOM     72  H   UNL A   1      35.557  21.276  27.979  1.00  0.00     0.190 HD
ATOM     73  C   UNL A   1      32.877  21.938  26.694  1.00  0.00     0.145 A 
BRANCH  70  74
ATOM     74  C   UNL A   1      33.411  22.737  24.233  1.00  0.00     0.303 C 
BRANCH  74  75
ATOM     75  N   UNL A   1      33.514  24.181  24.008  1.00  0.00    -0.330 N 
ATOM     76  C   UNL A   1      33.048  24.619  22.696  1.00  0.00     0.262 C 
ATOM     77  C   UNL A   1      32.926  24.954  25.092  1.00  0.00     0.274 C 
ATOM     78  H   UNL A   1      34.514  24.375  24.009  1.00  0.00     0.348 HD
ATOM     79  C   UNL A   1      33.374  26.102  22.505  1.00  0.00     0.062 C 
ATOM     80  C   UNL A   1      33.219  26.454  25.021  1.00  0.00     0.116 C 
ATOM     81  C   UNL A   1      32.798  26.966  23.631  1.00  0.00     0.023 C 
BRANCH  80  82
ATOM     82  C   UNL A   1      32.457  27.215  26.121  1.00  0.00     0.171 C 
ATOM     83  O   UNL A   1      31.514  26.727  26.739  1.00  0.00    -0.294 OA
BRANCH  82  84
ATOM     84  C   UNL A   1      32.884  28.597  26.478  1.00  0.00     0.018 A 
ATOM     85  C   UNL A   1      31.923  29.611  26.483  1.00  0.00     0.015 A 
ATOM     86  C   UNL A   1      34.186  28.867  26.908  1.00  0.00     0.015 A 
ATOM     87  C   UNL A   1      32.259  30.880  26.960  1.00  0.00     0.048 A 
ATOM     88  C   UNL A   1      34.504  30.127  27.426  1.00  0.00     0.048 A 
ATOM     89  C   UNL A   1      33.547  31.146  27.443  1.00  0.00     0.127 A 
BRANCH  89  90
ATOM     90  O   UNL A   1      33.727  32.422  27.935  1.00  0.00    -0.457 OA
BRANCH  90  91
ATOM     91  C   UNL A   1      34.805  32.697  28.741  1.00  0.00     0.127 A 
ATOM     92  C   UNL A   1      35.998  33.062  28.115  1.00  0.00     0.047 A 
ATOM     93  C   UNL A   1      34.762  32.528  30.126  1.00  0.00     0.047 A 
ATOM     94  C   UNL A   1      37.133  33.326  28.884  1.00  0.00     0.004 A 
ATOM     95  C   UNL A   1      35.892  32.812  30.894  1.00  0.00     0.004 A 
ATOM     96  C   UNL A   1      37.075  33.214  30.274  1.00  0.00     0.000 A 
ENDBRANCH  90  91
ENDBRANCH  89  90
ENDBRANCH  82  84
ENDBRANCH  80  82
ENDBRANCH  74  75
ENDBRANCH  70  74
ENDBRANCH   2  68
TORSDOF 16
ENDMDL
