MODEL 1
REMARK VINA RESULT:     -12.1      0.000      0.000
REMARK SMILES O=C(NCCCNC(=O)c1cn(C2CN(C(=O)Nc3ccsc3)C2)nn1)c1ccc(-c2c3nc(c(-c4c(F)cccc4F)c4ccc([nH]4)c(-c4c(F)cccc4F)c4nc(c(-c5c(F)cccc5F)c5ccc2[nH]5)C=C4)C=C3)cc1
REMARK SMILES IDX 5 1 4 2 3 3 1 4 2 5 27 7 28 8 80 9 29 10 79 11 30 12 31 13
REMARK SMILES IDX 32 14 73 15 33 16 78 17 72 18 74 19 34 20 77 21 71 22 70 23
REMARK SMILES IDX 35 25 61 26 44 27 60 28 45 29 48 30 59 31 75 32 46 33 47 34
REMARK SMILES IDX 58 36 76 37 49 38 36 39 37 40 42 41 38 42 39 43 41 44 43 45
REMARK SMILES IDX 40 46 62 47 63 48 68 49 64 50 65 51 67 52 69 53 66 54 50 55
REMARK SMILES IDX 51 56 56 57 52 58 53 59 55 60 57 61 54 62 6 63 7 64 8 65
REMARK SMILES IDX 9 67 10 68 11 69 26 70 12 71 25 72 13 73 14 74 24 75 15 76
REMARK SMILES IDX 16 77 17 78 18 79 19 81 20 82 23 83 21 84 22 85
REMARK H PARENT 3 6 74 24 48 35 7 66 18 80
REMARK Flexibility Score: inf
ROOT
ATOM      1  C   UNL A   1      34.403  35.730  28.451  1.00  0.00     0.042 C 
ENDROOT
BRANCH   1   2
ATOM      2  C   UNL A   1      35.075  34.408  28.820  1.00  0.00     0.118 C 
BRANCH   2   3
ATOM      3  N   UNL A   1      34.475  33.242  28.203  1.00  0.00    -0.352 N 
ATOM      4  O   UNL A   1      33.947  31.196  27.587  1.00  0.00    -0.269 OA
ATOM      5  C   UNL A   1      34.811  31.924  28.083  1.00  0.00     0.251 C 
ATOM      6  H   UNL A   1      33.618  33.450  27.766  1.00  0.00     0.163 HD
BRANCH   5   7
ATOM      7  C   UNL A   1      36.128  31.324  28.436  1.00  0.00     0.039 A 
ATOM      8  C   UNL A   1      37.221  32.002  28.976  1.00  0.00     0.014 A 
ATOM      9  C   UNL A   1      36.269  29.953  28.146  1.00  0.00     0.014 A 
ATOM     10  C   UNL A   1      38.444  31.351  29.140  1.00  0.00     0.010 A 
ATOM     11  C   UNL A   1      37.480  29.295  28.323  1.00  0.00     0.010 A 
ATOM     12  C   UNL A   1      38.581  30.006  28.787  1.00  0.00    -0.014 A 
BRANCH  12  13
ATOM     13  C   UNL A   1      39.854  29.340  29.060  1.00  0.00     0.031 A 
ATOM     14  C   UNL A   1      40.145  29.094  30.503  1.00  0.00     0.074 A 
ATOM     15  C   UNL A   1      40.644  28.816  28.098  1.00  0.00     0.049 A 
ATOM     16  N   UNL A   1      41.171  29.470  31.196  1.00  0.00    -0.248 NA
ATOM     17  C   UNL A   1      39.116  28.397  31.292  1.00  0.00     0.031 C 
ATOM     18  C   UNL A   1      40.354  28.689  26.668  1.00  0.00     0.029 A 
ATOM     19  N   UNL A   1      41.846  28.183  28.228  1.00  0.00    -0.354 N 
ATOM     20  C   UNL A   1      41.006  28.913  32.466  1.00  0.00     0.074 A 
ATOM     21  C   UNL A   1      39.672  28.377  32.504  1.00  0.00     0.031 C 
ATOM     22  C   UNL A   1      41.244  27.838  26.108  1.00  0.00     0.029 A 
ATOM     23  C   UNL A   1      42.235  27.465  27.105  1.00  0.00     0.049 A 
ATOM     24  H   UNL A   1      42.390  28.232  29.046  1.00  0.00     0.167 HD
ATOM     25  C   UNL A   1      42.054  28.752  33.321  1.00  0.00     0.037 A 
ATOM     26  C   UNL A   1      43.257  26.578  27.017  1.00  0.00     0.037 A 
ATOM     27  C   UNL A   1      43.145  29.630  32.985  1.00  0.00     0.049 A 
ATOM     28  C   UNL A   1      44.175  26.823  28.154  1.00  0.00     0.074 A 
ATOM     29  C   UNL A   1      43.304  30.998  32.880  1.00  0.00     0.029 A 
ATOM     30  N   UNL A   1      44.254  29.089  32.387  1.00  0.00    -0.354 N 
ATOM     31  N   UNL A   1      44.935  27.873  28.273  1.00  0.00    -0.248 NA
ATOM     32  C   UNL A   1      43.952  26.070  29.378  1.00  0.00     0.031 C 
ATOM     33  C   UNL A   1      44.218  31.181  31.800  1.00  0.00     0.029 A 
ATOM     34  C   UNL A   1      44.587  29.915  31.348  1.00  0.00     0.049 A 
ATOM     35  H   UNL A   1      44.720  28.264  32.653  1.00  0.00     0.167 HD
ATOM     36  C   UNL A   1      44.924  28.161  29.629  1.00  0.00     0.074 A 
ATOM     37  C   UNL A   1      44.394  26.960  30.269  1.00  0.00     0.031 C 
ATOM     38  C   UNL A   1      45.081  29.440  30.079  1.00  0.00     0.037 A 
BRANCH  25  39
ATOM     39  C   UNL A   1      42.246  27.543  34.216  1.00  0.00     0.057 A 
ATOM     40  C   UNL A   1      41.910  27.642  35.581  1.00  0.00     0.134 A 
ATOM     41  C   UNL A   1      43.031  26.420  33.882  1.00  0.00     0.134 A 
ATOM     42  F   UNL A   1      41.154  28.654  36.035  1.00  0.00    -0.206 F 
ATOM     43  C   UNL A   1      42.420  26.769  36.550  1.00  0.00     0.040 A 
ATOM     44  C   UNL A   1      43.503  25.512  34.836  1.00  0.00     0.040 A 
ATOM     45  F   UNL A   1      43.466  26.186  32.638  1.00  0.00    -0.206 F 
ATOM     46  C   UNL A   1      43.235  25.709  36.179  1.00  0.00     0.006 A 
ENDBRANCH  25  39
BRANCH  26  47
ATOM     47  C   UNL A   1      43.361  25.358  26.184  1.00  0.00     0.057 A 
ATOM     48  C   UNL A   1      44.421  25.175  25.284  1.00  0.00     0.134 A 
ATOM     49  C   UNL A   1      42.576  24.223  26.450  1.00  0.00     0.134 A 
ATOM     50  F   UNL A   1      45.256  26.186  24.999  1.00  0.00    -0.206 F 
ATOM     51  C   UNL A   1      44.698  23.931  24.701  1.00  0.00     0.040 A 
ATOM     52  C   UNL A   1      42.835  22.978  25.868  1.00  0.00     0.040 A 
ATOM     53  F   UNL A   1      41.588  24.262  27.355  1.00  0.00    -0.206 F 
ATOM     54  C   UNL A   1      43.909  22.824  25.000  1.00  0.00     0.006 A 
ENDBRANCH  26  47
BRANCH  38  55
ATOM     55  C   UNL A   1      45.543  30.480  29.101  1.00  0.00     0.057 A 
ATOM     56  C   UNL A   1      44.684  31.197  28.256  1.00  0.00     0.134 A 
ATOM     57  C   UNL A   1      46.885  30.876  29.124  1.00  0.00     0.134 A 
ATOM     58  F   UNL A   1      43.365  30.960  28.241  1.00  0.00    -0.206 F 
ATOM     59  C   UNL A   1      45.150  32.230  27.437  1.00  0.00     0.040 A 
ATOM     60  C   UNL A   1      47.356  31.929  28.338  1.00  0.00     0.040 A 
ATOM     61  F   UNL A   1      47.753  30.273  29.953  1.00  0.00    -0.206 F 
ATOM     62  C   UNL A   1      46.490  32.603  27.482  1.00  0.00     0.006 A 
ENDBRANCH  38  55
ENDBRANCH  12  13
ENDBRANCH   5   7
ENDBRANCH   2   3
ENDBRANCH   1   2
BRANCH   1  63
ATOM     63  C   UNL A   1      33.062  35.968  29.140  1.00  0.00     0.118 C 
BRANCH  63  64
ATOM     64  N   UNL A   1      33.106  37.058  30.099  1.00  0.00    -0.351 N 
ATOM     65  C   UNL A   1      33.242  37.023  31.470  1.00  0.00     0.273 C 
ATOM     66  H   UNL A   1      33.026  37.959  29.711  1.00  0.00     0.163 HD
ATOM     67  O   UNL A   1      33.081  38.059  32.101  1.00  0.00    -0.267 OA
BRANCH  65  68
ATOM     68  C   UNL A   1      33.566  35.757  32.104  1.00  0.00     0.170 A 
ATOM     69  C   UNL A   1      34.805  35.275  32.479  1.00  0.00     0.145 A 
ATOM     70  N   UNL A   1      32.610  34.839  32.458  1.00  0.00    -0.125 NA
ATOM     71  N   UNL A   1      34.543  34.025  32.956  1.00  0.00    -0.245 N 
ATOM     72  N   UNL A   1      33.224  33.776  32.961  1.00  0.00    -0.066 NA
BRANCH  71  73
ATOM     73  C   UNL A   1      35.471  33.060  33.446  1.00  0.00     0.148 C 
ATOM     74  C   UNL A   1      36.719  32.814  32.575  1.00  0.00     0.150 C 
ATOM     75  C   UNL A   1      36.465  33.657  34.469  1.00  0.00     0.150 C 
ATOM     76  N   UNL A   1      37.430  32.770  33.854  1.00  0.00    -0.320 N 
ATOM     77  C   UNL A   1      38.694  32.345  34.086  1.00  0.00     0.322 C 
ATOM     78  O   UNL A   1      39.360  31.832  33.181  1.00  0.00    -0.248 OA
ATOM     79  N   UNL A   1      39.307  32.588  35.274  1.00  0.00    -0.307 N 
ATOM     80  H   UNL A   1      40.291  32.566  35.237  1.00  0.00     0.171 HD
BRANCH  79  81
ATOM     81  C   UNL A   1      38.787  32.862  36.526  1.00  0.00     0.053 A 
ATOM     82  C   UNL A   1      38.839  34.090  37.248  1.00  0.00     0.038 A 
ATOM     83  C   UNL A   1      38.043  31.923  37.208  1.00  0.00     0.091 A 
ATOM     84  C   UNL A   1      38.328  33.974  38.522  1.00  0.00     0.067 A 
ATOM     85  S   UNL A   1      37.639  32.434  38.792  1.00  0.00    -0.150 S 
ENDBRANCH  79  81
ENDBRANCH  71  73
ENDBRANCH  65  68
ENDBRANCH  63  64
ENDBRANCH   1  63
TORSDOF 12
ENDMDL
MODEL 2
REMARK VINA RESULT:     -11.9      4.708     11.786
REMARK SMILES O=C(NCCCNC(=O)c1cn(C2CN(C(=O)Nc3ccsc3)C2)nn1)c1ccc(-c2c3nc(c(-c4c(F)cccc4F)c4ccc([nH]4)c(-c4c(F)cccc4F)c4nc(c(-c5c(F)cccc5F)c5ccc2[nH]5)C=C4)C=C3)cc1
REMARK SMILES IDX 5 1 4 2 3 3 1 4 2 5 27 7 28 8 80 9 29 10 79 11 30 12 31 13
REMARK SMILES IDX 32 14 73 15 33 16 78 17 72 18 74 19 34 20 77 21 71 22 70 23
REMARK SMILES IDX 35 25 61 26 44 27 60 28 45 29 48 30 59 31 75 32 46 33 47 34
REMARK SMILES IDX 58 36 76 37 49 38 36 39 37 40 42 41 38 42 39 43 41 44 43 45
REMARK SMILES IDX 40 46 62 47 63 48 68 49 64 50 65 51 67 52 69 53 66 54 50 55
REMARK SMILES IDX 51 56 56 57 52 58 53 59 55 60 57 61 54 62 6 63 7 64 8 65
REMARK SMILES IDX 9 67 10 68 11 69 26 70 12 71 25 72 13 73 14 74 24 75 15 76
REMARK SMILES IDX 16 77 17 78 18 79 19 81 20 82 23 83 21 84 22 85
REMARK H PARENT 3 6 74 24 48 35 7 66 18 80
REMARK Flexibility Score: inf
ROOT
ATOM      1  C   UNL A   1      42.250  19.121  27.309  1.00  0.00     0.042 C 
ENDROOT
BRANCH   1   2
ATOM      2  C   UNL A   1      41.852  20.582  27.515  1.00  0.00     0.118 C 
BRANCH   2   3
ATOM      3  N   UNL A   1      40.588  20.947  26.910  1.00  0.00    -0.352 N 
ATOM      4  O   UNL A   1      38.897  22.021  25.997  1.00  0.00    -0.269 OA
ATOM      5  C   UNL A   1      39.917  22.115  26.684  1.00  0.00     0.251 C 
ATOM      6  H   UNL A   1      40.091  20.163  26.581  1.00  0.00     0.163 HD
BRANCH   5   7
ATOM      7  C   UNL A   1      40.280  23.448  27.240  1.00  0.00     0.039 A 
ATOM      8  C   UNL A   1      41.464  23.769  27.903  1.00  0.00     0.014 A 
ATOM      9  C   UNL A   1      39.296  24.448  27.110  1.00  0.00     0.014 A 
ATOM     10  C   UNL A   1      41.627  25.022  28.494  1.00  0.00     0.010 A 
ATOM     11  C   UNL A   1      39.459  25.705  27.682  1.00  0.00     0.010 A 
ATOM     12  C   UNL A   1      40.613  25.979  28.406  1.00  0.00    -0.014 A 
BRANCH  12  13
ATOM     13  C   UNL A   1      40.862  27.310  28.962  1.00  0.00     0.031 A 
ATOM     14  C   UNL A   1      42.060  28.012  28.413  1.00  0.00     0.074 A 
ATOM     15  C   UNL A   1      39.998  27.953  29.774  1.00  0.00     0.049 A 
ATOM     16  N   UNL A   1      43.079  28.491  29.052  1.00  0.00    -0.248 NA
ATOM     17  C   UNL A   1      42.166  28.128  26.950  1.00  0.00     0.031 C 
ATOM     18  C   UNL A   1      38.643  27.544  30.151  1.00  0.00     0.029 A 
ATOM     19  N   UNL A   1      40.121  29.182  30.355  1.00  0.00    -0.354 N 
ATOM     20  C   UNL A   1      43.874  29.123  28.094  1.00  0.00     0.074 A 
ATOM     21  C   UNL A   1      43.332  28.759  26.812  1.00  0.00     0.031 C 
ATOM     22  C   UNL A   1      38.000  28.593  30.710  1.00  0.00     0.029 A 
ATOM     23  C   UNL A   1      38.931  29.701  30.848  1.00  0.00     0.049 A 
ATOM     24  H   UNL A   1      40.979  29.659  30.420  1.00  0.00     0.167 HD
ATOM     25  C   UNL A   1      44.794  30.068  28.435  1.00  0.00     0.037 A 
ATOM     26  C   UNL A   1      38.709  30.968  31.277  1.00  0.00     0.037 A 
ATOM     27  C   UNL A   1      45.174  29.955  29.819  1.00  0.00     0.049 A 
ATOM     28  C   UNL A   1      40.021  31.590  31.570  1.00  0.00     0.074 A 
ATOM     29  C   UNL A   1      45.741  28.968  30.601  1.00  0.00     0.029 A 
ATOM     30  N   UNL A   1      44.692  30.886  30.703  1.00  0.00    -0.354 N 
ATOM     31  N   UNL A   1      40.787  31.255  32.568  1.00  0.00    -0.248 NA
ATOM     32  C   UNL A   1      40.675  32.328  30.500  1.00  0.00     0.031 C 
ATOM     33  C   UNL A   1      45.125  29.112  31.880  1.00  0.00     0.029 A 
ATOM     34  C   UNL A   1      44.258  30.200  31.805  1.00  0.00     0.049 A 
ATOM     35  H   UNL A   1      44.663  31.861  30.570  1.00  0.00     0.167 HD
ATOM     36  C   UNL A   1      42.076  31.347  32.067  1.00  0.00     0.074 A 
ATOM     37  C   UNL A   1      41.950  32.112  30.829  1.00  0.00     0.031 C 
ATOM     38  C   UNL A   1      43.079  30.559  32.553  1.00  0.00     0.037 A 
BRANCH  25  39
ATOM     39  C   UNL A   1      45.061  31.326  27.631  1.00  0.00     0.057 A 
ATOM     40  C   UNL A   1      46.307  31.475  26.989  1.00  0.00     0.134 A 
ATOM     41  C   UNL A   1      44.302  32.510  27.727  1.00  0.00     0.134 A 
ATOM     42  F   UNL A   1      47.125  30.425  26.816  1.00  0.00    -0.206 F 
ATOM     43  C   UNL A   1      46.808  32.721  26.591  1.00  0.00     0.040 A 
ATOM     44  C   UNL A   1      44.772  33.752  27.286  1.00  0.00     0.040 A 
ATOM     45  F   UNL A   1      43.110  32.557  28.333  1.00  0.00    -0.206 F 
ATOM     46  C   UNL A   1      46.046  33.868  26.757  1.00  0.00     0.006 A 
ENDBRANCH  25  39
BRANCH  26  47
ATOM     47  C   UNL A   1      37.469  31.775  31.192  1.00  0.00     0.057 A 
ATOM     48  C   UNL A   1      37.020  32.298  29.971  1.00  0.00     0.134 A 
ATOM     49  C   UNL A   1      36.552  31.818  32.256  1.00  0.00     0.134 A 
ATOM     50  F   UNL A   1      37.804  32.262  28.884  1.00  0.00    -0.206 F 
ATOM     51  C   UNL A   1      35.726  32.814  29.812  1.00  0.00     0.040 A 
ATOM     52  C   UNL A   1      35.262  32.338  32.114  1.00  0.00     0.040 A 
ATOM     53  F   UNL A   1      36.845  31.273  33.445  1.00  0.00    -0.206 F 
ATOM     54  C   UNL A   1      34.838  32.826  30.883  1.00  0.00     0.006 A 
ENDBRANCH  26  47
BRANCH  38  55
ATOM     55  C   UNL A   1      42.825  29.798  33.822  1.00  0.00     0.057 A 
ATOM     56  C   UNL A   1      43.022  30.327  35.105  1.00  0.00     0.134 A 
ATOM     57  C   UNL A   1      42.216  28.540  33.740  1.00  0.00     0.134 A 
ATOM     58  F   UNL A   1      43.502  31.565  35.281  1.00  0.00    -0.206 F 
ATOM     59  C   UNL A   1      42.671  29.616  36.256  1.00  0.00     0.040 A 
ATOM     60  C   UNL A   1      41.829  27.835  34.881  1.00  0.00     0.040 A 
ATOM     61  F   UNL A   1      41.943  27.997  32.543  1.00  0.00    -0.206 F 
ATOM     62  C   UNL A   1      42.066  28.367  36.145  1.00  0.00     0.006 A 
ENDBRANCH  38  55
ENDBRANCH  12  13
ENDBRANCH   5   7
ENDBRANCH   2   3
ENDBRANCH   1   2
BRANCH   1  63
ATOM     63  C   UNL A   1      42.574  18.755  25.863  1.00  0.00     0.118 C 
BRANCH  63  64
ATOM     64  N   UNL A   1      43.943  18.307  25.688  1.00  0.00    -0.351 N 
ATOM     65  C   UNL A   1      45.025  18.962  25.138  1.00  0.00     0.273 C 
ATOM     66  H   UNL A   1      44.129  17.395  26.010  1.00  0.00     0.163 HD
ATOM     67  O   UNL A   1      46.051  18.330  24.934  1.00  0.00    -0.267 OA
BRANCH  65  68
ATOM     68  C   UNL A   1      44.893  20.374  24.822  1.00  0.00     0.170 A 
ATOM     69  C   UNL A   1      45.091  21.463  25.650  1.00  0.00     0.145 A 
ATOM     70  N   UNL A   1      44.564  20.827  23.570  1.00  0.00    -0.125 NA
ATOM     71  N   UNL A   1      44.766  22.533  24.871  1.00  0.00    -0.245 N 
ATOM     72  N   UNL A   1      44.472  22.148  23.619  1.00  0.00    -0.066 NA
BRANCH  71  73
ATOM     73  C   UNL A   1      44.757  23.912  25.234  1.00  0.00     0.148 C 
ATOM     74  C   UNL A   1      45.013  24.224  26.722  1.00  0.00     0.150 C 
ATOM     75  C   UNL A   1      46.120  24.600  24.991  1.00  0.00     0.150 C 
ATOM     76  N   UNL A   1      45.821  25.331  26.205  1.00  0.00    -0.320 N 
ATOM     77  C   UNL A   1      46.321  26.384  26.893  1.00  0.00     0.322 C 
ATOM     78  O   UNL A   1      46.029  26.554  28.081  1.00  0.00    -0.248 OA
ATOM     79  N   UNL A   1      47.254  27.201  26.339  1.00  0.00    -0.307 N 
ATOM     80  H   UNL A   1      47.799  27.698  26.991  1.00  0.00     0.171 HD
BRANCH  79  81
ATOM     81  C   UNL A   1      47.570  27.456  25.017  1.00  0.00     0.053 A 
ATOM     82  C   UNL A   1      46.779  28.127  24.040  1.00  0.00     0.038 A 
ATOM     83  C   UNL A   1      48.808  27.129  24.506  1.00  0.00     0.091 A 
ATOM     84  C   UNL A   1      47.351  28.094  22.786  1.00  0.00     0.067 A 
ATOM     85  S   UNL A   1      48.911  27.399  22.818  1.00  0.00    -0.150 S 
ENDBRANCH  79  81
ENDBRANCH  71  73
ENDBRANCH  65  68
ENDBRANCH  63  64
ENDBRANCH   1  63
TORSDOF 12
ENDMDL
MODEL 3
REMARK VINA RESULT:     -11.9      1.427      2.052
REMARK SMILES O=C(NCCCNC(=O)c1cn(C2CN(C(=O)Nc3ccsc3)C2)nn1)c1ccc(-c2c3nc(c(-c4c(F)cccc4F)c4ccc([nH]4)c(-c4c(F)cccc4F)c4nc(c(-c5c(F)cccc5F)c5ccc2[nH]5)C=C4)C=C3)cc1
REMARK SMILES IDX 5 1 4 2 3 3 1 4 2 5 27 7 28 8 80 9 29 10 79 11 30 12 31 13
REMARK SMILES IDX 32 14 73 15 33 16 78 17 72 18 74 19 34 20 77 21 71 22 70 23
REMARK SMILES IDX 35 25 61 26 44 27 60 28 45 29 48 30 59 31 75 32 46 33 47 34
REMARK SMILES IDX 58 36 76 37 49 38 36 39 37 40 42 41 38 42 39 43 41 44 43 45
REMARK SMILES IDX 40 46 62 47 63 48 68 49 64 50 65 51 67 52 69 53 66 54 50 55
REMARK SMILES IDX 51 56 56 57 52 58 53 59 55 60 57 61 54 62 6 63 7 64 8 65
REMARK SMILES IDX 9 67 10 68 11 69 26 70 12 71 25 72 13 73 14 74 24 75 15 76
REMARK SMILES IDX 16 77 17 78 18 79 19 81 20 82 23 83 21 84 22 85
REMARK H PARENT 3 6 74 24 48 35 7 66 18 80
REMARK Flexibility Score: inf
ROOT
ATOM      1  C   UNL A   1      34.410  35.424  28.422  1.00  0.00     0.042 C 
ENDROOT
BRANCH   1   2
ATOM      2  C   UNL A   1      35.262  34.160  28.516  1.00  0.00     0.118 C 
BRANCH   2   3
ATOM      3  N   UNL A   1      34.559  32.941  28.170  1.00  0.00    -0.352 N 
ATOM      4  O   UNL A   1      33.895  30.852  27.969  1.00  0.00    -0.269 OA
ATOM      5  C   UNL A   1      34.832  31.605  28.247  1.00  0.00     0.251 C 
ATOM      6  H   UNL A   1      33.670  33.118  27.788  1.00  0.00     0.163 HD
BRANCH   5   7
ATOM      7  C   UNL A   1      36.155  31.003  28.571  1.00  0.00     0.039 A 
ATOM      8  C   UNL A   1      37.194  31.625  29.265  1.00  0.00     0.014 A 
ATOM      9  C   UNL A   1      36.367  29.700  28.079  1.00  0.00     0.014 A 
ATOM     10  C   UNL A   1      38.434  31.000  29.389  1.00  0.00     0.010 A 
ATOM     11  C   UNL A   1      37.596  29.064  28.215  1.00  0.00     0.010 A 
ATOM     12  C   UNL A   1      38.643  29.732  28.841  1.00  0.00    -0.014 A 
BRANCH  12  13
ATOM     13  C   UNL A   1      39.930  29.075  29.072  1.00  0.00     0.031 A 
ATOM     14  C   UNL A   1      40.263  28.821  30.505  1.00  0.00     0.074 A 
ATOM     15  C   UNL A   1      40.697  28.566  28.085  1.00  0.00     0.049 A 
ATOM     16  N   UNL A   1      41.305  29.202  31.172  1.00  0.00    -0.248 NA
ATOM     17  C   UNL A   1      39.263  28.109  31.317  1.00  0.00     0.031 C 
ATOM     18  C   UNL A   1      40.369  28.447  26.663  1.00  0.00     0.029 A 
ATOM     19  N   UNL A   1      41.908  27.943  28.176  1.00  0.00    -0.354 N 
ATOM     20  C   UNL A   1      41.180  28.634  32.441  1.00  0.00     0.074 A 
ATOM     21  C   UNL A   1      39.853  28.084  32.512  1.00  0.00     0.031 C 
ATOM     22  C   UNL A   1      41.250  27.609  26.071  1.00  0.00     0.029 A 
ATOM     23  C   UNL A   1      42.272  27.238  27.037  1.00  0.00     0.049 A 
ATOM     24  H   UNL A   1      42.475  27.991  28.979  1.00  0.00     0.167 HD
ATOM     25  C   UNL A   1      42.253  28.476  33.266  1.00  0.00     0.037 A 
ATOM     26  C   UNL A   1      43.300  26.361  26.914  1.00  0.00     0.037 A 
ATOM     27  C   UNL A   1      43.326  29.367  32.907  1.00  0.00     0.049 A 
ATOM     28  C   UNL A   1      44.247  26.606  28.027  1.00  0.00     0.074 A 
ATOM     29  C   UNL A   1      43.469  30.737  32.807  1.00  0.00     0.029 A 
ATOM     30  N   UNL A   1      44.423  28.840  32.274  1.00  0.00    -0.354 N 
ATOM     31  N   UNL A   1      45.000  27.663  28.133  1.00  0.00    -0.248 NA
ATOM     32  C   UNL A   1      44.064  25.842  29.251  1.00  0.00     0.031 C 
ATOM     33  C   UNL A   1      44.351  30.936  31.704  1.00  0.00     0.029 A 
ATOM     34  C   UNL A   1      44.719  29.678  31.232  1.00  0.00     0.049 A 
ATOM     35  H   UNL A   1      44.904  28.018  32.520  1.00  0.00     0.167 HD
ATOM     36  C   UNL A   1      45.024  27.940  29.491  1.00  0.00     0.074 A 
ATOM     37  C   UNL A   1      44.523  26.729  30.135  1.00  0.00     0.031 C 
ATOM     38  C   UNL A   1      45.182  29.217  29.946  1.00  0.00     0.037 A 
BRANCH  25  39
ATOM     39  C   UNL A   1      42.481  27.262  34.145  1.00  0.00     0.057 A 
ATOM     40  C   UNL A   1      42.130  27.330  35.508  1.00  0.00     0.134 A 
ATOM     41  C   UNL A   1      43.309  26.173  33.803  1.00  0.00     0.134 A 
ATOM     42  F   UNL A   1      41.334  28.306  35.969  1.00  0.00    -0.206 F 
ATOM     43  C   UNL A   1      42.663  26.462  36.469  1.00  0.00     0.040 A 
ATOM     44  C   UNL A   1      43.805  25.269  34.748  1.00  0.00     0.040 A 
ATOM     45  F   UNL A   1      43.762  25.973  32.560  1.00  0.00    -0.206 F 
ATOM     46  C   UNL A   1      43.519  25.437  36.092  1.00  0.00     0.006 A 
ENDBRANCH  25  39
BRANCH  26  47
ATOM     47  C   UNL A   1      43.391  25.148  26.068  1.00  0.00     0.057 A 
ATOM     48  C   UNL A   1      44.446  24.968  25.162  1.00  0.00     0.134 A 
ATOM     49  C   UNL A   1      42.601  24.016  26.328  1.00  0.00     0.134 A 
ATOM     50  F   UNL A   1      45.285  25.976  24.882  1.00  0.00    -0.206 F 
ATOM     51  C   UNL A   1      44.711  23.728  24.565  1.00  0.00     0.040 A 
ATOM     52  C   UNL A   1      42.849  22.775  25.733  1.00  0.00     0.040 A 
ATOM     53  F   UNL A   1      41.618  24.053  27.239  1.00  0.00    -0.206 F 
ATOM     54  C   UNL A   1      43.918  22.623  24.858  1.00  0.00     0.006 A 
ENDBRANCH  26  47
BRANCH  38  55
ATOM     55  C   UNL A   1      45.607  30.269  28.963  1.00  0.00     0.057 A 
ATOM     56  C   UNL A   1      46.943  30.538  28.633  1.00  0.00     0.134 A 
ATOM     57  C   UNL A   1      44.623  30.925  28.215  1.00  0.00     0.134 A 
ATOM     58  F   UNL A   1      47.951  29.882  29.223  1.00  0.00    -0.206 F 
ATOM     59  C   UNL A   1      47.283  31.454  27.634  1.00  0.00     0.040 A 
ATOM     60  C   UNL A   1      44.950  31.816  27.190  1.00  0.00     0.040 A 
ATOM     61  F   UNL A   1      43.323  30.671  28.436  1.00  0.00    -0.206 F 
ATOM     62  C   UNL A   1      46.284  32.091  26.904  1.00  0.00     0.006 A 
ENDBRANCH  38  55
ENDBRANCH  12  13
ENDBRANCH   5   7
ENDBRANCH   2   3
ENDBRANCH   1   2
BRANCH   1  63
ATOM     63  C   UNL A   1      33.092  35.354  29.188  1.00  0.00     0.118 C 
BRANCH  63  64
ATOM     64  N   UNL A   1      32.846  36.531  30.001  1.00  0.00    -0.351 N 
ATOM     65  C   UNL A   1      33.058  36.736  31.347  1.00  0.00     0.273 C 
ATOM     66  H   UNL A   1      32.471  37.302  29.517  1.00  0.00     0.163 HD
ATOM     67  O   UNL A   1      32.619  37.755  31.862  1.00  0.00    -0.267 OA
BRANCH  65  68
ATOM     68  C   UNL A   1      33.792  35.729  32.095  1.00  0.00     0.170 A 
ATOM     69  C   UNL A   1      35.109  35.756  32.511  1.00  0.00     0.145 A 
ATOM     70  N   UNL A   1      33.215  34.565  32.535  1.00  0.00    -0.125 NA
ATOM     71  N   UNL A   1      35.294  34.542  33.102  1.00  0.00    -0.245 N 
ATOM     72  N   UNL A   1      34.150  33.840  33.133  1.00  0.00    -0.066 NA
BRANCH  71  73
ATOM     73  C   UNL A   1      36.488  34.019  33.679  1.00  0.00     0.148 C 
ATOM     74  C   UNL A   1      36.496  32.505  33.970  1.00  0.00     0.150 C 
ATOM     75  C   UNL A   1      37.564  33.686  32.619  1.00  0.00     0.150 C 
ATOM     76  N   UNL A   1      37.872  32.559  33.474  1.00  0.00    -0.320 N 
ATOM     77  C   UNL A   1      38.827  31.604  33.573  1.00  0.00     0.322 C 
ATOM     78  O   UNL A   1      38.622  30.576  34.225  1.00  0.00    -0.248 OA
ATOM     79  N   UNL A   1      39.978  31.690  32.856  1.00  0.00    -0.307 N 
ATOM     80  H   UNL A   1      40.436  30.830  32.716  1.00  0.00     0.171 HD
BRANCH  79  81
ATOM     81  C   UNL A   1      40.617  32.777  32.289  1.00  0.00     0.053 A 
ATOM     82  C   UNL A   1      40.686  33.133  30.910  1.00  0.00     0.038 A 
ATOM     83  C   UNL A   1      41.224  33.735  33.073  1.00  0.00     0.091 A 
ATOM     84  C   UNL A   1      41.513  34.213  30.686  1.00  0.00     0.067 A 
ATOM     85  S   UNL A   1      42.075  34.897  32.146  1.00  0.00    -0.150 S 
ENDBRANCH  79  81
ENDBRANCH  71  73
ENDBRANCH  65  68
ENDBRANCH  63  64
ENDBRANCH   1  63
TORSDOF 12
ENDMDL
