MODEL 1
REMARK VINA RESULT:     -12.0      0.000      0.000
REMARK SMILES Cc1ccc(N2C(=O)/C(=C\c3ccccc3O[C@H](C)C(=O)NCCCNC(=O)c3ccc(-c4c5nc(c(-c6c(F)cccc6F)c6ccc([nH]6)c(-c6c(F)cccc6F)c6nc(c(-c7c(F)cccc7F)c7ccc4[nH]7)C=C6)C=C5)cc3)SC2=S)c(C)c1
REMARK SMILES IDX 23 1 22 2 20 3 21 4 18 6 19 7 17 8 16 9 11 10 12 11 13 12
REMARK SMILES IDX 15 13 14 14 10 15 6 16 7 17 84 18 8 19 9 20 83 21 85 22 5 23
REMARK SMILES IDX 1 24 2 25 3 26 88 27 4 28 86 29 87 30 24 31 25 32 26 33
REMARK SMILES IDX 27 34 28 36 29 37 30 38 82 39 31 40 81 41 32 42 33 43 34 44
REMARK SMILES IDX 75 45 35 46 80 47 74 48 76 49 36 50 79 51 73 52 72 53 37 55
REMARK SMILES IDX 63 56 46 57 62 58 47 59 50 60 61 61 77 62 48 63 49 64 60 66
REMARK SMILES IDX 78 67 51 68 38 69 39 70 44 71 40 72 41 73 43 74 45 75 42 76
REMARK SMILES IDX 64 77 65 78 70 79 66 80 67 81 69 82 71 83 68 84 52 85 53 86
REMARK SMILES IDX 58 87 54 88 55 89 57 90 59 91 56 92
REMARK H PARENT 22 5 26 35 76 54 50 65
REMARK Flexibility Score: inf
ROOT
ATOM      1  C   UNL A   1      31.410  31.002  25.852  1.00  0.00     0.118 C 
ENDROOT
BRANCH   1   2
ATOM      2  N   UNL A   1      31.410  29.898  26.802  1.00  0.00    -0.353 N 
ATOM      3  C   UNL A   1      32.427  29.053  27.173  1.00  0.00     0.260 C 
ATOM      4  O   UNL A   1      32.187  28.225  28.056  1.00  0.00    -0.271 OA
ATOM      5  H   UNL A   1      30.548  29.732  27.246  1.00  0.00     0.163 HD
BRANCH   3   6
ATOM      6  C   UNL A   1      33.796  29.108  26.472  1.00  0.00     0.258 C 
ATOM      7  C   UNL A   1      34.879  29.162  27.543  1.00  0.00     0.064 C 
BRANCH   6   8
ATOM      8  O   UNL A   1      33.773  27.973  25.618  1.00  0.00    -0.480 OA
BRANCH   8   9
ATOM      9  C   UNL A   1      33.625  27.991  24.268  1.00  0.00     0.127 A 
ATOM     10  C   UNL A   1      32.413  27.424  23.809  1.00  0.00     0.018 A 
ATOM     11  C   UNL A   1      32.194  27.258  22.437  1.00  0.00     0.012 A 
ATOM     12  C   UNL A   1      33.148  27.698  21.523  1.00  0.00     0.001 A 
ATOM     13  C   UNL A   1      34.543  28.479  23.346  1.00  0.00     0.047 A 
ATOM     14  C   UNL A   1      34.308  28.325  21.976  1.00  0.00     0.004 A 
BRANCH  10  15
ATOM     15  C   UNL A   1      31.353  27.011  24.747  1.00  0.00     0.033 C 
ATOM     16  N   UNL A   1      31.569  23.457  25.623  1.00  0.00    -0.261 N 
ATOM     17  C   UNL A   1      32.101  24.590  25.012  1.00  0.00     0.270 C 
ATOM     18  C   UNL A   1      30.400  23.634  26.346  1.00  0.00     0.152 C 
ATOM     19  O   UNL A   1      33.139  24.642  24.364  1.00  0.00    -0.268 OA
ATOM     20  C   UNL A   1      31.213  25.771  25.245  1.00  0.00     0.081 C 
ATOM     21  S   UNL A   1      29.888  25.321  26.249  1.00  0.00    -0.054 SA
ATOM     22  S   UNL A   1      29.554  22.543  27.294  1.00  0.00    -0.051 S 
BRANCH  16  23
ATOM     23  C   UNL A   1      32.209  22.195  25.425  1.00  0.00     0.054 A 
ATOM     24  C   UNL A   1      34.349  18.558  24.465  1.00  0.00     0.044 C 
ATOM     25  C   UNL A   1      33.582  19.802  24.800  1.00  0.00    -0.051 A 
ATOM     26  C   UNL A   1      32.546  20.253  23.983  1.00  0.00     0.005 A 
ATOM     27  C   UNL A   1      33.913  20.540  25.941  1.00  0.00     0.009 A 
ATOM     28  C   UNL A   1      31.872  21.438  24.289  1.00  0.00     0.027 A 
ATOM     29  C   UNL A   1      33.230  21.724  26.277  1.00  0.00    -0.027 A 
ATOM     30  C   UNL A   1      33.646  22.416  27.549  1.00  0.00     0.046 C 
ENDBRANCH  16  23
ENDBRANCH  10  15
ENDBRANCH   8   9
ENDBRANCH   6   8
ENDBRANCH   3   6
ENDBRANCH   1   2
BRANCH   1  31
ATOM     31  C   UNL A   1      31.204  32.358  26.514  1.00  0.00     0.042 C 
BRANCH  31  32
ATOM     32  C   UNL A   1      32.438  32.888  27.231  1.00  0.00     0.118 C 
BRANCH  32  33
ATOM     33  N   UNL A   1      32.309  34.290  27.602  1.00  0.00    -0.352 N 
ATOM     34  C   UNL A   1      32.983  35.033  28.540  1.00  0.00     0.251 C 
ATOM     35  H   UNL A   1      31.627  34.788  27.097  1.00  0.00     0.163 HD
ATOM     36  O   UNL A   1      32.576  36.158  28.822  1.00  0.00    -0.269 OA
BRANCH  34  37
ATOM     37  C   UNL A   1      34.177  34.495  29.229  1.00  0.00     0.039 A 
ATOM     38  C   UNL A   1      34.025  33.944  30.506  1.00  0.00     0.014 A 
ATOM     39  C   UNL A   1      35.447  34.570  28.653  1.00  0.00     0.014 A 
ATOM     40  C   UNL A   1      35.132  33.411  31.171  1.00  0.00     0.010 A 
ATOM     41  C   UNL A   1      36.534  33.967  29.281  1.00  0.00     0.010 A 
ATOM     42  C   UNL A   1      36.390  33.386  30.550  1.00  0.00    -0.014 A 
BRANCH  42  43
ATOM     43  C   UNL A   1      37.568  32.767  31.208  1.00  0.00     0.031 A 
ATOM     44  C   UNL A   1      38.245  31.578  30.584  1.00  0.00     0.074 A 
ATOM     45  C   UNL A   1      37.983  33.228  32.404  1.00  0.00     0.049 A 
ATOM     46  N   UNL A   1      39.223  30.844  31.051  1.00  0.00    -0.248 NA
ATOM     47  C   UNL A   1      37.737  31.138  29.275  1.00  0.00     0.031 C 
ATOM     48  C   UNL A   1      37.384  34.346  33.136  1.00  0.00     0.029 A 
ATOM     49  N   UNL A   1      38.999  32.804  33.221  1.00  0.00    -0.354 N 
ATOM     50  C   UNL A   1      39.427  29.843  30.110  1.00  0.00     0.074 A 
ATOM     51  C   UNL A   1      38.448  30.040  29.063  1.00  0.00     0.031 C 
ATOM     52  C   UNL A   1      38.059  34.534  34.282  1.00  0.00     0.029 A 
ATOM     53  C   UNL A   1      39.111  33.527  34.384  1.00  0.00     0.049 A 
ATOM     54  H   UNL A   1      39.593  32.051  32.996  1.00  0.00     0.167 HD
ATOM     55  C   UNL A   1      40.359  28.860  30.108  1.00  0.00     0.037 A 
ATOM     56  C   UNL A   1      39.961  33.389  35.419  1.00  0.00     0.037 A 
ATOM     57  C   UNL A   1      41.363  28.692  31.125  1.00  0.00     0.049 A 
ATOM     58  C   UNL A   1      40.993  32.297  35.385  1.00  0.00     0.074 A 
ATOM     59  C   UNL A   1      42.400  27.777  31.169  1.00  0.00     0.029 A 
ATOM     60  N   UNL A   1      41.456  29.461  32.275  1.00  0.00    -0.354 N 
ATOM     61  N   UNL A   1      41.216  31.399  34.458  1.00  0.00    -0.248 NA
ATOM     62  C   UNL A   1      41.893  32.201  36.544  1.00  0.00     0.031 C 
ATOM     63  C   UNL A   1      43.101  27.969  32.365  1.00  0.00     0.029 A 
ATOM     64  C   UNL A   1      42.522  29.027  33.045  1.00  0.00     0.049 A 
ATOM     65  H   UNL A   1      40.854  30.203  32.509  1.00  0.00     0.167 HD
ATOM     66  C   UNL A   1      42.297  30.651  34.904  1.00  0.00     0.074 A 
ATOM     67  C   UNL A   1      42.691  31.207  36.183  1.00  0.00     0.031 C 
ATOM     68  C   UNL A   1      42.909  29.599  34.309  1.00  0.00     0.037 A 
BRANCH  55  69
ATOM     69  C   UNL A   1      40.340  27.889  28.965  1.00  0.00     0.057 A 
ATOM     70  C   UNL A   1      39.575  26.717  29.004  1.00  0.00     0.134 A 
ATOM     71  C   UNL A   1      41.062  28.151  27.793  1.00  0.00     0.134 A 
ATOM     72  F   UNL A   1      38.870  26.402  30.102  1.00  0.00    -0.206 F 
ATOM     73  C   UNL A   1      39.545  25.828  27.928  1.00  0.00     0.040 A 
ATOM     74  C   UNL A   1      41.021  27.283  26.702  1.00  0.00     0.040 A 
ATOM     75  F   UNL A   1      41.810  29.260  27.688  1.00  0.00    -0.206 F 
ATOM     76  C   UNL A   1      40.264  26.114  26.769  1.00  0.00     0.006 A 
ENDBRANCH  55  69
BRANCH  56  77
ATOM     77  C   UNL A   1      39.894  34.327  36.567  1.00  0.00     0.057 A 
ATOM     78  C   UNL A   1      39.146  34.012  37.707  1.00  0.00     0.134 A 
ATOM     79  C   UNL A   1      40.560  35.557  36.549  1.00  0.00     0.134 A 
ATOM     80  F   UNL A   1      38.471  32.856  37.772  1.00  0.00    -0.206 F 
ATOM     81  C   UNL A   1      39.046  34.896  38.781  1.00  0.00     0.040 A 
ATOM     82  C   UNL A   1      40.487  36.442  37.626  1.00  0.00     0.040 A 
ATOM     83  F   UNL A   1      41.298  35.913  35.488  1.00  0.00    -0.206 F 
ATOM     84  C   UNL A   1      39.722  36.114  38.744  1.00  0.00     0.006 A 
ENDBRANCH  56  77
BRANCH  68  85
ATOM     85  C   UNL A   1      44.091  29.007  35.014  1.00  0.00     0.057 A 
ATOM     86  C   UNL A   1      43.968  27.891  35.850  1.00  0.00     0.134 A 
ATOM     87  C   UNL A   1      45.373  29.538  34.824  1.00  0.00     0.134 A 
ATOM     88  F   UNL A   1      42.765  27.345  36.083  1.00  0.00    -0.206 F 
ATOM     89  C   UNL A   1      45.078  27.334  36.487  1.00  0.00     0.040 A 
ATOM     90  C   UNL A   1      46.493  28.977  35.437  1.00  0.00     0.040 A 
ATOM     91  F   UNL A   1      45.558  30.603  34.029  1.00  0.00    -0.206 F 
ATOM     92  C   UNL A   1      46.346  27.874  36.276  1.00  0.00     0.006 A 
ENDBRANCH  68  85
ENDBRANCH  42  43
ENDBRANCH  34  37
ENDBRANCH  32  33
ENDBRANCH  31  32
ENDBRANCH   1  31
TORSDOF 14
ENDMDL
MODEL 2
REMARK VINA RESULT:     -11.6      5.203     11.515
REMARK SMILES Cc1ccc(N2C(=O)/C(=C\c3ccccc3O[C@H](C)C(=O)NCCCNC(=O)c3ccc(-c4c5nc(c(-c6c(F)cccc6F)c6ccc([nH]6)c(-c6c(F)cccc6F)c6nc(c(-c7c(F)cccc7F)c7ccc4[nH]7)C=C6)C=C5)cc3)SC2=S)c(C)c1
REMARK SMILES IDX 23 1 22 2 20 3 21 4 18 6 19 7 17 8 16 9 11 10 12 11 13 12
REMARK SMILES IDX 15 13 14 14 10 15 6 16 7 17 84 18 8 19 9 20 83 21 85 22 5 23
REMARK SMILES IDX 1 24 2 25 3 26 88 27 4 28 86 29 87 30 24 31 25 32 26 33
REMARK SMILES IDX 27 34 28 36 29 37 30 38 82 39 31 40 81 41 32 42 33 43 34 44
REMARK SMILES IDX 75 45 35 46 80 47 74 48 76 49 36 50 79 51 73 52 72 53 37 55
REMARK SMILES IDX 63 56 46 57 62 58 47 59 50 60 61 61 77 62 48 63 49 64 60 66
REMARK SMILES IDX 78 67 51 68 38 69 39 70 44 71 40 72 41 73 43 74 45 75 42 76
REMARK SMILES IDX 64 77 65 78 70 79 66 80 67 81 69 82 71 83 68 84 52 85 53 86
REMARK SMILES IDX 58 87 54 88 55 89 57 90 59 91 56 92
REMARK H PARENT 22 5 26 35 76 54 50 65
REMARK Flexibility Score: inf
ROOT
ATOM      1  C   UNL A   1      34.683  33.115  30.841  1.00  0.00     0.118 C 
ENDROOT
BRANCH   1   2
ATOM      2  N   UNL A   1      35.050  34.018  31.923  1.00  0.00    -0.353 N 
ATOM      3  C   UNL A   1      36.271  34.243  32.509  1.00  0.00     0.260 C 
ATOM      4  O   UNL A   1      36.334  35.116  33.379  1.00  0.00    -0.271 OA
ATOM      5  H   UNL A   1      34.307  34.549  32.291  1.00  0.00     0.163 HD
BRANCH   3   6
ATOM      6  C   UNL A   1      37.499  33.396  32.129  1.00  0.00     0.258 C 
ATOM      7  C   UNL A   1      38.543  34.321  31.513  1.00  0.00     0.064 C 
BRANCH   6   8
ATOM      8  O   UNL A   1      37.835  32.741  33.343  1.00  0.00    -0.480 OA
BRANCH   8   9
ATOM      9  C   UNL A   1      38.564  31.601  33.462  1.00  0.00     0.127 A 
ATOM     10  C   UNL A   1      39.845  31.787  34.031  1.00  0.00     0.018 A 
ATOM     11  C   UNL A   1      40.747  30.719  34.087  1.00  0.00     0.012 A 
ATOM     12  C   UNL A   1      40.363  29.461  33.630  1.00  0.00     0.001 A 
ATOM     13  C   UNL A   1      38.172  30.329  33.064  1.00  0.00     0.047 A 
ATOM     14  C   UNL A   1      39.074  29.263  33.139  1.00  0.00     0.004 A 
BRANCH  10  15
ATOM     15  C   UNL A   1      40.259  33.089  34.587  1.00  0.00     0.033 C 
ATOM     16  N   UNL A   1      38.943  33.647  37.963  1.00  0.00    -0.261 N 
ATOM     17  C   UNL A   1      39.156  32.815  36.867  1.00  0.00     0.270 C 
ATOM     18  C   UNL A   1      39.510  34.911  37.902  1.00  0.00     0.152 C 
ATOM     19  O   UNL A   1      38.768  31.659  36.750  1.00  0.00    -0.268 OA
ATOM     20  C   UNL A   1      39.933  33.535  35.811  1.00  0.00     0.081 C 
ATOM     21  S   UNL A   1      40.350  35.113  36.363  1.00  0.00    -0.054 SA
ATOM     22  S   UNL A   1      39.563  36.116  39.063  1.00  0.00    -0.051 S 
BRANCH  16  23
ATOM     23  C   UNL A   1      38.121  33.186  39.038  1.00  0.00     0.054 A 
ATOM     24  C   UNL A   1      35.535  31.431  42.031  1.00  0.00     0.044 C 
ATOM     25  C   UNL A   1      36.417  32.066  40.997  1.00  0.00    -0.051 A 
ATOM     26  C   UNL A   1      35.886  32.596  39.822  1.00  0.00     0.005 A 
ATOM     27  C   UNL A   1      37.800  32.118  41.198  1.00  0.00     0.009 A 
ATOM     28  C   UNL A   1      36.728  33.144  38.852  1.00  0.00     0.027 A 
ATOM     29  C   UNL A   1      38.662  32.687  40.242  1.00  0.00    -0.027 A 
ATOM     30  C   UNL A   1      40.130  32.723  40.579  1.00  0.00     0.046 C 
ENDBRANCH  16  23
ENDBRANCH  10  15
ENDBRANCH   8   9
ENDBRANCH   6   8
ENDBRANCH   3   6
ENDBRANCH   1   2
BRANCH   1  31
ATOM     31  C   UNL A   1      34.559  33.817  29.495  1.00  0.00     0.042 C 
BRANCH  31  32
ATOM     32  C   UNL A   1      35.017  32.973  28.314  1.00  0.00     0.118 C 
BRANCH  32  33
ATOM     33  N   UNL A   1      34.186  31.796  28.112  1.00  0.00    -0.352 N 
ATOM     34  C   UNL A   1      34.525  30.472  27.983  1.00  0.00     0.251 C 
ATOM     35  H   UNL A   1      33.220  31.979  28.058  1.00  0.00     0.163 HD
ATOM     36  O   UNL A   1      33.672  29.664  27.622  1.00  0.00    -0.269 OA
BRANCH  34  37
ATOM     37  C   UNL A   1      35.903  30.005  28.254  1.00  0.00     0.039 A 
ATOM     38  C   UNL A   1      36.860  30.108  27.238  1.00  0.00     0.014 A 
ATOM     39  C   UNL A   1      36.251  29.425  29.476  1.00  0.00     0.014 A 
ATOM     40  C   UNL A   1      38.173  29.694  27.471  1.00  0.00     0.010 A 
ATOM     41  C   UNL A   1      37.577  29.087  29.735  1.00  0.00     0.010 A 
ATOM     42  C   UNL A   1      38.551  29.213  28.734  1.00  0.00    -0.014 A 
BRANCH  42  43
ATOM     43  C   UNL A   1      39.955  28.827  29.028  1.00  0.00     0.031 A 
ATOM     44  C   UNL A   1      40.875  29.794  29.720  1.00  0.00     0.074 A 
ATOM     45  C   UNL A   1      40.422  27.636  28.608  1.00  0.00     0.049 A 
ATOM     46  N   UNL A   1      42.154  29.679  29.978  1.00  0.00    -0.248 NA
ATOM     47  C   UNL A   1      40.289  31.073  30.154  1.00  0.00     0.031 C 
ATOM     48  C   UNL A   1      39.643  26.626  27.888  1.00  0.00     0.029 A 
ATOM     49  N   UNL A   1      41.670  27.077  28.714  1.00  0.00    -0.354 N 
ATOM     50  C   UNL A   1      42.528  30.875  30.576  1.00  0.00     0.074 A 
ATOM     51  C   UNL A   1      41.353  31.718  30.609  1.00  0.00     0.031 C 
ATOM     52  C   UNL A   1      40.424  25.563  27.638  1.00  0.00     0.029 A 
ATOM     53  C   UNL A   1      41.767  25.830  28.145  1.00  0.00     0.049 A 
ATOM     54  H   UNL A   1      42.426  27.527  29.157  1.00  0.00     0.167 HD
ATOM     55  C   UNL A   1      43.737  31.232  31.070  1.00  0.00     0.037 A 
ATOM     56  C   UNL A   1      42.821  25.000  28.038  1.00  0.00     0.037 A 
ATOM     57  C   UNL A   1      44.894  30.377  31.080  1.00  0.00     0.049 A 
ATOM     58  C   UNL A   1      44.149  25.416  28.606  1.00  0.00     0.074 A 
ATOM     59  C   UNL A   1      46.141  30.618  31.632  1.00  0.00     0.029 A 
ATOM     60  N   UNL A   1      44.945  29.112  30.514  1.00  0.00    -0.354 N 
ATOM     61  N   UNL A   1      44.471  26.525  29.226  1.00  0.00    -0.248 NA
ATOM     62  C   UNL A   1      45.259  24.464  28.459  1.00  0.00     0.031 C 
ATOM     63  C   UNL A   1      46.957  29.513  31.368  1.00  0.00     0.029 A 
ATOM     64  C   UNL A   1      46.207  28.569  30.686  1.00  0.00     0.049 A 
ATOM     65  H   UNL A   1      44.194  28.667  30.058  1.00  0.00     0.167 HD
ATOM     66  C   UNL A   1      45.810  26.392  29.570  1.00  0.00     0.074 A 
ATOM     67  C   UNL A   1      46.237  25.092  29.096  1.00  0.00     0.031 C 
ATOM     68  C   UNL A   1      46.613  27.269  30.220  1.00  0.00     0.037 A 
BRANCH  55  69
ATOM     69  C   UNL A   1      43.871  32.610  31.648  1.00  0.00     0.057 A 
ATOM     70  C   UNL A   1      43.807  32.842  33.028  1.00  0.00     0.134 A 
ATOM     71  C   UNL A   1      44.110  33.712  30.818  1.00  0.00     0.134 A 
ATOM     72  F   UNL A   1      43.568  31.830  33.877  1.00  0.00    -0.206 F 
ATOM     73  C   UNL A   1      43.953  34.124  33.561  1.00  0.00     0.040 A 
ATOM     74  C   UNL A   1      44.282  34.995  31.340  1.00  0.00     0.040 A 
ATOM     75  F   UNL A   1      44.189  33.558  29.488  1.00  0.00    -0.206 F 
ATOM     76  C   UNL A   1      44.199  35.204  32.715  1.00  0.00     0.006 A 
ENDBRANCH  55  69
BRANCH  56  77
ATOM     77  C   UNL A   1      42.662  23.675  27.388  1.00  0.00     0.057 A 
ATOM     78  C   UNL A   1      42.831  23.529  26.007  1.00  0.00     0.134 A 
ATOM     79  C   UNL A   1      42.327  22.533  28.124  1.00  0.00     0.134 A 
ATOM     80  F   UNL A   1      43.133  24.593  25.249  1.00  0.00    -0.206 F 
ATOM     81  C   UNL A   1      42.653  22.298  25.376  1.00  0.00     0.040 A 
ATOM     82  C   UNL A   1      42.167  21.290  27.509  1.00  0.00     0.040 A 
ATOM     83  F   UNL A   1      42.157  22.608  29.452  1.00  0.00    -0.206 F 
ATOM     84  C   UNL A   1      42.324  21.172  26.129  1.00  0.00     0.006 A 
ENDBRANCH  56  77
BRANCH  68  85
ATOM     85  C   UNL A   1      48.021  26.835  30.491  1.00  0.00     0.057 A 
ATOM     86  C   UNL A   1      49.074  27.173  29.633  1.00  0.00     0.134 A 
ATOM     87  C   UNL A   1      48.331  26.102  31.643  1.00  0.00     0.134 A 
ATOM     88  F   UNL A   1      48.840  27.862  28.506  1.00  0.00    -0.206 F 
ATOM     89  C   UNL A   1      50.387  26.781  29.904  1.00  0.00     0.040 A 
ATOM     90  C   UNL A   1      49.641  25.723  31.936  1.00  0.00     0.040 A 
ATOM     91  F   UNL A   1      47.367  25.753  32.508  1.00  0.00    -0.206 F 
ATOM     92  C   UNL A   1      50.673  26.059  31.062  1.00  0.00     0.006 A 
ENDBRANCH  68  85
ENDBRANCH  42  43
ENDBRANCH  34  37
ENDBRANCH  32  33
ENDBRANCH  31  32
ENDBRANCH   1  31
TORSDOF 14
ENDMDL
MODEL 3
REMARK VINA RESULT:     -11.3      5.799     10.997
REMARK SMILES Cc1ccc(N2C(=O)/C(=C\c3ccccc3O[C@H](C)C(=O)NCCCNC(=O)c3ccc(-c4c5nc(c(-c6c(F)cccc6F)c6ccc([nH]6)c(-c6c(F)cccc6F)c6nc(c(-c7c(F)cccc7F)c7ccc4[nH]7)C=C6)C=C5)cc3)SC2=S)c(C)c1
REMARK SMILES IDX 23 1 22 2 20 3 21 4 18 6 19 7 17 8 16 9 11 10 12 11 13 12
REMARK SMILES IDX 15 13 14 14 10 15 6 16 7 17 84 18 8 19 9 20 83 21 85 22 5 23
REMARK SMILES IDX 1 24 2 25 3 26 88 27 4 28 86 29 87 30 24 31 25 32 26 33
REMARK SMILES IDX 27 34 28 36 29 37 30 38 82 39 31 40 81 41 32 42 33 43 34 44
REMARK SMILES IDX 75 45 35 46 80 47 74 48 76 49 36 50 79 51 73 52 72 53 37 55
REMARK SMILES IDX 63 56 46 57 62 58 47 59 50 60 61 61 77 62 48 63 49 64 60 66
REMARK SMILES IDX 78 67 51 68 38 69 39 70 44 71 40 72 41 73 43 74 45 75 42 76
REMARK SMILES IDX 64 77 65 78 70 79 66 80 67 81 69 82 71 83 68 84 52 85 53 86
REMARK SMILES IDX 58 87 54 88 55 89 57 90 59 91 56 92
REMARK H PARENT 22 5 26 35 76 54 50 65
REMARK Flexibility Score: inf
ROOT
ATOM      1  C   UNL A   1      42.342  21.807  27.606  1.00  0.00     0.118 C 
ENDROOT
BRANCH   1   2
ATOM      2  N   UNL A   1      42.853  22.010  28.954  1.00  0.00    -0.353 N 
ATOM      3  C   UNL A   1      43.579  23.052  29.475  1.00  0.00     0.260 C 
ATOM      4  O   UNL A   1      43.843  23.018  30.681  1.00  0.00    -0.271 OA
ATOM      5  H   UNL A   1      42.645  21.288  29.591  1.00  0.00     0.163 HD
BRANCH   3   6
ATOM      6  C   UNL A   1      44.088  24.190  28.573  1.00  0.00     0.258 C 
ATOM      7  C   UNL A   1      44.057  25.486  29.375  1.00  0.00     0.064 C 
BRANCH   6   8
ATOM      8  O   UNL A   1      45.355  23.720  28.134  1.00  0.00    -0.480 OA
BRANCH   8   9
ATOM      9  C   UNL A   1      45.813  23.730  26.856  1.00  0.00     0.127 A 
ATOM     10  C   UNL A   1      46.988  24.494  26.666  1.00  0.00     0.018 A 
ATOM     11  C   UNL A   1      47.490  24.698  25.375  1.00  0.00     0.012 A 
ATOM     12  C   UNL A   1      46.860  24.104  24.285  1.00  0.00     0.001 A 
ATOM     13  C   UNL A   1      45.229  23.096  25.767  1.00  0.00     0.047 A 
ATOM     14  C   UNL A   1      45.746  23.290  24.482  1.00  0.00     0.004 A 
BRANCH  10  15
ATOM     15  C   UNL A   1      47.718  25.079  27.806  1.00  0.00     0.033 C 
ATOM     16  N   UNL A   1      46.937  28.627  28.296  1.00  0.00    -0.261 N 
ATOM     17  C   UNL A   1      46.697  27.408  27.667  1.00  0.00     0.270 C 
ATOM     18  C   UNL A   1      47.886  28.627  29.306  1.00  0.00     0.152 C 
ATOM     19  O   UNL A   1      45.876  27.200  26.781  1.00  0.00    -0.268 OA
ATOM     20  C   UNL A   1      47.602  26.352  28.217  1.00  0.00     0.081 C 
ATOM     21  S   UNL A   1      48.565  27.008  29.485  1.00  0.00    -0.054 SA
ATOM     22  S   UNL A   1      48.342  29.859  30.344  1.00  0.00    -0.051 S 
BRANCH  16  23
ATOM     23  C   UNL A   1      46.253  29.794  27.835  1.00  0.00     0.054 A 
ATOM     24  C   UNL A   1      44.069  33.089  26.073  1.00  0.00     0.044 C 
ATOM     25  C   UNL A   1      44.849  31.966  26.689  1.00  0.00    -0.051 A 
ATOM     26  C   UNL A   1      46.057  31.540  26.139  1.00  0.00     0.005 A 
ATOM     27  C   UNL A   1      44.357  31.316  27.826  1.00  0.00     0.009 A 
ATOM     28  C   UNL A   1      46.748  30.464  26.702  1.00  0.00     0.027 A 
ATOM     29  C   UNL A   1      45.051  30.245  28.420  1.00  0.00    -0.027 A 
ATOM     30  C   UNL A   1      44.447  29.645  29.663  1.00  0.00     0.046 C 
ENDBRANCH  16  23
ENDBRANCH  10  15
ENDBRANCH   8   9
ENDBRANCH   6   8
ENDBRANCH   3   6
ENDBRANCH   1   2
BRANCH   1  31
ATOM     31  C   UNL A   1      40.820  21.790  27.541  1.00  0.00     0.042 C 
BRANCH  31  32
ATOM     32  C   UNL A   1      40.208  23.106  27.083  1.00  0.00     0.118 C 
BRANCH  32  33
ATOM     33  N   UNL A   1      41.036  23.799  26.108  1.00  0.00    -0.352 N 
ATOM     34  C   UNL A   1      41.403  25.120  26.023  1.00  0.00     0.251 C 
ATOM     35  H   UNL A   1      41.393  23.228  25.391  1.00  0.00     0.163 HD
ATOM     36  O   UNL A   1      41.953  25.527  25.002  1.00  0.00    -0.269 OA
BRANCH  34  37
ATOM     37  C   UNL A   1      41.132  26.062  27.132  1.00  0.00     0.039 A 
ATOM     38  C   UNL A   1      40.229  25.683  28.131  1.00  0.00     0.014 A 
ATOM     39  C   UNL A   1      41.719  27.329  27.173  1.00  0.00     0.014 A 
ATOM     40  C   UNL A   1      39.969  26.543  29.200  1.00  0.00     0.010 A 
ATOM     41  C   UNL A   1      41.521  28.153  28.278  1.00  0.00     0.010 A 
ATOM     42  C   UNL A   1      40.640  27.772  29.301  1.00  0.00    -0.014 A 
BRANCH  42  43
ATOM     43  C   UNL A   1      40.431  28.676  30.460  1.00  0.00     0.031 A 
ATOM     44  C   UNL A   1      39.372  29.742  30.406  1.00  0.00     0.074 A 
ATOM     45  C   UNL A   1      41.243  28.586  31.532  1.00  0.00     0.049 A 
ATOM     46  N   UNL A   1      39.102  30.685  31.274  1.00  0.00    -0.248 NA
ATOM     47  C   UNL A   1      38.522  29.772  29.205  1.00  0.00     0.031 C 
ATOM     48  C   UNL A   1      42.336  27.624  31.689  1.00  0.00     0.029 A 
ATOM     49  N   UNL A   1      41.282  29.323  32.687  1.00  0.00    -0.354 N 
ATOM     50  C   UNL A   1      38.075  31.433  30.713  1.00  0.00     0.074 A 
ATOM     51  C   UNL A   1      37.794  30.860  29.415  1.00  0.00     0.031 C 
ATOM     52  C   UNL A   1      42.922  27.816  32.881  1.00  0.00     0.029 A 
ATOM     53  C   UNL A   1      42.274  28.936  33.556  1.00  0.00     0.049 A 
ATOM     54  H   UNL A   1      40.659  30.062  32.877  1.00  0.00     0.167 HD
ATOM     55  C   UNL A   1      37.412  32.489  31.241  1.00  0.00     0.037 A 
ATOM     56  C   UNL A   1      42.625  29.433  34.756  1.00  0.00     0.037 A 
ATOM     57  C   UNL A   1      37.659  33.030  32.551  1.00  0.00     0.049 A 
ATOM     58  C   UNL A   1      41.864  30.599  35.323  1.00  0.00     0.074 A 
ATOM     59  C   UNL A   1      36.984  34.046  33.206  1.00  0.00     0.029 A 
ATOM     60  N   UNL A   1      38.657  32.594  33.409  1.00  0.00    -0.354 N 
ATOM     61  N   UNL A   1      40.853  31.255  34.809  1.00  0.00    -0.248 NA
ATOM     62  C   UNL A   1      42.295  31.093  36.639  1.00  0.00     0.031 C 
ATOM     63  C   UNL A   1      37.597  34.249  34.446  1.00  0.00     0.029 A 
ATOM     64  C   UNL A   1      38.629  33.334  34.579  1.00  0.00     0.049 A 
ATOM     65  H   UNL A   1      39.291  31.866  33.214  1.00  0.00     0.167 HD
ATOM     66  C   UNL A   1      40.507  32.217  35.748  1.00  0.00     0.074 A 
ATOM     67  C   UNL A   1      41.411  32.054  36.868  1.00  0.00     0.031 C 
ATOM     68  C   UNL A   1      39.528  33.151  35.689  1.00  0.00     0.037 A 
BRANCH  55  69
ATOM     69  C   UNL A   1      36.349  33.131  30.399  1.00  0.00     0.057 A 
ATOM     70  C   UNL A   1      36.664  34.006  29.351  1.00  0.00     0.134 A 
ATOM     71  C   UNL A   1      34.996  32.836  30.611  1.00  0.00     0.134 A 
ATOM     72  F   UNL A   1      37.940  34.338  29.105  1.00  0.00    -0.206 F 
ATOM     73  C   UNL A   1      35.670  34.583  28.558  1.00  0.00     0.040 A 
ATOM     74  C   UNL A   1      33.996  33.388  29.809  1.00  0.00     0.040 A 
ATOM     75  F   UNL A   1      34.627  32.001  31.593  1.00  0.00    -0.206 F 
ATOM     76  C   UNL A   1      34.331  34.268  28.782  1.00  0.00     0.006 A 
ENDBRANCH  55  69
BRANCH  56  77
ATOM     77  C   UNL A   1      43.735  28.814  35.522  1.00  0.00     0.057 A 
ATOM     78  C   UNL A   1      45.058  29.228  35.327  1.00  0.00     0.134 A 
ATOM     79  C   UNL A   1      43.506  27.794  36.451  1.00  0.00     0.134 A 
ATOM     80  F   UNL A   1      45.340  30.188  34.435  1.00  0.00    -0.206 F 
ATOM     81  C   UNL A   1      46.117  28.634  36.015  1.00  0.00     0.040 A 
ATOM     82  C   UNL A   1      44.554  27.206  37.163  1.00  0.00     0.040 A 
ATOM     83  F   UNL A   1      42.260  27.358  36.687  1.00  0.00    -0.206 F 
ATOM     84  C   UNL A   1      45.865  27.622  36.940  1.00  0.00     0.006 A 
ENDBRANCH  56  77
BRANCH  68  85
ATOM     85  C   UNL A   1      39.358  34.042  36.881  1.00  0.00     0.057 A 
ATOM     86  C   UNL A   1      38.663  33.624  38.021  1.00  0.00     0.134 A 
ATOM     87  C   UNL A   1      39.930  35.321  36.901  1.00  0.00     0.134 A 
ATOM     88  F   UNL A   1      38.081  32.415  38.058  1.00  0.00    -0.206 F 
ATOM     89  C   UNL A   1      38.527  34.454  39.136  1.00  0.00     0.040 A 
ATOM     90  C   UNL A   1      39.820  36.151  38.017  1.00  0.00     0.040 A 
ATOM     91  F   UNL A   1      40.615  35.778  35.843  1.00  0.00    -0.206 F 
ATOM     92  C   UNL A   1      39.111  35.719  39.137  1.00  0.00     0.006 A 
ENDBRANCH  68  85
ENDBRANCH  42  43
ENDBRANCH  34  37
ENDBRANCH  32  33
ENDBRANCH  31  32
ENDBRANCH   1  31
TORSDOF 14
ENDMDL
