MODEL 1
REMARK VINA RESULT:     -11.6      0.000      0.000
REMARK SMILES CN1CC(=O)N(CC(=O)N2CCCC[C@H]2C(=O)NCCCNC(=O)c2ccc(-c3c4nc(c(-c5c(F)cccc5F)c5ccc([nH]5)c(-c5c(F)cccc5F)c5nc(c(-c6c(F)cccc6F)c6ccc3[nH]6)C=C5)C=C4)cc2)C1=O
REMARK SMILES IDX 19 1 18 2 16 3 17 4 15 6 10 7 11 8 12 9 14 10 13 11 8 12
REMARK SMILES IDX 9 13 7 14 6 15 1 16 2 17 3 18 79 19 4 20 80 21 5 22 20 23
REMARK SMILES IDX 21 24 22 25 23 26 24 28 25 29 26 30 78 31 27 32 77 33 28 34
REMARK SMILES IDX 29 35 30 36 71 37 31 38 76 39 70 40 72 41 32 42 75 43 69 44
REMARK SMILES IDX 68 45 33 47 59 48 42 49 58 50 43 51 46 52 57 53 73 54 44 55
REMARK SMILES IDX 45 56 56 58 74 59 47 60 34 61 35 62 40 63 36 64 37 65 39 66
REMARK SMILES IDX 41 67 38 68 60 69 61 70 66 71 62 72 63 73 65 74 67 75 64 76
REMARK SMILES IDX 48 77 49 78 54 79 50 80 51 81 53 82 55 83 52 84
REMARK H PARENT 18 5 22 27 72 46 46 57
REMARK Flexibility Score: inf
ROOT
ATOM      1  C   UNL A   1      36.919  20.681  24.876  1.00  0.00     0.117 C 
ENDROOT
BRANCH   1   2
ATOM      2  N   UNL A   1      37.337  22.036  25.130  1.00  0.00    -0.354 N 
ATOM      3  C   UNL A   1      36.650  23.120  25.570  1.00  0.00     0.242 C 
ATOM      4  O   UNL A   1      37.346  23.995  26.105  1.00  0.00    -0.273 OA
ATOM      5  H   UNL A   1      38.290  22.206  24.953  1.00  0.00     0.163 HD
BRANCH   3   6
ATOM      6  C   UNL A   1      35.101  23.258  25.620  1.00  0.00     0.174 C 
ATOM      7  N   UNL A   1      34.252  22.726  24.539  1.00  0.00    -0.329 N 
ATOM      8  C   UNL A   1      33.712  21.373  24.689  1.00  0.00     0.120 C 
ATOM      9  C   UNL A   1      33.324  20.946  26.104  1.00  0.00     0.022 C 
ATOM     10  C   UNL A   1      34.541  22.952  27.014  1.00  0.00     0.035 C 
ATOM     11  C   UNL A   1      34.174  21.499  27.239  1.00  0.00     0.004 C 
BRANCH   7  12
ATOM     12  C   UNL A   1      33.951  23.369  23.334  1.00  0.00     0.243 C 
ATOM     13  O   UNL A   1      34.751  23.279  22.386  1.00  0.00    -0.273 OA
BRANCH  12  14
ATOM     14  C   UNL A   1      32.785  24.360  23.134  1.00  0.00     0.230 C 
BRANCH  14  15
ATOM     15  N   UNL A   1      33.009  25.783  23.124  1.00  0.00    -0.253 N 
ATOM     16  C   UNL A   1      33.322  29.001  24.729  1.00  0.00     0.149 C 
ATOM     17  N   UNL A   1      33.330  27.855  23.853  1.00  0.00    -0.318 N 
ATOM     18  C   UNL A   1      33.539  27.962  22.430  1.00  0.00     0.221 C 
ATOM     19  C   UNL A   1      33.109  26.550  24.252  1.00  0.00     0.327 C 
ATOM     20  C   UNL A   1      33.309  26.517  22.013  1.00  0.00     0.250 C 
ATOM     21  O   UNL A   1      33.029  26.151  25.399  1.00  0.00    -0.248 OA
ATOM     22  O   UNL A   1      33.376  26.104  20.864  1.00  0.00    -0.272 OA
ENDBRANCH  14  15
ENDBRANCH  12  14
ENDBRANCH   7  12
ENDBRANCH   3   6
ENDBRANCH   1   2
BRANCH   1  23
ATOM     23  C   UNL A   1      38.053  19.677  24.948  1.00  0.00     0.042 C 
BRANCH  23  24
ATOM     24  C   UNL A   1      39.082  20.038  26.003  1.00  0.00     0.118 C 
BRANCH  24  25
ATOM     25  N   UNL A   1      40.292  19.225  25.886  1.00  0.00    -0.352 N 
ATOM     26  C   UNL A   1      41.614  19.582  25.983  1.00  0.00     0.251 C 
ATOM     27  H   UNL A   1      40.133  18.269  25.711  1.00  0.00     0.163 HD
ATOM     28  O   UNL A   1      42.486  18.796  25.623  1.00  0.00    -0.269 OA
BRANCH  26  29
ATOM     29  C   UNL A   1      41.987  20.911  26.506  1.00  0.00     0.039 A 
ATOM     30  C   UNL A   1      42.357  21.922  25.616  1.00  0.00     0.014 A 
ATOM     31  C   UNL A   1      41.980  21.156  27.880  1.00  0.00     0.014 A 
ATOM     32  C   UNL A   1      42.654  23.194  26.105  1.00  0.00     0.010 A 
ATOM     33  C   UNL A   1      42.150  22.448  28.352  1.00  0.00     0.010 A 
ATOM     34  C   UNL A   1      42.516  23.475  27.472  1.00  0.00    -0.014 A 
BRANCH  34  35
ATOM     35  C   UNL A   1      42.781  24.825  28.022  1.00  0.00     0.031 A 
ATOM     36  C   UNL A   1      44.178  25.205  28.429  1.00  0.00     0.074 A 
ATOM     37  C   UNL A   1      41.758  25.676  28.222  1.00  0.00     0.049 A 
ATOM     38  N   UNL A   1      44.609  26.308  28.987  1.00  0.00    -0.248 NA
ATOM     39  C   UNL A   1      45.227  24.194  28.215  1.00  0.00     0.031 C 
ATOM     40  C   UNL A   1      40.353  25.398  27.916  1.00  0.00     0.029 A 
ATOM     41  N   UNL A   1      41.742  26.948  28.732  1.00  0.00    -0.354 N 
ATOM     42  C   UNL A   1      45.966  26.113  29.205  1.00  0.00     0.074 A 
ATOM     43  C   UNL A   1      46.272  24.761  28.795  1.00  0.00     0.031 C 
ATOM     44  C   UNL A   1      39.619  26.485  28.201  1.00  0.00     0.029 A 
ATOM     45  C   UNL A   1      40.492  27.516  28.752  1.00  0.00     0.049 A 
ATOM     46  H   UNL A   1      42.550  27.410  29.054  1.00  0.00     0.167 HD
ATOM     47  C   UNL A   1      46.885  26.991  29.675  1.00  0.00     0.037 A 
ATOM     48  C   UNL A   1      40.098  28.734  29.167  1.00  0.00     0.037 A 
ATOM     49  C   UNL A   1      46.571  28.339  30.066  1.00  0.00     0.049 A 
ATOM     50  C   UNL A   1      41.127  29.686  29.708  1.00  0.00     0.074 A 
ATOM     51  C   UNL A   1      47.427  29.333  30.503  1.00  0.00     0.029 A 
ATOM     52  N   UNL A   1      45.291  28.878  30.077  1.00  0.00    -0.354 N 
ATOM     53  N   UNL A   1      42.422  29.519  29.842  1.00  0.00    -0.248 NA
ATOM     54  C   UNL A   1      40.641  30.998  30.153  1.00  0.00     0.031 C 
ATOM     55  C   UNL A   1      46.658  30.455  30.832  1.00  0.00     0.029 A 
ATOM     56  C   UNL A   1      45.331  30.182  30.542  1.00  0.00     0.049 A 
ATOM     57  H   UNL A   1      44.477  28.403  29.795  1.00  0.00     0.167 HD
ATOM     58  C   UNL A   1      42.910  30.713  30.356  1.00  0.00     0.074 A 
ATOM     59  C   UNL A   1      41.771  31.598  30.499  1.00  0.00     0.031 C 
ATOM     60  C   UNL A   1      44.184  31.047  30.678  1.00  0.00     0.037 A 
BRANCH  47  61
ATOM     61  C   UNL A   1      48.302  26.503  29.791  1.00  0.00     0.057 A 
ATOM     62  C   UNL A   1      48.773  25.851  30.940  1.00  0.00     0.134 A 
ATOM     63  C   UNL A   1      49.216  26.705  28.749  1.00  0.00     0.134 A 
ATOM     64  F   UNL A   1      47.957  25.635  31.983  1.00  0.00    -0.206 F 
ATOM     65  C   UNL A   1      50.110  25.468  31.070  1.00  0.00     0.040 A 
ATOM     66  C   UNL A   1      50.546  26.292  28.853  1.00  0.00     0.040 A 
ATOM     67  F   UNL A   1      48.836  27.313  27.616  1.00  0.00    -0.206 F 
ATOM     68  C   UNL A   1      51.000  25.686  30.022  1.00  0.00     0.006 A 
ENDBRANCH  47  61
BRANCH  48  69
ATOM     69  C   UNL A   1      38.675  29.133  29.036  1.00  0.00     0.057 A 
ATOM     70  C   UNL A   1      37.815  29.084  30.139  1.00  0.00     0.134 A 
ATOM     71  C   UNL A   1      38.147  29.597  27.826  1.00  0.00     0.134 A 
ATOM     72  F   UNL A   1      38.259  28.635  31.322  1.00  0.00    -0.206 F 
ATOM     73  C   UNL A   1      36.477  29.472  30.042  1.00  0.00     0.040 A 
ATOM     74  C   UNL A   1      36.818  30.013  27.721  1.00  0.00     0.040 A 
ATOM     75  F   UNL A   1      38.923  29.678  26.735  1.00  0.00    -0.206 F 
ATOM     76  C   UNL A   1      35.978  29.946  28.830  1.00  0.00     0.006 A 
ENDBRANCH  48  69
BRANCH  60  77
ATOM     77  C   UNL A   1      44.419  32.442  31.183  1.00  0.00     0.057 A 
ATOM     78  C   UNL A   1      44.667  33.514  30.318  1.00  0.00     0.134 A 
ATOM     79  C   UNL A   1      44.359  32.718  32.556  1.00  0.00     0.134 A 
ATOM     80  F   UNL A   1      44.751  33.314  28.994  1.00  0.00    -0.206 F 
ATOM     81  C   UNL A   1      44.872  34.807  30.801  1.00  0.00     0.040 A 
ATOM     82  C   UNL A   1      44.531  34.012  33.048  1.00  0.00     0.040 A 
ATOM     83  F   UNL A   1      44.115  31.739  33.440  1.00  0.00    -0.206 F 
ATOM     84  C   UNL A   1      44.796  35.060  32.169  1.00  0.00     0.006 A 
ENDBRANCH  60  77
ENDBRANCH  34  35
ENDBRANCH  26  29
ENDBRANCH  24  25
ENDBRANCH  23  24
ENDBRANCH   1  23
TORSDOF 13
ENDMDL
MODEL 2
REMARK VINA RESULT:     -11.5      2.020      7.101
REMARK SMILES CN1CC(=O)N(CC(=O)N2CCCC[C@H]2C(=O)NCCCNC(=O)c2ccc(-c3c4nc(c(-c5c(F)cccc5F)c5ccc([nH]5)c(-c5c(F)cccc5F)c5nc(c(-c6c(F)cccc6F)c6ccc3[nH]6)C=C5)C=C4)cc2)C1=O
REMARK SMILES IDX 19 1 18 2 16 3 17 4 15 6 10 7 11 8 12 9 14 10 13 11 8 12
REMARK SMILES IDX 9 13 7 14 6 15 1 16 2 17 3 18 79 19 4 20 80 21 5 22 20 23
REMARK SMILES IDX 21 24 22 25 23 26 24 28 25 29 26 30 78 31 27 32 77 33 28 34
REMARK SMILES IDX 29 35 30 36 71 37 31 38 76 39 70 40 72 41 32 42 75 43 69 44
REMARK SMILES IDX 68 45 33 47 59 48 42 49 58 50 43 51 46 52 57 53 73 54 44 55
REMARK SMILES IDX 45 56 56 58 74 59 47 60 34 61 35 62 40 63 36 64 37 65 39 66
REMARK SMILES IDX 41 67 38 68 60 69 61 70 66 71 62 72 63 73 65 74 67 75 64 76
REMARK SMILES IDX 48 77 49 78 54 79 50 80 51 81 53 82 55 83 52 84
REMARK H PARENT 18 5 22 27 72 46 46 57
REMARK Flexibility Score: inf
ROOT
ATOM      1  C   UNL A   1      36.635  20.536  24.990  1.00  0.00     0.117 C 
ENDROOT
BRANCH   1   2
ATOM      2  N   UNL A   1      36.992  21.932  24.990  1.00  0.00    -0.354 N 
ATOM      3  C   UNL A   1      36.231  23.054  24.962  1.00  0.00     0.242 C 
ATOM      4  O   UNL A   1      36.782  24.068  25.413  1.00  0.00    -0.273 OA
ATOM      5  H   UNL A   1      37.962  22.101  25.016  1.00  0.00     0.163 HD
BRANCH   3   6
ATOM      6  C   UNL A   1      34.721  23.121  24.595  1.00  0.00     0.174 C 
ATOM      7  N   UNL A   1      33.678  22.925  25.618  1.00  0.00    -0.329 N 
ATOM      8  C   UNL A   1      33.134  24.111  26.283  1.00  0.00     0.120 C 
ATOM      9  C   UNL A   1      32.991  25.368  25.428  1.00  0.00     0.022 C 
ATOM     10  C   UNL A   1      34.408  24.288  23.651  1.00  0.00     0.035 C 
ATOM     11  C   UNL A   1      34.044  25.582  24.351  1.00  0.00     0.004 C 
BRANCH   7  12
ATOM     12  C   UNL A   1      33.187  21.696  26.071  1.00  0.00     0.243 C 
ATOM     13  O   UNL A   1      33.782  21.111  26.993  1.00  0.00    -0.273 OA
BRANCH  12  14
ATOM     14  C   UNL A   1      32.062  20.893  25.385  1.00  0.00     0.230 C 
BRANCH  14  15
ATOM     15  N   UNL A   1      32.362  19.773  24.529  1.00  0.00    -0.253 N 
ATOM     16  C   UNL A   1      33.274  16.331  23.938  1.00  0.00     0.149 C 
ATOM     17  N   UNL A   1      32.828  17.701  23.882  1.00  0.00    -0.318 N 
ATOM     18  C   UNL A   1      32.624  18.405  22.639  1.00  0.00     0.221 C 
ATOM     19  C   UNL A   1      32.580  18.501  24.982  1.00  0.00     0.327 C 
ATOM     20  C   UNL A   1      32.308  19.797  23.165  1.00  0.00     0.250 C 
ATOM     21  O   UNL A   1      32.549  18.138  26.143  1.00  0.00    -0.248 OA
ATOM     22  O   UNL A   1      32.061  20.768  22.465  1.00  0.00    -0.272 OA
ENDBRANCH  14  15
ENDBRANCH  12  14
ENDBRANCH   7  12
ENDBRANCH   3   6
ENDBRANCH   1   2
BRANCH   1  23
ATOM     23  C   UNL A   1      37.831  19.607  24.940  1.00  0.00     0.042 C 
BRANCH  23  24
ATOM     24  C   UNL A   1      39.006  20.126  25.747  1.00  0.00     0.118 C 
BRANCH  24  25
ATOM     25  N   UNL A   1      40.046  19.113  25.912  1.00  0.00    -0.352 N 
ATOM     26  C   UNL A   1      41.397  19.252  26.114  1.00  0.00     0.251 C 
ATOM     27  H   UNL A   1      39.728  18.182  25.873  1.00  0.00     0.163 HD
ATOM     28  O   UNL A   1      42.135  18.278  25.995  1.00  0.00    -0.269 OA
BRANCH  26  29
ATOM     29  C   UNL A   1      41.963  20.570  26.462  1.00  0.00     0.039 A 
ATOM     30  C   UNL A   1      42.352  21.443  25.443  1.00  0.00     0.014 A 
ATOM     31  C   UNL A   1      42.118  20.943  27.798  1.00  0.00     0.014 A 
ATOM     32  C   UNL A   1      42.833  22.710  25.768  1.00  0.00     0.010 A 
ATOM     33  C   UNL A   1      42.473  22.244  28.116  1.00  0.00     0.010 A 
ATOM     34  C   UNL A   1      42.861  23.133  27.106  1.00  0.00    -0.014 A 
BRANCH  34  35
ATOM     35  C   UNL A   1      43.325  24.488  27.487  1.00  0.00     0.031 A 
ATOM     36  C   UNL A   1      42.326  25.527  27.916  1.00  0.00     0.074 A 
ATOM     37  C   UNL A   1      44.629  24.801  27.375  1.00  0.00     0.049 A 
ATOM     38  N   UNL A   1      42.517  26.783  28.228  1.00  0.00    -0.248 NA
ATOM     39  C   UNL A   1      40.915  25.107  27.966  1.00  0.00     0.031 C 
ATOM     40  C   UNL A   1      45.682  23.892  26.919  1.00  0.00     0.029 A 
ATOM     41  N   UNL A   1      45.290  25.973  27.637  1.00  0.00    -0.354 N 
ATOM     42  C   UNL A   1      41.256  27.303  28.488  1.00  0.00     0.074 A 
ATOM     43  C   UNL A   1      40.301  26.251  28.222  1.00  0.00     0.031 C 
ATOM     44  C   UNL A   1      46.864  24.527  26.977  1.00  0.00     0.029 A 
ATOM     45  C   UNL A   1      46.645  25.897  27.429  1.00  0.00     0.049 A 
ATOM     46  H   UNL A   1      44.837  26.791  27.944  1.00  0.00     0.167 HD
ATOM     47  C   UNL A   1      40.923  28.535  28.941  1.00  0.00     0.037 A 
ATOM     48  C   UNL A   1      47.602  26.829  27.588  1.00  0.00     0.037 A 
ATOM     49  C   UNL A   1      41.884  29.569  29.216  1.00  0.00     0.049 A 
ATOM     50  C   UNL A   1      47.211  28.198  28.067  1.00  0.00     0.074 A 
ATOM     51  C   UNL A   1      41.668  30.835  29.729  1.00  0.00     0.029 A 
ATOM     52  N   UNL A   1      43.249  29.457  28.988  1.00  0.00    -0.354 N 
ATOM     53  N   UNL A   1      46.023  28.658  28.382  1.00  0.00    -0.248 NA
ATOM     54  C   UNL A   1      48.294  29.178  28.216  1.00  0.00     0.031 C 
ATOM     55  C   UNL A   1      42.894  31.508  29.758  1.00  0.00     0.029 A 
ATOM     56  C   UNL A   1      43.885  30.641  29.322  1.00  0.00     0.049 A 
ATOM     57  H   UNL A   1      43.699  28.653  28.641  1.00  0.00     0.167 HD
ATOM     58  C   UNL A   1      46.218  29.968  28.796  1.00  0.00     0.074 A 
ATOM     59  C   UNL A   1      47.642  30.225  28.701  1.00  0.00     0.031 C 
ATOM     60  C   UNL A   1      45.304  30.877  29.219  1.00  0.00     0.037 A 
BRANCH  47  61
ATOM     61  C   UNL A   1      39.461  28.815  29.151  1.00  0.00     0.057 A 
ATOM     62  C   UNL A   1      38.644  29.318  28.128  1.00  0.00     0.134 A 
ATOM     63  C   UNL A   1      38.864  28.599  30.400  1.00  0.00     0.134 A 
ATOM     64  F   UNL A   1      39.152  29.562  26.909  1.00  0.00    -0.206 F 
ATOM     65  C   UNL A   1      37.306  29.647  28.352  1.00  0.00     0.040 A 
ATOM     66  C   UNL A   1      37.517  28.888  30.626  1.00  0.00     0.040 A 
ATOM     67  F   UNL A   1      39.580  28.112  31.424  1.00  0.00    -0.206 F 
ATOM     68  C   UNL A   1      36.737  29.428  29.604  1.00  0.00     0.006 A 
ENDBRANCH  47  61
BRANCH  48  69
ATOM     69  C   UNL A   1      49.022  26.477  27.340  1.00  0.00     0.057 A 
ATOM     70  C   UNL A   1      49.598  26.674  26.079  1.00  0.00     0.134 A 
ATOM     71  C   UNL A   1      49.844  25.969  28.352  1.00  0.00     0.134 A 
ATOM     72  F   UNL A   1      48.857  27.145  25.066  1.00  0.00    -0.206 F 
ATOM     73  C   UNL A   1      50.937  26.367  25.831  1.00  0.00     0.040 A 
ATOM     74  C   UNL A   1      51.192  25.682  28.124  1.00  0.00     0.040 A 
ATOM     75  F   UNL A   1      49.356  25.769  29.585  1.00  0.00    -0.206 F 
ATOM     76  C   UNL A   1      51.740  25.876  26.858  1.00  0.00     0.006 A 
ENDBRANCH  48  69
BRANCH  60  77
ATOM     77  C   UNL A   1      45.820  32.221  29.645  1.00  0.00     0.057 A 
ATOM     78  C   UNL A   1      46.238  32.476  30.956  1.00  0.00     0.134 A 
ATOM     79  C   UNL A   1      45.934  33.265  28.715  1.00  0.00     0.134 A 
ATOM     80  F   UNL A   1      46.142  31.524  31.897  1.00  0.00    -0.206 F 
ATOM     81  C   UNL A   1      46.727  33.727  31.336  1.00  0.00     0.040 A 
ATOM     82  C   UNL A   1      46.451  34.509  29.075  1.00  0.00     0.040 A 
ATOM     83  F   UNL A   1      45.561  33.085  27.439  1.00  0.00    -0.206 F 
ATOM     84  C   UNL A   1      46.842  34.745  30.391  1.00  0.00     0.006 A 
ENDBRANCH  60  77
ENDBRANCH  34  35
ENDBRANCH  26  29
ENDBRANCH  24  25
ENDBRANCH  23  24
ENDBRANCH   1  23
TORSDOF 13
ENDMDL
MODEL 3
REMARK VINA RESULT:     -11.5      4.565      9.369
REMARK SMILES CN1CC(=O)N(CC(=O)N2CCCC[C@H]2C(=O)NCCCNC(=O)c2ccc(-c3c4nc(c(-c5c(F)cccc5F)c5ccc([nH]5)c(-c5c(F)cccc5F)c5nc(c(-c6c(F)cccc6F)c6ccc3[nH]6)C=C5)C=C4)cc2)C1=O
REMARK SMILES IDX 19 1 18 2 16 3 17 4 15 6 10 7 11 8 12 9 14 10 13 11 8 12
REMARK SMILES IDX 9 13 7 14 6 15 1 16 2 17 3 18 79 19 4 20 80 21 5 22 20 23
REMARK SMILES IDX 21 24 22 25 23 26 24 28 25 29 26 30 78 31 27 32 77 33 28 34
REMARK SMILES IDX 29 35 30 36 71 37 31 38 76 39 70 40 72 41 32 42 75 43 69 44
REMARK SMILES IDX 68 45 33 47 59 48 42 49 58 50 43 51 46 52 57 53 73 54 44 55
REMARK SMILES IDX 45 56 56 58 74 59 47 60 34 61 35 62 40 63 36 64 37 65 39 66
REMARK SMILES IDX 41 67 38 68 60 69 61 70 66 71 62 72 63 73 65 74 67 75 64 76
REMARK SMILES IDX 48 77 49 78 54 79 50 80 51 81 53 82 55 83 52 84
REMARK H PARENT 18 5 22 27 72 46 46 57
REMARK Flexibility Score: inf
ROOT
ATOM      1  C   UNL A   1      31.635  30.786  26.228  1.00  0.00     0.117 C 
ENDROOT
BRANCH   1   2
ATOM      2  N   UNL A   1      32.844  30.212  26.763  1.00  0.00    -0.354 N 
ATOM      3  C   UNL A   1      33.579  29.141  26.371  1.00  0.00     0.242 C 
ATOM      4  O   UNL A   1      34.764  29.163  26.733  1.00  0.00    -0.273 OA
ATOM      5  H   UNL A   1      33.199  30.679  27.553  1.00  0.00     0.163 HD
BRANCH   3   6
ATOM      6  C   UNL A   1      33.115  28.029  25.388  1.00  0.00     0.174 C 
ATOM      7  N   UNL A   1      31.688  27.696  25.230  1.00  0.00    -0.329 N 
ATOM      8  C   UNL A   1      30.939  28.362  24.161  1.00  0.00     0.120 C 
ATOM      9  C   UNL A   1      31.700  28.639  22.866  1.00  0.00     0.022 C 
ATOM     10  C   UNL A   1      33.855  28.100  24.047  1.00  0.00     0.035 C 
ATOM     11  C   UNL A   1      33.180  28.964  23.002  1.00  0.00     0.004 C 
BRANCH   7  12
ATOM     12  C   UNL A   1      30.944  26.839  26.048  1.00  0.00     0.243 C 
ATOM     13  O   UNL A   1      31.109  26.886  27.280  1.00  0.00    -0.273 OA
BRANCH  12  14
ATOM     14  C   UNL A   1      30.061  25.682  25.535  1.00  0.00     0.230 C 
BRANCH  14  15
ATOM     15  N   UNL A   1      30.617  24.380  25.272  1.00  0.00    -0.253 N 
ATOM     16  C   UNL A   1      32.197  21.927  23.147  1.00  0.00     0.149 C 
ATOM     17  N   UNL A   1      31.651  22.720  24.219  1.00  0.00    -0.318 N 
ATOM     18  C   UNL A   1      31.433  22.195  25.545  1.00  0.00     0.221 C 
ATOM     19  C   UNL A   1      31.246  24.037  24.106  1.00  0.00     0.327 C 
ATOM     20  C   UNL A   1      30.734  23.380  26.194  1.00  0.00     0.250 C 
ATOM     21  O   UNL A   1      31.426  24.766  23.149  1.00  0.00    -0.248 OA
ATOM     22  O   UNL A   1      30.339  23.409  27.351  1.00  0.00    -0.272 OA
ENDBRANCH  14  15
ENDBRANCH  12  14
ENDBRANCH   7  12
ENDBRANCH   3   6
ENDBRANCH   1   2
BRANCH   1  23
ATOM     23  C   UNL A   1      31.453  32.248  26.585  1.00  0.00     0.042 C 
BRANCH  23  24
ATOM     24  C   UNL A   1      32.679  32.840  27.256  1.00  0.00     0.118 C 
BRANCH  24  25
ATOM     25  N   UNL A   1      32.471  34.234  27.642  1.00  0.00    -0.352 N 
ATOM     26  C   UNL A   1      33.024  34.965  28.665  1.00  0.00     0.251 C 
ATOM     27  H   UNL A   1      31.832  34.729  27.079  1.00  0.00     0.163 HD
ATOM     28  O   UNL A   1      32.545  36.054  28.965  1.00  0.00    -0.269 OA
BRANCH  26  29
ATOM     29  C   UNL A   1      34.185  34.437  29.409  1.00  0.00     0.039 A 
ATOM     30  C   UNL A   1      33.984  33.812  30.643  1.00  0.00     0.014 A 
ATOM     31  C   UNL A   1      35.475  34.566  28.892  1.00  0.00     0.014 A 
ATOM     32  C   UNL A   1      35.072  33.263  31.321  1.00  0.00     0.010 A 
ATOM     33  C   UNL A   1      36.532  33.909  29.501  1.00  0.00     0.010 A 
ATOM     34  C   UNL A   1      36.348  33.274  30.736  1.00  0.00    -0.014 A 
BRANCH  34  35
ATOM     35  C   UNL A   1      37.519  32.662  31.406  1.00  0.00     0.031 A 
ATOM     36  C   UNL A   1      38.214  31.488  30.772  1.00  0.00     0.074 A 
ATOM     37  C   UNL A   1      37.908  33.115  32.612  1.00  0.00     0.049 A 
ATOM     38  N   UNL A   1      39.211  30.772  31.223  1.00  0.00    -0.248 NA
ATOM     39  C   UNL A   1      37.691  31.033  29.473  1.00  0.00     0.031 C 
ATOM     40  C   UNL A   1      37.278  34.212  33.348  1.00  0.00     0.029 A 
ATOM     41  N   UNL A   1      38.927  32.705  33.431  1.00  0.00    -0.354 N 
ATOM     42  C   UNL A   1      39.419  29.778  30.277  1.00  0.00     0.074 A 
ATOM     43  C   UNL A   1      38.396  29.932  29.268  1.00  0.00     0.031 C 
ATOM     44  C   UNL A   1      37.954  34.419  34.489  1.00  0.00     0.029 A 
ATOM     45  C   UNL A   1      39.033  33.441  34.586  1.00  0.00     0.049 A 
ATOM     46  H   UNL A   1      39.526  31.955  33.214  1.00  0.00     0.167 HD
ATOM     47  C   UNL A   1      40.394  28.839  30.232  1.00  0.00     0.037 A 
ATOM     48  C   UNL A   1      39.904  33.337  35.606  1.00  0.00     0.037 A 
ATOM     49  C   UNL A   1      41.417  28.704  31.235  1.00  0.00     0.049 A 
ATOM     50  C   UNL A   1      40.964  32.273  35.551  1.00  0.00     0.074 A 
ATOM     51  C   UNL A   1      42.486  27.828  31.267  1.00  0.00     0.029 A 
ATOM     52  N   UNL A   1      41.488  29.465  32.394  1.00  0.00    -0.354 N 
ATOM     53  N   UNL A   1      41.198  31.384  34.615  1.00  0.00    -0.248 NA
ATOM     54  C   UNL A   1      41.883  32.201  36.694  1.00  0.00     0.031 C 
ATOM     55  C   UNL A   1      43.171  28.020  32.471  1.00  0.00     0.029 A 
ATOM     56  C   UNL A   1      42.566  29.059  33.163  1.00  0.00     0.049 A 
ATOM     57  H   UNL A   1      40.864  30.188  32.634  1.00  0.00     0.167 HD
ATOM     58  C   UNL A   1      42.309  30.668  35.039  1.00  0.00     0.074 A 
ATOM     59  C   UNL A   1      42.707  31.235  36.312  1.00  0.00     0.031 C 
ATOM     60  C   UNL A   1      42.944  29.636  34.430  1.00  0.00     0.037 A 
BRANCH  47  61
ATOM     61  C   UNL A   1      40.381  27.893  29.064  1.00  0.00     0.057 A 
ATOM     62  C   UNL A   1      41.139  28.127  27.908  1.00  0.00     0.134 A 
ATOM     63  C   UNL A   1      39.583  26.741  29.085  1.00  0.00     0.134 A 
ATOM     64  F   UNL A   1      41.916  29.217  27.812  1.00  0.00    -0.206 F 
ATOM     65  C   UNL A   1      41.064  27.282  26.797  1.00  0.00     0.040 A 
ATOM     66  C   UNL A   1      39.529  25.870  27.996  1.00  0.00     0.040 A 
ATOM     67  F   UNL A   1      38.837  26.447  30.160  1.00  0.00    -0.206 F 
ATOM     68  C   UNL A   1      40.259  26.148  26.842  1.00  0.00     0.006 A 
ENDBRANCH  47  61
BRANCH  48  69
ATOM     69  C   UNL A   1      39.838  34.300  36.733  1.00  0.00     0.057 A 
ATOM     70  C   UNL A   1      40.449  35.556  36.636  1.00  0.00     0.134 A 
ATOM     71  C   UNL A   1      39.145  34.009  37.913  1.00  0.00     0.134 A 
ATOM     72  F   UNL A   1      41.139  35.888  35.536  1.00  0.00    -0.206 F 
ATOM     73  C   UNL A   1      40.383  36.483  37.678  1.00  0.00     0.040 A 
ATOM     74  C   UNL A   1      39.050  34.937  38.952  1.00  0.00     0.040 A 
ATOM     75  F   UNL A   1      38.529  32.827  38.063  1.00  0.00    -0.206 F 
ATOM     76  C   UNL A   1      39.675  36.177  38.838  1.00  0.00     0.006 A 
ENDBRANCH  48  69
BRANCH  60  77
ATOM     77  C   UNL A   1      44.157  29.077  35.115  1.00  0.00     0.057 A 
ATOM     78  C   UNL A   1      44.068  28.054  36.067  1.00  0.00     0.134 A 
ATOM     79  C   UNL A   1      45.437  29.546  34.788  1.00  0.00     0.134 A 
ATOM     80  F   UNL A   1      42.872  27.570  36.436  1.00  0.00    -0.206 F 
ATOM     81  C   UNL A   1      45.205  27.535  36.688  1.00  0.00     0.040 A 
ATOM     82  C   UNL A   1      46.583  29.013  35.378  1.00  0.00     0.040 A 
ATOM     83  F   UNL A   1      45.595  30.518  33.876  1.00  0.00    -0.206 F 
ATOM     84  C   UNL A   1      46.468  28.009  36.337  1.00  0.00     0.006 A 
ENDBRANCH  60  77
ENDBRANCH  34  35
ENDBRANCH  26  29
ENDBRANCH  24  25
ENDBRANCH  23  24
ENDBRANCH   1  23
TORSDOF 13
ENDMDL
