MODEL 1
REMARK VINA RESULT:     -10.6      0.000      0.000
REMARK SMILES O=C(NC[C@@H]1CC[C@@H](C(=O)NCCCNC(=O)c2ccc(-c3c4nc(c(-c5c(F)cccc5F)c5ccc([nH]5)c(-c5c(F)cccc5F)c5nc(c(-c6c(F)cccc6F)c6ccc3[nH]6)C=C5)C=C4)cc2)O1)NC1CC1
REMARK SMILES IDX 12 1 11 2 9 3 10 4 8 6 5 7 6 8 72 9 7 10 4 11 3 12 1 13 2 14
REMARK SMILES IDX 73 15 74 18 75 19 76 20 13 21 14 22 15 23 16 24 17 26 18 27
REMARK SMILES IDX 19 28 71 29 20 30 70 31 21 32 22 33 23 34 64 35 24 36 69 37
REMARK SMILES IDX 63 38 65 39 25 40 68 41 62 42 61 43 26 45 52 46 35 47 51 48
REMARK SMILES IDX 36 49 39 50 50 51 66 52 37 53 38 54 49 56 67 57 40 58 27 59
REMARK SMILES IDX 28 60 33 61 29 62 30 63 32 64 34 65 31 66 53 67 54 68 59 69
REMARK SMILES IDX 55 70 56 71 58 72 60 73 57 74 41 75 42 76 47 77 43 78 44 79
REMARK SMILES IDX 46 80 48 81 45 82
REMARK H PARENT 11 5 3 16 73 17 15 25 65 44 39 55
REMARK Flexibility Score: inf
ROOT
ATOM      1  C   UNL A   1      33.115  27.625  24.888  1.00  0.00     0.117 C 
ENDROOT
BRANCH   1   2
ATOM      2  N   UNL A   1      31.923  27.266  25.636  1.00  0.00    -0.354 N 
ATOM      3  C   UNL A   1      31.483  26.046  26.060  1.00  0.00     0.249 C 
ATOM      4  O   UNL A   1      30.449  26.011  26.733  1.00  0.00    -0.272 OA
ATOM      5  H   UNL A   1      31.340  28.022  25.876  1.00  0.00     0.163 HD
BRANCH   3   6
ATOM      6  C   UNL A   1      32.241  24.768  25.670  1.00  0.00     0.207 C 
ATOM      7  C   UNL A   1      32.551  22.924  27.061  1.00  0.00     0.138 C 
ATOM      8  C   UNL A   1      31.887  22.429  25.785  1.00  0.00     0.037 C 
ATOM      9  O   UNL A   1      33.021  24.250  26.764  1.00  0.00    -0.363 OA
ATOM     10  C   UNL A   1      31.246  23.687  25.261  1.00  0.00     0.045 C 
BRANCH   7  11
ATOM     11  C   UNL A   1      33.697  22.052  27.593  1.00  0.00     0.149 C 
BRANCH  11  12
ATOM     12  N   UNL A   1      34.266  21.171  26.581  1.00  0.00    -0.336 N 
ATOM     13  O   UNL A   1      35.569  20.358  24.998  1.00  0.00    -0.249 OA
ATOM     14  C   UNL A   1      35.379  21.257  25.813  1.00  0.00     0.315 C 
ATOM     15  N   UNL A   1      36.207  22.317  26.029  1.00  0.00    -0.335 N 
ATOM     16  H   UNL A   1      33.740  20.355  26.425  1.00  0.00     0.165 HD
ATOM     17  H   UNL A   1      35.876  23.020  26.635  1.00  0.00     0.165 HD
BRANCH  15  18
ATOM     18  C   UNL A   1      37.512  22.511  25.466  1.00  0.00     0.084 C 
ATOM     19  C   UNL A   1      38.708  23.008  26.231  1.00  0.00     0.027 C 
ATOM     20  C   UNL A   1      38.655  21.582  25.763  1.00  0.00     0.027 C 
ENDBRANCH  15  18
ENDBRANCH  11  12
ENDBRANCH   7  11
ENDBRANCH   3   6
ENDBRANCH   1   2
BRANCH   1  21
ATOM     21  C   UNL A   1      34.020  28.574  25.663  1.00  0.00     0.042 C 
BRANCH  21  22
ATOM     22  C   UNL A   1      33.741  28.630  27.162  1.00  0.00     0.118 C 
BRANCH  22  23
ATOM     23  N   UNL A   1      33.726  29.989  27.690  1.00  0.00    -0.352 N 
ATOM     24  C   UNL A   1      34.688  30.686  28.374  1.00  0.00     0.251 C 
ATOM     25  H   UNL A   1      32.891  30.485  27.528  1.00  0.00     0.163 HD
ATOM     26  O   UNL A   1      34.409  31.781  28.862  1.00  0.00    -0.269 OA
BRANCH  24  27
ATOM     27  C   UNL A   1      36.046  30.129  28.556  1.00  0.00     0.039 A 
ATOM     28  C   UNL A   1      36.966  30.249  27.510  1.00  0.00     0.014 A 
ATOM     29  C   UNL A   1      36.412  29.476  29.734  1.00  0.00     0.014 A 
ATOM     30  C   UNL A   1      38.272  29.781  27.675  1.00  0.00     0.010 A 
ATOM     31  C   UNL A   1      37.736  29.086  29.930  1.00  0.00     0.010 A 
ATOM     32  C   UNL A   1      38.680  29.235  28.903  1.00  0.00    -0.014 A 
BRANCH  32  33
ATOM     33  C   UNL A   1      40.092  28.831  29.134  1.00  0.00     0.031 A 
ATOM     34  C   UNL A   1      41.069  29.793  29.751  1.00  0.00     0.074 A 
ATOM     35  C   UNL A   1      40.514  27.622  28.717  1.00  0.00     0.049 A 
ATOM     36  N   UNL A   1      42.352  29.644  29.964  1.00  0.00    -0.248 NA
ATOM     37  C   UNL A   1      40.541  31.104  30.157  1.00  0.00     0.031 C 
ATOM     38  C   UNL A   1      39.679  26.617  28.056  1.00  0.00     0.029 A 
ATOM     39  N   UNL A   1      41.755  27.038  28.773  1.00  0.00    -0.354 N 
ATOM     40  C   UNL A   1      42.787  30.846  30.509  1.00  0.00     0.074 A 
ATOM     41  C   UNL A   1      41.642  31.729  30.546  1.00  0.00     0.031 C 
ATOM     42  C   UNL A   1      40.426  25.536  27.784  1.00  0.00     0.029 A 
ATOM     43  C   UNL A   1      41.799  25.785  28.211  1.00  0.00     0.049 A 
ATOM     44  H   UNL A   1      42.538  27.475  29.177  1.00  0.00     0.167 HD
ATOM     45  C   UNL A   1      44.023  31.177  30.956  1.00  0.00     0.037 A 
ATOM     46  C   UNL A   1      42.831  24.936  28.045  1.00  0.00     0.037 A 
ATOM     47  C   UNL A   1      45.156  30.289  30.934  1.00  0.00     0.049 A 
ATOM     48  C   UNL A   1      44.194  25.324  28.544  1.00  0.00     0.074 A 
ATOM     49  C   UNL A   1      46.430  30.504  31.433  1.00  0.00     0.029 A 
ATOM     50  N   UNL A   1      45.157  29.019  30.374  1.00  0.00    -0.354 N 
ATOM     51  N   UNL A   1      44.573  26.433  29.132  1.00  0.00    -0.248 NA
ATOM     52  C   UNL A   1      45.271  24.342  28.362  1.00  0.00     0.031 C 
ATOM     53  C   UNL A   1      47.216  29.390  31.120  1.00  0.00     0.029 A 
ATOM     54  C   UNL A   1      46.418  28.454  30.483  1.00  0.00     0.049 A 
ATOM     55  H   UNL A   1      44.377  28.584  29.960  1.00  0.00     0.167 HD
ATOM     56  C   UNL A   1      45.924  26.273  29.412  1.00  0.00     0.074 A 
ATOM     57  C   UNL A   1      46.294  24.954  28.943  1.00  0.00     0.031 C 
ATOM     58  C   UNL A   1      46.778  27.141  30.008  1.00  0.00     0.037 A 
BRANCH  45  59
ATOM     59  C   UNL A   1      44.214  32.566  31.496  1.00  0.00     0.057 A 
ATOM     60  C   UNL A   1      44.546  33.648  30.669  1.00  0.00     0.134 A 
ATOM     61  C   UNL A   1      44.044  32.829  32.862  1.00  0.00     0.134 A 
ATOM     62  F   UNL A   1      44.733  33.465  29.353  1.00  0.00    -0.206 F 
ATOM     63  C   UNL A   1      44.738  34.931  31.185  1.00  0.00     0.040 A 
ATOM     64  C   UNL A   1      44.201  34.114  33.384  1.00  0.00     0.040 A 
ATOM     65  F   UNL A   1      43.716  31.843  33.711  1.00  0.00    -0.206 F 
ATOM     66  C   UNL A   1      44.560  35.167  32.546  1.00  0.00     0.006 A 
ENDBRANCH  45  59
BRANCH  46  67
ATOM     67  C   UNL A   1      42.603  23.624  27.387  1.00  0.00     0.057 A 
ATOM     68  C   UNL A   1      42.703  23.484  25.999  1.00  0.00     0.134 A 
ATOM     69  C   UNL A   1      42.299  22.477  28.131  1.00  0.00     0.134 A 
ATOM     70  F   UNL A   1      42.975  24.550  25.230  1.00  0.00    -0.206 F 
ATOM     71  C   UNL A   1      42.497  22.254  25.371  1.00  0.00     0.040 A 
ATOM     72  C   UNL A   1      42.116  21.236  27.519  1.00  0.00     0.040 A 
ATOM     73  F   UNL A   1      42.198  22.543  29.467  1.00  0.00    -0.206 F 
ATOM     74  C   UNL A   1      42.210  21.124  26.134  1.00  0.00     0.006 A 
ENDBRANCH  46  67
BRANCH  58  75
ATOM     75  C   UNL A   1      48.195  26.683  30.214  1.00  0.00     0.057 A 
ATOM     76  C   UNL A   1      49.219  27.014  29.317  1.00  0.00     0.134 A 
ATOM     77  C   UNL A   1      48.543  25.937  31.347  1.00  0.00     0.134 A 
ATOM     78  F   UNL A   1      48.951  27.714  28.206  1.00  0.00    -0.206 F 
ATOM     79  C   UNL A   1      50.535  26.598  29.530  1.00  0.00     0.040 A 
ATOM     80  C   UNL A   1      49.861  25.542  31.584  1.00  0.00     0.040 A 
ATOM     81  F   UNL A   1      47.613  25.594  32.250  1.00  0.00    -0.206 F 
ATOM     82  C   UNL A   1      50.861  25.867  30.670  1.00  0.00     0.006 A 
ENDBRANCH  58  75
ENDBRANCH  32  33
ENDBRANCH  24  27
ENDBRANCH  22  23
ENDBRANCH  21  22
ENDBRANCH   1  21
TORSDOF 13
ENDMDL
MODEL 2
REMARK VINA RESULT:     -10.5      3.998      8.277
REMARK SMILES O=C(NC[C@@H]1CC[C@@H](C(=O)NCCCNC(=O)c2ccc(-c3c4nc(c(-c5c(F)cccc5F)c5ccc([nH]5)c(-c5c(F)cccc5F)c5nc(c(-c6c(F)cccc6F)c6ccc3[nH]6)C=C5)C=C4)cc2)O1)NC1CC1
REMARK SMILES IDX 12 1 11 2 9 3 10 4 8 6 5 7 6 8 72 9 7 10 4 11 3 12 1 13 2 14
REMARK SMILES IDX 73 15 74 18 75 19 76 20 13 21 14 22 15 23 16 24 17 26 18 27
REMARK SMILES IDX 19 28 71 29 20 30 70 31 21 32 22 33 23 34 64 35 24 36 69 37
REMARK SMILES IDX 63 38 65 39 25 40 68 41 62 42 61 43 26 45 52 46 35 47 51 48
REMARK SMILES IDX 36 49 39 50 50 51 66 52 37 53 38 54 49 56 67 57 40 58 27 59
REMARK SMILES IDX 28 60 33 61 29 62 30 63 32 64 34 65 31 66 53 67 54 68 59 69
REMARK SMILES IDX 55 70 56 71 58 72 60 73 57 74 41 75 42 76 47 77 43 78 44 79
REMARK SMILES IDX 46 80 48 81 45 82
REMARK H PARENT 11 5 3 16 73 17 15 25 65 44 39 55
REMARK Flexibility Score: inf
ROOT
ATOM      1  C   UNL A   1      31.616  30.638  26.234  1.00  0.00     0.117 C 
ENDROOT
BRANCH   1   2
ATOM      2  N   UNL A   1      31.185  30.410  24.866  1.00  0.00    -0.354 N 
ATOM      3  C   UNL A   1      31.027  29.244  24.176  1.00  0.00     0.249 C 
ATOM      4  O   UNL A   1      30.593  29.315  23.022  1.00  0.00    -0.272 OA
ATOM      5  H   UNL A   1      30.973  31.225  24.356  1.00  0.00     0.163 HD
BRANCH   3   6
ATOM      6  C   UNL A   1      31.417  27.903  24.815  1.00  0.00     0.207 C 
ATOM      7  C   UNL A   1      31.340  25.839  23.737  1.00  0.00     0.138 C 
ATOM      8  C   UNL A   1      32.757  26.031  24.256  1.00  0.00     0.037 C 
ATOM      9  O   UNL A   1      30.545  26.835  24.401  1.00  0.00    -0.363 OA
ATOM     10  C   UNL A   1      32.835  27.529  24.394  1.00  0.00     0.045 C 
BRANCH   7  11
ATOM     11  C   UNL A   1      30.741  24.441  23.949  1.00  0.00     0.149 C 
BRANCH  11  12
ATOM     12  N   UNL A   1      30.388  24.172  25.337  1.00  0.00    -0.336 N 
ATOM     13  O   UNL A   1      30.383  23.337  27.379  1.00  0.00    -0.249 OA
ATOM     14  C   UNL A   1      30.955  23.398  26.294  1.00  0.00     0.315 C 
ATOM     15  N   UNL A   1      32.126  22.777  25.981  1.00  0.00    -0.335 N 
ATOM     16  H   UNL A   1      29.579  24.644  25.639  1.00  0.00     0.165 HD
ATOM     17  H   UNL A   1      32.414  22.823  25.040  1.00  0.00     0.165 HD
BRANCH  15  18
ATOM     18  C   UNL A   1      32.984  22.063  26.884  1.00  0.00     0.084 C 
ATOM     19  C   UNL A   1      34.386  21.622  26.563  1.00  0.00     0.027 C 
ATOM     20  C   UNL A   1      34.154  22.722  27.559  1.00  0.00     0.027 C 
ENDBRANCH  15  18
ENDBRANCH  11  12
ENDBRANCH   7  11
ENDBRANCH   3   6
ENDBRANCH   1   2
BRANCH   1  21
ATOM     21  C   UNL A   1      31.383  32.075  26.681  1.00  0.00     0.042 C 
BRANCH  21  22
ATOM     22  C   UNL A   1      32.629  32.784  27.206  1.00  0.00     0.118 C 
BRANCH  22  23
ATOM     23  N   UNL A   1      32.380  34.168  27.588  1.00  0.00    -0.352 N 
ATOM     24  C   UNL A   1      32.992  34.952  28.534  1.00  0.00     0.251 C 
ATOM     25  H   UNL A   1      31.659  34.611  27.087  1.00  0.00     0.163 HD
ATOM     26  O   UNL A   1      32.521  36.057  28.799  1.00  0.00    -0.269 OA
BRANCH  24  27
ATOM     27  C   UNL A   1      34.191  34.475  29.256  1.00  0.00     0.039 A 
ATOM     28  C   UNL A   1      34.027  33.881  30.511  1.00  0.00     0.014 A 
ATOM     29  C   UNL A   1      35.471  34.626  28.719  1.00  0.00     0.014 A 
ATOM     30  C   UNL A   1      35.135  33.372  31.190  1.00  0.00     0.010 A 
ATOM     31  C   UNL A   1      36.565  34.043  29.358  1.00  0.00     0.010 A 
ATOM     32  C   UNL A   1      36.409  33.410  30.600  1.00  0.00    -0.014 A 
BRANCH  32  33
ATOM     33  C   UNL A   1      37.582  32.778  31.258  1.00  0.00     0.031 A 
ATOM     34  C   UNL A   1      38.247  31.577  30.644  1.00  0.00     0.074 A 
ATOM     35  C   UNL A   1      38.003  33.239  32.452  1.00  0.00     0.049 A 
ATOM     36  N   UNL A   1      39.233  30.851  31.108  1.00  0.00    -0.248 NA
ATOM     37  C   UNL A   1      37.716  31.115  29.353  1.00  0.00     0.031 C 
ATOM     38  C   UNL A   1      37.409  34.362  33.180  1.00  0.00     0.029 A 
ATOM     39  N   UNL A   1      39.016  32.810  33.272  1.00  0.00    -0.354 N 
ATOM     40  C   UNL A   1      39.427  29.838  30.176  1.00  0.00     0.074 A 
ATOM     41  C   UNL A   1      38.423  30.014  29.149  1.00  0.00     0.031 C 
ATOM     42  C   UNL A   1      38.081  34.545  34.327  1.00  0.00     0.029 A 
ATOM     43  C   UNL A   1      39.122  33.528  34.438  1.00  0.00     0.049 A 
ATOM     44  H   UNL A   1      39.612  32.060  33.045  1.00  0.00     0.167 HD
ATOM     45  C   UNL A   1      40.367  28.863  30.168  1.00  0.00     0.037 A 
ATOM     46  C   UNL A   1      39.954  33.378  35.487  1.00  0.00     0.037 A 
ATOM     47  C   UNL A   1      41.376  28.702  31.183  1.00  0.00     0.049 A 
ATOM     48  C   UNL A   1      40.986  32.286  35.459  1.00  0.00     0.074 A 
ATOM     49  C   UNL A   1      42.419  27.792  31.225  1.00  0.00     0.029 A 
ATOM     50  N   UNL A   1      41.462  29.461  32.341  1.00  0.00    -0.354 N 
ATOM     51  N   UNL A   1      41.211  31.386  34.533  1.00  0.00    -0.248 NA
ATOM     52  C   UNL A   1      41.885  32.194  36.618  1.00  0.00     0.031 C 
ATOM     53  C   UNL A   1      43.098  27.961  32.436  1.00  0.00     0.029 A 
ATOM     54  C   UNL A   1      42.519  29.017  33.121  1.00  0.00     0.049 A 
ATOM     55  H   UNL A   1      40.861  30.205  32.574  1.00  0.00     0.167 HD
ATOM     56  C   UNL A   1      42.289  30.636  34.985  1.00  0.00     0.074 A 
ATOM     57  C   UNL A   1      42.683  31.198  36.261  1.00  0.00     0.031 C 
ATOM     58  C   UNL A   1      42.900  29.580  34.393  1.00  0.00     0.037 A 
BRANCH  45  59
ATOM     59  C   UNL A   1      40.338  27.885  29.027  1.00  0.00     0.057 A 
ATOM     60  C   UNL A   1      39.571  26.712  29.070  1.00  0.00     0.134 A 
ATOM     61  C   UNL A   1      41.075  28.129  27.860  1.00  0.00     0.134 A 
ATOM     62  F   UNL A   1      38.849  26.411  30.161  1.00  0.00    -0.206 F 
ATOM     63  C   UNL A   1      39.567  25.802  28.012  1.00  0.00     0.040 A 
ATOM     64  C   UNL A   1      41.052  27.243  26.782  1.00  0.00     0.040 A 
ATOM     65  F   UNL A   1      41.824  29.236  27.746  1.00  0.00    -0.206 F 
ATOM     66  C   UNL A   1      40.305  26.070  26.861  1.00  0.00     0.006 A 
ENDBRANCH  45  59
BRANCH  46  67
ATOM     67  C   UNL A   1      39.848  34.301  36.645  1.00  0.00     0.057 A 
ATOM     68  C   UNL A   1      40.489  35.544  36.641  1.00  0.00     0.134 A 
ATOM     69  C   UNL A   1      39.089  33.970  37.775  1.00  0.00     0.134 A 
ATOM     70  F   UNL A   1      41.244  35.910  35.594  1.00  0.00    -0.206 F 
ATOM     71  C   UNL A   1      40.390  36.422  37.722  1.00  0.00     0.040 A 
ATOM     72  C   UNL A   1      38.961  34.848  38.852  1.00  0.00     0.040 A 
ATOM     73  F   UNL A   1      38.442  32.797  37.837  1.00  0.00    -0.206 F 
ATOM     74  C   UNL A   1      39.617  36.076  38.829  1.00  0.00     0.006 A 
ENDBRANCH  46  67
BRANCH  58  75
ATOM     75  C   UNL A   1      44.078  28.977  35.104  1.00  0.00     0.057 A 
ATOM     76  C   UNL A   1      45.390  29.401  34.857  1.00  0.00     0.134 A 
ATOM     77  C   UNL A   1      43.891  27.989  36.079  1.00  0.00     0.134 A 
ATOM     78  F   UNL A   1      45.641  30.335  33.927  1.00  0.00    -0.206 F 
ATOM     79  C   UNL A   1      46.476  28.847  35.539  1.00  0.00     0.040 A 
ATOM     80  C   UNL A   1      44.966  27.448  36.787  1.00  0.00     0.040 A 
ATOM     81  F   UNL A   1      42.660  27.544  36.371  1.00  0.00    -0.206 F 
ATOM     82  C   UNL A   1      46.264  27.873  36.513  1.00  0.00     0.006 A 
ENDBRANCH  58  75
ENDBRANCH  32  33
ENDBRANCH  24  27
ENDBRANCH  22  23
ENDBRANCH  21  22
ENDBRANCH   1  21
TORSDOF 13
ENDMDL
MODEL 3
REMARK VINA RESULT:     -10.4      2.532      7.538
REMARK SMILES O=C(NC[C@@H]1CC[C@@H](C(=O)NCCCNC(=O)c2ccc(-c3c4nc(c(-c5c(F)cccc5F)c5ccc([nH]5)c(-c5c(F)cccc5F)c5nc(c(-c6c(F)cccc6F)c6ccc3[nH]6)C=C5)C=C4)cc2)O1)NC1CC1
REMARK SMILES IDX 12 1 11 2 9 3 10 4 8 6 5 7 6 8 72 9 7 10 4 11 3 12 1 13 2 14
REMARK SMILES IDX 73 15 74 18 75 19 76 20 13 21 14 22 15 23 16 24 17 26 18 27
REMARK SMILES IDX 19 28 71 29 20 30 70 31 21 32 22 33 23 34 64 35 24 36 69 37
REMARK SMILES IDX 63 38 65 39 25 40 68 41 62 42 61 43 26 45 52 46 35 47 51 48
REMARK SMILES IDX 36 49 39 50 50 51 66 52 37 53 38 54 49 56 67 57 40 58 27 59
REMARK SMILES IDX 28 60 33 61 29 62 30 63 32 64 34 65 31 66 53 67 54 68 59 69
REMARK SMILES IDX 55 70 56 71 58 72 60 73 57 74 41 75 42 76 47 77 43 78 44 79
REMARK SMILES IDX 46 80 48 81 45 82
REMARK H PARENT 11 5 3 16 73 17 15 25 65 44 39 55
REMARK Flexibility Score: inf
ROOT
ATOM      1  C   UNL A   1      36.535  20.675  25.011  1.00  0.00     0.117 C 
ENDROOT
BRANCH   1   2
ATOM      2  N   UNL A   1      35.291  19.926  25.001  1.00  0.00    -0.354 N 
ATOM      3  C   UNL A   1      34.006  20.348  25.180  1.00  0.00     0.249 C 
ATOM      4  O   UNL A   1      33.107  19.510  25.071  1.00  0.00    -0.272 OA
ATOM      5  H   UNL A   1      35.391  18.960  24.839  1.00  0.00     0.163 HD
BRANCH   3   6
ATOM      6  C   UNL A   1      33.712  21.812  25.539  1.00  0.00     0.207 C 
ATOM      7  C   UNL A   1      31.616  22.649  26.117  1.00  0.00     0.138 C 
ATOM      8  C   UNL A   1      32.573  22.990  27.249  1.00  0.00     0.037 C 
ATOM      9  O   UNL A   1      32.447  22.253  25.013  1.00  0.00    -0.363 OA
ATOM     10  C   UNL A   1      33.659  21.965  27.056  1.00  0.00     0.045 C 
BRANCH   7  11
ATOM     11  C   UNL A   1      30.660  23.774  25.696  1.00  0.00     0.149 C 
BRANCH  11  12
ATOM     12  N   UNL A   1      30.810  24.984  26.493  1.00  0.00    -0.336 N 
ATOM     13  O   UNL A   1      31.068  27.096  27.077  1.00  0.00    -0.249 OA
ATOM     14  C   UNL A   1      30.890  26.296  26.162  1.00  0.00     0.315 C 
ATOM     15  N   UNL A   1      30.739  26.618  24.847  1.00  0.00    -0.335 N 
ATOM     16  H   UNL A   1      30.864  24.817  27.461  1.00  0.00     0.165 HD
ATOM     17  H   UNL A   1      30.714  25.869  24.208  1.00  0.00     0.165 HD
BRANCH  15  18
ATOM     18  C   UNL A   1      30.610  27.938  24.300  1.00  0.00     0.084 C 
ATOM     19  C   UNL A   1      31.344  28.435  23.084  1.00  0.00     0.027 C 
ATOM     20  C   UNL A   1      29.861  28.202  23.023  1.00  0.00     0.027 C 
ENDBRANCH  15  18
ENDBRANCH  11  12
ENDBRANCH   7  11
ENDBRANCH   3   6
ENDBRANCH   1   2
BRANCH   1  21
ATOM     21  C   UNL A   1      37.754  19.776  24.854  1.00  0.00     0.042 C 
BRANCH  21  22
ATOM     22  C   UNL A   1      38.943  20.166  25.729  1.00  0.00     0.118 C 
BRANCH  22  23
ATOM     23  N   UNL A   1      39.964  19.128  25.799  1.00  0.00    -0.352 N 
ATOM     24  C   UNL A   1      41.314  19.224  26.022  1.00  0.00     0.251 C 
ATOM     25  H   UNL A   1      39.631  18.212  25.665  1.00  0.00     0.163 HD
ATOM     26  O   UNL A   1      42.022  18.226  25.890  1.00  0.00    -0.269 OA
BRANCH  24  27
ATOM     27  C   UNL A   1      41.933  20.515  26.392  1.00  0.00     0.039 A 
ATOM     28  C   UNL A   1      42.408  21.348  25.375  1.00  0.00     0.014 A 
ATOM     29  C   UNL A   1      42.066  20.902  27.727  1.00  0.00     0.014 A 
ATOM     30  C   UNL A   1      42.947  22.596  25.692  1.00  0.00     0.010 A 
ATOM     31  C   UNL A   1      42.525  22.181  28.037  1.00  0.00     0.010 A 
ATOM     32  C   UNL A   1      42.970  23.042  27.023  1.00  0.00    -0.014 A 
BRANCH  32  33
ATOM     33  C   UNL A   1      43.439  24.410  27.370  1.00  0.00     0.031 A 
ATOM     34  C   UNL A   1      42.462  25.459  27.824  1.00  0.00     0.074 A 
ATOM     35  C   UNL A   1      44.736  24.730  27.201  1.00  0.00     0.049 A 
ATOM     36  N   UNL A   1      42.675  26.721  28.100  1.00  0.00    -0.248 NA
ATOM     37  C   UNL A   1      41.059  25.042  27.960  1.00  0.00     0.031 C 
ATOM     38  C   UNL A   1      45.775  23.819  26.714  1.00  0.00     0.029 A 
ATOM     39  N   UNL A   1      45.401  25.914  27.402  1.00  0.00    -0.354 N 
ATOM     40  C   UNL A   1      41.432  27.252  28.423  1.00  0.00     0.074 A 
ATOM     41  C   UNL A   1      40.465  26.188  28.258  1.00  0.00     0.031 C 
ATOM     42  C   UNL A   1      46.947  24.472  26.674  1.00  0.00     0.029 A 
ATOM     43  C   UNL A   1      46.736  25.856  27.088  1.00  0.00     0.049 A 
ATOM     44  H   UNL A   1      44.962  26.726  27.741  1.00  0.00     0.167 HD
ATOM     45  C   UNL A   1      41.127  28.505  28.837  1.00  0.00     0.037 A 
ATOM     46  C   UNL A   1      47.685  26.811  27.116  1.00  0.00     0.037 A 
ATOM     47  C   UNL A   1      42.094  29.556  29.017  1.00  0.00     0.049 A 
ATOM     48  C   UNL A   1      47.324  28.196  27.574  1.00  0.00     0.074 A 
ATOM     49  C   UNL A   1      41.895  30.836  29.505  1.00  0.00     0.029 A 
ATOM     50  N   UNL A   1      43.442  29.454  28.706  1.00  0.00    -0.354 N 
ATOM     51  N   UNL A   1      46.159  28.662  27.954  1.00  0.00    -0.248 NA
ATOM     52  C   UNL A   1      48.409  29.186  27.613  1.00  0.00     0.031 C 
ATOM     53  C   UNL A   1      43.110  31.527  29.431  1.00  0.00     0.029 A 
ATOM     54  C   UNL A   1      44.080  30.658  28.958  1.00  0.00     0.049 A 
ATOM     55  H   UNL A   1      43.881  28.644  28.357  1.00  0.00     0.167 HD
ATOM     56  C   UNL A   1      46.375  29.990  28.301  1.00  0.00     0.074 A 
ATOM     57  C   UNL A   1      47.786  30.250  28.100  1.00  0.00     0.031 C 
ATOM     58  C   UNL A   1      45.485  30.909  28.749  1.00  0.00     0.037 A 
BRANCH  45  59
ATOM     59  C   UNL A   1      39.681  28.809  29.112  1.00  0.00     0.057 A 
ATOM     60  C   UNL A   1      38.813  29.269  28.112  1.00  0.00     0.134 A 
ATOM     61  C   UNL A   1      39.144  28.621  30.393  1.00  0.00     0.134 A 
ATOM     62  F   UNL A   1      39.263  29.480  26.865  1.00  0.00    -0.206 F 
ATOM     63  C   UNL A   1      37.476  29.565  28.384  1.00  0.00     0.040 A 
ATOM     64  C   UNL A   1      37.801  28.883  30.669  1.00  0.00     0.040 A 
ATOM     65  F   UNL A   1      39.915  28.175  31.396  1.00  0.00    -0.206 F 
ATOM     66  C   UNL A   1      36.966  29.367  29.665  1.00  0.00     0.006 A 
ENDBRANCH  45  59
BRANCH  46  67
ATOM     67  C   UNL A   1      49.074  26.479  26.709  1.00  0.00     0.057 A 
ATOM     68  C   UNL A   1      49.985  25.936  27.622  1.00  0.00     0.134 A 
ATOM     69  C   UNL A   1      49.517  26.677  25.395  1.00  0.00     0.134 A 
ATOM     70  F   UNL A   1      49.625  25.739  28.899  1.00  0.00    -0.206 F 
ATOM     71  C   UNL A   1      51.291  25.614  27.248  1.00  0.00     0.040 A 
ATOM     72  C   UNL A   1      50.812  26.336  25.001  1.00  0.00     0.040 A 
ATOM     73  F   UNL A   1      48.689  27.185  24.471  1.00  0.00    -0.206 F 
ATOM     74  C   UNL A   1      51.704  25.807  25.931  1.00  0.00     0.006 A 
ENDBRANCH  46  67
BRANCH  58  75
ATOM     75  C   UNL A   1      46.012  32.276  29.080  1.00  0.00     0.057 A 
ATOM     76  C   UNL A   1      45.991  33.325  28.152  1.00  0.00     0.134 A 
ATOM     77  C   UNL A   1      46.508  32.557  30.360  1.00  0.00     0.134 A 
ATOM     78  F   UNL A   1      45.542  33.120  26.904  1.00  0.00    -0.206 F 
ATOM     79  C   UNL A   1      46.466  34.597  28.478  1.00  0.00     0.040 A 
ATOM     80  C   UNL A   1      46.958  33.832  30.706  1.00  0.00     0.040 A 
ATOM     81  F   UNL A   1      46.547  31.601  31.300  1.00  0.00    -0.206 F 
ATOM     82  C   UNL A   1      46.944  34.855  29.761  1.00  0.00     0.006 A 
ENDBRANCH  58  75
ENDBRANCH  32  33
ENDBRANCH  24  27
ENDBRANCH  22  23
ENDBRANCH  21  22
ENDBRANCH   1  21
TORSDOF 13
ENDMDL
