MODEL 1
REMARK VINA RESULT:     -13.0      0.000      0.000
REMARK SMILES O=C(NCCCNC(=O)c1ccc(-c2c3nc(c(-c4c(F)cccc4F)c4ccc([nH]4)c(-c4c(F)cccc4F)c4nc(c(-c5c(F)cccc5F)c5ccc2[nH]5)C=C4)C=C3)cc1)C1=Cc2cc(Cl)cc(C#Cc3ccccc3)c2O[C@@H]1C(F)(F)F
REMARK SMILES IDX 5 1 4 2 3 3 1 4 2 5 64 7 65 8 82 9 66 10 81 11 67 12 80 13
REMARK SMILES IDX 68 14 71 15 69 16 70 17 83 18 84 19 85 20 86 21 72 22 73 23
REMARK SMILES IDX 74 24 75 25 79 26 76 27 78 28 77 29 6 30 7 31 8 32 9 34
REMARK SMILES IDX 10 35 11 36 63 37 12 38 62 39 13 40 14 41 15 42 56 43 16 44
REMARK SMILES IDX 61 45 55 46 57 47 17 48 60 49 54 50 53 51 18 53 44 54 27 55
REMARK SMILES IDX 43 56 28 57 31 58 42 59 58 60 29 61 30 62 41 64 59 65 32 66
REMARK SMILES IDX 19 67 20 68 25 69 21 70 22 71 24 72 26 73 23 74 45 75 46 76
REMARK SMILES IDX 51 77 47 78 48 79 50 80 52 81 49 82 33 83 34 84 39 85 35 86
REMARK SMILES IDX 36 87 38 88 40 89 37 90
REMARK H PARENT 3 6 7 33 57 52 31 63
REMARK Flexibility Score: inf
ROOT
ATOM      1  C   UNL A   1      32.012  28.563  27.575  1.00  0.00     0.042 C 
ENDROOT
BRANCH   1   2
ATOM      2  C   UNL A   1      31.535  27.610  26.506  1.00  0.00     0.118 C 
BRANCH   2   3
ATOM      3  N   UNL A   1      31.420  26.224  26.901  1.00  0.00    -0.352 N 
ATOM      4  O   UNL A   1      32.076  24.080  27.036  1.00  0.00    -0.270 OA
ATOM      5  C   UNL A   1      32.103  25.140  26.415  1.00  0.00     0.251 C 
ATOM      6  H   UNL A   1      30.766  26.034  27.611  1.00  0.00     0.163 HD
BRANCH   5   7
ATOM      7  C   UNL A   1      32.981  25.250  25.211  1.00  0.00     0.067 C 
ATOM      8  C   UNL A   1      34.300  25.485  25.319  1.00  0.00     0.025 C 
ATOM      9  C   UNL A   1      32.494  24.408  24.063  1.00  0.00     0.314 C 
ATOM     10  C   UNL A   1      35.150  24.340  24.902  1.00  0.00     0.020 A 
ATOM     11  O   UNL A   1      33.231  23.160  23.959  1.00  0.00    -0.474 OA
ATOM     12  C   UNL A   1      36.444  24.299  25.441  1.00  0.00     0.032 A 
ATOM     13  C   UNL A   1      34.520  23.155  24.449  1.00  0.00     0.143 A 
ATOM     14  C   UNL A   1      37.061  23.067  25.642  1.00  0.00     0.043 A 
ATOM     15  C   UNL A   1      35.130  21.916  24.719  1.00  0.00     0.069 A 
ATOM     16  Cl  UNL A   1      38.558  22.996  26.489  1.00  0.00    -0.084 Cl
ATOM     17  C   UNL A   1      36.403  21.883  25.310  1.00  0.00     0.041 A 
BRANCH   9  18
ATOM     18  C   UNL A   1      32.508  25.246  22.771  1.00  0.00     0.429 C 
ATOM     19  F   UNL A   1      31.433  24.989  21.993  1.00  0.00    -0.167 F 
ATOM     20  F   UNL A   1      32.485  26.574  23.047  1.00  0.00    -0.167 F 
ATOM     21  F   UNL A   1      33.614  25.023  22.020  1.00  0.00    -0.167 F 
ENDBRANCH   9  18
BRANCH  15  22
ATOM     22  C   UNL A   1      34.416  20.665  24.674  1.00  0.00    -0.058 C 
ATOM     23  C   UNL A   1      33.967  19.552  24.738  1.00  0.00    -0.062 C 
BRANCH  23  24
ATOM     24  C   UNL A   1      33.552  18.176  24.784  1.00  0.00     0.025 A 
ATOM     25  C   UNL A   1      32.528  17.756  25.639  1.00  0.00     0.017 A 
ATOM     26  C   UNL A   1      34.232  17.227  24.020  1.00  0.00     0.017 A 
ATOM     27  C   UNL A   1      32.207  16.398  25.751  1.00  0.00     0.001 A 
ATOM     28  C   UNL A   1      33.911  15.871  24.129  1.00  0.00     0.001 A 
ATOM     29  C   UNL A   1      32.905  15.455  25.000  1.00  0.00     0.000 A 
ENDBRANCH  23  24
ENDBRANCH  15  22
ENDBRANCH   5   7
ENDBRANCH   2   3
ENDBRANCH   1   2
BRANCH   1  30
ATOM     30  C   UNL A   1      33.385  29.112  27.256  1.00  0.00     0.118 C 
BRANCH  30  31
ATOM     31  N   UNL A   1      33.661  30.408  27.888  1.00  0.00    -0.352 N 
ATOM     32  C   UNL A   1      34.792  30.875  28.523  1.00  0.00     0.251 C 
ATOM     33  H   UNL A   1      32.914  31.050  27.852  1.00  0.00     0.163 HD
ATOM     34  O   UNL A   1      34.771  31.936  29.138  1.00  0.00    -0.269 OA
BRANCH  32  35
ATOM     35  C   UNL A   1      36.021  30.062  28.516  1.00  0.00     0.039 A 
ATOM     36  C   UNL A   1      36.877  30.124  27.414  1.00  0.00     0.014 A 
ATOM     37  C   UNL A   1      36.380  29.338  29.647  1.00  0.00     0.014 A 
ATOM     38  C   UNL A   1      38.161  29.595  27.520  1.00  0.00     0.010 A 
ATOM     39  C   UNL A   1      37.704  28.988  29.817  1.00  0.00     0.010 A 
ATOM     40  C   UNL A   1      38.612  29.107  28.756  1.00  0.00    -0.014 A 
BRANCH  40  41
ATOM     41  C   UNL A   1      40.017  28.700  28.992  1.00  0.00     0.031 A 
ATOM     42  C   UNL A   1      40.982  29.706  29.557  1.00  0.00     0.074 A 
ATOM     43  C   UNL A   1      40.449  27.491  28.580  1.00  0.00     0.049 A 
ATOM     44  N   UNL A   1      42.285  29.644  29.651  1.00  0.00    -0.248 NA
ATOM     45  C   UNL A   1      40.409  30.983  30.022  1.00  0.00     0.031 C 
ATOM     46  C   UNL A   1      39.622  26.451  27.962  1.00  0.00     0.029 A 
ATOM     47  N   UNL A   1      41.705  26.939  28.602  1.00  0.00    -0.354 N 
ATOM     48  C   UNL A   1      42.680  30.880  30.145  1.00  0.00     0.074 A 
ATOM     49  C   UNL A   1      41.496  31.701  30.251  1.00  0.00     0.031 C 
ATOM     50  C   UNL A   1      40.384  25.378  27.698  1.00  0.00     0.029 A 
ATOM     51  C   UNL A   1      41.762  25.673  28.068  1.00  0.00     0.049 A 
ATOM     52  H   UNL A   1      42.492  27.405  28.967  1.00  0.00     0.167 HD
ATOM     53  C   UNL A   1      43.916  31.285  30.515  1.00  0.00     0.037 A 
ATOM     54  C   UNL A   1      42.815  24.854  27.883  1.00  0.00     0.037 A 
ATOM     55  C   UNL A   1      45.077  30.443  30.452  1.00  0.00     0.049 A 
ATOM     56  C   UNL A   1      44.182  25.325  28.300  1.00  0.00     0.074 A 
ATOM     57  C   UNL A   1      46.367  30.721  30.867  1.00  0.00     0.029 A 
ATOM     58  N   UNL A   1      45.086  29.151  29.943  1.00  0.00    -0.354 N 
ATOM     59  N   UNL A   1      44.535  26.472  28.829  1.00  0.00    -0.248 NA
ATOM     60  C   UNL A   1      45.297  24.390  28.097  1.00  0.00     0.031 C 
ATOM     61  C   UNL A   1      47.167  29.618  30.559  1.00  0.00     0.029 A 
ATOM     62  C   UNL A   1      46.364  28.629  30.012  1.00  0.00     0.049 A 
ATOM     63  H   UNL A   1      44.299  28.679  29.587  1.00  0.00     0.167 HD
ATOM     64  C   UNL A   1      45.902  26.383  29.056  1.00  0.00     0.074 A 
ATOM     65  C   UNL A   1      46.312  25.067  28.612  1.00  0.00     0.031 C 
ATOM     66  C   UNL A   1      46.742  27.306  29.585  1.00  0.00     0.037 A 
BRANCH  53  67
ATOM     67  C   UNL A   1      44.064  32.689  31.027  1.00  0.00     0.057 A 
ATOM     68  C   UNL A   1      44.329  33.768  30.172  1.00  0.00     0.134 A 
ATOM     69  C   UNL A   1      43.926  32.969  32.391  1.00  0.00     0.134 A 
ATOM     70  F   UNL A   1      44.491  33.569  28.853  1.00  0.00    -0.206 F 
ATOM     71  C   UNL A   1      44.487  35.066  30.658  1.00  0.00     0.040 A 
ATOM     72  C   UNL A   1      44.046  34.268  32.886  1.00  0.00     0.040 A 
ATOM     73  F   UNL A   1      43.670  31.985  33.267  1.00  0.00    -0.206 F 
ATOM     74  C   UNL A   1      44.337  35.320  32.020  1.00  0.00     0.006 A 
ENDBRANCH  53  67
BRANCH  54  75
ATOM     75  C   UNL A   1      42.619  23.501  27.296  1.00  0.00     0.057 A 
ATOM     76  C   UNL A   1      42.263  22.412  28.101  1.00  0.00     0.134 A 
ATOM     77  C   UNL A   1      42.790  23.259  25.928  1.00  0.00     0.134 A 
ATOM     78  F   UNL A   1      42.099  22.576  29.423  1.00  0.00    -0.206 F 
ATOM     79  C   UNL A   1      42.110  21.130  27.574  1.00  0.00     0.040 A 
ATOM     80  C   UNL A   1      42.612  21.986  25.381  1.00  0.00     0.040 A 
ATOM     81  F   UNL A   1      43.120  24.260  25.099  1.00  0.00    -0.206 F 
ATOM     82  C   UNL A   1      42.280  20.914  26.207  1.00  0.00     0.006 A 
ENDBRANCH  54  75
BRANCH  66  83
ATOM     83  C   UNL A   1      48.177  26.911  29.768  1.00  0.00     0.057 A 
ATOM     84  C   UNL A   1      48.608  26.160  30.868  1.00  0.00     0.134 A 
ATOM     85  C   UNL A   1      49.126  27.222  28.783  1.00  0.00     0.134 A 
ATOM     86  F   UNL A   1      47.751  25.840  31.850  1.00  0.00    -0.206 F 
ATOM     87  C   UNL A   1      49.933  25.743  30.989  1.00  0.00     0.040 A 
ATOM     88  C   UNL A   1      50.445  26.783  28.878  1.00  0.00     0.040 A 
ATOM     89  F   UNL A   1      48.774  27.929  27.698  1.00  0.00    -0.206 F 
ATOM     90  C   UNL A   1      50.854  26.044  29.986  1.00  0.00     0.006 A 
ENDBRANCH  66  83
ENDBRANCH  40  41
ENDBRANCH  32  35
ENDBRANCH  30  31
ENDBRANCH   1  30
TORSDOF 13
ENDMDL
MODEL 2
REMARK VINA RESULT:     -12.8      3.094      6.548
REMARK SMILES O=C(NCCCNC(=O)c1ccc(-c2c3nc(c(-c4c(F)cccc4F)c4ccc([nH]4)c(-c4c(F)cccc4F)c4nc(c(-c5c(F)cccc5F)c5ccc2[nH]5)C=C4)C=C3)cc1)C1=Cc2cc(Cl)cc(C#Cc3ccccc3)c2O[C@@H]1C(F)(F)F
REMARK SMILES IDX 5 1 4 2 3 3 1 4 2 5 64 7 65 8 82 9 66 10 81 11 67 12 80 13
REMARK SMILES IDX 68 14 71 15 69 16 70 17 83 18 84 19 85 20 86 21 72 22 73 23
REMARK SMILES IDX 74 24 75 25 79 26 76 27 78 28 77 29 6 30 7 31 8 32 9 34
REMARK SMILES IDX 10 35 11 36 63 37 12 38 62 39 13 40 14 41 15 42 56 43 16 44
REMARK SMILES IDX 61 45 55 46 57 47 17 48 60 49 54 50 53 51 18 53 44 54 27 55
REMARK SMILES IDX 43 56 28 57 31 58 42 59 58 60 29 61 30 62 41 64 59 65 32 66
REMARK SMILES IDX 19 67 20 68 25 69 21 70 22 71 24 72 26 73 23 74 45 75 46 76
REMARK SMILES IDX 51 77 47 78 48 79 50 80 52 81 49 82 33 83 34 84 39 85 35 86
REMARK SMILES IDX 36 87 38 88 40 89 37 90
REMARK H PARENT 3 6 7 33 57 52 31 63
REMARK Flexibility Score: inf
ROOT
ATOM      1  C   UNL A   1      31.742  28.347  27.374  1.00  0.00     0.042 C 
ENDROOT
BRANCH   1   2
ATOM      2  C   UNL A   1      31.032  27.364  26.476  1.00  0.00     0.118 C 
BRANCH   2   3
ATOM      3  N   UNL A   1      31.096  25.977  26.881  1.00  0.00    -0.352 N 
ATOM      4  O   UNL A   1      32.046  23.952  27.080  1.00  0.00    -0.270 OA
ATOM      5  C   UNL A   1      31.956  25.002  26.449  1.00  0.00     0.251 C 
ATOM      6  H   UNL A   1      30.436  25.698  27.555  1.00  0.00     0.163 HD
BRANCH   5   7
ATOM      7  C   UNL A   1      32.877  25.233  25.296  1.00  0.00     0.067 C 
ATOM      8  C   UNL A   1      34.175  25.530  25.478  1.00  0.00     0.025 C 
ATOM      9  C   UNL A   1      32.488  24.439  24.078  1.00  0.00     0.314 C 
ATOM     10  C   UNL A   1      35.105  24.460  25.034  1.00  0.00     0.020 A 
ATOM     11  O   UNL A   1      33.298  23.241  23.935  1.00  0.00    -0.474 OA
ATOM     12  C   UNL A   1      36.375  24.454  25.630  1.00  0.00     0.032 A 
ATOM     13  C   UNL A   1      34.562  23.273  24.482  1.00  0.00     0.143 A 
ATOM     14  C   UNL A   1      37.050  23.246  25.785  1.00  0.00     0.043 A 
ATOM     15  C   UNL A   1      35.228  22.054  24.706  1.00  0.00     0.069 A 
ATOM     16  Cl  UNL A   1      38.510  23.202  26.695  1.00  0.00    -0.084 Cl
ATOM     17  C   UNL A   1      36.474  22.052  25.353  1.00  0.00     0.041 A 
BRANCH   9  18
ATOM     18  C   UNL A   1      32.512  25.356  22.840  1.00  0.00     0.429 C 
ATOM     19  F   UNL A   1      31.617  24.963  21.906  1.00  0.00    -0.167 F 
ATOM     20  F   UNL A   1      32.200  26.634  23.170  1.00  0.00    -0.167 F 
ATOM     21  F   UNL A   1      33.729  25.392  22.245  1.00  0.00    -0.167 F 
ENDBRANCH   9  18
BRANCH  15  22
ATOM     22  C   UNL A   1      34.587  20.773  24.553  1.00  0.00    -0.058 C 
ATOM     23  C   UNL A   1      34.139  19.657  24.591  1.00  0.00    -0.062 C 
BRANCH  23  24
ATOM     24  C   UNL A   1      33.726  18.282  24.668  1.00  0.00     0.025 A 
ATOM     25  C   UNL A   1      32.766  17.865  25.596  1.00  0.00     0.017 A 
ATOM     26  C   UNL A   1      34.345  17.332  23.856  1.00  0.00     0.017 A 
ATOM     27  C   UNL A   1      32.452  16.508  25.733  1.00  0.00     0.001 A 
ATOM     28  C   UNL A   1      34.029  15.977  23.990  1.00  0.00     0.001 A 
ATOM     29  C   UNL A   1      33.090  15.564  24.933  1.00  0.00     0.000 A 
ENDBRANCH  23  24
ENDBRANCH  15  22
ENDBRANCH   5   7
ENDBRANCH   2   3
ENDBRANCH   1   2
BRANCH   1  30
ATOM     30  C   UNL A   1      32.678  29.240  26.590  1.00  0.00     0.118 C 
BRANCH  30  31
ATOM     31  N   UNL A   1      32.444  30.673  26.810  1.00  0.00    -0.352 N 
ATOM     32  C   UNL A   1      33.262  31.643  27.349  1.00  0.00     0.251 C 
ATOM     33  H   UNL A   1      31.557  30.993  26.526  1.00  0.00     0.163 HD
ATOM     34  O   UNL A   1      32.823  32.760  27.604  1.00  0.00    -0.269 OA
BRANCH  32  35
ATOM     35  C   UNL A   1      34.661  31.318  27.680  1.00  0.00     0.039 A 
ATOM     36  C   UNL A   1      35.579  32.355  27.867  1.00  0.00     0.014 A 
ATOM     37  C   UNL A   1      35.028  30.000  27.920  1.00  0.00     0.014 A 
ATOM     38  C   UNL A   1      36.810  32.074  28.456  1.00  0.00     0.010 A 
ATOM     39  C   UNL A   1      36.159  29.753  28.671  1.00  0.00     0.010 A 
ATOM     40  C   UNL A   1      37.068  30.785  28.945  1.00  0.00    -0.014 A 
BRANCH  40  41
ATOM     41  C   UNL A   1      38.275  30.457  29.742  1.00  0.00     0.031 A 
ATOM     42  C   UNL A   1      39.284  29.497  29.172  1.00  0.00     0.074 A 
ATOM     43  C   UNL A   1      38.394  30.908  31.006  1.00  0.00     0.049 A 
ATOM     44  N   UNL A   1      40.292  28.909  29.760  1.00  0.00    -0.248 NA
ATOM     45  C   UNL A   1      39.094  29.096  27.766  1.00  0.00     0.031 C 
ATOM     46  C   UNL A   1      37.450  31.796  31.691  1.00  0.00     0.029 A 
ATOM     47  N   UNL A   1      39.356  30.662  31.953  1.00  0.00    -0.354 N 
ATOM     48  C   UNL A   1      40.824  28.046  28.811  1.00  0.00     0.074 A 
ATOM     49  C   UNL A   1      39.981  28.122  27.640  1.00  0.00     0.031 C 
ATOM     50  C   UNL A   1      37.899  32.047  32.931  1.00  0.00     0.029 A 
ATOM     51  C   UNL A   1      39.125  31.292  33.153  1.00  0.00     0.049 A 
ATOM     52  H   UNL A   1      40.140  30.088  31.787  1.00  0.00     0.167 HD
ATOM     53  C   UNL A   1      41.939  27.286  28.892  1.00  0.00     0.037 A 
ATOM     54  C   UNL A   1      39.818  31.247  34.307  1.00  0.00     0.037 A 
ATOM     55  C   UNL A   1      42.797  27.257  30.043  1.00  0.00     0.049 A 
ATOM     56  C   UNL A   1      41.056  30.392  34.375  1.00  0.00     0.074 A 
ATOM     57  C   UNL A   1      43.991  26.581  30.211  1.00  0.00     0.029 A 
ATOM     58  N   UNL A   1      42.550  27.943  31.225  1.00  0.00    -0.354 N 
ATOM     59  N   UNL A   1      41.587  29.632  33.448  1.00  0.00    -0.248 NA
ATOM     60  C   UNL A   1      41.790  30.389  35.648  1.00  0.00     0.031 C 
ATOM     61  C   UNL A   1      44.439  26.813  31.514  1.00  0.00     0.029 A 
ATOM     62  C   UNL A   1      43.558  27.686  32.135  1.00  0.00     0.049 A 
ATOM     63  H   UNL A   1      41.773  28.524  31.389  1.00  0.00     0.167 HD
ATOM     64  C   UNL A   1      42.736  29.091  34.010  1.00  0.00     0.074 A 
ATOM     65  C   UNL A   1      42.826  29.616  35.358  1.00  0.00     0.031 C 
ATOM     66  C   UNL A   1      43.637  28.239  33.463  1.00  0.00     0.037 A 
BRANCH  53  67
ATOM     67  C   UNL A   1      42.292  26.440  27.702  1.00  0.00     0.057 A 
ATOM     68  C   UNL A   1      43.092  26.925  26.658  1.00  0.00     0.134 A 
ATOM     69  C   UNL A   1      41.837  25.120  27.604  1.00  0.00     0.134 A 
ATOM     70  F   UNL A   1      43.549  28.188  26.678  1.00  0.00    -0.206 F 
ATOM     71  C   UNL A   1      43.398  26.140  25.545  1.00  0.00     0.040 A 
ATOM     72  C   UNL A   1      42.165  24.314  26.514  1.00  0.00     0.040 A 
ATOM     73  F   UNL A   1      41.068  24.591  28.568  1.00  0.00    -0.206 F 
ATOM     74  C   UNL A   1      42.939  24.827  25.475  1.00  0.00     0.006 A 
ENDBRANCH  53  67
BRANCH  54  75
ATOM     75  C   UNL A   1      39.376  32.045  35.480  1.00  0.00     0.057 A 
ATOM     76  C   UNL A   1      38.488  31.511  36.421  1.00  0.00     0.134 A 
ATOM     77  C   UNL A   1      39.817  33.358  35.686  1.00  0.00     0.134 A 
ATOM     78  F   UNL A   1      38.016  30.264  36.272  1.00  0.00    -0.206 F 
ATOM     79  C   UNL A   1      38.035  32.259  37.509  1.00  0.00     0.040 A 
ATOM     80  C   UNL A   1      39.395  34.108  36.786  1.00  0.00     0.040 A 
ATOM     81  F   UNL A   1      40.678  33.927  34.829  1.00  0.00    -0.206 F 
ATOM     82  C   UNL A   1      38.493  33.561  37.697  1.00  0.00     0.006 A 
ENDBRANCH  54  75
BRANCH  66  83
ATOM     83  C   UNL A   1      44.827  27.862  34.293  1.00  0.00     0.057 A 
ATOM     84  C   UNL A   1      46.005  28.620  34.292  1.00  0.00     0.134 A 
ATOM     85  C   UNL A   1      44.760  26.766  35.166  1.00  0.00     0.134 A 
ATOM     86  F   UNL A   1      46.135  29.673  33.472  1.00  0.00    -0.206 F 
ATOM     87  C   UNL A   1      47.078  28.294  35.121  1.00  0.00     0.040 A 
ATOM     88  C   UNL A   1      45.814  26.451  36.021  1.00  0.00     0.040 A 
ATOM     89  F   UNL A   1      43.655  26.007  35.222  1.00  0.00    -0.206 F 
ATOM     90  C   UNL A   1      46.980  27.214  35.998  1.00  0.00     0.006 A 
ENDBRANCH  66  83
ENDBRANCH  40  41
ENDBRANCH  32  35
ENDBRANCH  30  31
ENDBRANCH   1  30
TORSDOF 13
ENDMDL
MODEL 3
REMARK VINA RESULT:     -12.8      3.436      7.587
REMARK SMILES O=C(NCCCNC(=O)c1ccc(-c2c3nc(c(-c4c(F)cccc4F)c4ccc([nH]4)c(-c4c(F)cccc4F)c4nc(c(-c5c(F)cccc5F)c5ccc2[nH]5)C=C4)C=C3)cc1)C1=Cc2cc(Cl)cc(C#Cc3ccccc3)c2O[C@@H]1C(F)(F)F
REMARK SMILES IDX 5 1 4 2 3 3 1 4 2 5 64 7 65 8 82 9 66 10 81 11 67 12 80 13
REMARK SMILES IDX 68 14 71 15 69 16 70 17 83 18 84 19 85 20 86 21 72 22 73 23
REMARK SMILES IDX 74 24 75 25 79 26 76 27 78 28 77 29 6 30 7 31 8 32 9 34
REMARK SMILES IDX 10 35 11 36 63 37 12 38 62 39 13 40 14 41 15 42 56 43 16 44
REMARK SMILES IDX 61 45 55 46 57 47 17 48 60 49 54 50 53 51 18 53 44 54 27 55
REMARK SMILES IDX 43 56 28 57 31 58 42 59 58 60 29 61 30 62 41 64 59 65 32 66
REMARK SMILES IDX 19 67 20 68 25 69 21 70 22 71 24 72 26 73 23 74 45 75 46 76
REMARK SMILES IDX 51 77 47 78 48 79 50 80 52 81 49 82 33 83 34 84 39 85 35 86
REMARK SMILES IDX 36 87 38 88 40 89 37 90
REMARK H PARENT 3 6 7 33 57 52 31 63
REMARK Flexibility Score: inf
ROOT
ATOM      1  C   UNL A   1      36.104  22.642  23.836  1.00  0.00     0.042 C 
ENDROOT
BRANCH   1   2
ATOM      2  C   UNL A   1      34.627  22.922  23.709  1.00  0.00     0.118 C 
BRANCH   2   3
ATOM      3  N   UNL A   1      34.270  24.104  22.957  1.00  0.00    -0.352 N 
ATOM      4  O   UNL A   1      33.668  26.253  22.699  1.00  0.00    -0.270 OA
ATOM      5  C   UNL A   1      33.662  25.247  23.405  1.00  0.00     0.251 C 
ATOM      6  H   UNL A   1      34.492  24.085  21.999  1.00  0.00     0.163 HD
BRANCH   5   7
ATOM      7  C   UNL A   1      33.097  25.338  24.785  1.00  0.00     0.067 C 
ATOM      8  C   UNL A   1      33.749  25.974  25.774  1.00  0.00     0.025 C 
ATOM      9  C   UNL A   1      31.593  25.353  24.793  1.00  0.00     0.314 C 
ATOM     10  C   UNL A   1      33.080  27.219  26.231  1.00  0.00     0.020 A 
ATOM     11  O   UNL A   1      31.068  26.699  24.950  1.00  0.00    -0.474 OA
ATOM     12  C   UNL A   1      33.900  28.172  26.854  1.00  0.00     0.032 A 
ATOM     13  C   UNL A   1      31.867  27.607  25.610  1.00  0.00     0.143 A 
ATOM     14  C   UNL A   1      33.576  29.522  26.751  1.00  0.00     0.043 A 
ATOM     15  C   UNL A   1      31.590  28.979  25.459  1.00  0.00     0.069 A 
ATOM     16  Cl  UNL A   1      34.682  30.706  27.333  1.00  0.00    -0.084 Cl
ATOM     17  C   UNL A   1      32.447  29.927  26.039  1.00  0.00     0.041 A 
BRANCH   9  18
ATOM     18  C   UNL A   1      31.076  24.359  25.851  1.00  0.00     0.429 C 
ATOM     19  F   UNL A   1      32.000  24.118  26.808  1.00  0.00    -0.167 F 
ATOM     20  F   UNL A   1      29.974  24.839  26.479  1.00  0.00    -0.167 F 
ATOM     21  F   UNL A   1      30.729  23.164  25.314  1.00  0.00    -0.167 F 
ENDBRANCH   9  18
BRANCH  15  22
ATOM     22  C   UNL A   1      30.625  29.484  24.517  1.00  0.00    -0.058 C 
ATOM     23  C   UNL A   1      29.947  30.044  23.697  1.00  0.00    -0.062 C 
BRANCH  23  24
ATOM     24  C   UNL A   1      29.167  30.829  22.778  1.00  0.00     0.025 A 
ATOM     25  C   UNL A   1      28.725  30.295  21.563  1.00  0.00     0.017 A 
ATOM     26  C   UNL A   1      28.910  32.169  23.066  1.00  0.00     0.017 A 
ATOM     27  C   UNL A   1      28.060  31.102  20.633  1.00  0.00     0.001 A 
ATOM     28  C   UNL A   1      28.243  32.975  22.139  1.00  0.00     0.001 A 
ATOM     29  C   UNL A   1      27.826  32.444  20.919  1.00  0.00     0.000 A 
ENDBRANCH  23  24
ENDBRANCH  15  22
ENDBRANCH   5   7
ENDBRANCH   2   3
ENDBRANCH   1   2
BRANCH   1  30
ATOM     30  C   UNL A   1      36.465  22.185  25.232  1.00  0.00     0.118 C 
BRANCH  30  31
ATOM     31  N   UNL A   1      37.494  21.138  25.260  1.00  0.00    -0.352 N 
ATOM     32  C   UNL A   1      38.779  21.156  25.759  1.00  0.00     0.251 C 
ATOM     33  H   UNL A   1      37.221  20.283  24.856  1.00  0.00     0.163 HD
ATOM     34  O   UNL A   1      39.548  20.227  25.538  1.00  0.00    -0.269 OA
BRANCH  32  35
ATOM     35  C   UNL A   1      39.254  22.330  26.513  1.00  0.00     0.039 A 
ATOM     36  C   UNL A   1      40.263  22.170  27.465  1.00  0.00     0.014 A 
ATOM     37  C   UNL A   1      38.784  23.597  26.190  1.00  0.00     0.014 A 
ATOM     38  C   UNL A   1      40.911  23.298  27.965  1.00  0.00     0.010 A 
ATOM     39  C   UNL A   1      39.547  24.695  26.536  1.00  0.00     0.010 A 
ATOM     40  C   UNL A   1      40.617  24.562  27.431  1.00  0.00    -0.014 A 
BRANCH  40  41
ATOM     41  C   UNL A   1      41.389  25.778  27.780  1.00  0.00     0.031 A 
ATOM     42  C   UNL A   1      40.706  26.879  28.546  1.00  0.00     0.074 A 
ATOM     43  C   UNL A   1      42.637  25.948  27.302  1.00  0.00     0.049 A 
ATOM     44  N   UNL A   1      41.108  28.101  28.778  1.00  0.00    -0.248 NA
ATOM     45  C   UNL A   1      39.359  26.583  29.069  1.00  0.00     0.031 C 
ATOM     46  C   UNL A   1      43.384  24.978  26.496  1.00  0.00     0.029 A 
ATOM     47  N   UNL A   1      43.495  27.013  27.409  1.00  0.00    -0.354 N 
ATOM     48  C   UNL A   1      40.052  28.721  29.432  1.00  0.00     0.074 A 
ATOM     49  C   UNL A   1      38.963  27.774  29.486  1.00  0.00     0.031 C 
ATOM     50  C   UNL A   1      44.597  25.479  26.213  1.00  0.00     0.029 A 
ATOM     51  C   UNL A   1      44.694  26.825  26.762  1.00  0.00     0.049 A 
ATOM     52  H   UNL A   1      43.273  27.836  27.903  1.00  0.00     0.167 HD
ATOM     53  C   UNL A   1      40.006  29.959  29.975  1.00  0.00     0.037 A 
ATOM     54  C   UNL A   1      45.743  27.657  26.614  1.00  0.00     0.037 A 
ATOM     55  C   UNL A   1      41.113  30.873  29.959  1.00  0.00     0.049 A 
ATOM     56  C   UNL A   1      45.669  29.031  27.226  1.00  0.00     0.074 A 
ATOM     57  C   UNL A   1      41.206  32.124  30.540  1.00  0.00     0.029 A 
ATOM     58  N   UNL A   1      42.326  30.628  29.329  1.00  0.00    -0.354 N 
ATOM     59  N   UNL A   1      44.690  29.583  27.901  1.00  0.00    -0.248 NA
ATOM     60  C   UNL A   1      46.845  29.896  27.056  1.00  0.00     0.031 C 
ATOM     61  C   UNL A   1      42.455  32.660  30.215  1.00  0.00     0.029 A 
ATOM     62  C   UNL A   1      43.164  31.716  29.487  1.00  0.00     0.049 A 
ATOM     63  H   UNL A   1      42.554  29.804  28.842  1.00  0.00     0.167 HD
ATOM     64  C   UNL A   1      45.144  30.843  28.268  1.00  0.00     0.074 A 
ATOM     65  C   UNL A   1      46.489  30.970  27.745  1.00  0.00     0.031 C 
ATOM     66  C   UNL A   1      44.508  31.808  28.976  1.00  0.00     0.037 A 
BRANCH  53  67
ATOM     67  C   UNL A   1      38.725  30.381  30.636  1.00  0.00     0.057 A 
ATOM     68  C   UNL A   1      37.716  31.058  29.938  1.00  0.00     0.134 A 
ATOM     69  C   UNL A   1      38.492  30.095  31.986  1.00  0.00     0.134 A 
ATOM     70  F   UNL A   1      37.880  31.380  28.644  1.00  0.00    -0.206 F 
ATOM     71  C   UNL A   1      36.538  31.465  30.565  1.00  0.00     0.040 A 
ATOM     72  C   UNL A   1      37.304  30.465  32.616  1.00  0.00     0.040 A 
ATOM     73  F   UNL A   1      39.414  29.448  32.716  1.00  0.00    -0.206 F 
ATOM     74  C   UNL A   1      36.327  31.161  31.908  1.00  0.00     0.006 A 
ENDBRANCH  53  67
BRANCH  54  75
ATOM     75  C   UNL A   1      46.956  27.212  25.879  1.00  0.00     0.057 A 
ATOM     76  C   UNL A   1      47.984  26.525  26.537  1.00  0.00     0.134 A 
ATOM     77  C   UNL A   1      47.125  27.466  24.513  1.00  0.00     0.134 A 
ATOM     78  F   UNL A   1      47.890  26.264  27.849  1.00  0.00    -0.206 F 
ATOM     79  C   UNL A   1      49.146  26.131  25.870  1.00  0.00     0.040 A 
ATOM     80  C   UNL A   1      48.269  27.052  23.827  1.00  0.00     0.040 A 
ATOM     81  F   UNL A   1      46.173  28.109  23.820  1.00  0.00    -0.206 F 
ATOM     82  C   UNL A   1      49.288  26.390  24.508  1.00  0.00     0.006 A 
ENDBRANCH  54  75
BRANCH  66  83
ATOM     83  C   UNL A   1      45.271  33.064  29.277  1.00  0.00     0.057 A 
ATOM     84  C   UNL A   1      46.101  33.178  30.399  1.00  0.00     0.134 A 
ATOM     85  C   UNL A   1      45.233  34.144  28.384  1.00  0.00     0.134 A 
ATOM     86  F   UNL A   1      46.172  32.184  31.296  1.00  0.00    -0.206 F 
ATOM     87  C   UNL A   1      46.857  34.327  30.628  1.00  0.00     0.040 A 
ATOM     88  C   UNL A   1      46.008  35.284  28.587  1.00  0.00     0.040 A 
ATOM     89  F   UNL A   1      44.466  34.091  27.284  1.00  0.00    -0.206 F 
ATOM     90  C   UNL A   1      46.821  35.380  29.715  1.00  0.00     0.006 A 
ENDBRANCH  66  83
ENDBRANCH  40  41
ENDBRANCH  32  35
ENDBRANCH  30  31
ENDBRANCH   1  30
TORSDOF 13
ENDMDL
