MODEL 1
REMARK VINA RESULT:     -12.0      0.000      0.000
REMARK SMILES O=C1C[C@@H]([N@@H+]2[C@@H](C(=O)NCCCNC(=O)c3ccc(-c4c5nc(c(-c6c(F)cccc6F)c6ccc([nH]6)c(-c6c(F)cccc6F)c6nc(c(-c7c(F)cccc7F)c7ccc4[nH]7)C=C6)C=C5)cc3)CC[C@@H]3CCCC[C@H]32)C(=O)N1
REMARK SMILES IDX 11 1 10 2 9 3 7 4 8 5 6 7 5 8 77 9 70 11 72 12 76 13 71 14
REMARK SMILES IDX 73 15 75 16 74 17 4 18 1 19 2 20 3 21 80 22 78 23 79 25
REMARK SMILES IDX 12 26 13 27 14 28 15 30 16 31 17 32 69 33 18 34 68 35 19 36
REMARK SMILES IDX 20 37 21 38 62 39 22 40 67 41 61 42 63 43 23 44 66 45 60 46
REMARK SMILES IDX 59 47 24 49 50 50 33 51 49 52 34 53 37 54 48 55 64 56 35 57
REMARK SMILES IDX 36 58 47 60 65 61 38 62 25 63 26 64 31 65 27 66 28 67 30 68
REMARK SMILES IDX 32 69 29 70 51 71 52 72 57 73 53 74 54 75 56 76 58 77 55 78
REMARK SMILES IDX 39 79 40 80 45 81 41 82 42 83 44 84 46 85 43 86
REMARK H PARENT 9 6 5 10 80 24 13 29 63 48 37 59
REMARK Flexibility Score: inf
ROOT
ATOM      1  C   UNL A   1      32.409  28.676  26.494  1.00  0.00     0.042 C 
ENDROOT
BRANCH   1   2
ATOM      2  C   UNL A   1      31.633  27.462  26.988  1.00  0.00     0.118 C 
BRANCH   2   3
ATOM      3  N   UNL A   1      31.044  26.730  25.879  1.00  0.00    -0.351 N 
ATOM      4  C   UNL A   1      31.534  25.669  25.179  1.00  0.00     0.278 C 
ATOM      5  O   UNL A   1      30.811  25.157  24.319  1.00  0.00    -0.268 OA
ATOM      6  H   UNL A   1      30.158  27.049  25.590  1.00  0.00     0.163 HD
BRANCH   4   7
ATOM      7  C   UNL A   1      32.941  25.107  25.451  1.00  0.00     0.275 C 
ATOM      8  N   UNL A   1      33.636  24.656  24.195  1.00  0.00    -0.311 N 
ATOM      9  C   UNL A   1      34.887  23.893  24.499  1.00  0.00     0.188 C 
ATOM     10  H   UNL A   1      32.981  24.026  23.733  1.00  0.00     0.349 HD
ATOM     11  C   UNL A   1      32.783  24.040  26.546  1.00  0.00     0.076 C 
ATOM     12  C   UNL A   1      34.652  22.766  25.543  1.00  0.00     0.048 C 
ATOM     13  C   UNL A   1      35.515  23.253  23.234  1.00  0.00     0.065 C 
ATOM     14  C   UNL A   1      34.087  23.336  26.840  1.00  0.00     0.016 C 
ATOM     15  C   UNL A   1      35.943  21.995  25.854  1.00  0.00     0.010 C 
ATOM     16  C   UNL A   1      36.789  22.468  23.544  1.00  0.00     0.006 C 
ATOM     17  C   UNL A   1      36.557  21.398  24.597  1.00  0.00     0.001 C 
BRANCH   8  18
ATOM     18  C   UNL A   1      33.898  25.768  23.214  1.00  0.00     0.284 C 
ATOM     19  O   UNL A   1      32.094  28.847  22.974  1.00  0.00    -0.274 OA
ATOM     20  C   UNL A   1      32.607  27.750  22.845  1.00  0.00     0.233 C 
ATOM     21  C   UNL A   1      33.698  27.201  23.715  1.00  0.00     0.176 C 
ATOM     22  N   UNL A   1      32.326  26.859  21.863  1.00  0.00    -0.291 N 
ATOM     23  C   UNL A   1      33.064  25.722  21.937  1.00  0.00     0.285 C 
ATOM     24  H   UNL A   1      31.652  27.021  21.165  1.00  0.00     0.173 HD
ATOM     25  O   UNL A   1      33.072  24.841  21.091  1.00  0.00    -0.268 OA
ENDBRANCH   8  18
ENDBRANCH   4   7
ENDBRANCH   2   3
ENDBRANCH   1   2
BRANCH   1  26
ATOM     26  C   UNL A   1      33.669  28.959  27.300  1.00  0.00     0.118 C 
BRANCH  26  27
ATOM     27  N   UNL A   1      33.669  30.292  27.882  1.00  0.00    -0.352 N 
ATOM     28  C   UNL A   1      34.636  30.932  28.615  1.00  0.00     0.251 C 
ATOM     29  H   UNL A   1      32.850  30.815  27.726  1.00  0.00     0.163 HD
ATOM     30  O   UNL A   1      34.368  31.982  29.193  1.00  0.00    -0.269 OA
BRANCH  28  31
ATOM     31  C   UNL A   1      35.993  30.356  28.735  1.00  0.00     0.039 A 
ATOM     32  C   UNL A   1      36.862  30.466  27.647  1.00  0.00     0.014 A 
ATOM     33  C   UNL A   1      36.407  29.692  29.893  1.00  0.00     0.014 A 
ATOM     34  C   UNL A   1      38.161  29.967  27.743  1.00  0.00     0.010 A 
ATOM     35  C   UNL A   1      37.730  29.272  30.021  1.00  0.00     0.010 A 
ATOM     36  C   UNL A   1      38.619  29.402  28.946  1.00  0.00    -0.014 A 
BRANCH  36  37
ATOM     37  C   UNL A   1      40.033  28.967  29.084  1.00  0.00     0.031 A 
ATOM     38  C   UNL A   1      41.073  29.896  29.648  1.00  0.00     0.074 A 
ATOM     39  C   UNL A   1      40.384  27.732  28.671  1.00  0.00     0.049 A 
ATOM     40  N   UNL A   1      42.350  29.683  29.842  1.00  0.00    -0.248 NA
ATOM     41  C   UNL A   1      40.627  31.247  30.026  1.00  0.00     0.031 C 
ATOM     42  C   UNL A   1      39.480  26.759  28.052  1.00  0.00     0.029 A 
ATOM     43  N   UNL A   1      41.592  27.084  28.708  1.00  0.00    -0.354 N 
ATOM     44  C   UNL A   1      42.856  30.865  30.365  1.00  0.00     0.074 A 
ATOM     45  C   UNL A   1      41.764  31.814  30.399  1.00  0.00     0.031 C 
ATOM     46  C   UNL A   1      40.157  25.629  27.800  1.00  0.00     0.029 A 
ATOM     47  C   UNL A   1      41.549  25.809  28.197  1.00  0.00     0.049 A 
ATOM     48  H   UNL A   1      42.412  27.493  29.067  1.00  0.00     0.167 HD
ATOM     49  C   UNL A   1      44.111  31.129  30.805  1.00  0.00     0.037 A 
ATOM     50  C   UNL A   1      42.522  24.889  28.060  1.00  0.00     0.037 A 
ATOM     51  C   UNL A   1      45.195  30.182  30.776  1.00  0.00     0.049 A 
ATOM     52  C   UNL A   1      43.908  25.214  28.542  1.00  0.00     0.074 A 
ATOM     53  C   UNL A   1      46.492  30.341  31.234  1.00  0.00     0.029 A 
ATOM     54  N   UNL A   1      45.112  28.898  30.256  1.00  0.00    -0.354 N 
ATOM     55  N   UNL A   1      44.354  26.314  29.101  1.00  0.00    -0.248 NA
ATOM     56  C   UNL A   1      44.925  24.165  28.384  1.00  0.00     0.031 C 
ATOM     57  C   UNL A   1      47.205  29.173  30.946  1.00  0.00     0.029 A 
ATOM     58  C   UNL A   1      46.339  28.265  30.361  1.00  0.00     0.049 A 
ATOM     59  H   UNL A   1      44.300  28.498  29.869  1.00  0.00     0.167 HD
ATOM     60  C   UNL A   1      45.694  26.081  29.381  1.00  0.00     0.074 A 
ATOM     61  C   UNL A   1      45.979  24.726  28.958  1.00  0.00     0.031 C 
ATOM     62  C   UNL A   1      46.610  26.916  29.933  1.00  0.00     0.037 A 
BRANCH  49  63
ATOM     63  C   UNL A   1      44.377  32.495  31.371  1.00  0.00     0.057 A 
ATOM     64  C   UNL A   1      44.795  33.559  30.560  1.00  0.00     0.134 A 
ATOM     65  C   UNL A   1      44.159  32.767  32.728  1.00  0.00     0.134 A 
ATOM     66  F   UNL A   1      45.033  33.365  29.254  1.00  0.00    -0.206 F 
ATOM     67  C   UNL A   1      45.007  34.837  31.081  1.00  0.00     0.040 A 
ATOM     68  C   UNL A   1      44.339  34.047  33.255  1.00  0.00     0.040 A 
ATOM     69  F   UNL A   1      43.752  31.797  33.561  1.00  0.00    -0.206 F 
ATOM     70  C   UNL A   1      44.769  35.086  32.431  1.00  0.00     0.006 A 
ENDBRANCH  49  63
BRANCH  50  71
ATOM     71  C   UNL A   1      42.222  23.570  27.444  1.00  0.00     0.057 A 
ATOM     72  C   UNL A   1      41.848  22.470  28.225  1.00  0.00     0.134 A 
ATOM     73  C   UNL A   1      42.332  23.371  26.063  1.00  0.00     0.134 A 
ATOM     74  F   UNL A   1      41.743  22.591  29.557  1.00  0.00    -0.206 F 
ATOM     75  C   UNL A   1      41.623  21.213  27.659  1.00  0.00     0.040 A 
ATOM     76  C   UNL A   1      42.079  22.128  25.480  1.00  0.00     0.040 A 
ATOM     77  F   UNL A   1      42.676  24.386  25.256  1.00  0.00    -0.206 F 
ATOM     78  C   UNL A   1      41.736  21.041  26.282  1.00  0.00     0.006 A 
ENDBRANCH  50  71
BRANCH  62  79
ATOM     79  C   UNL A   1      47.996  26.371  30.129  1.00  0.00     0.057 A 
ATOM     80  C   UNL A   1      48.398  25.783  31.335  1.00  0.00     0.134 A 
ATOM     81  C   UNL A   1      48.939  26.430  29.094  1.00  0.00     0.134 A 
ATOM     82  F   UNL A   1      47.548  25.707  32.371  1.00  0.00    -0.206 F 
ATOM     83  C   UNL A   1      49.698  25.308  31.518  1.00  0.00     0.040 A 
ATOM     84  C   UNL A   1      50.231  25.928  29.254  1.00  0.00     0.040 A 
ATOM     85  F   UNL A   1      48.619  26.971  27.909  1.00  0.00    -0.206 F 
ATOM     86  C   UNL A   1      50.617  25.376  30.474  1.00  0.00     0.006 A 
ENDBRANCH  62  79
ENDBRANCH  36  37
ENDBRANCH  28  31
ENDBRANCH  26  27
ENDBRANCH   1  26
TORSDOF 11
ENDMDL
MODEL 2
REMARK VINA RESULT:     -11.9      3.037      4.355
REMARK SMILES O=C1C[C@@H]([N@@H+]2[C@@H](C(=O)NCCCNC(=O)c3ccc(-c4c5nc(c(-c6c(F)cccc6F)c6ccc([nH]6)c(-c6c(F)cccc6F)c6nc(c(-c7c(F)cccc7F)c7ccc4[nH]7)C=C6)C=C5)cc3)CC[C@@H]3CCCC[C@H]32)C(=O)N1
REMARK SMILES IDX 11 1 10 2 9 3 7 4 8 5 6 7 5 8 77 9 70 11 72 12 76 13 71 14
REMARK SMILES IDX 73 15 75 16 74 17 4 18 1 19 2 20 3 21 80 22 78 23 79 25
REMARK SMILES IDX 12 26 13 27 14 28 15 30 16 31 17 32 69 33 18 34 68 35 19 36
REMARK SMILES IDX 20 37 21 38 62 39 22 40 67 41 61 42 63 43 23 44 66 45 60 46
REMARK SMILES IDX 59 47 24 49 50 50 33 51 49 52 34 53 37 54 48 55 64 56 35 57
REMARK SMILES IDX 36 58 47 60 65 61 38 62 25 63 26 64 31 65 27 66 28 67 30 68
REMARK SMILES IDX 32 69 29 70 51 71 52 72 57 73 53 74 54 75 56 76 58 77 55 78
REMARK SMILES IDX 39 79 40 80 45 81 41 82 42 83 44 84 46 85 43 86
REMARK H PARENT 9 6 5 10 80 24 13 29 63 48 37 59
REMARK Flexibility Score: inf
ROOT
ATOM      1  C   UNL A   1      31.406  30.803  25.803  1.00  0.00     0.042 C 
ENDROOT
BRANCH   1   2
ATOM      2  C   UNL A   1      31.498  29.289  25.663  1.00  0.00     0.118 C 
BRANCH   2   3
ATOM      3  N   UNL A   1      30.957  28.847  24.388  1.00  0.00    -0.351 N 
ATOM      4  C   UNL A   1      30.821  27.586  23.892  1.00  0.00     0.278 C 
ATOM      5  O   UNL A   1      30.254  27.449  22.803  1.00  0.00    -0.268 OA
ATOM      6  H   UNL A   1      30.643  29.567  23.794  1.00  0.00     0.163 HD
BRANCH   4   7
ATOM      7  C   UNL A   1      31.341  26.358  24.661  1.00  0.00     0.275 C 
ATOM      8  N   UNL A   1      32.087  25.396  23.776  1.00  0.00    -0.311 N 
ATOM      9  C   UNL A   1      32.368  24.105  24.478  1.00  0.00     0.188 C 
ATOM     10  H   UNL A   1      31.462  25.206  22.994  1.00  0.00     0.349 HD
ATOM     11  C   UNL A   1      30.138  25.773  25.418  1.00  0.00     0.076 C 
ATOM     12  C   UNL A   1      31.099  23.509  25.149  1.00  0.00     0.048 C 
ATOM     13  C   UNL A   1      32.960  23.030  23.531  1.00  0.00     0.065 C 
ATOM     14  C   UNL A   1      30.495  24.496  26.142  1.00  0.00     0.016 C 
ATOM     15  C   UNL A   1      31.400  22.188  25.873  1.00  0.00     0.010 C 
ATOM     16  C   UNL A   1      33.242  21.708  24.245  1.00  0.00     0.006 C 
ATOM     17  C   UNL A   1      32.005  21.157  24.932  1.00  0.00     0.001 C 
BRANCH   8  18
ATOM     18  C   UNL A   1      33.338  25.974  23.172  1.00  0.00     0.284 C 
ATOM     19  O   UNL A   1      34.163  29.446  22.927  1.00  0.00    -0.274 OA
ATOM     20  C   UNL A   1      33.863  28.276  22.772  1.00  0.00     0.233 C 
ATOM     21  C   UNL A   1      33.923  27.223  23.839  1.00  0.00     0.176 C 
ATOM     22  N   UNL A   1      33.480  27.708  21.603  1.00  0.00    -0.291 N 
ATOM     23  C   UNL A   1      33.229  26.377  21.704  1.00  0.00     0.285 C 
ATOM     24  H   UNL A   1      33.390  28.211  20.762  1.00  0.00     0.173 HD
ATOM     25  O   UNL A   1      32.996  25.638  20.760  1.00  0.00    -0.268 OA
ENDBRANCH   8  18
ENDBRANCH   4   7
ENDBRANCH   2   3
ENDBRANCH   1   2
BRANCH   1  26
ATOM     26  C   UNL A   1      32.318  31.369  26.882  1.00  0.00     0.118 C 
BRANCH  26  27
ATOM     27  N   UNL A   1      32.118  32.794  27.088  1.00  0.00    -0.352 N 
ATOM     28  C   UNL A   1      32.827  33.680  27.859  1.00  0.00     0.251 C 
ATOM     29  H   UNL A   1      31.358  33.184  26.599  1.00  0.00     0.163 HD
ATOM     30  O   UNL A   1      32.379  34.805  28.064  1.00  0.00    -0.269 OA
BRANCH  28  31
ATOM     31  C   UNL A   1      34.115  33.283  28.468  1.00  0.00     0.039 A 
ATOM     32  C   UNL A   1      34.093  32.470  29.602  1.00  0.00     0.014 A 
ATOM     33  C   UNL A   1      35.336  33.721  27.947  1.00  0.00     0.014 A 
ATOM     34  C   UNL A   1      35.292  32.047  30.176  1.00  0.00     0.010 A 
ATOM     35  C   UNL A   1      36.532  33.228  28.467  1.00  0.00     0.010 A 
ATOM     36  C   UNL A   1      36.523  32.389  29.589  1.00  0.00    -0.014 A 
BRANCH  36  37
ATOM     37  C   UNL A   1      37.795  31.852  30.136  1.00  0.00     0.031 A 
ATOM     38  C   UNL A   1      38.448  32.488  31.332  1.00  0.00     0.074 A 
ATOM     39  C   UNL A   1      38.378  30.797  29.530  1.00  0.00     0.049 A 
ATOM     40  N   UNL A   1      39.556  32.150  31.943  1.00  0.00    -0.248 NA
ATOM     41  C   UNL A   1      37.784  33.668  31.907  1.00  0.00     0.031 C 
ATOM     42  C   UNL A   1      37.874  30.130  28.327  1.00  0.00     0.029 A 
ATOM     43  N   UNL A   1      39.519  30.103  29.839  1.00  0.00    -0.354 N 
ATOM     44  C   UNL A   1      39.718  33.070  32.971  1.00  0.00     0.074 A 
ATOM     45  C   UNL A   1      38.631  34.018  32.863  1.00  0.00     0.031 C 
ATOM     46  C   UNL A   1      38.682  29.104  28.022  1.00  0.00     0.029 A 
ATOM     47  C   UNL A   1      39.783  29.065  28.978  1.00  0.00     0.049 A 
ATOM     48  H   UNL A   1      40.095  30.327  30.606  1.00  0.00     0.167 HD
ATOM     49  C   UNL A   1      40.670  33.104  33.935  1.00  0.00     0.037 A 
ATOM     50  C   UNL A   1      40.801  28.184  28.958  1.00  0.00     0.037 A 
ATOM     51  C   UNL A   1      41.748  32.156  34.043  1.00  0.00     0.049 A 
ATOM     52  C   UNL A   1      41.851  28.256  30.030  1.00  0.00     0.074 A 
ATOM     53  C   UNL A   1      42.739  32.084  35.007  1.00  0.00     0.029 A 
ATOM     54  N   UNL A   1      41.980  31.115  33.155  1.00  0.00    -0.354 N 
ATOM     55  N   UNL A   1      41.949  29.089  31.039  1.00  0.00    -0.248 NA
ATOM     56  C   UNL A   1      42.927  27.257  29.969  1.00  0.00     0.031 C 
ATOM     57  C   UNL A   1      43.598  31.032  34.675  1.00  0.00     0.029 A 
ATOM     58  C   UNL A   1      43.110  30.412  33.536  1.00  0.00     0.049 A 
ATOM     59  H   UNL A   1      41.423  30.909  32.371  1.00  0.00     0.167 HD
ATOM     60  C   UNL A   1      43.083  28.701  31.742  1.00  0.00     0.074 A 
ATOM     61  C   UNL A   1      43.619  27.541  31.063  1.00  0.00     0.031 C 
ATOM     62  C   UNL A   1      43.635  29.260  32.848  1.00  0.00     0.037 A 
BRANCH  49  63
ATOM     63  C   UNL A   1      40.580  34.197  34.961  1.00  0.00     0.057 A 
ATOM     64  C   UNL A   1      41.136  35.465  34.737  1.00  0.00     0.134 A 
ATOM     65  C   UNL A   1      39.883  34.003  36.161  1.00  0.00     0.134 A 
ATOM     66  F   UNL A   1      41.825  35.716  33.615  1.00  0.00    -0.206 F 
ATOM     67  C   UNL A   1      41.020  36.491  35.678  1.00  0.00     0.040 A 
ATOM     68  C   UNL A   1      39.736  35.029  37.096  1.00  0.00     0.040 A 
ATOM     69  F   UNL A   1      39.321  32.816  36.438  1.00  0.00    -0.206 F 
ATOM     70  C   UNL A   1      40.310  36.277  36.857  1.00  0.00     0.006 A 
ENDBRANCH  49  63
BRANCH  50  71
ATOM     71  C   UNL A   1      40.876  27.153  27.890  1.00  0.00     0.057 A 
ATOM     72  C   UNL A   1      41.617  27.368  26.722  1.00  0.00     0.134 A 
ATOM     73  C   UNL A   1      40.184  25.941  28.000  1.00  0.00     0.134 A 
ATOM     74  F   UNL A   1      42.287  28.516  26.549  1.00  0.00    -0.206 F 
ATOM     75  C   UNL A   1      41.643  26.429  25.689  1.00  0.00     0.040 A 
ATOM     76  C   UNL A   1      40.227  24.980  26.988  1.00  0.00     0.040 A 
ATOM     77  F   UNL A   1      39.464  25.667  29.097  1.00  0.00    -0.206 F 
ATOM     78  C   UNL A   1      40.949  25.229  25.823  1.00  0.00     0.006 A 
ENDBRANCH  50  71
BRANCH  62  79
ATOM     79  C   UNL A   1      44.868  28.602  33.399  1.00  0.00     0.057 A 
ATOM     80  C   UNL A   1      46.155  28.999  33.015  1.00  0.00     0.134 A 
ATOM     81  C   UNL A   1      44.765  27.562  34.333  1.00  0.00     0.134 A 
ATOM     82  F   UNL A   1      46.324  29.980  32.115  1.00  0.00    -0.206 F 
ATOM     83  C   UNL A   1      47.294  28.361  33.510  1.00  0.00     0.040 A 
ATOM     84  C   UNL A   1      45.898  26.939  34.859  1.00  0.00     0.040 A 
ATOM     85  F   UNL A   1      43.564  27.138  34.752  1.00  0.00    -0.206 F 
ATOM     86  C   UNL A   1      47.167  27.330  34.438  1.00  0.00     0.006 A 
ENDBRANCH  62  79
ENDBRANCH  36  37
ENDBRANCH  28  31
ENDBRANCH  26  27
ENDBRANCH   1  26
TORSDOF 11
ENDMDL
MODEL 3
REMARK VINA RESULT:     -11.9      1.909      2.285
REMARK SMILES O=C1C[C@@H]([N@@H+]2[C@@H](C(=O)NCCCNC(=O)c3ccc(-c4c5nc(c(-c6c(F)cccc6F)c6ccc([nH]6)c(-c6c(F)cccc6F)c6nc(c(-c7c(F)cccc7F)c7ccc4[nH]7)C=C6)C=C5)cc3)CC[C@@H]3CCCC[C@H]32)C(=O)N1
REMARK SMILES IDX 11 1 10 2 9 3 7 4 8 5 6 7 5 8 77 9 70 11 72 12 76 13 71 14
REMARK SMILES IDX 73 15 75 16 74 17 4 18 1 19 2 20 3 21 80 22 78 23 79 25
REMARK SMILES IDX 12 26 13 27 14 28 15 30 16 31 17 32 69 33 18 34 68 35 19 36
REMARK SMILES IDX 20 37 21 38 62 39 22 40 67 41 61 42 63 43 23 44 66 45 60 46
REMARK SMILES IDX 59 47 24 49 50 50 33 51 49 52 34 53 37 54 48 55 64 56 35 57
REMARK SMILES IDX 36 58 47 60 65 61 38 62 25 63 26 64 31 65 27 66 28 67 30 68
REMARK SMILES IDX 32 69 29 70 51 71 52 72 57 73 53 74 54 75 56 76 58 77 55 78
REMARK SMILES IDX 39 79 40 80 45 81 41 82 42 83 44 84 46 85 43 86
REMARK H PARENT 9 6 5 10 80 24 13 29 63 48 37 59
REMARK Flexibility Score: inf
ROOT
ATOM      1  C   UNL A   1      32.058  28.673  26.454  1.00  0.00     0.042 C 
ENDROOT
BRANCH   1   2
ATOM      2  C   UNL A   1      31.417  27.364  26.897  1.00  0.00     0.118 C 
BRANCH   2   3
ATOM      3  N   UNL A   1      30.884  26.631  25.760  1.00  0.00    -0.351 N 
ATOM      4  C   UNL A   1      31.422  25.590  25.067  1.00  0.00     0.278 C 
ATOM      5  O   UNL A   1      30.741  25.072  24.176  1.00  0.00    -0.268 OA
ATOM      6  H   UNL A   1      30.001  26.933  25.444  1.00  0.00     0.163 HD
BRANCH   4   7
ATOM      7  C   UNL A   1      32.832  25.057  25.381  1.00  0.00     0.275 C 
ATOM      8  N   UNL A   1      33.572  24.618  24.147  1.00  0.00    -0.311 N 
ATOM      9  C   UNL A   1      34.828  23.881  24.489  1.00  0.00     0.188 C 
ATOM     10  H   UNL A   1      32.943  23.973  23.668  1.00  0.00     0.349 HD
ATOM     11  C   UNL A   1      32.662  23.989  26.474  1.00  0.00     0.076 C 
ATOM     12  C   UNL A   1      34.586  22.751  25.529  1.00  0.00     0.048 C 
ATOM     13  C   UNL A   1      35.506  23.251  23.246  1.00  0.00     0.065 C 
ATOM     14  C   UNL A   1      33.971  23.313  26.807  1.00  0.00     0.016 C 
ATOM     15  C   UNL A   1      35.883  22.007  25.880  1.00  0.00     0.010 C 
ATOM     16  C   UNL A   1      36.785  22.492  23.594  1.00  0.00     0.006 C 
ATOM     17  C   UNL A   1      36.544  21.420  24.643  1.00  0.00     0.001 C 
BRANCH   8  18
ATOM     18  C   UNL A   1      33.839  25.732  23.171  1.00  0.00     0.284 C 
ATOM     19  O   UNL A   1      31.998  28.786  22.888  1.00  0.00    -0.274 OA
ATOM     20  C   UNL A   1      32.529  27.696  22.771  1.00  0.00     0.233 C 
ATOM     21  C   UNL A   1      33.608  27.163  23.667  1.00  0.00     0.176 C 
ATOM     22  N   UNL A   1      32.283  26.801  21.785  1.00  0.00    -0.291 N 
ATOM     23  C   UNL A   1      33.035  25.674  21.876  1.00  0.00     0.285 C 
ATOM     24  H   UNL A   1      31.622  26.952  21.071  1.00  0.00     0.173 HD
ATOM     25  O   UNL A   1      33.075  24.792  21.031  1.00  0.00    -0.268 OA
ENDBRANCH   8  18
ENDBRANCH   4   7
ENDBRANCH   2   3
ENDBRANCH   1   2
BRANCH   1  26
ATOM     26  C   UNL A   1      33.288  29.051  27.267  1.00  0.00     0.118 C 
BRANCH  26  27
ATOM     27  N   UNL A   1      33.434  30.490  27.419  1.00  0.00    -0.352 N 
ATOM     28  C   UNL A   1      34.423  31.214  28.035  1.00  0.00     0.251 C 
ATOM     29  H   UNL A   1      32.713  31.027  27.018  1.00  0.00     0.163 HD
ATOM     30  O   UNL A   1      34.264  32.415  28.236  1.00  0.00    -0.269 OA
BRANCH  28  31
ATOM     31  C   UNL A   1      35.670  30.556  28.481  1.00  0.00     0.039 A 
ATOM     32  C   UNL A   1      36.817  30.701  27.698  1.00  0.00     0.014 A 
ATOM     33  C   UNL A   1      35.713  29.783  29.645  1.00  0.00     0.014 A 
ATOM     34  C   UNL A   1      38.017  30.124  28.113  1.00  0.00     0.010 A 
ATOM     35  C   UNL A   1      36.930  29.281  30.104  1.00  0.00     0.010 A 
ATOM     36  C   UNL A   1      38.094  29.443  29.341  1.00  0.00    -0.014 A 
BRANCH  36  37
ATOM     37  C   UNL A   1      39.395  28.921  29.834  1.00  0.00     0.031 A 
ATOM     38  C   UNL A   1      40.066  29.533  31.032  1.00  0.00     0.074 A 
ATOM     39  C   UNL A   1      39.986  27.903  29.176  1.00  0.00     0.049 A 
ATOM     40  N   UNL A   1      41.199  29.204  31.600  1.00  0.00    -0.248 NA
ATOM     41  C   UNL A   1      39.388  30.676  31.665  1.00  0.00     0.031 C 
ATOM     42  C   UNL A   1      39.465  27.263  27.965  1.00  0.00     0.029 A 
ATOM     43  N   UNL A   1      41.152  27.229  29.429  1.00  0.00    -0.354 N 
ATOM     44  C   UNL A   1      41.367  30.092  32.654  1.00  0.00     0.074 A 
ATOM     45  C   UNL A   1      40.254  31.016  32.609  1.00  0.00     0.031 C 
ATOM     46  C   UNL A   1      40.290  26.270  27.602  1.00  0.00     0.029 A 
ATOM     47  C   UNL A   1      41.418  26.227  28.526  1.00  0.00     0.049 A 
ATOM     48  H   UNL A   1      41.744  27.441  30.188  1.00  0.00     0.167 HD
ATOM     49  C   UNL A   1      42.344  30.119  33.592  1.00  0.00     0.037 A 
ATOM     50  C   UNL A   1      42.456  25.374  28.448  1.00  0.00     0.037 A 
ATOM     51  C   UNL A   1      43.448  29.196  33.638  1.00  0.00     0.049 A 
ATOM     52  C   UNL A   1      43.534  25.437  29.493  1.00  0.00     0.074 A 
ATOM     53  C   UNL A   1      44.468  29.117  34.572  1.00  0.00     0.029 A 
ATOM     54  N   UNL A   1      43.681  28.192  32.709  1.00  0.00    -0.354 N 
ATOM     55  N   UNL A   1      43.641  26.238  30.526  1.00  0.00    -0.248 NA
ATOM     56  C   UNL A   1      44.632  24.469  29.367  1.00  0.00     0.031 C 
ATOM     57  C   UNL A   1      45.344  28.100  34.180  1.00  0.00     0.029 A 
ATOM     58  C   UNL A   1      44.839  27.505  33.034  1.00  0.00     0.049 A 
ATOM     59  H   UNL A   1      43.107  27.998  31.934  1.00  0.00     0.167 HD
ATOM     60  C   UNL A   1      44.803  25.856  31.184  1.00  0.00     0.074 A 
ATOM     61  C   UNL A   1      45.348  24.733  30.451  1.00  0.00     0.031 C 
ATOM     62  C   UNL A   1      45.372  26.391  32.293  1.00  0.00     0.037 A 
BRANCH  49  63
ATOM     63  C   UNL A   1      42.257  31.175  34.658  1.00  0.00     0.057 A 
ATOM     64  C   UNL A   1      42.856  32.432  34.499  1.00  0.00     0.134 A 
ATOM     65  C   UNL A   1      41.520  30.956  35.829  1.00  0.00     0.134 A 
ATOM     66  F   UNL A   1      43.585  32.705  33.407  1.00  0.00    -0.206 F 
ATOM     67  C   UNL A   1      42.743  33.424  35.475  1.00  0.00     0.040 A 
ATOM     68  C   UNL A   1      41.375  31.950  36.798  1.00  0.00     0.040 A 
ATOM     69  F   UNL A   1      40.915  29.778  36.043  1.00  0.00    -0.206 F 
ATOM     70  C   UNL A   1      41.993  33.188  36.625  1.00  0.00     0.006 A 
ENDBRANCH  49  63
BRANCH  50  71
ATOM     71  C   UNL A   1      42.526  24.382  27.343  1.00  0.00     0.057 A 
ATOM     72  C   UNL A   1      42.036  23.080  27.502  1.00  0.00     0.134 A 
ATOM     73  C   UNL A   1      43.111  24.704  26.113  1.00  0.00     0.134 A 
ATOM     74  F   UNL A   1      41.480  22.704  28.663  1.00  0.00    -0.206 F 
ATOM     75  C   UNL A   1      42.153  22.126  26.489  1.00  0.00     0.040 A 
ATOM     76  C   UNL A   1      43.206  23.769  25.081  1.00  0.00     0.040 A 
ATOM     77  F   UNL A   1      43.591  25.937  25.892  1.00  0.00    -0.206 F 
ATOM     78  C   UNL A   1      42.737  22.472  25.273  1.00  0.00     0.006 A 
ENDBRANCH  50  71
BRANCH  62  79
ATOM     79  C   UNL A   1      46.636  25.747  32.787  1.00  0.00     0.057 A 
ATOM     80  C   UNL A   1      46.624  24.736  33.756  1.00  0.00     0.134 A 
ATOM     81  C   UNL A   1      47.883  26.140  32.280  1.00  0.00     0.134 A 
ATOM     82  F   UNL A   1      45.465  24.322  34.292  1.00  0.00    -0.206 F 
ATOM     83  C   UNL A   1      47.806  24.165  34.230  1.00  0.00     0.040 A 
ATOM     84  C   UNL A   1      49.069  25.553  32.723  1.00  0.00     0.040 A 
ATOM     85  F   UNL A   1      47.968  27.096  31.343  1.00  0.00    -0.206 F 
ATOM     86  C   UNL A   1      49.033  24.571  33.710  1.00  0.00     0.006 A 
ENDBRANCH  62  79
ENDBRANCH  36  37
ENDBRANCH  28  31
ENDBRANCH  26  27
ENDBRANCH   1  26
TORSDOF 11
ENDMDL
