MODEL 1
REMARK VINA RESULT:     -12.4      0.000      0.000
REMARK SMILES NC(=O)c1ccc(Nc2ccc(C(=O)NCCCNC(=O)c3ccc(-c4c5nc(c(-c6c(F)cccc6F)c6ccc([nH]6)c(-c6c(F)cccc6F)c6nc(c(-c7c(F)cccc7F)c7ccc4[nH]7)C=C6)C=C5)cc3)c(Cl)c2)nn1
REMARK SMILES IDX 16 1 15 2 13 3 14 4 12 6 9 7 10 8 78 9 11 10 76 11 77 12
REMARK SMILES IDX 8 13 7 15 4 16 5 17 80 18 6 19 79 20 2 21 1 22 3 25 17 26
REMARK SMILES IDX 18 27 19 28 20 29 21 31 22 32 23 33 75 34 24 35 74 36 25 37
REMARK SMILES IDX 26 38 27 39 68 40 28 41 73 42 67 43 69 44 29 45 72 46 66 47
REMARK SMILES IDX 65 48 30 50 56 51 39 52 55 53 40 54 43 55 54 56 70 57 41 58
REMARK SMILES IDX 42 59 53 61 71 62 44 63 31 64 32 65 37 66 33 67 34 68 36 69
REMARK SMILES IDX 38 70 35 71 57 72 58 73 63 74 59 75 60 76 62 77 64 78 61 79
REMARK SMILES IDX 45 80 46 81 51 82 47 83 48 84 50 85 52 86 49 87
REMARK H PARENT 15 5 8 14 1 23 1 24 19 30 69 49 43 60
REMARK Flexibility Score: inf
ROOT
ATOM      1  C   UNL A   1      35.855  20.722  25.009  1.00  0.00     0.118 C 
ENDROOT
BRANCH   1   2
ATOM      2  N   UNL A   1      34.628  19.959  25.100  1.00  0.00    -0.352 N 
ATOM      3  C   UNL A   1      33.351  20.258  25.488  1.00  0.00     0.252 C 
ATOM      4  O   UNL A   1      32.578  19.297  25.550  1.00  0.00    -0.269 OA
ATOM      5  H   UNL A   1      34.737  19.021  24.822  1.00  0.00     0.163 HD
BRANCH   3   6
ATOM      6  C   UNL A   1      32.795  21.625  25.712  1.00  0.00     0.058 A 
ATOM      7  C   UNL A   1      31.403  24.109  25.879  1.00  0.00     0.041 A 
ATOM      8  C   UNL A   1      30.987  23.129  24.985  1.00  0.00     0.027 A 
ATOM      9  C   UNL A   1      32.487  23.827  26.708  1.00  0.00     0.047 A 
ATOM     10  C   UNL A   1      31.694  21.924  24.877  1.00  0.00     0.017 A 
ATOM     11  C   UNL A   1      33.136  22.579  26.677  1.00  0.00     0.055 A 
ATOM     12  Cl  UNL A   1      34.159  22.327  28.036  1.00  0.00    -0.083 Cl
BRANCH   7  13
ATOM     13  N   UNL A   1      30.653  25.275  26.106  1.00  0.00    -0.339 N 
ATOM     14  H   UNL A   1      30.245  25.396  26.994  1.00  0.00     0.168 HD
BRANCH  13  15
ATOM     15  C   UNL A   1      30.448  26.285  25.141  1.00  0.00     0.153 A 
ATOM     16  C   UNL A   1      30.067  28.259  23.282  1.00  0.00     0.150 A 
ATOM     17  C   UNL A   1      31.213  28.295  24.060  1.00  0.00     0.040 A 
ATOM     18  N   UNL A   1      29.147  27.288  23.422  1.00  0.00    -0.143 NA
ATOM     19  C   UNL A   1      31.405  27.285  25.002  1.00  0.00     0.051 A 
ATOM     20  N   UNL A   1      29.353  26.290  24.350  1.00  0.00    -0.132 NA
BRANCH  16  21
ATOM     21  C   UNL A   1      29.803  29.278  22.233  1.00  0.00     0.269 C 
ATOM     22  N   UNL A   1      30.888  29.971  21.755  1.00  0.00    -0.364 N 
ATOM     23  H   UNL A   1      30.767  30.657  21.060  1.00  0.00     0.160 HD
ATOM     24  H   UNL A   1      31.787  29.782  22.108  1.00  0.00     0.160 HD
ATOM     25  O   UNL A   1      28.682  29.499  21.793  1.00  0.00    -0.268 OA
ENDBRANCH  16  21
ENDBRANCH  13  15
ENDBRANCH   7  13
ENDBRANCH   3   6
ENDBRANCH   1   2
BRANCH   1  26
ATOM     26  C   UNL A   1      37.054  19.771  24.981  1.00  0.00     0.042 C 
BRANCH  26  27
ATOM     27  C   UNL A   1      38.385  20.444  25.275  1.00  0.00     0.118 C 
BRANCH  27  28
ATOM     28  N   UNL A   1      39.430  19.470  25.542  1.00  0.00    -0.352 N 
ATOM     29  C   UNL A   1      40.724  19.664  25.958  1.00  0.00     0.251 C 
ATOM     30  H   UNL A   1      39.171  18.530  25.404  1.00  0.00     0.163 HD
ATOM     31  O   UNL A   1      41.531  18.744  25.862  1.00  0.00    -0.269 OA
BRANCH  29  32
ATOM     32  C   UNL A   1      41.156  20.967  26.516  1.00  0.00     0.039 A 
ATOM     33  C   UNL A   1      41.009  21.193  27.888  1.00  0.00     0.014 A 
ATOM     34  C   UNL A   1      41.648  21.985  25.694  1.00  0.00     0.014 A 
ATOM     35  C   UNL A   1      41.394  22.417  28.439  1.00  0.00     0.010 A 
ATOM     36  C   UNL A   1      42.109  23.173  26.255  1.00  0.00     0.010 A 
ATOM     37  C   UNL A   1      41.971  23.409  27.631  1.00  0.00    -0.014 A 
BRANCH  37  38
ATOM     38  C   UNL A   1      42.413  24.708  28.198  1.00  0.00     0.031 A 
ATOM     39  C   UNL A   1      41.418  25.819  28.402  1.00  0.00     0.074 A 
ATOM     40  C   UNL A   1      43.716  24.908  28.474  1.00  0.00     0.049 A 
ATOM     41  N   UNL A   1      41.619  27.049  28.803  1.00  0.00    -0.248 NA
ATOM     42  C   UNL A   1      40.012  25.514  28.086  1.00  0.00     0.031 C 
ATOM     43  C   UNL A   1      44.783  23.925  28.275  1.00  0.00     0.029 A 
ATOM     44  N   UNL A   1      44.367  26.011  28.967  1.00  0.00    -0.354 N 
ATOM     45  C   UNL A   1      40.373  27.663  28.777  1.00  0.00     0.074 A 
ATOM     46  C   UNL A   1      39.432  26.692  28.263  1.00  0.00     0.031 C 
ATOM     47  C   UNL A   1      45.952  24.465  28.654  1.00  0.00     0.029 A 
ATOM     48  C   UNL A   1      45.725  25.840  29.086  1.00  0.00     0.049 A 
ATOM     49  H   UNL A   1      43.905  26.845  29.212  1.00  0.00     0.167 HD
ATOM     50  C   UNL A   1      40.038  28.916  29.171  1.00  0.00     0.037 A 
ATOM     51  C   UNL A   1      46.681  26.700  29.486  1.00  0.00     0.037 A 
ATOM     52  C   UNL A   1      40.975  29.873  29.696  1.00  0.00     0.049 A 
ATOM     53  C   UNL A   1      46.284  28.086  29.911  1.00  0.00     0.074 A 
ATOM     54  C   UNL A   1      40.731  31.155  30.158  1.00  0.00     0.029 A 
ATOM     55  N   UNL A   1      42.337  29.651  29.831  1.00  0.00    -0.354 N 
ATOM     56  N   UNL A   1      45.094  28.636  29.935  1.00  0.00    -0.248 NA
ATOM     57  C   UNL A   1      47.363  28.970  30.376  1.00  0.00     0.031 C 
ATOM     58  C   UNL A   1      41.953  31.722  30.537  1.00  0.00     0.029 A 
ATOM     59  C   UNL A   1      42.949  30.776  30.358  1.00  0.00     0.049 A 
ATOM     60  H   UNL A   1      42.800  28.816  29.588  1.00  0.00     0.167 HD
ATOM     61  C   UNL A   1      45.275  29.916  30.439  1.00  0.00     0.074 A 
ATOM     62  C   UNL A   1      46.688  30.056  30.726  1.00  0.00     0.031 C 
ATOM     63  C   UNL A   1      44.356  30.891  30.645  1.00  0.00     0.037 A 
BRANCH  50  64
ATOM     64  C   UNL A   1      38.594  29.313  29.059  1.00  0.00     0.057 A 
ATOM     65  C   UNL A   1      38.030  29.699  27.836  1.00  0.00     0.134 A 
ATOM     66  C   UNL A   1      37.749  29.279  30.176  1.00  0.00     0.134 A 
ATOM     67  F   UNL A   1      38.786  29.765  26.729  1.00  0.00    -0.206 F 
ATOM     68  C   UNL A   1      36.686  30.064  27.732  1.00  0.00     0.040 A 
ATOM     69  C   UNL A   1      36.397  29.614  30.079  1.00  0.00     0.040 A 
ATOM     70  F   UNL A   1      38.221  28.912  31.377  1.00  0.00    -0.206 F 
ATOM     71  C   UNL A   1      35.864  30.016  28.855  1.00  0.00     0.006 A 
ENDBRANCH  50  64
BRANCH  51  72
ATOM     72  C   UNL A   1      48.103  26.273  29.511  1.00  0.00     0.057 A 
ATOM     73  C   UNL A   1      48.671  25.709  30.660  1.00  0.00     0.134 A 
ATOM     74  C   UNL A   1      48.931  26.428  28.392  1.00  0.00     0.134 A 
ATOM     75  F   UNL A   1      47.933  25.550  31.768  1.00  0.00    -0.206 F 
ATOM     76  C   UNL A   1      50.014  25.337  30.704  1.00  0.00     0.040 A 
ATOM     77  C   UNL A   1      50.270  26.034  28.414  1.00  0.00     0.040 A 
ATOM     78  F   UNL A   1      48.446  26.953  27.258  1.00  0.00    -0.206 F 
ATOM     79  C   UNL A   1      50.817  25.495  29.576  1.00  0.00     0.006 A 
ENDBRANCH  51  72
BRANCH  63  80
ATOM     80  C   UNL A   1      44.845  32.179  31.240  1.00  0.00     0.057 A 
ATOM     81  C   UNL A   1      45.271  33.249  30.444  1.00  0.00     0.134 A 
ATOM     82  C   UNL A   1      44.851  32.362  32.629  1.00  0.00     0.134 A 
ATOM     83  F   UNL A   1      45.302  33.131  29.108  1.00  0.00    -0.206 F 
ATOM     84  C   UNL A   1      45.710  34.448  31.009  1.00  0.00     0.040 A 
ATOM     85  C   UNL A   1      45.260  33.565  33.204  1.00  0.00     0.040 A 
ATOM     86  F   UNL A   1      44.447  31.380  33.449  1.00  0.00    -0.206 F 
ATOM     87  C   UNL A   1      45.698  34.610  32.393  1.00  0.00     0.006 A 
ENDBRANCH  63  80
ENDBRANCH  37  38
ENDBRANCH  29  32
ENDBRANCH  27  28
ENDBRANCH  26  27
ENDBRANCH   1  26
TORSDOF 13
ENDMDL
MODEL 2
REMARK VINA RESULT:     -12.1      3.505      9.074
REMARK SMILES NC(=O)c1ccc(Nc2ccc(C(=O)NCCCNC(=O)c3ccc(-c4c5nc(c(-c6c(F)cccc6F)c6ccc([nH]6)c(-c6c(F)cccc6F)c6nc(c(-c7c(F)cccc7F)c7ccc4[nH]7)C=C6)C=C5)cc3)c(Cl)c2)nn1
REMARK SMILES IDX 16 1 15 2 13 3 14 4 12 6 9 7 10 8 78 9 11 10 76 11 77 12
REMARK SMILES IDX 8 13 7 15 4 16 5 17 80 18 6 19 79 20 2 21 1 22 3 25 17 26
REMARK SMILES IDX 18 27 19 28 20 29 21 31 22 32 23 33 75 34 24 35 74 36 25 37
REMARK SMILES IDX 26 38 27 39 68 40 28 41 73 42 67 43 69 44 29 45 72 46 66 47
REMARK SMILES IDX 65 48 30 50 56 51 39 52 55 53 40 54 43 55 54 56 70 57 41 58
REMARK SMILES IDX 42 59 53 61 71 62 44 63 31 64 32 65 37 66 33 67 34 68 36 69
REMARK SMILES IDX 38 70 35 71 57 72 58 73 63 74 59 75 60 76 62 77 64 78 61 79
REMARK SMILES IDX 45 80 46 81 51 82 47 83 48 84 50 85 52 86 49 87
REMARK H PARENT 15 5 8 14 1 23 1 24 19 30 69 49 43 60
REMARK Flexibility Score: inf
ROOT
ATOM      1  C   UNL A   1      31.465  29.904  25.309  1.00  0.00     0.118 C 
ENDROOT
BRANCH   1   2
ATOM      2  N   UNL A   1      30.686  29.707  24.104  1.00  0.00    -0.352 N 
ATOM      3  C   UNL A   1      30.773  28.841  23.049  1.00  0.00     0.252 C 
ATOM      4  O   UNL A   1      29.984  29.054  22.123  1.00  0.00    -0.269 OA
ATOM      5  H   UNL A   1      29.930  30.333  24.028  1.00  0.00     0.163 HD
BRANCH   3   6
ATOM      6  C   UNL A   1      31.626  27.618  22.980  1.00  0.00     0.058 A 
ATOM      7  C   UNL A   1      32.886  25.071  22.734  1.00  0.00     0.041 A 
ATOM      8  C   UNL A   1      31.502  25.180  22.663  1.00  0.00     0.027 A 
ATOM      9  C   UNL A   1      33.632  26.239  22.890  1.00  0.00     0.047 A 
ATOM     10  C   UNL A   1      30.882  26.426  22.822  1.00  0.00     0.017 A 
ATOM     11  C   UNL A   1      33.019  27.504  22.945  1.00  0.00     0.055 A 
ATOM     12  Cl  UNL A   1      34.138  28.794  22.739  1.00  0.00    -0.083 Cl
BRANCH   7  13
ATOM     13  N   UNL A   1      33.553  23.866  22.458  1.00  0.00    -0.339 N 
ATOM     14  H   UNL A   1      34.219  23.862  21.733  1.00  0.00     0.168 HD
BRANCH  13  15
ATOM     15  C   UNL A   1      33.327  22.659  23.155  1.00  0.00     0.153 A 
ATOM     16  C   UNL A   1      32.914  20.319  24.515  1.00  0.00     0.150 A 
ATOM     17  C   UNL A   1      33.964  21.134  24.905  1.00  0.00     0.040 A 
ATOM     18  N   UNL A   1      32.105  20.647  23.491  1.00  0.00    -0.143 NA
ATOM     19  C   UNL A   1      34.167  22.327  24.212  1.00  0.00     0.051 A 
ATOM     20  N   UNL A   1      32.311  21.833  22.821  1.00  0.00    -0.132 NA
BRANCH  16  21
ATOM     21  C   UNL A   1      32.608  19.047  25.221  1.00  0.00     0.269 C 
ATOM     22  N   UNL A   1      32.927  18.987  26.556  1.00  0.00    -0.364 N 
ATOM     23  H   UNL A   1      32.746  18.167  27.069  1.00  0.00     0.160 HD
ATOM     24  H   UNL A   1      33.338  19.764  26.999  1.00  0.00     0.160 HD
ATOM     25  O   UNL A   1      32.086  18.090  24.664  1.00  0.00    -0.268 OA
ENDBRANCH  16  21
ENDBRANCH  13  15
ENDBRANCH   7  13
ENDBRANCH   3   6
ENDBRANCH   1   2
BRANCH   1  26
ATOM     26  C   UNL A   1      31.250  31.324  25.836  1.00  0.00     0.042 C 
BRANCH  26  27
ATOM     27  C   UNL A   1      32.214  31.726  26.941  1.00  0.00     0.118 C 
BRANCH  27  28
ATOM     28  N   UNL A   1      32.134  33.149  27.229  1.00  0.00    -0.352 N 
ATOM     29  C   UNL A   1      32.903  33.918  28.068  1.00  0.00     0.251 C 
ATOM     30  H   UNL A   1      31.424  33.634  26.750  1.00  0.00     0.163 HD
ATOM     31  O   UNL A   1      32.511  35.037  28.386  1.00  0.00    -0.269 OA
BRANCH  29  32
ATOM     32  C   UNL A   1      34.193  33.414  28.593  1.00  0.00     0.039 A 
ATOM     33  C   UNL A   1      35.356  33.634  27.848  1.00  0.00     0.014 A 
ATOM     34  C   UNL A   1      34.259  32.677  29.780  1.00  0.00     0.014 A 
ATOM     35  C   UNL A   1      36.583  33.156  28.312  1.00  0.00     0.010 A 
ATOM     36  C   UNL A   1      35.493  32.275  30.284  1.00  0.00     0.010 A 
ATOM     37  C   UNL A   1      36.666  32.495  29.547  1.00  0.00    -0.014 A 
BRANCH  37  38
ATOM     38  C   UNL A   1      37.963  32.001  30.075  1.00  0.00     0.031 A 
ATOM     39  C   UNL A   1      38.549  30.716  29.554  1.00  0.00     0.074 A 
ATOM     40  C   UNL A   1      38.584  32.677  31.061  1.00  0.00     0.049 A 
ATOM     41  N   UNL A   1      39.624  30.077  29.944  1.00  0.00    -0.248 NA
ATOM     42  C   UNL A   1      37.814  30.046  28.468  1.00  0.00     0.031 C 
ATOM     43  C   UNL A   1      38.092  33.909  31.681  1.00  0.00     0.029 A 
ATOM     44  N   UNL A   1      39.756  32.415  31.725  1.00  0.00    -0.354 N 
ATOM     45  C   UNL A   1      39.685  28.930  29.162  1.00  0.00     0.074 A 
ATOM     46  C   UNL A   1      38.510  28.929  28.319  1.00  0.00     0.031 C 
ATOM     47  C   UNL A   1      38.962  34.302  32.626  1.00  0.00     0.029 A 
ATOM     48  C   UNL A   1      40.050  33.332  32.704  1.00  0.00     0.049 A 
ATOM     49  H   UNL A   1      40.330  31.643  31.520  1.00  0.00     0.167 HD
ATOM     50  C   UNL A   1      40.648  27.978  29.130  1.00  0.00     0.037 A 
ATOM     51  C   UNL A   1      41.074  33.379  33.577  1.00  0.00     0.037 A 
ATOM     52  C   UNL A   1      41.823  27.991  29.960  1.00  0.00     0.049 A 
ATOM     53  C   UNL A   1      42.126  32.306  33.526  1.00  0.00     0.074 A 
ATOM     54  C   UNL A   1      42.877  27.094  29.979  1.00  0.00     0.029 A 
ATOM     55  N   UNL A   1      42.101  28.956  30.917  1.00  0.00    -0.354 N 
ATOM     56  N   UNL A   1      42.201  31.257  32.743  1.00  0.00    -0.248 NA
ATOM     57  C   UNL A   1      43.243  32.428  34.474  1.00  0.00     0.031 C 
ATOM     58  C   UNL A   1      43.774  27.495  30.975  1.00  0.00     0.029 A 
ATOM     59  C   UNL A   1      43.303  28.668  31.542  1.00  0.00     0.049 A 
ATOM     60  H   UNL A   1      41.528  29.730  31.122  1.00  0.00     0.167 HD
ATOM     61  C   UNL A   1      43.381  30.610  33.084  1.00  0.00     0.074 A 
ATOM     62  C   UNL A   1      43.999  31.395  34.133  1.00  0.00     0.031 C 
ATOM     63  C   UNL A   1      43.906  29.468  32.577  1.00  0.00     0.037 A 
BRANCH  50  64
ATOM     64  C   UNL A   1      40.472  26.848  28.155  1.00  0.00     0.057 A 
ATOM     65  C   UNL A   1      39.637  25.759  28.435  1.00  0.00     0.134 A 
ATOM     66  C   UNL A   1      41.117  26.863  26.912  1.00  0.00     0.134 A 
ATOM     67  F   UNL A   1      38.999  25.676  29.613  1.00  0.00    -0.206 F 
ATOM     68  C   UNL A   1      39.471  24.711  27.526  1.00  0.00     0.040 A 
ATOM     69  C   UNL A   1      40.937  25.837  25.983  1.00  0.00     0.040 A 
ATOM     70  F   UNL A   1      41.926  27.879  26.576  1.00  0.00    -0.206 F 
ATOM     71  C   UNL A   1      40.117  24.752  26.293  1.00  0.00     0.006 A 
ENDBRANCH  50  64
BRANCH  51  72
ATOM     72  C   UNL A   1      41.160  34.484  34.565  1.00  0.00     0.057 A 
ATOM     73  C   UNL A   1      41.807  35.686  34.255  1.00  0.00     0.134 A 
ATOM     74  C   UNL A   1      40.608  34.361  35.847  1.00  0.00     0.134 A 
ATOM     75  F   UNL A   1      42.370  35.858  33.050  1.00  0.00    -0.206 F 
ATOM     76  C   UNL A   1      41.923  36.716  35.189  1.00  0.00     0.040 A 
ATOM     77  C   UNL A   1      40.692  35.394  36.781  1.00  0.00     0.040 A 
ATOM     78  F   UNL A   1      39.967  33.239  36.203  1.00  0.00    -0.206 F 
ATOM     79  C   UNL A   1      41.360  36.574  36.455  1.00  0.00     0.006 A 
ENDBRANCH  51  72
BRANCH  63  80
ATOM     80  C   UNL A   1      45.230  29.020  33.125  1.00  0.00     0.057 A 
ATOM     81  C   UNL A   1      46.443  29.456  32.578  1.00  0.00     0.134 A 
ATOM     82  C   UNL A   1      45.287  28.173  34.239  1.00  0.00     0.134 A 
ATOM     83  F   UNL A   1      46.455  30.258  31.503  1.00  0.00    -0.206 F 
ATOM     84  C   UNL A   1      47.668  29.044  33.106  1.00  0.00     0.040 A 
ATOM     85  C   UNL A   1      46.505  27.777  34.791  1.00  0.00     0.040 A 
ATOM     86  F   UNL A   1      44.161  27.727  34.815  1.00  0.00    -0.206 F 
ATOM     87  C   UNL A   1      47.701  28.208  34.220  1.00  0.00     0.006 A 
ENDBRANCH  63  80
ENDBRANCH  37  38
ENDBRANCH  29  32
ENDBRANCH  27  28
ENDBRANCH  26  27
ENDBRANCH   1  26
TORSDOF 13
ENDMDL
MODEL 3
REMARK VINA RESULT:     -12.0      5.322      7.771
REMARK SMILES NC(=O)c1ccc(Nc2ccc(C(=O)NCCCNC(=O)c3ccc(-c4c5nc(c(-c6c(F)cccc6F)c6ccc([nH]6)c(-c6c(F)cccc6F)c6nc(c(-c7c(F)cccc7F)c7ccc4[nH]7)C=C6)C=C5)cc3)c(Cl)c2)nn1
REMARK SMILES IDX 16 1 15 2 13 3 14 4 12 6 9 7 10 8 78 9 11 10 76 11 77 12
REMARK SMILES IDX 8 13 7 15 4 16 5 17 80 18 6 19 79 20 2 21 1 22 3 25 17 26
REMARK SMILES IDX 18 27 19 28 20 29 21 31 22 32 23 33 75 34 24 35 74 36 25 37
REMARK SMILES IDX 26 38 27 39 68 40 28 41 73 42 67 43 69 44 29 45 72 46 66 47
REMARK SMILES IDX 65 48 30 50 56 51 39 52 55 53 40 54 43 55 54 56 70 57 41 58
REMARK SMILES IDX 42 59 53 61 71 62 44 63 31 64 32 65 37 66 33 67 34 68 36 69
REMARK SMILES IDX 38 70 35 71 57 72 58 73 63 74 59 75 60 76 62 77 64 78 61 79
REMARK SMILES IDX 45 80 46 81 51 82 47 83 48 84 50 85 52 86 49 87
REMARK H PARENT 15 5 8 14 1 23 1 24 19 30 69 49 43 60
REMARK Flexibility Score: inf
ROOT
ATOM      1  C   UNL A   1      40.438  26.845  28.875  1.00  0.00     0.118 C 
ENDROOT
BRANCH   1   2
ATOM      2  N   UNL A   1      40.598  27.769  27.772  1.00  0.00    -0.352 N 
ATOM      3  C   UNL A   1      39.927  28.889  27.367  1.00  0.00     0.252 C 
ATOM      4  O   UNL A   1      40.287  29.359  26.283  1.00  0.00    -0.269 OA
ATOM      5  H   UNL A   1      41.355  27.540  27.185  1.00  0.00     0.163 HD
BRANCH   3   6
ATOM      6  C   UNL A   1      38.915  29.646  28.161  1.00  0.00     0.058 A 
ATOM      7  C   UNL A   1      36.686  30.825  29.494  1.00  0.00     0.041 A 
ATOM      8  C   UNL A   1      36.487  29.884  28.491  1.00  0.00     0.027 A 
ATOM      9  C   UNL A   1      37.996  31.143  29.850  1.00  0.00     0.047 A 
ATOM     10  C   UNL A   1      37.582  29.334  27.811  1.00  0.00     0.017 A 
ATOM     11  C   UNL A   1      39.099  30.516  29.241  1.00  0.00     0.055 A 
ATOM     12  Cl  UNL A   1      40.566  30.767  30.103  1.00  0.00    -0.083 Cl
BRANCH   7  13
ATOM     13  N   UNL A   1      35.628  31.307  30.282  1.00  0.00    -0.339 N 
ATOM     14  H   UNL A   1      35.305  30.740  31.019  1.00  0.00     0.168 HD
BRANCH  13  15
ATOM     15  C   UNL A   1      34.999  32.556  30.084  1.00  0.00     0.153 A 
ATOM     16  C   UNL A   1      33.792  34.980  29.680  1.00  0.00     0.150 A 
ATOM     17  C   UNL A   1      34.487  34.403  28.629  1.00  0.00     0.040 A 
ATOM     18  N   UNL A   1      33.703  34.383  30.882  1.00  0.00    -0.143 NA
ATOM     19  C   UNL A   1      35.096  33.166  28.839  1.00  0.00     0.051 A 
ATOM     20  N   UNL A   1      34.300  33.156  31.073  1.00  0.00    -0.132 NA
BRANCH  16  21
ATOM     21  C   UNL A   1      33.088  36.281  29.531  1.00  0.00     0.269 C 
ATOM     22  N   UNL A   1      33.539  37.321  30.306  1.00  0.00    -0.364 N 
ATOM     23  H   UNL A   1      33.107  38.204  30.246  1.00  0.00     0.160 HD
ATOM     24  H   UNL A   1      34.294  37.185  30.923  1.00  0.00     0.160 HD
ATOM     25  O   UNL A   1      32.157  36.444  28.753  1.00  0.00    -0.268 OA
ENDBRANCH  16  21
ENDBRANCH  13  15
ENDBRANCH   7  13
ENDBRANCH   3   6
ENDBRANCH   1   2
BRANCH   1  26
ATOM     26  C   UNL A   1      39.524  25.692  28.454  1.00  0.00     0.042 C 
BRANCH  26  27
ATOM     27  C   UNL A   1      39.675  25.284  26.997  1.00  0.00     0.118 C 
BRANCH  27  28
ATOM     28  N   UNL A   1      40.327  23.991  26.869  1.00  0.00    -0.352 N 
ATOM     29  C   UNL A   1      41.619  23.693  26.514  1.00  0.00     0.251 C 
ATOM     30  H   UNL A   1      39.757  23.213  27.066  1.00  0.00     0.163 HD
ATOM     31  O   UNL A   1      41.905  22.542  26.194  1.00  0.00    -0.269 OA
BRANCH  29  32
ATOM     32  C   UNL A   1      42.668  24.739  26.510  1.00  0.00     0.039 A 
ATOM     33  C   UNL A   1      43.325  25.039  27.707  1.00  0.00     0.014 A 
ATOM     34  C   UNL A   1      42.968  25.467  25.354  1.00  0.00     0.014 A 
ATOM     35  C   UNL A   1      44.306  26.032  27.735  1.00  0.00     0.010 A 
ATOM     36  C   UNL A   1      44.005  26.397  25.363  1.00  0.00     0.010 A 
ATOM     37  C   UNL A   1      44.673  26.701  26.558  1.00  0.00    -0.014 A 
BRANCH  37  38
ATOM     38  C   UNL A   1      45.733  27.742  26.557  1.00  0.00     0.031 A 
ATOM     39  C   UNL A   1      45.362  29.195  26.678  1.00  0.00     0.074 A 
ATOM     40  C   UNL A   1      47.020  27.383  26.391  1.00  0.00     0.049 A 
ATOM     41  N   UNL A   1      46.129  30.254  26.613  1.00  0.00    -0.248 NA
ATOM     42  C   UNL A   1      43.934  29.501  26.868  1.00  0.00     0.031 C 
ATOM     43  C   UNL A   1      47.500  26.011  26.216  1.00  0.00     0.029 A 
ATOM     44  N   UNL A   1      48.160  28.145  26.325  1.00  0.00    -0.354 N 
ATOM     45  C   UNL A   1      45.279  31.345  26.744  1.00  0.00     0.074 A 
ATOM     46  C   UNL A   1      43.932  30.825  26.830  1.00  0.00     0.031 C 
ATOM     47  C   UNL A   1      48.835  26.028  26.076  1.00  0.00     0.029 A 
ATOM     48  C   UNL A   1      49.301  27.411  26.113  1.00  0.00     0.049 A 
ATOM     49  H   UNL A   1      48.159  29.125  26.421  1.00  0.00     0.167 HD
ATOM     50  C   UNL A   1      45.593  32.661  26.813  1.00  0.00     0.037 A 
ATOM     51  C   UNL A   1      50.577  27.808  25.953  1.00  0.00     0.037 A 
ATOM     52  C   UNL A   1      46.936  33.174  26.744  1.00  0.00     0.049 A 
ATOM     53  C   UNL A   1      50.900  29.274  26.027  1.00  0.00     0.074 A 
ATOM     54  C   UNL A   1      47.365  34.486  26.841  1.00  0.00     0.029 A 
ATOM     55  N   UNL A   1      48.069  32.394  26.560  1.00  0.00    -0.354 N 
ATOM     56  N   UNL A   1      50.092  30.291  26.208  1.00  0.00    -0.248 NA
ATOM     57  C   UNL A   1      52.314  29.649  25.885  1.00  0.00     0.031 C 
ATOM     58  C   UNL A   1      48.755  34.503  26.679  1.00  0.00     0.029 A 
ATOM     59  C   UNL A   1      49.195  33.199  26.530  1.00  0.00     0.049 A 
ATOM     60  H   UNL A   1      48.071  31.414  26.466  1.00  0.00     0.167 HD
ATOM     61  C   UNL A   1      50.899  31.421  26.227  1.00  0.00     0.074 A 
ATOM     62  C   UNL A   1      52.263  30.962  26.058  1.00  0.00     0.031 C 
ATOM     63  C   UNL A   1      50.546  32.721  26.370  1.00  0.00     0.037 A 
BRANCH  50  64
ATOM     64  C   UNL A   1      44.463  33.635  26.987  1.00  0.00     0.057 A 
ATOM     65  C   UNL A   1      43.968  33.969  28.254  1.00  0.00     0.134 A 
ATOM     66  C   UNL A   1      43.883  34.269  25.881  1.00  0.00     0.134 A 
ATOM     67  F   UNL A   1      44.471  33.388  29.355  1.00  0.00    -0.206 F 
ATOM     68  C   UNL A   1      42.920  34.878  28.415  1.00  0.00     0.040 A 
ATOM     69  C   UNL A   1      42.853  35.201  26.030  1.00  0.00     0.040 A 
ATOM     70  F   UNL A   1      44.312  34.001  24.639  1.00  0.00    -0.206 F 
ATOM     71  C   UNL A   1      42.364  35.501  27.301  1.00  0.00     0.006 A 
ENDBRANCH  50  64
BRANCH  51  72
ATOM     72  C   UNL A   1      51.646  26.804  25.716  1.00  0.00     0.057 A 
ATOM     73  C   UNL A   1      52.247  26.120  26.779  1.00  0.00     0.134 A 
ATOM     74  C   UNL A   1      52.098  26.512  24.423  1.00  0.00     0.134 A 
ATOM     75  F   UNL A   1      51.868  26.368  28.041  1.00  0.00    -0.206 F 
ATOM     76  C   UNL A   1      53.275  25.201  26.568  1.00  0.00     0.040 A 
ATOM     77  C   UNL A   1      53.106  25.574  24.196  1.00  0.00     0.040 A 
ATOM     78  F   UNL A   1      51.557  27.125  23.361  1.00  0.00    -0.206 F 
ATOM     79  C   UNL A   1      53.704  24.921  25.273  1.00  0.00     0.006 A 
ENDBRANCH  51  72
BRANCH  63  80
ATOM     80  C   UNL A   1      51.652  33.735  26.386  1.00  0.00     0.057 A 
ATOM     81  C   UNL A   1      52.137  34.320  25.211  1.00  0.00     0.134 A 
ATOM     82  C   UNL A   1      52.210  34.158  27.600  1.00  0.00     0.134 A 
ATOM     83  F   UNL A   1      51.653  33.948  24.016  1.00  0.00    -0.206 F 
ATOM     84  C   UNL A   1      53.157  35.273  25.239  1.00  0.00     0.040 A 
ATOM     85  C   UNL A   1      53.210  35.130  27.642  1.00  0.00     0.040 A 
ATOM     86  F   UNL A   1      51.784  33.643  28.763  1.00  0.00    -0.206 F 
ATOM     87  C   UNL A   1      53.690  35.685  26.459  1.00  0.00     0.006 A 
ENDBRANCH  63  80
ENDBRANCH  37  38
ENDBRANCH  29  32
ENDBRANCH  27  28
ENDBRANCH  26  27
ENDBRANCH   1  26
TORSDOF 13
ENDMDL
