MODEL 1
REMARK VINA RESULT:     -11.6      0.000      0.000
REMARK SMILES Cc1csc(C[C@@H](Cc2ccc(Br)cc2)C(=O)NCCCNC(=O)c2ccc(-c3c4nc(c(-c5c(F)cccc5F)c5ccc([nH]5)c(-c5c(F)cccc5F)c5nc(c(-c6c(F)cccc6F)c6ccc3[nH]6)C=C5)C=C4)cc2)n1
REMARK SMILES IDX 20 1 19 2 18 3 16 4 17 5 7 7 6 8 5 9 1 10 2 11 3 12 79 13
REMARK SMILES IDX 4 14 8 15 9 16 10 17 15 18 11 19 14 20 12 21 13 22 21 23
REMARK SMILES IDX 22 24 23 25 24 27 25 28 26 29 78 30 27 31 77 32 28 33 29 34
REMARK SMILES IDX 30 35 71 36 31 37 76 38 70 39 72 40 32 41 75 42 69 43 68 44
REMARK SMILES IDX 33 46 59 47 42 48 58 49 43 50 46 51 57 52 73 53 44 54 45 55
REMARK SMILES IDX 56 57 74 58 47 59 34 60 35 61 40 62 36 63 37 64 39 65 41 66
REMARK SMILES IDX 38 67 60 68 61 69 66 70 62 71 63 72 65 73 67 74 64 75 48 76
REMARK SMILES IDX 49 77 54 78 50 79 51 80 53 81 55 82 52 83
REMARK H PARENT 18 6 22 26 72 45 46 56
REMARK Flexibility Score: inf
ROOT
ATOM      1  C   UNL A   1      37.902  19.796  24.937  1.00  0.00     0.042 C 
ENDROOT
BRANCH   1   2
ATOM      2  C   UNL A   1      36.887  20.886  24.686  1.00  0.00     0.117 C 
BRANCH   2   3
ATOM      3  N   UNL A   1      36.136  21.321  25.841  1.00  0.00    -0.356 N 
ATOM      4  C   UNL A   1      34.792  21.238  26.055  1.00  0.00     0.223 C 
ATOM      5  O   UNL A   1      34.401  21.377  27.219  1.00  0.00    -0.275 OA
ATOM      6  H   UNL A   1      36.663  21.731  26.565  1.00  0.00     0.163 HD
BRANCH   4   7
ATOM      7  C   UNL A   1      33.782  21.042  24.922  1.00  0.00     0.089 C 
BRANCH   7   8
ATOM      8  C   UNL A   1      32.683  20.062  25.367  1.00  0.00     0.081 C 
BRANCH   8   9
ATOM      9  C   UNL A   1      32.993  18.620  25.112  1.00  0.00     0.094 A 
ATOM     10  C   UNL A   1      32.243  15.188  25.842  1.00  0.00     0.067 C 
ATOM     11  C   UNL A   1      32.895  16.417  25.328  1.00  0.00     0.048 A 
ATOM     12  C   UNL A   1      34.072  16.514  24.613  1.00  0.00     0.090 A 
ATOM     13  N   UNL A   1      32.288  17.625  25.597  1.00  0.00    -0.247 NA
ATOM     14  S   UNL A   1      34.418  18.158  24.269  1.00  0.00    -0.127 S 
ENDBRANCH   8   9
ENDBRANCH   7   8
BRANCH   7  15
ATOM     15  C   UNL A   1      33.426  22.346  24.155  1.00  0.00     0.049 C 
BRANCH  15  16
ATOM     16  C   UNL A   1      33.318  23.665  24.890  1.00  0.00    -0.047 A 
ATOM     17  C   UNL A   1      34.248  24.695  24.681  1.00  0.00     0.005 A 
ATOM     18  C   UNL A   1      32.247  23.900  25.769  1.00  0.00     0.005 A 
ATOM     19  C   UNL A   1      34.049  25.963  25.235  1.00  0.00     0.016 A 
ATOM     20  C   UNL A   1      32.051  25.167  26.333  1.00  0.00     0.016 A 
ATOM     21  C   UNL A   1      32.938  26.199  26.038  1.00  0.00     0.017 A 
ATOM     22  Br  UNL A   1      32.611  27.942  26.692  1.00  0.00    -0.051 Br
ENDBRANCH  15  16
ENDBRANCH   7  15
ENDBRANCH   4   7
ENDBRANCH   2   3
ENDBRANCH   1   2
BRANCH   1  23
ATOM     23  C   UNL A   1      39.025  20.237  25.857  1.00  0.00     0.118 C 
BRANCH  23  24
ATOM     24  N   UNL A   1      40.180  19.339  25.839  1.00  0.00    -0.352 N 
ATOM     25  C   UNL A   1      41.516  19.567  26.079  1.00  0.00     0.251 C 
ATOM     26  H   UNL A   1      39.963  18.405  25.616  1.00  0.00     0.163 HD
ATOM     27  O   UNL A   1      42.333  18.682  25.874  1.00  0.00    -0.269 OA
BRANCH  25  28
ATOM     28  C   UNL A   1      41.964  20.888  26.565  1.00  0.00     0.039 A 
ATOM     29  C   UNL A   1      42.391  21.851  25.646  1.00  0.00     0.014 A 
ATOM     30  C   UNL A   1      41.954  21.181  27.927  1.00  0.00     0.014 A 
ATOM     31  C   UNL A   1      42.714  23.135  26.091  1.00  0.00     0.010 A 
ATOM     32  C   UNL A   1      42.145  22.487  28.351  1.00  0.00     0.010 A 
ATOM     33  C   UNL A   1      42.543  23.476  27.442  1.00  0.00    -0.014 A 
BRANCH  33  34
ATOM     34  C   UNL A   1      42.797  24.846  27.954  1.00  0.00     0.031 A 
ATOM     35  C   UNL A   1      44.184  25.224  28.401  1.00  0.00     0.074 A 
ATOM     36  C   UNL A   1      41.773  25.704  28.119  1.00  0.00     0.049 A 
ATOM     37  N   UNL A   1      44.591  26.301  29.025  1.00  0.00    -0.248 NA
ATOM     38  C   UNL A   1      45.250  24.235  28.163  1.00  0.00     0.031 C 
ATOM     39  C   UNL A   1      40.372  25.432  27.788  1.00  0.00     0.029 A 
ATOM     40  N   UNL A   1      41.750  26.978  28.631  1.00  0.00    -0.354 N 
ATOM     41  C   UNL A   1      45.939  26.097  29.287  1.00  0.00     0.074 A 
ATOM     42  C   UNL A   1      46.271  24.773  28.811  1.00  0.00     0.031 C 
ATOM     43  C   UNL A   1      39.632  26.514  28.081  1.00  0.00     0.029 A 
ATOM     44  C   UNL A   1      40.496  27.538  28.658  1.00  0.00     0.049 A 
ATOM     45  H   UNL A   1      42.557  27.445  28.947  1.00  0.00     0.167 HD
ATOM     46  C   UNL A   1      46.830  26.948  29.849  1.00  0.00     0.037 A 
ATOM     47  C   UNL A   1      40.089  28.740  29.108  1.00  0.00     0.037 A 
ATOM     48  C   UNL A   1      46.509  28.286  30.261  1.00  0.00     0.049 A 
ATOM     49  C   UNL A   1      41.107  29.687  29.680  1.00  0.00     0.074 A 
ATOM     50  C   UNL A   1      47.354  29.263  30.756  1.00  0.00     0.029 A 
ATOM     51  N   UNL A   1      45.238  28.840  30.214  1.00  0.00    -0.354 N 
ATOM     52  N   UNL A   1      42.394  29.509  29.859  1.00  0.00    -0.248 NA
ATOM     53  C   UNL A   1      40.619  31.005  30.108  1.00  0.00     0.031 C 
ATOM     54  C   UNL A   1      46.588  30.397  31.041  1.00  0.00     0.029 A 
ATOM     55  C   UNL A   1      45.274  30.141  30.684  1.00  0.00     0.049 A 
ATOM     56  H   UNL A   1      44.430  28.376  29.895  1.00  0.00     0.167 HD
ATOM     57  C   UNL A   1      42.873  30.698  30.393  1.00  0.00     0.074 A 
ATOM     58  C   UNL A   1      41.741  31.595  30.496  1.00  0.00     0.031 C 
ATOM     59  C   UNL A   1      44.135  31.019  30.766  1.00  0.00     0.037 A 
BRANCH  46  60
ATOM     60  C   UNL A   1      48.237  26.457  30.031  1.00  0.00     0.057 A 
ATOM     61  C   UNL A   1      48.647  25.794  31.196  1.00  0.00     0.134 A 
ATOM     62  C   UNL A   1      49.190  26.630  29.019  1.00  0.00     0.134 A 
ATOM     63  F   UNL A   1      47.787  25.609  32.210  1.00  0.00    -0.206 F 
ATOM     64  C   UNL A   1      49.959  25.349  31.361  1.00  0.00     0.040 A 
ATOM     65  C   UNL A   1      50.498  26.162  29.160  1.00  0.00     0.040 A 
ATOM     66  F   UNL A   1      48.866  27.252  27.876  1.00  0.00    -0.206 F 
ATOM     67  C   UNL A   1      50.887  25.526  30.337  1.00  0.00     0.006 A 
ENDBRANCH  46  60
BRANCH  47  68
ATOM     68  C   UNL A   1      38.661  29.130  29.007  1.00  0.00     0.057 A 
ATOM     69  C   UNL A   1      38.127  29.599  27.801  1.00  0.00     0.134 A 
ATOM     70  C   UNL A   1      37.797  29.049  30.106  1.00  0.00     0.134 A 
ATOM     71  F   UNL A   1      38.908  29.714  26.718  1.00  0.00    -0.206 F 
ATOM     72  C   UNL A   1      36.793  29.995  27.696  1.00  0.00     0.040 A 
ATOM     73  C   UNL A   1      36.455  29.419  30.009  1.00  0.00     0.040 A 
ATOM     74  F   UNL A   1      38.245  28.599  31.287  1.00  0.00    -0.206 F 
ATOM     75  C   UNL A   1      35.951  29.901  28.802  1.00  0.00     0.006 A 
ENDBRANCH  47  68
BRANCH  59  76
ATOM     76  C   UNL A   1      44.363  32.408  31.284  1.00  0.00     0.057 A 
ATOM     77  C   UNL A   1      44.660  33.475  30.428  1.00  0.00     0.134 A 
ATOM     78  C   UNL A   1      44.240  32.685  32.652  1.00  0.00     0.134 A 
ATOM     79  F   UNL A   1      44.802  33.271  29.109  1.00  0.00    -0.206 F 
ATOM     80  C   UNL A   1      44.848  34.768  30.918  1.00  0.00     0.040 A 
ATOM     81  C   UNL A   1      44.400  33.978  33.149  1.00  0.00     0.040 A 
ATOM     82  F   UNL A   1      43.947  31.707  33.522  1.00  0.00    -0.206 F 
ATOM     83  C   UNL A   1      44.711  35.024  32.281  1.00  0.00     0.006 A 
ENDBRANCH  59  76
ENDBRANCH  33  34
ENDBRANCH  25  28
ENDBRANCH  23  24
ENDBRANCH   1  23
TORSDOF 14
ENDMDL
MODEL 2
REMARK VINA RESULT:     -11.6      1.302      6.266
REMARK SMILES Cc1csc(C[C@@H](Cc2ccc(Br)cc2)C(=O)NCCCNC(=O)c2ccc(-c3c4nc(c(-c5c(F)cccc5F)c5ccc([nH]5)c(-c5c(F)cccc5F)c5nc(c(-c6c(F)cccc6F)c6ccc3[nH]6)C=C5)C=C4)cc2)n1
REMARK SMILES IDX 20 1 19 2 18 3 16 4 17 5 7 7 6 8 5 9 1 10 2 11 3 12 79 13
REMARK SMILES IDX 4 14 8 15 9 16 10 17 15 18 11 19 14 20 12 21 13 22 21 23
REMARK SMILES IDX 22 24 23 25 24 27 25 28 26 29 78 30 27 31 77 32 28 33 29 34
REMARK SMILES IDX 30 35 71 36 31 37 76 38 70 39 72 40 32 41 75 42 69 43 68 44
REMARK SMILES IDX 33 46 59 47 42 48 58 49 43 50 46 51 57 52 73 53 44 54 45 55
REMARK SMILES IDX 56 57 74 58 47 59 34 60 35 61 40 62 36 63 37 64 39 65 41 66
REMARK SMILES IDX 38 67 60 68 61 69 66 70 62 71 63 72 65 73 67 74 64 75 48 76
REMARK SMILES IDX 49 77 54 78 50 79 51 80 53 81 55 82 52 83
REMARK H PARENT 18 6 22 26 72 45 46 56
REMARK Flexibility Score: inf
ROOT
ATOM      1  C   UNL A   1      37.761  19.961  25.032  1.00  0.00     0.042 C 
ENDROOT
BRANCH   1   2
ATOM      2  C   UNL A   1      36.780  21.100  24.875  1.00  0.00     0.117 C 
BRANCH   2   3
ATOM      3  N   UNL A   1      35.934  21.360  26.016  1.00  0.00    -0.356 N 
ATOM      4  C   UNL A   1      34.587  21.180  26.127  1.00  0.00     0.223 C 
ATOM      5  O   UNL A   1      34.117  21.164  27.269  1.00  0.00    -0.275 OA
ATOM      6  H   UNL A   1      36.388  21.713  26.815  1.00  0.00     0.163 HD
BRANCH   4   7
ATOM      7  C   UNL A   1      33.664  21.060  24.912  1.00  0.00     0.089 C 
BRANCH   7   8
ATOM      8  C   UNL A   1      32.533  20.061  25.214  1.00  0.00     0.081 C 
BRANCH   8   9
ATOM      9  C   UNL A   1      32.905  18.624  25.027  1.00  0.00     0.094 A 
ATOM     10  C   UNL A   1      32.226  15.193  25.831  1.00  0.00     0.067 C 
ATOM     11  C   UNL A   1      32.867  16.427  25.314  1.00  0.00     0.048 A 
ATOM     12  C   UNL A   1      34.080  16.541  24.665  1.00  0.00     0.090 A 
ATOM     13  N   UNL A   1      32.206  17.621  25.505  1.00  0.00    -0.247 NA
ATOM     14  S   UNL A   1      34.391  18.184  24.285  1.00  0.00    -0.127 S 
ENDBRANCH   8   9
ENDBRANCH   7   8
BRANCH   7  15
ATOM     15  C   UNL A   1      33.367  22.410  24.203  1.00  0.00     0.049 C 
BRANCH  15  16
ATOM     16  C   UNL A   1      33.099  23.661  25.011  1.00  0.00    -0.047 A 
ATOM     17  C   UNL A   1      34.021  24.718  25.049  1.00  0.00     0.005 A 
ATOM     18  C   UNL A   1      31.887  23.807  25.708  1.00  0.00     0.005 A 
ATOM     19  C   UNL A   1      33.695  25.932  25.660  1.00  0.00     0.016 A 
ATOM     20  C   UNL A   1      31.563  25.019  26.331  1.00  0.00     0.016 A 
ATOM     21  C   UNL A   1      32.458  26.084  26.277  1.00  0.00     0.017 A 
ATOM     22  Br  UNL A   1      31.975  27.762  27.003  1.00  0.00    -0.051 Br
ENDBRANCH  15  16
ENDBRANCH   7  15
ENDBRANCH   4   7
ENDBRANCH   2   3
ENDBRANCH   1   2
BRANCH   1  23
ATOM     23  C   UNL A   1      39.018  20.366  25.779  1.00  0.00     0.118 C 
BRANCH  23  24
ATOM     24  N   UNL A   1      40.019  19.301  25.854  1.00  0.00    -0.352 N 
ATOM     25  C   UNL A   1      41.371  19.338  26.109  1.00  0.00     0.251 C 
ATOM     26  H   UNL A   1      39.662  18.398  25.693  1.00  0.00     0.163 HD
ATOM     27  O   UNL A   1      42.043  18.324  25.987  1.00  0.00    -0.269 OA
BRANCH  25  28
ATOM     28  C   UNL A   1      42.014  20.606  26.509  1.00  0.00     0.039 A 
ATOM     29  C   UNL A   1      42.476  21.484  25.525  1.00  0.00     0.014 A 
ATOM     30  C   UNL A   1      42.152  20.935  27.856  1.00  0.00     0.014 A 
ATOM     31  C   UNL A   1      42.986  22.730  25.895  1.00  0.00     0.010 A 
ATOM     32  C   UNL A   1      42.533  22.217  28.216  1.00  0.00     0.010 A 
ATOM     33  C   UNL A   1      42.970  23.126  27.242  1.00  0.00    -0.014 A 
BRANCH  33  34
ATOM     34  C   UNL A   1      43.429  24.467  27.681  1.00  0.00     0.031 A 
ATOM     35  C   UNL A   1      42.412  25.509  28.068  1.00  0.00     0.074 A 
ATOM     36  C   UNL A   1      44.737  24.783  27.628  1.00  0.00     0.049 A 
ATOM     37  N   UNL A   1      42.584  26.781  28.324  1.00  0.00    -0.248 NA
ATOM     38  C   UNL A   1      41.006  25.073  28.123  1.00  0.00     0.031 C 
ATOM     39  C   UNL A   1      45.813  23.883  27.204  1.00  0.00     0.029 A 
ATOM     40  N   UNL A   1      45.384  25.959  27.912  1.00  0.00    -0.354 N 
ATOM     41  C   UNL A   1      41.310  27.298  28.526  1.00  0.00     0.074 A 
ATOM     42  C   UNL A   1      40.373  26.221  28.304  1.00  0.00     0.031 C 
ATOM     43  C   UNL A   1      46.986  24.533  27.281  1.00  0.00     0.029 A 
ATOM     44  C   UNL A   1      46.742  25.903  27.717  1.00  0.00     0.049 A 
ATOM     45  H   UNL A   1      44.916  26.767  28.226  1.00  0.00     0.167 HD
ATOM     46  C   UNL A   1      40.955  28.552  28.890  1.00  0.00     0.037 A 
ATOM     47  C   UNL A   1      47.683  26.855  27.864  1.00  0.00     0.037 A 
ATOM     48  C   UNL A   1      41.895  29.602  29.172  1.00  0.00     0.049 A 
ATOM     49  C   UNL A   1      47.268  28.226  28.320  1.00  0.00     0.074 A 
ATOM     50  C   UNL A   1      41.648  30.880  29.638  1.00  0.00     0.029 A 
ATOM     51  N   UNL A   1      43.270  29.486  29.024  1.00  0.00    -0.354 N 
ATOM     52  N   UNL A   1      46.066  28.684  28.576  1.00  0.00    -0.248 NA
ATOM     53  C   UNL A   1      48.340  29.212  28.516  1.00  0.00     0.031 C 
ATOM     54  C   UNL A   1      42.871  31.551  29.738  1.00  0.00     0.029 A 
ATOM     55  C   UNL A   1      43.882  30.676  29.376  1.00  0.00     0.049 A 
ATOM     56  H   UNL A   1      43.739  28.679  28.712  1.00  0.00     0.167 HD
ATOM     57  C   UNL A   1      46.239  29.999  28.987  1.00  0.00     0.074 A 
ATOM     58  C   UNL A   1      47.663  30.261  28.961  1.00  0.00     0.031 C 
ATOM     59  C   UNL A   1      45.304  30.909  29.352  1.00  0.00     0.037 A 
BRANCH  46  60
ATOM     60  C   UNL A   1      39.488  28.847  29.022  1.00  0.00     0.057 A 
ATOM     61  C   UNL A   1      38.803  28.677  30.232  1.00  0.00     0.134 A 
ATOM     62  C   UNL A   1      38.756  29.328  27.929  1.00  0.00     0.134 A 
ATOM     63  F   UNL A   1      39.442  28.204  31.314  1.00  0.00    -0.206 F 
ATOM     64  C   UNL A   1      37.438  28.944  30.345  1.00  0.00     0.040 A 
ATOM     65  C   UNL A   1      37.397  29.629  28.037  1.00  0.00     0.040 A 
ATOM     66  F   UNL A   1      39.350  29.519  26.741  1.00  0.00    -0.206 F 
ATOM     67  C   UNL A   1      36.733  29.429  29.245  1.00  0.00     0.006 A 
ENDBRANCH  46  60
BRANCH  47  68
ATOM     68  C   UNL A   1      49.110  26.538  27.610  1.00  0.00     0.057 A 
ATOM     69  C   UNL A   1      49.691  26.790  26.360  1.00  0.00     0.134 A 
ATOM     70  C   UNL A   1      49.926  25.976  28.598  1.00  0.00     0.134 A 
ATOM     71  F   UNL A   1      48.956  27.311  25.368  1.00  0.00    -0.206 F 
ATOM     72  C   UNL A   1      51.024  26.473  26.096  1.00  0.00     0.040 A 
ATOM     73  C   UNL A   1      51.267  25.677  28.355  1.00  0.00     0.040 A 
ATOM     74  F   UNL A   1      49.432  25.720  29.818  1.00  0.00    -0.206 F 
ATOM     75  C   UNL A   1      51.819  25.919  27.098  1.00  0.00     0.006 A 
ENDBRANCH  47  68
BRANCH  59  76
ATOM     76  C   UNL A   1      45.795  32.258  29.787  1.00  0.00     0.057 A 
ATOM     77  C   UNL A   1      45.932  33.319  28.885  1.00  0.00     0.134 A 
ATOM     78  C   UNL A   1      46.091  32.506  31.134  1.00  0.00     0.134 A 
ATOM     79  F   UNL A   1      45.674  33.141  27.580  1.00  0.00    -0.206 F 
ATOM     80  C   UNL A   1      46.368  34.576  29.304  1.00  0.00     0.040 A 
ATOM     81  C   UNL A   1      46.504  33.765  31.568  1.00  0.00     0.040 A 
ATOM     82  F   UNL A   1      45.970  31.533  32.048  1.00  0.00    -0.206 F 
ATOM     83  C   UNL A   1      46.648  34.804  30.649  1.00  0.00     0.006 A 
ENDBRANCH  59  76
ENDBRANCH  33  34
ENDBRANCH  25  28
ENDBRANCH  23  24
ENDBRANCH   1  23
TORSDOF 14
ENDMDL
MODEL 3
REMARK VINA RESULT:     -11.5      4.629      9.439
REMARK SMILES Cc1csc(C[C@@H](Cc2ccc(Br)cc2)C(=O)NCCCNC(=O)c2ccc(-c3c4nc(c(-c5c(F)cccc5F)c5ccc([nH]5)c(-c5c(F)cccc5F)c5nc(c(-c6c(F)cccc6F)c6ccc3[nH]6)C=C5)C=C4)cc2)n1
REMARK SMILES IDX 20 1 19 2 18 3 16 4 17 5 7 7 6 8 5 9 1 10 2 11 3 12 79 13
REMARK SMILES IDX 4 14 8 15 9 16 10 17 15 18 11 19 14 20 12 21 13 22 21 23
REMARK SMILES IDX 22 24 23 25 24 27 25 28 26 29 78 30 27 31 77 32 28 33 29 34
REMARK SMILES IDX 30 35 71 36 31 37 76 38 70 39 72 40 32 41 75 42 69 43 68 44
REMARK SMILES IDX 33 46 59 47 42 48 58 49 43 50 46 51 57 52 73 53 44 54 45 55
REMARK SMILES IDX 56 57 74 58 47 59 34 60 35 61 40 62 36 63 37 64 39 65 41 66
REMARK SMILES IDX 38 67 60 68 61 69 66 70 62 71 63 72 65 73 67 74 64 75 48 76
REMARK SMILES IDX 49 77 54 78 50 79 51 80 53 81 55 82 52 83
REMARK H PARENT 18 6 22 26 72 45 46 56
REMARK Flexibility Score: inf
ROOT
ATOM      1  C   UNL A   1      31.392  31.859  26.498  1.00  0.00     0.042 C 
ENDROOT
BRANCH   1   2
ATOM      2  C   UNL A   1      31.519  30.384  26.197  1.00  0.00     0.117 C 
BRANCH   2   3
ATOM      3  N   UNL A   1      32.586  30.018  25.296  1.00  0.00    -0.356 N 
ATOM      4  C   UNL A   1      32.546  29.144  24.250  1.00  0.00     0.223 C 
ATOM      5  O   UNL A   1      33.465  29.212  23.428  1.00  0.00    -0.275 OA
ATOM      6  H   UNL A   1      33.453  30.454  25.458  1.00  0.00     0.163 HD
BRANCH   4   7
ATOM      7  C   UNL A   1      31.459  28.076  24.103  1.00  0.00     0.089 C 
BRANCH   7   8
ATOM      8  C   UNL A   1      30.976  28.020  22.644  1.00  0.00     0.081 C 
BRANCH   8   9
ATOM      9  C   UNL A   1      29.722  28.790  22.373  1.00  0.00     0.094 A 
ATOM     10  C   UNL A   1      28.208  31.679  20.877  1.00  0.00     0.067 C 
ATOM     11  C   UNL A   1      28.424  30.440  21.663  1.00  0.00     0.048 A 
ATOM     12  C   UNL A   1      27.524  29.792  22.485  1.00  0.00     0.090 A 
ATOM     13  N   UNL A   1      29.669  29.853  21.604  1.00  0.00    -0.247 NA
ATOM     14  S   UNL A   1      28.259  28.413  23.192  1.00  0.00    -0.127 S 
ENDBRANCH   8   9
ENDBRANCH   7   8
BRANCH   7  15
ATOM     15  C   UNL A   1      31.738  26.771  24.901  1.00  0.00     0.049 C 
BRANCH  15  16
ATOM     16  C   UNL A   1      32.954  25.926  24.592  1.00  0.00    -0.047 A 
ATOM     17  C   UNL A   1      33.929  25.665  25.568  1.00  0.00     0.005 A 
ATOM     18  C   UNL A   1      33.107  25.341  23.323  1.00  0.00     0.005 A 
ATOM     19  C   UNL A   1      34.959  24.752  25.325  1.00  0.00     0.016 A 
ATOM     20  C   UNL A   1      34.144  24.434  23.075  1.00  0.00     0.016 A 
ATOM     21  C   UNL A   1      35.047  24.123  24.088  1.00  0.00     0.017 A 
ATOM     22  Br  UNL A   1      36.372  22.805  23.800  1.00  0.00    -0.051 Br
ENDBRANCH  15  16
ENDBRANCH   7  15
ENDBRANCH   4   7
ENDBRANCH   2   3
ENDBRANCH   1   2
BRANCH   1  23
ATOM     23  C   UNL A   1      32.647  32.443  27.120  1.00  0.00     0.118 C 
BRANCH  23  24
ATOM     24  N   UNL A   1      32.461  33.797  27.643  1.00  0.00    -0.352 N 
ATOM     25  C   UNL A   1      33.176  34.523  28.569  1.00  0.00     0.251 C 
ATOM     26  H   UNL A   1      31.687  34.274  27.266  1.00  0.00     0.163 HD
ATOM     27  O   UNL A   1      32.754  35.603  28.956  1.00  0.00    -0.269 OA
BRANCH  25  28
ATOM     28  C   UNL A   1      34.443  33.988  29.108  1.00  0.00     0.039 A 
ATOM     29  C   UNL A   1      34.418  33.173  30.243  1.00  0.00     0.014 A 
ATOM     30  C   UNL A   1      35.656  34.282  28.488  1.00  0.00     0.014 A 
ATOM     31  C   UNL A   1      35.599  32.579  30.693  1.00  0.00     0.010 A 
ATOM     32  C   UNL A   1      36.800  33.590  28.853  1.00  0.00     0.010 A 
ATOM     33  C   UNL A   1      36.791  32.742  29.969  1.00  0.00    -0.014 A 
BRANCH  33  34
ATOM     34  C   UNL A   1      38.056  32.072  30.359  1.00  0.00     0.031 A 
ATOM     35  C   UNL A   1      39.007  32.771  31.294  1.00  0.00     0.074 A 
ATOM     36  C   UNL A   1      38.399  30.899  29.793  1.00  0.00     0.049 A 
ATOM     37  N   UNL A   1      40.227  32.442  31.634  1.00  0.00    -0.248 NA
ATOM     38  C   UNL A   1      38.543  34.038  31.885  1.00  0.00     0.031 C 
ATOM     39  C   UNL A   1      37.595  30.156  28.820  1.00  0.00     0.029 A 
ATOM     40  N   UNL A   1      39.530  30.135  29.939  1.00  0.00    -0.354 N 
ATOM     41  C   UNL A   1      40.684  33.478  32.439  1.00  0.00     0.074 A 
ATOM     42  C   UNL A   1      39.638  34.473  32.488  1.00  0.00     0.031 C 
ATOM     43  C   UNL A   1      38.246  29.032  28.478  1.00  0.00     0.029 A 
ATOM     44  C   UNL A   1      39.529  28.996  29.171  1.00  0.00     0.049 A 
ATOM     45  H   UNL A   1      40.271  30.381  30.538  1.00  0.00     0.167 HD
ATOM     46  C   UNL A   1      41.861  33.579  33.100  1.00  0.00     0.037 A 
ATOM     47  C   UNL A   1      40.463  28.036  29.036  1.00  0.00     0.037 A 
ATOM     48  C   UNL A   1      42.871  32.557  33.099  1.00  0.00     0.049 A 
ATOM     49  C   UNL A   1      41.740  28.145  29.822  1.00  0.00     0.074 A 
ATOM     50  C   UNL A   1      44.058  32.516  33.807  1.00  0.00     0.029 A 
ATOM     51  N   UNL A   1      42.805  31.387  32.357  1.00  0.00    -0.354 N 
ATOM     52  N   UNL A   1      42.131  29.097  30.635  1.00  0.00    -0.248 NA
ATOM     53  C   UNL A   1      42.703  27.045  29.678  1.00  0.00     0.031 C 
ATOM     54  C   UNL A   1      44.727  31.336  33.468  1.00  0.00     0.029 A 
ATOM     55  C   UNL A   1      43.937  30.623  32.581  1.00  0.00     0.049 A 
ATOM     56  H   UNL A   1      42.063  31.137  31.759  1.00  0.00     0.167 HD
ATOM     57  C   UNL A   1      43.370  28.698  31.119  1.00  0.00     0.074 A 
ATOM     58  C   UNL A   1      43.658  27.412  30.520  1.00  0.00     0.031 C 
ATOM     59  C   UNL A   1      44.196  29.339  31.981  1.00  0.00     0.037 A 
BRANCH  46  60
ATOM     60  C   UNL A   1      42.106  34.830  33.893  1.00  0.00     0.057 A 
ATOM     61  C   UNL A   1      41.748  34.935  35.244  1.00  0.00     0.134 A 
ATOM     62  C   UNL A   1      42.728  35.939  33.304  1.00  0.00     0.134 A 
ATOM     63  F   UNL A   1      41.134  33.915  35.865  1.00  0.00    -0.206 F 
ATOM     64  C   UNL A   1      41.970  36.104  35.972  1.00  0.00     0.040 A 
ATOM     65  C   UNL A   1      42.984  37.103  34.030  1.00  0.00     0.040 A 
ATOM     66  F   UNL A   1      43.101  35.906  32.016  1.00  0.00    -0.206 F 
ATOM     67  C   UNL A   1      42.597  37.191  35.366  1.00  0.00     0.006 A 
ENDBRANCH  46  60
BRANCH  47  68
ATOM     68  C   UNL A   1      40.215  26.874  28.147  1.00  0.00     0.057 A 
ATOM     69  C   UNL A   1      39.430  25.796  28.575  1.00  0.00     0.134 A 
ATOM     70  C   UNL A   1      40.753  26.807  26.857  1.00  0.00     0.134 A 
ATOM     71  F   UNL A   1      38.901  25.795  29.807  1.00  0.00    -0.206 F 
ATOM     72  C   UNL A   1      39.210  24.683  27.762  1.00  0.00     0.040 A 
ATOM     73  C   UNL A   1      40.521  25.711  26.024  1.00  0.00     0.040 A 
ATOM     74  F   UNL A   1      41.505  27.812  26.384  1.00  0.00    -0.206 F 
ATOM     75  C   UNL A   1      39.753  24.641  26.479  1.00  0.00     0.006 A 
ENDBRANCH  47  68
BRANCH  59  76
ATOM     76  C   UNL A   1      45.470  28.642  32.354  1.00  0.00     0.057 A 
ATOM     77  C   UNL A   1      46.663  28.860  31.655  1.00  0.00     0.134 A 
ATOM     78  C   UNL A   1      45.510  27.774  33.454  1.00  0.00     0.134 A 
ATOM     79  F   UNL A   1      46.687  29.671  30.585  1.00  0.00    -0.206 F 
ATOM     80  C   UNL A   1      47.848  28.224  32.024  1.00  0.00     0.040 A 
ATOM     81  C   UNL A   1      46.695  27.153  33.847  1.00  0.00     0.040 A 
ATOM     82  F   UNL A   1      44.403  27.531  34.170  1.00  0.00    -0.206 F 
ATOM     83  C   UNL A   1      47.868  27.373  33.127  1.00  0.00     0.006 A 
ENDBRANCH  59  76
ENDBRANCH  33  34
ENDBRANCH  25  28
ENDBRANCH  23  24
ENDBRANCH   1  23
TORSDOF 14
ENDMDL
