MODEL 1
REMARK VINA RESULT:     -12.1      0.000      0.000
REMARK SMILES Cc1ccc(-c2c[nH]c(=O)cc2C(=O)NCCCNC(=O)c2ccc(-c3c4nc(c(-c5c(F)cccc5F)c5ccc([nH]5)c(-c5c(F)cccc5F)c5nc(c(-c6c(F)cccc6F)c6ccc3[nH]6)C=C5)C=C4)cc2)cc1Cl
REMARK SMILES IDX 17 1 16 2 15 3 13 4 14 5 12 7 6 8 7 9 8 10 11 11 9 12 10 14
REMARK SMILES IDX 5 15 1 16 2 17 3 18 77 19 4 20 76 21 78 22 18 23 19 24 20 25
REMARK SMILES IDX 21 27 22 28 23 29 75 30 24 31 74 32 25 33 26 34 27 35 68 36
REMARK SMILES IDX 28 37 73 38 67 39 69 40 29 41 72 42 66 43 65 44 30 46 56 47
REMARK SMILES IDX 39 48 55 49 40 50 43 51 54 52 70 53 41 54 42 55 53 57 71 58
REMARK SMILES IDX 44 59 31 60 32 61 37 62 33 63 34 64 36 65 38 66 35 67 57 68
REMARK SMILES IDX 58 69 63 70 59 71 60 72 62 73 64 74 61 75 45 76 46 77 51 78
REMARK SMILES IDX 47 79 48 80 50 81 52 82 49 83
REMARK H PARENT 15 6 8 13 19 26 69 45 43 56
REMARK Flexibility Score: inf
ROOT
ATOM      1  C   UNL A   1      33.286  28.212  27.208  1.00  0.00     0.042 C 
ENDROOT
BRANCH   1   2
ATOM      2  C   UNL A   1      31.767  28.360  27.296  1.00  0.00     0.118 C 
BRANCH   2   3
ATOM      3  N   UNL A   1      31.114  27.084  27.078  1.00  0.00    -0.352 N 
ATOM      4  C   UNL A   1      30.712  26.361  26.003  1.00  0.00     0.252 C 
ATOM      5  O   UNL A   1      30.133  25.317  26.306  1.00  0.00    -0.269 OA
ATOM      6  H   UNL A   1      30.911  26.625  27.926  1.00  0.00     0.163 HD
BRANCH   4   7
ATOM      7  C   UNL A   1      30.969  26.728  24.559  1.00  0.00     0.054 A 
ATOM      8  C   UNL A   1      32.155  26.182  23.848  1.00  0.00     0.011 A 
ATOM      9  C   UNL A   1      32.422  26.618  22.600  1.00  0.00     0.095 A 
ATOM     10  N   UNL A   1      31.612  27.523  21.972  1.00  0.00    -0.328 N 
ATOM     11  C   UNL A   1      30.123  27.515  23.870  1.00  0.00     0.086 A 
ATOM     12  C   UNL A   1      30.454  28.004  22.512  1.00  0.00     0.248 A 
ATOM     13  H   UNL A   1      31.880  27.846  21.081  1.00  0.00     0.169 HD
ATOM     14  O   UNL A   1      29.728  28.800  21.934  1.00  0.00    -0.270 OA
BRANCH   8  15
ATOM     15  C   UNL A   1      33.055  25.114  24.341  1.00  0.00    -0.015 A 
ATOM     16  C   UNL A   1      35.785  22.059  25.741  1.00  0.00     0.046 C 
ATOM     17  C   UNL A   1      34.812  23.101  25.268  1.00  0.00    -0.032 A 
ATOM     18  C   UNL A   1      35.075  24.453  25.526  1.00  0.00     0.005 A 
ATOM     19  C   UNL A   1      33.643  22.768  24.568  1.00  0.00     0.044 A 
ATOM     20  C   UNL A   1      34.195  25.445  25.085  1.00  0.00     0.009 A 
ATOM     21  C   UNL A   1      32.777  23.763  24.101  1.00  0.00     0.029 A 
ATOM     22  Cl  UNL A   1      33.219  21.122  24.257  1.00  0.00    -0.084 Cl
ENDBRANCH   8  15
ENDBRANCH   4   7
ENDBRANCH   2   3
ENDBRANCH   1   2
BRANCH   1  23
ATOM     23  C   UNL A   1      33.940  29.244  26.286  1.00  0.00     0.118 C 
BRANCH  23  24
ATOM     24  N   UNL A   1      33.878  30.590  26.843  1.00  0.00    -0.352 N 
ATOM     25  C   UNL A   1      34.596  31.165  27.860  1.00  0.00     0.251 C 
ATOM     26  H   UNL A   1      33.214  31.181  26.421  1.00  0.00     0.163 HD
ATOM     27  O   UNL A   1      34.202  32.215  28.359  1.00  0.00    -0.269 OA
BRANCH  25  28
ATOM     28  C   UNL A   1      35.837  30.536  28.354  1.00  0.00     0.039 A 
ATOM     29  C   UNL A   1      37.025  30.733  27.645  1.00  0.00     0.014 A 
ATOM     30  C   UNL A   1      35.822  29.704  29.477  1.00  0.00     0.014 A 
ATOM     31  C   UNL A   1      38.208  30.142  28.095  1.00  0.00     0.010 A 
ATOM     32  C   UNL A   1      37.014  29.178  29.968  1.00  0.00     0.010 A 
ATOM     33  C   UNL A   1      38.218  29.387  29.279  1.00  0.00    -0.014 A 
BRANCH  33  34
ATOM     34  C   UNL A   1      39.479  28.811  29.814  1.00  0.00     0.031 A 
ATOM     35  C   UNL A   1      40.133  29.415  31.027  1.00  0.00     0.074 A 
ATOM     36  C   UNL A   1      40.064  27.785  29.165  1.00  0.00     0.049 A 
ATOM     37  N   UNL A   1      41.267  29.094  31.599  1.00  0.00    -0.248 NA
ATOM     38  C   UNL A   1      39.438  30.542  31.669  1.00  0.00     0.031 C 
ATOM     39  C   UNL A   1      39.549  27.144  27.953  1.00  0.00     0.029 A 
ATOM     40  N   UNL A   1      41.228  27.107  29.427  1.00  0.00    -0.354 N 
ATOM     41  C   UNL A   1      41.428  29.991  32.648  1.00  0.00     0.074 A 
ATOM     42  C   UNL A   1      40.302  30.895  32.610  1.00  0.00     0.031 C 
ATOM     43  C   UNL A   1      40.376  26.150  27.594  1.00  0.00     0.029 A 
ATOM     44  C   UNL A   1      41.504  26.113  28.519  1.00  0.00     0.049 A 
ATOM     45  H   UNL A   1      41.812  27.314  30.193  1.00  0.00     0.167 HD
ATOM     46  C   UNL A   1      42.419  30.042  33.569  1.00  0.00     0.037 A 
ATOM     47  C   UNL A   1      42.554  25.274  28.436  1.00  0.00     0.037 A 
ATOM     48  C   UNL A   1      43.521  29.116  33.623  1.00  0.00     0.049 A 
ATOM     49  C   UNL A   1      43.644  25.365  29.469  1.00  0.00     0.074 A 
ATOM     50  C   UNL A   1      44.532  29.034  34.565  1.00  0.00     0.029 A 
ATOM     51  N   UNL A   1      43.758  28.116  32.692  1.00  0.00    -0.354 N 
ATOM     52  N   UNL A   1      43.739  26.162  30.506  1.00  0.00    -0.248 NA
ATOM     53  C   UNL A   1      44.774  24.436  29.322  1.00  0.00     0.031 C 
ATOM     54  C   UNL A   1      45.414  28.025  34.172  1.00  0.00     0.029 A 
ATOM     55  C   UNL A   1      44.919  27.435  33.020  1.00  0.00     0.049 A 
ATOM     56  H   UNL A   1      43.187  27.918  31.915  1.00  0.00     0.167 HD
ATOM     57  C   UNL A   1      44.914  25.803  31.154  1.00  0.00     0.074 A 
ATOM     58  C   UNL A   1      45.489  24.709  30.402  1.00  0.00     0.031 C 
ATOM     59  C   UNL A   1      45.468  26.333  32.272  1.00  0.00     0.037 A 
BRANCH  46  60
ATOM     60  C   UNL A   1      42.368  31.132  34.601  1.00  0.00     0.057 A 
ATOM     61  C   UNL A   1      42.964  32.381  34.392  1.00  0.00     0.134 A 
ATOM     62  C   UNL A   1      41.649  30.951  35.791  1.00  0.00     0.134 A 
ATOM     63  F   UNL A   1      43.676  32.618  33.280  1.00  0.00    -0.206 F 
ATOM     64  C   UNL A   1      42.861  33.407  35.334  1.00  0.00     0.040 A 
ATOM     65  C   UNL A   1      41.515  31.978  36.727  1.00  0.00     0.040 A 
ATOM     66  F   UNL A   1      41.047  29.781  36.052  1.00  0.00    -0.206 F 
ATOM     67  C   UNL A   1      42.125  33.210  36.501  1.00  0.00     0.006 A 
ENDBRANCH  46  60
BRANCH  47  68
ATOM     68  C   UNL A   1      42.632  24.264  27.348  1.00  0.00     0.057 A 
ATOM     69  C   UNL A   1      42.168  22.957  27.541  1.00  0.00     0.134 A 
ATOM     70  C   UNL A   1      43.213  24.562  26.110  1.00  0.00     0.134 A 
ATOM     71  F   UNL A   1      41.616  22.603  28.711  1.00  0.00    -0.206 F 
ATOM     72  C   UNL A   1      42.312  21.974  26.559  1.00  0.00     0.040 A 
ATOM     73  C   UNL A   1      43.335  23.599  25.107  1.00  0.00     0.040 A 
ATOM     74  F   UNL A   1      43.670  25.797  25.855  1.00  0.00    -0.206 F 
ATOM     75  C   UNL A   1      42.897  22.296  25.337  1.00  0.00     0.006 A 
ENDBRANCH  47  68
BRANCH  59  76
ATOM     76  C   UNL A   1      46.733  25.703  32.778  1.00  0.00     0.057 A 
ATOM     77  C   UNL A   1      47.995  26.085  32.310  1.00  0.00     0.134 A 
ATOM     78  C   UNL A   1      46.684  24.722  33.779  1.00  0.00     0.134 A 
ATOM     79  F   UNL A   1      48.112  27.009  31.344  1.00  0.00    -0.206 F 
ATOM     80  C   UNL A   1      49.163  25.495  32.798  1.00  0.00     0.040 A 
ATOM     81  C   UNL A   1      47.845  24.149  34.297  1.00  0.00     0.040 A 
ATOM     82  F   UNL A   1      45.508  24.317  34.280  1.00  0.00    -0.206 F 
ATOM     83  C   UNL A   1      49.089  24.529  33.800  1.00  0.00     0.006 A 
ENDBRANCH  59  76
ENDBRANCH  33  34
ENDBRANCH  25  28
ENDBRANCH  23  24
ENDBRANCH   1  23
TORSDOF 11
ENDMDL
MODEL 2
REMARK VINA RESULT:     -12.0      4.593      7.933
REMARK SMILES Cc1ccc(-c2c[nH]c(=O)cc2C(=O)NCCCNC(=O)c2ccc(-c3c4nc(c(-c5c(F)cccc5F)c5ccc([nH]5)c(-c5c(F)cccc5F)c5nc(c(-c6c(F)cccc6F)c6ccc3[nH]6)C=C5)C=C4)cc2)cc1Cl
REMARK SMILES IDX 17 1 16 2 15 3 13 4 14 5 12 7 6 8 7 9 8 10 11 11 9 12 10 14
REMARK SMILES IDX 5 15 1 16 2 17 3 18 77 19 4 20 76 21 78 22 18 23 19 24 20 25
REMARK SMILES IDX 21 27 22 28 23 29 75 30 24 31 74 32 25 33 26 34 27 35 68 36
REMARK SMILES IDX 28 37 73 38 67 39 69 40 29 41 72 42 66 43 65 44 30 46 56 47
REMARK SMILES IDX 39 48 55 49 40 50 43 51 54 52 70 53 41 54 42 55 53 57 71 58
REMARK SMILES IDX 44 59 31 60 32 61 37 62 33 63 34 64 36 65 38 66 35 67 57 68
REMARK SMILES IDX 58 69 63 70 59 71 60 72 62 73 64 74 61 75 45 76 46 77 51 78
REMARK SMILES IDX 47 79 48 80 50 81 52 82 49 83
REMARK H PARENT 15 6 8 13 19 26 69 45 43 56
REMARK Flexibility Score: inf
ROOT
ATOM      1  C   UNL A   1      37.911  19.794  24.872  1.00  0.00     0.042 C 
ENDROOT
BRANCH   1   2
ATOM      2  C   UNL A   1      36.921  20.930  24.612  1.00  0.00     0.118 C 
BRANCH   2   3
ATOM      3  N   UNL A   1      35.859  20.919  25.600  1.00  0.00    -0.352 N 
ATOM      4  C   UNL A   1      34.598  20.425  25.675  1.00  0.00     0.252 C 
ATOM      5  O   UNL A   1      34.024  20.712  26.727  1.00  0.00    -0.269 OA
ATOM      6  H   UNL A   1      36.118  21.390  26.425  1.00  0.00     0.163 HD
BRANCH   4   7
ATOM      7  C   UNL A   1      33.934  19.561  24.626  1.00  0.00     0.054 A 
ATOM      8  C   UNL A   1      32.800  20.096  23.826  1.00  0.00     0.011 A 
ATOM      9  C   UNL A   1      32.153  19.267  22.982  1.00  0.00     0.095 A 
ATOM     10  N   UNL A   1      32.536  17.964  22.829  1.00  0.00    -0.328 N 
ATOM     11  C   UNL A   1      34.367  18.316  24.360  1.00  0.00     0.086 A 
ATOM     12  C   UNL A   1      33.621  17.416  23.451  1.00  0.00     0.248 A 
ATOM     13  H   UNL A   1      31.998  17.388  22.238  1.00  0.00     0.169 HD
ATOM     14  O   UNL A   1      33.965  16.253  23.294  1.00  0.00    -0.270 OA
BRANCH   8  15
ATOM     15  C   UNL A   1      32.345  21.504  23.788  1.00  0.00    -0.015 A 
ATOM     16  C   UNL A   1      30.894  25.583  23.701  1.00  0.00     0.046 C 
ATOM     17  C   UNL A   1      31.429  24.180  23.726  1.00  0.00    -0.032 A 
ATOM     18  C   UNL A   1      31.028  23.311  24.749  1.00  0.00     0.005 A 
ATOM     19  C   UNL A   1      32.318  23.702  22.752  1.00  0.00     0.044 A 
ATOM     20  C   UNL A   1      31.498  21.996  24.790  1.00  0.00     0.009 A 
ATOM     21  C   UNL A   1      32.765  22.376  22.776  1.00  0.00     0.029 A 
ATOM     22  Cl  UNL A   1      32.903  24.725  21.488  1.00  0.00    -0.084 Cl
ENDBRANCH   8  15
ENDBRANCH   4   7
ENDBRANCH   2   3
ENDBRANCH   1   2
BRANCH   1  23
ATOM     23  C   UNL A   1      38.924  20.117  25.973  1.00  0.00     0.118 C 
BRANCH  23  24
ATOM     24  N   UNL A   1      40.033  19.171  25.989  1.00  0.00    -0.352 N 
ATOM     25  C   UNL A   1      41.386  19.390  26.024  1.00  0.00     0.251 C 
ATOM     26  H   UNL A   1      39.768  18.223  25.971  1.00  0.00     0.163 HD
ATOM     27  O   UNL A   1      42.155  18.471  25.751  1.00  0.00    -0.269 OA
BRANCH  25  28
ATOM     28  C   UNL A   1      41.926  20.714  26.390  1.00  0.00     0.039 A 
ATOM     29  C   UNL A   1      42.213  21.632  25.376  1.00  0.00     0.014 A 
ATOM     30  C   UNL A   1      42.206  21.032  27.722  1.00  0.00     0.014 A 
ATOM     31  C   UNL A   1      42.727  22.889  25.703  1.00  0.00     0.010 A 
ATOM     32  C   UNL A   1      42.646  22.311  28.053  1.00  0.00     0.010 A 
ATOM     33  C   UNL A   1      42.918  23.250  27.047  1.00  0.00    -0.014 A 
BRANCH  33  34
ATOM     34  C   UNL A   1      43.395  24.607  27.419  1.00  0.00     0.031 A 
ATOM     35  C   UNL A   1      42.416  25.657  27.870  1.00  0.00     0.074 A 
ATOM     36  C   UNL A   1      44.702  24.906  27.288  1.00  0.00     0.049 A 
ATOM     37  N   UNL A   1      42.634  26.913  28.170  1.00  0.00    -0.248 NA
ATOM     38  C   UNL A   1      41.005  25.255  27.972  1.00  0.00     0.031 C 
ATOM     39  C   UNL A   1      45.740  23.985  26.819  1.00  0.00     0.029 A 
ATOM     40  N   UNL A   1      45.382  26.075  27.526  1.00  0.00    -0.354 N 
ATOM     41  C   UNL A   1      41.390  27.451  28.475  1.00  0.00     0.074 A 
ATOM     42  C   UNL A   1      40.415  26.401  28.281  1.00  0.00     0.031 C 
ATOM     43  C   UNL A   1      46.926  24.614  26.831  1.00  0.00     0.029 A 
ATOM     44  C   UNL A   1      46.728  25.994  27.261  1.00  0.00     0.049 A 
ATOM     45  H   UNL A   1      44.946  26.894  27.856  1.00  0.00     0.167 HD
ATOM     46  C   UNL A   1      41.091  28.703  28.894  1.00  0.00     0.037 A 
ATOM     47  C   UNL A   1      47.691  26.931  27.346  1.00  0.00     0.037 A 
ATOM     48  C   UNL A   1      42.071  29.735  29.118  1.00  0.00     0.049 A 
ATOM     49  C   UNL A   1      47.324  28.316  27.804  1.00  0.00     0.074 A 
ATOM     50  C   UNL A   1      41.878  31.011  29.619  1.00  0.00     0.029 A 
ATOM     51  N   UNL A   1      43.425  29.610  28.849  1.00  0.00    -0.354 N 
ATOM     52  N   UNL A   1      46.156  28.785  28.171  1.00  0.00    -0.248 NA
ATOM     53  C   UNL A   1      48.411  29.303  27.862  1.00  0.00     0.031 C 
ATOM     54  C   UNL A   1      43.105  31.678  29.597  1.00  0.00     0.029 A 
ATOM     55  C   UNL A   1      44.074  30.799  29.143  1.00  0.00     0.049 A 
ATOM     56  H   UNL A   1      43.861  28.799  28.502  1.00  0.00     0.167 HD
ATOM     57  C   UNL A   1      46.376  30.106  28.541  1.00  0.00     0.074 A 
ATOM     58  C   UNL A   1      47.791  30.358  28.368  1.00  0.00     0.031 C 
ATOM     59  C   UNL A   1      45.487  31.028  28.983  1.00  0.00     0.037 A 
BRANCH  46  60
ATOM     60  C   UNL A   1      39.649  29.040  29.141  1.00  0.00     0.057 A 
ATOM     61  C   UNL A   1      38.799  29.471  28.115  1.00  0.00     0.134 A 
ATOM     62  C   UNL A   1      39.084  28.860  30.411  1.00  0.00     0.134 A 
ATOM     63  F   UNL A   1      39.277  29.674  26.877  1.00  0.00    -0.206 F 
ATOM     64  C   UNL A   1      37.446  29.725  28.344  1.00  0.00     0.040 A 
ATOM     65  C   UNL A   1      37.727  29.083  30.647  1.00  0.00     0.040 A 
ATOM     66  F   UNL A   1      39.839  28.442  31.439  1.00  0.00    -0.206 F 
ATOM     67  C   UNL A   1      36.904  29.521  29.612  1.00  0.00     0.006 A 
ENDBRANCH  46  60
BRANCH  47  68
ATOM     68  C   UNL A   1      49.100  26.602  27.003  1.00  0.00     0.057 A 
ATOM     69  C   UNL A   1      49.568  26.718  25.688  1.00  0.00     0.134 A 
ATOM     70  C   UNL A   1      49.997  26.120  27.964  1.00  0.00     0.134 A 
ATOM     71  F   UNL A   1      48.753  27.158  24.718  1.00  0.00    -0.206 F 
ATOM     72  C   UNL A   1      50.863  26.331  25.334  1.00  0.00     0.040 A 
ATOM     73  C   UNL A   1      51.304  25.760  27.630  1.00  0.00     0.040 A 
ATOM     74  F   UNL A   1      49.617  25.993  29.244  1.00  0.00    -0.206 F 
ATOM     75  C   UNL A   1      51.735  25.852  26.308  1.00  0.00     0.006 A 
ENDBRANCH  47  68
BRANCH  59  76
ATOM     76  C   UNL A   1      46.025  32.377  29.362  1.00  0.00     0.057 A 
ATOM     77  C   UNL A   1      46.080  33.439  28.452  1.00  0.00     0.134 A 
ATOM     78  C   UNL A   1      46.461  32.624  30.671  1.00  0.00     0.134 A 
ATOM     79  F   UNL A   1      45.689  33.266  27.179  1.00  0.00    -0.206 F 
ATOM     80  C   UNL A   1      46.575  34.691  28.821  1.00  0.00     0.040 A 
ATOM     81  C   UNL A   1      46.928  33.880  31.061  1.00  0.00     0.040 A 
ATOM     82  F   UNL A   1      46.426  31.654  31.596  1.00  0.00    -0.206 F 
ATOM     83  C   UNL A   1      46.994  34.916  30.132  1.00  0.00     0.006 A 
ENDBRANCH  59  76
ENDBRANCH  33  34
ENDBRANCH  25  28
ENDBRANCH  23  24
ENDBRANCH   1  23
TORSDOF 11
ENDMDL
MODEL 3
REMARK VINA RESULT:     -11.9      3.814      8.273
REMARK SMILES Cc1ccc(-c2c[nH]c(=O)cc2C(=O)NCCCNC(=O)c2ccc(-c3c4nc(c(-c5c(F)cccc5F)c5ccc([nH]5)c(-c5c(F)cccc5F)c5nc(c(-c6c(F)cccc6F)c6ccc3[nH]6)C=C5)C=C4)cc2)cc1Cl
REMARK SMILES IDX 17 1 16 2 15 3 13 4 14 5 12 7 6 8 7 9 8 10 11 11 9 12 10 14
REMARK SMILES IDX 5 15 1 16 2 17 3 18 77 19 4 20 76 21 78 22 18 23 19 24 20 25
REMARK SMILES IDX 21 27 22 28 23 29 75 30 24 31 74 32 25 33 26 34 27 35 68 36
REMARK SMILES IDX 28 37 73 38 67 39 69 40 29 41 72 42 66 43 65 44 30 46 56 47
REMARK SMILES IDX 39 48 55 49 40 50 43 51 54 52 70 53 41 54 42 55 53 57 71 58
REMARK SMILES IDX 44 59 31 60 32 61 37 62 33 63 34 64 36 65 38 66 35 67 57 68
REMARK SMILES IDX 58 69 63 70 59 71 60 72 62 73 64 74 61 75 45 76 46 77 51 78
REMARK SMILES IDX 47 79 48 80 50 81 52 82 49 83
REMARK H PARENT 15 6 8 13 19 26 69 45 43 56
REMARK Flexibility Score: inf
ROOT
ATOM      1  C   UNL A   1      38.003  19.538  24.910  1.00  0.00     0.042 C 
ENDROOT
BRANCH   1   2
ATOM      2  C   UNL A   1      37.049  20.670  24.527  1.00  0.00     0.118 C 
BRANCH   2   3
ATOM      3  N   UNL A   1      35.987  20.798  25.506  1.00  0.00    -0.352 N 
ATOM      4  C   UNL A   1      34.693  20.402  25.604  1.00  0.00     0.252 C 
ATOM      5  O   UNL A   1      34.140  20.794  26.633  1.00  0.00    -0.269 OA
ATOM      6  H   UNL A   1      36.279  21.299  26.303  1.00  0.00     0.163 HD
BRANCH   4   7
ATOM      7  C   UNL A   1      33.970  19.525  24.606  1.00  0.00     0.054 A 
ATOM      8  C   UNL A   1      32.788  20.048  23.871  1.00  0.00     0.011 A 
ATOM      9  C   UNL A   1      32.094  19.208  23.077  1.00  0.00     0.095 A 
ATOM     10  N   UNL A   1      32.472  17.904  22.914  1.00  0.00    -0.328 N 
ATOM     11  C   UNL A   1      34.391  18.279  24.327  1.00  0.00     0.086 A 
ATOM     12  C   UNL A   1      33.595  17.366  23.475  1.00  0.00     0.248 A 
ATOM     13  H   UNL A   1      31.902  17.320  22.363  1.00  0.00     0.169 HD
ATOM     14  O   UNL A   1      33.934  16.203  23.309  1.00  0.00    -0.270 OA
BRANCH   8  15
ATOM     15  C   UNL A   1      32.326  21.454  23.846  1.00  0.00    -0.015 A 
ATOM     16  C   UNL A   1      30.855  25.527  23.796  1.00  0.00     0.046 C 
ATOM     17  C   UNL A   1      31.397  24.125  23.809  1.00  0.00    -0.032 A 
ATOM     18  C   UNL A   1      30.990  23.242  24.817  1.00  0.00     0.005 A 
ATOM     19  C   UNL A   1      32.298  23.664  22.838  1.00  0.00     0.044 A 
ATOM     20  C   UNL A   1      31.466  21.928  24.846  1.00  0.00     0.009 A 
ATOM     21  C   UNL A   1      32.752  22.341  22.850  1.00  0.00     0.029 A 
ATOM     22  Cl  UNL A   1      32.890  24.706  21.593  1.00  0.00    -0.084 Cl
ENDBRANCH   8  15
ENDBRANCH   4   7
ENDBRANCH   2   3
ENDBRANCH   1   2
BRANCH   1  23
ATOM     23  C   UNL A   1      39.011  19.938  25.989  1.00  0.00     0.118 C 
BRANCH  23  24
ATOM     24  N   UNL A   1      40.243  19.162  25.901  1.00  0.00    -0.352 N 
ATOM     25  C   UNL A   1      41.552  19.562  25.975  1.00  0.00     0.251 C 
ATOM     26  H   UNL A   1      40.113  18.196  25.766  1.00  0.00     0.163 HD
ATOM     27  O   UNL A   1      42.439  18.801  25.601  1.00  0.00    -0.269 OA
BRANCH  25  28
ATOM     28  C   UNL A   1      41.903  20.895  26.505  1.00  0.00     0.039 A 
ATOM     29  C   UNL A   1      42.272  21.903  25.610  1.00  0.00     0.014 A 
ATOM     30  C   UNL A   1      41.928  21.137  27.881  1.00  0.00     0.014 A 
ATOM     31  C   UNL A   1      42.611  23.169  26.093  1.00  0.00     0.010 A 
ATOM     32  C   UNL A   1      42.192  22.419  28.356  1.00  0.00     0.010 A 
ATOM     33  C   UNL A   1      42.543  23.446  27.468  1.00  0.00    -0.014 A 
BRANCH  33  34
ATOM     34  C   UNL A   1      42.828  24.806  27.994  1.00  0.00     0.031 A 
ATOM     35  C   UNL A   1      44.229  25.186  28.391  1.00  0.00     0.074 A 
ATOM     36  C   UNL A   1      41.812  25.672  28.173  1.00  0.00     0.049 A 
ATOM     37  N   UNL A   1      44.661  26.299  28.931  1.00  0.00    -0.248 NA
ATOM     38  C   UNL A   1      45.280  24.179  28.179  1.00  0.00     0.031 C 
ATOM     39  C   UNL A   1      40.405  25.403  27.867  1.00  0.00     0.029 A 
ATOM     40  N   UNL A   1      41.802  26.953  28.666  1.00  0.00    -0.354 N 
ATOM     41  C   UNL A   1      46.022  26.115  29.140  1.00  0.00     0.074 A 
ATOM     42  C   UNL A   1      46.339  24.772  28.712  1.00  0.00     0.031 C 
ATOM     43  C   UNL A   1      39.675  26.493  28.152  1.00  0.00     0.029 A 
ATOM     44  C   UNL A   1      40.550  27.520  28.705  1.00  0.00     0.049 A 
ATOM     45  H   UNL A   1      42.615  27.422  28.964  1.00  0.00     0.167 HD
ATOM     46  C   UNL A   1      46.926  26.995  29.630  1.00  0.00     0.037 A 
ATOM     47  C   UNL A   1      40.154  28.729  29.147  1.00  0.00     0.037 A 
ATOM     48  C   UNL A   1      46.610  28.344  30.023  1.00  0.00     0.049 A 
ATOM     49  C   UNL A   1      41.184  29.678  29.697  1.00  0.00     0.074 A 
ATOM     50  C   UNL A   1      47.471  29.339  30.455  1.00  0.00     0.029 A 
ATOM     51  N   UNL A   1      45.333  28.884  30.037  1.00  0.00    -0.354 N 
ATOM     52  N   UNL A   1      42.480  29.521  29.808  1.00  0.00    -0.248 NA
ATOM     53  C   UNL A   1      40.694  30.977  30.181  1.00  0.00     0.031 C 
ATOM     54  C   UNL A   1      46.708  30.461  30.788  1.00  0.00     0.029 A 
ATOM     55  C   UNL A   1      45.380  30.188  30.503  1.00  0.00     0.049 A 
ATOM     56  H   UNL A   1      44.516  28.413  29.757  1.00  0.00     0.167 HD
ATOM     57  C   UNL A   1      42.964  30.713  30.335  1.00  0.00     0.074 A 
ATOM     58  C   UNL A   1      41.823  31.586  30.507  1.00  0.00     0.031 C 
ATOM     59  C   UNL A   1      44.237  31.053  30.650  1.00  0.00     0.037 A 
BRANCH  46  60
ATOM     60  C   UNL A   1      48.350  26.538  29.774  1.00  0.00     0.057 A 
ATOM     61  C   UNL A   1      49.316  26.794  28.794  1.00  0.00     0.134 A 
ATOM     62  C   UNL A   1      48.775  25.895  30.945  1.00  0.00     0.134 A 
ATOM     63  F   UNL A   1      48.975  27.397  27.644  1.00  0.00    -0.206 F 
ATOM     64  C   UNL A   1      50.649  26.415  28.963  1.00  0.00     0.040 A 
ATOM     65  C   UNL A   1      50.110  25.536  31.139  1.00  0.00     0.040 A 
ATOM     66  F   UNL A   1      47.904  25.625  31.929  1.00  0.00    -0.206 F 
ATOM     67  C   UNL A   1      51.051  25.794  30.145  1.00  0.00     0.006 A 
ENDBRANCH  46  60
BRANCH  47  68
ATOM     68  C   UNL A   1      38.723  29.125  29.085  1.00  0.00     0.057 A 
ATOM     69  C   UNL A   1      38.161  29.616  27.900  1.00  0.00     0.134 A 
ATOM     70  C   UNL A   1      37.896  29.071  30.213  1.00  0.00     0.134 A 
ATOM     71  F   UNL A   1      38.905  29.708  26.788  1.00  0.00    -0.206 F 
ATOM     72  C   UNL A   1      36.842  30.073  27.848  1.00  0.00     0.040 A 
ATOM     73  C   UNL A   1      36.566  29.494  30.168  1.00  0.00     0.040 A 
ATOM     74  F   UNL A   1      38.368  28.603  31.379  1.00  0.00    -0.206 F 
ATOM     75  C   UNL A   1      36.041  30.011  28.986  1.00  0.00     0.006 A 
ENDBRANCH  47  68
BRANCH  59  76
ATOM     76  C   UNL A   1      44.472  32.444  31.161  1.00  0.00     0.057 A 
ATOM     77  C   UNL A   1      44.675  33.529  30.299  1.00  0.00     0.134 A 
ATOM     78  C   UNL A   1      44.457  32.706  32.538  1.00  0.00     0.134 A 
ATOM     79  F   UNL A   1      44.714  33.346  28.971  1.00  0.00    -0.206 F 
ATOM     80  C   UNL A   1      44.884  34.820  30.790  1.00  0.00     0.040 A 
ATOM     81  C   UNL A   1      44.632  33.996  33.038  1.00  0.00     0.040 A 
ATOM     82  F   UNL A   1      44.257  31.714  33.418  1.00  0.00    -0.206 F 
ATOM     83  C   UNL A   1      44.854  35.057  32.163  1.00  0.00     0.006 A 
ENDBRANCH  59  76
ENDBRANCH  33  34
ENDBRANCH  25  28
ENDBRANCH  23  24
ENDBRANCH   1  23
TORSDOF 11
ENDMDL
