MODEL 1
REMARK VINA RESULT:     -11.8      0.000      0.000
REMARK SMILES CC[C@@H](C)c1ccccc1NC(=O)[C@@H]1[C@@H](C(=O)NCCCNC(=O)c2ccc(-c3c4nc(c(-c5c(F)cccc5F)c5ccc([nH]5)c(-c5c(F)cccc5F)c5nc(c(-c6c(F)cccc6F)c6ccc3[nH]6)C=C5)C=C4)cc2)[C@@H]2C=C[C@H]1C2
REMARK SMILES IDX 19 1 18 2 16 3 17 4 15 6 14 7 82 8 79 9 81 10 83 11 80 12
REMARK SMILES IDX 12 13 11 14 13 16 10 17 5 18 6 19 7 20 9 21 8 22 3 23 4 24
REMARK SMILES IDX 2 25 1 26 20 27 21 28 22 29 23 30 24 32 25 33 26 34 78 35
REMARK SMILES IDX 27 36 77 37 28 38 29 39 30 40 71 41 31 42 76 43 70 44 72 45
REMARK SMILES IDX 32 46 75 47 69 48 68 49 33 51 59 52 42 53 58 54 43 55 46 56
REMARK SMILES IDX 57 57 73 58 44 59 45 60 56 62 74 63 47 64 34 65 35 66 40 67
REMARK SMILES IDX 36 68 37 69 39 70 41 71 38 72 60 73 61 74 66 75 62 76 63 77
REMARK SMILES IDX 65 78 67 79 64 80 48 81 49 82 54 83 50 84 51 85 53 86 55 87
REMARK SMILES IDX 52 88
REMARK H PARENT 18 5 11 15 22 31 72 50 46 61
REMARK Flexibility Score: inf
ROOT
ATOM      1  C   UNL A   1      37.355  20.337  24.624  1.00  0.00     0.117 C 
ENDROOT
BRANCH   1   2
ATOM      2  N   UNL A   1      37.626  21.642  25.189  1.00  0.00    -0.356 N 
ATOM      3  C   UNL A   1      36.860  22.655  25.653  1.00  0.00     0.224 C 
ATOM      4  O   UNL A   1      37.504  23.582  26.167  1.00  0.00    -0.275 OA
ATOM      5  H   UNL A   1      38.590  21.837  25.249  1.00  0.00     0.163 HD
BRANCH   3   6
ATOM      6  C   UNL A   1      35.354  22.838  25.465  1.00  0.00     0.098 C 
ATOM      7  C   UNL A   1      34.589  24.211  25.641  1.00  0.00     0.099 C 
ATOM      8  C   UNL A   1      33.378  23.740  26.493  1.00  0.00     0.025 C 
ATOM      9  C   UNL A   1      34.586  21.874  26.411  1.00  0.00     0.025 C 
ATOM     10  C   UNL A   1      32.542  22.707  25.781  1.00  0.00    -0.027 C 
ATOM     11  C   UNL A   1      34.058  22.811  27.486  1.00  0.00     0.017 C 
ATOM     12  C   UNL A   1      33.258  21.574  25.751  1.00  0.00    -0.027 C 
BRANCH   7  13
ATOM     13  C   UNL A   1      34.346  24.913  24.286  1.00  0.00     0.228 C 
ATOM     14  N   UNL A   1      33.808  26.168  24.121  1.00  0.00    -0.326 N 
ATOM     15  H   UNL A   1      33.897  26.552  23.218  1.00  0.00     0.169 HD
ATOM     16  O   UNL A   1      34.729  24.356  23.248  1.00  0.00    -0.274 OA
BRANCH  14  17
ATOM     17  C   UNL A   1      33.153  26.976  25.056  1.00  0.00     0.044 A 
ATOM     18  C   UNL A   1      31.744  26.982  25.170  1.00  0.00    -0.022 A 
ATOM     19  C   UNL A   1      31.229  27.440  26.403  1.00  0.00     0.006 A 
ATOM     20  C   UNL A   1      32.036  28.064  27.358  1.00  0.00     0.000 A 
ATOM     21  C   UNL A   1      33.934  27.739  25.934  1.00  0.00     0.026 A 
ATOM     22  C   UNL A   1      33.373  28.294  27.082  1.00  0.00     0.002 A 
BRANCH  18  23
ATOM     23  C   UNL A   1      30.778  26.705  23.997  1.00  0.00     0.018 C 
ATOM     24  C   UNL A   1      29.830  27.893  23.692  1.00  0.00     0.013 C 
BRANCH  23  25
ATOM     25  C   UNL A   1      29.940  25.404  24.022  1.00  0.00     0.005 C 
ATOM     26  C   UNL A   1      30.605  24.271  23.233  1.00  0.00     0.004 C 
ENDBRANCH  23  25
ENDBRANCH  18  23
ENDBRANCH  14  17
ENDBRANCH   7  13
ENDBRANCH   3   6
ENDBRANCH   1   2
BRANCH   1  27
ATOM     27  C   UNL A   1      38.426  19.300  24.951  1.00  0.00     0.042 C 
BRANCH  27  28
ATOM     28  C   UNL A   1      39.405  19.679  26.051  1.00  0.00     0.118 C 
BRANCH  28  29
ATOM     29  N   UNL A   1      40.706  19.058  25.887  1.00  0.00    -0.352 N 
ATOM     30  C   UNL A   1      41.975  19.583  25.970  1.00  0.00     0.251 C 
ATOM     31  H   UNL A   1      40.677  18.097  25.680  1.00  0.00     0.163 HD
ATOM     32  O   UNL A   1      42.924  18.895  25.602  1.00  0.00    -0.269 OA
BRANCH  30  33
ATOM     33  C   UNL A   1      42.226  20.956  26.475  1.00  0.00     0.039 A 
ATOM     34  C   UNL A   1      42.164  21.180  27.855  1.00  0.00     0.014 A 
ATOM     35  C   UNL A   1      42.448  22.035  25.617  1.00  0.00     0.014 A 
ATOM     36  C   UNL A   1      42.375  22.462  28.372  1.00  0.00     0.010 A 
ATOM     37  C   UNL A   1      42.749  23.294  26.135  1.00  0.00     0.010 A 
ATOM     38  C   UNL A   1      42.698  23.526  27.517  1.00  0.00    -0.014 A 
BRANCH  38  39
ATOM     39  C   UNL A   1      42.952  24.893  28.044  1.00  0.00     0.031 A 
ATOM     40  C   UNL A   1      44.343  25.297  28.457  1.00  0.00     0.074 A 
ATOM     41  C   UNL A   1      41.927  25.751  28.205  1.00  0.00     0.049 A 
ATOM     42  N   UNL A   1      44.753  26.410  29.010  1.00  0.00    -0.248 NA
ATOM     43  C   UNL A   1      45.411  24.305  28.247  1.00  0.00     0.031 C 
ATOM     44  C   UNL A   1      40.527  25.467  27.884  1.00  0.00     0.029 A 
ATOM     45  N   UNL A   1      41.902  27.034  28.692  1.00  0.00    -0.354 N 
ATOM     46  C   UNL A   1      46.115  26.245  29.231  1.00  0.00     0.074 A 
ATOM     47  C   UNL A   1      46.455  24.906  28.800  1.00  0.00     0.031 C 
ATOM     48  C   UNL A   1      39.783  26.549  28.164  1.00  0.00     0.029 A 
ATOM     49  C   UNL A   1      40.644  27.589  28.718  1.00  0.00     0.049 A 
ATOM     50  H   UNL A   1      42.707  27.512  28.994  1.00  0.00     0.167 HD
ATOM     51  C   UNL A   1      47.009  27.135  29.726  1.00  0.00     0.037 A 
ATOM     52  C   UNL A   1      40.232  28.796  29.147  1.00  0.00     0.037 A 
ATOM     53  C   UNL A   1      46.676  28.477  30.122  1.00  0.00     0.049 A 
ATOM     54  C   UNL A   1      41.243  29.768  29.691  1.00  0.00     0.074 A 
ATOM     55  C   UNL A   1      47.519  29.476  30.576  1.00  0.00     0.029 A 
ATOM     56  N   UNL A   1      45.395  29.009  30.110  1.00  0.00    -0.354 N 
ATOM     57  N   UNL A   1      42.538  29.619  29.833  1.00  0.00    -0.248 NA
ATOM     58  C   UNL A   1      40.737  31.076  30.126  1.00  0.00     0.031 C 
ATOM     59  C   UNL A   1      46.742  30.600  30.878  1.00  0.00     0.029 A 
ATOM     60  C   UNL A   1      45.422  30.316  30.567  1.00  0.00     0.049 A 
ATOM     61  H   UNL A   1      44.587  28.527  29.819  1.00  0.00     0.167 HD
ATOM     62  C   UNL A   1      43.004  30.821  30.347  1.00  0.00     0.074 A 
ATOM     63  C   UNL A   1      41.856  31.694  30.478  1.00  0.00     0.031 C 
ATOM     64  C   UNL A   1      44.270  31.172  30.682  1.00  0.00     0.037 A 
BRANCH  51  65
ATOM     65  C   UNL A   1      48.436  26.686  29.860  1.00  0.00     0.057 A 
ATOM     66  C   UNL A   1      49.386  26.935  28.862  1.00  0.00     0.134 A 
ATOM     67  C   UNL A   1      48.874  26.032  31.018  1.00  0.00     0.134 A 
ATOM     68  F   UNL A   1      49.030  27.548  27.722  1.00  0.00    -0.206 F 
ATOM     69  C   UNL A   1      50.714  26.528  28.998  1.00  0.00     0.040 A 
ATOM     70  C   UNL A   1      50.205  25.643  31.179  1.00  0.00     0.040 A 
ATOM     71  F   UNL A   1      48.019  25.767  32.017  1.00  0.00    -0.206 F 
ATOM     72  C   UNL A   1      51.129  25.885  30.163  1.00  0.00     0.006 A 
ENDBRANCH  51  65
BRANCH  52  73
ATOM     73  C   UNL A   1      38.795  29.164  29.066  1.00  0.00     0.057 A 
ATOM     74  C   UNL A   1      38.235  29.624  27.868  1.00  0.00     0.134 A 
ATOM     75  C   UNL A   1      37.952  29.077  30.180  1.00  0.00     0.134 A 
ATOM     76  F   UNL A   1      38.996  29.748  26.771  1.00  0.00    -0.206 F 
ATOM     77  C   UNL A   1      36.894  30.002  27.785  1.00  0.00     0.040 A 
ATOM     78  C   UNL A   1      36.603  29.427  30.106  1.00  0.00     0.040 A 
ATOM     79  F   UNL A   1      38.426  28.637  31.356  1.00  0.00    -0.206 F 
ATOM     80  C   UNL A   1      36.073  29.899  28.906  1.00  0.00     0.006 A 
ENDBRANCH  52  73
BRANCH  64  81
ATOM     81  C   UNL A   1      44.484  32.568  31.188  1.00  0.00     0.057 A 
ATOM     82  C   UNL A   1      44.454  32.873  32.553  1.00  0.00     0.134 A 
ATOM     83  C   UNL A   1      44.764  33.612  30.296  1.00  0.00     0.134 A 
ATOM     84  F   UNL A   1      44.178  31.920  33.457  1.00  0.00    -0.206 F 
ATOM     85  C   UNL A   1      44.673  34.172  33.015  1.00  0.00     0.040 A 
ATOM     86  C   UNL A   1      45.010  34.910  30.747  1.00  0.00     0.040 A 
ATOM     87  F   UNL A   1      44.816  33.385  28.975  1.00  0.00    -0.206 F 
ATOM     88  C   UNL A   1      44.959  35.194  32.110  1.00  0.00     0.006 A 
ENDBRANCH  64  81
ENDBRANCH  38  39
ENDBRANCH  30  33
ENDBRANCH  28  29
ENDBRANCH  27  28
ENDBRANCH   1  27
TORSDOF 14
ENDMDL
MODEL 2
REMARK VINA RESULT:     -11.7      0.500      6.202
REMARK SMILES CC[C@@H](C)c1ccccc1NC(=O)[C@@H]1[C@@H](C(=O)NCCCNC(=O)c2ccc(-c3c4nc(c(-c5c(F)cccc5F)c5ccc([nH]5)c(-c5c(F)cccc5F)c5nc(c(-c6c(F)cccc6F)c6ccc3[nH]6)C=C5)C=C4)cc2)[C@@H]2C=C[C@H]1C2
REMARK SMILES IDX 19 1 18 2 16 3 17 4 15 6 14 7 82 8 79 9 81 10 83 11 80 12
REMARK SMILES IDX 12 13 11 14 13 16 10 17 5 18 6 19 7 20 9 21 8 22 3 23 4 24
REMARK SMILES IDX 2 25 1 26 20 27 21 28 22 29 23 30 24 32 25 33 26 34 78 35
REMARK SMILES IDX 27 36 77 37 28 38 29 39 30 40 71 41 31 42 76 43 70 44 72 45
REMARK SMILES IDX 32 46 75 47 69 48 68 49 33 51 59 52 42 53 58 54 43 55 46 56
REMARK SMILES IDX 57 57 73 58 44 59 45 60 56 62 74 63 47 64 34 65 35 66 40 67
REMARK SMILES IDX 36 68 37 69 39 70 41 71 38 72 60 73 61 74 66 75 62 76 63 77
REMARK SMILES IDX 65 78 67 79 64 80 48 81 49 82 54 83 50 84 51 85 53 86 55 87
REMARK SMILES IDX 52 88
REMARK H PARENT 18 5 11 15 22 31 72 50 46 61
REMARK Flexibility Score: inf
ROOT
ATOM      1  C   UNL A   1      37.345  20.683  24.338  1.00  0.00     0.117 C 
ENDROOT
BRANCH   1   2
ATOM      2  N   UNL A   1      37.543  21.938  25.034  1.00  0.00    -0.356 N 
ATOM      3  C   UNL A   1      36.722  22.850  25.604  1.00  0.00     0.224 C 
ATOM      4  O   UNL A   1      37.315  23.756  26.207  1.00  0.00    -0.275 OA
ATOM      5  H   UNL A   1      38.494  22.184  25.109  1.00  0.00     0.163 HD
BRANCH   3   6
ATOM      6  C   UNL A   1      35.206  22.958  25.443  1.00  0.00     0.098 C 
ATOM      7  C   UNL A   1      34.371  24.280  25.681  1.00  0.00     0.099 C 
ATOM      8  C   UNL A   1      33.200  23.714  26.531  1.00  0.00     0.025 C 
ATOM      9  C   UNL A   1      34.505  21.920  26.363  1.00  0.00     0.025 C 
ATOM     10  C   UNL A   1      32.410  22.665  25.792  1.00  0.00    -0.027 C 
ATOM     11  C   UNL A   1      33.944  22.787  27.479  1.00  0.00     0.017 C 
ATOM     12  C   UNL A   1      33.184  21.573  25.711  1.00  0.00    -0.027 C 
BRANCH   7  13
ATOM     13  C   UNL A   1      34.070  25.017  24.356  1.00  0.00     0.228 C 
ATOM     14  N   UNL A   1      33.545  26.284  24.248  1.00  0.00    -0.326 N 
ATOM     15  H   UNL A   1      33.594  26.687  23.350  1.00  0.00     0.169 HD
ATOM     16  O   UNL A   1      34.391  24.479  23.287  1.00  0.00    -0.274 OA
BRANCH  14  17
ATOM     17  C   UNL A   1      32.953  27.080  25.233  1.00  0.00     0.044 A 
ATOM     18  C   UNL A   1      31.561  27.035  25.481  1.00  0.00    -0.022 A 
ATOM     19  C   UNL A   1      31.150  27.490  26.754  1.00  0.00     0.006 A 
ATOM     20  C   UNL A   1      32.020  28.156  27.621  1.00  0.00     0.000 A 
ATOM     21  C   UNL A   1      33.784  27.883  26.025  1.00  0.00     0.026 A 
ATOM     22  C   UNL A   1      33.315  28.431  27.216  1.00  0.00     0.002 A 
BRANCH  18  23
ATOM     23  C   UNL A   1      30.499  26.708  24.409  1.00  0.00     0.018 C 
ATOM     24  C   UNL A   1      30.422  25.199  24.065  1.00  0.00     0.013 C 
BRANCH  23  25
ATOM     25  C   UNL A   1      30.514  27.511  23.087  1.00  0.00     0.005 C 
ATOM     26  C   UNL A   1      30.388  29.020  23.323  1.00  0.00     0.004 C 
ENDBRANCH  23  25
ENDBRANCH  18  23
ENDBRANCH  14  17
ENDBRANCH   7  13
ENDBRANCH   3   6
ENDBRANCH   1   2
BRANCH   1  27
ATOM     27  C   UNL A   1      38.148  19.529  24.930  1.00  0.00     0.042 C 
BRANCH  27  28
ATOM     28  C   UNL A   1      39.159  19.903  26.002  1.00  0.00     0.118 C 
BRANCH  28  29
ATOM     29  N   UNL A   1      40.401  19.161  25.890  1.00  0.00    -0.352 N 
ATOM     30  C   UNL A   1      41.710  19.564  26.019  1.00  0.00     0.251 C 
ATOM     31  H   UNL A   1      40.289  18.205  25.686  1.00  0.00     0.163 HD
ATOM     32  O   UNL A   1      42.602  18.787  25.691  1.00  0.00    -0.269 OA
BRANCH  30  33
ATOM     33  C   UNL A   1      42.070  20.911  26.527  1.00  0.00     0.039 A 
ATOM     34  C   UNL A   1      42.102  21.115  27.912  1.00  0.00     0.014 A 
ATOM     35  C   UNL A   1      42.306  21.991  25.673  1.00  0.00     0.014 A 
ATOM     36  C   UNL A   1      42.417  22.374  28.433  1.00  0.00     0.010 A 
ATOM     37  C   UNL A   1      42.711  23.221  26.189  1.00  0.00     0.010 A 
ATOM     38  C   UNL A   1      42.753  23.432  27.575  1.00  0.00    -0.014 A 
BRANCH  38  39
ATOM     39  C   UNL A   1      43.118  24.772  28.105  1.00  0.00     0.031 A 
ATOM     40  C   UNL A   1      42.048  25.801  28.361  1.00  0.00     0.074 A 
ATOM     41  C   UNL A   1      44.413  25.085  28.301  1.00  0.00     0.049 A 
ATOM     42  N   UNL A   1      42.171  27.046  28.745  1.00  0.00    -0.248 NA
ATOM     43  C   UNL A   1      40.656  25.382  28.126  1.00  0.00     0.031 C 
ATOM     44  C   UNL A   1      45.547  24.194  28.050  1.00  0.00     0.029 A 
ATOM     45  N   UNL A   1      44.996  26.246  28.745  1.00  0.00    -0.354 N 
ATOM     46  C   UNL A   1      40.881  27.562  28.777  1.00  0.00     0.074 A 
ATOM     47  C   UNL A   1      39.994  26.512  28.326  1.00  0.00     0.031 C 
ATOM     48  C   UNL A   1      46.687  24.832  28.363  1.00  0.00     0.029 A 
ATOM     49  C   UNL A   1      46.368  26.187  28.799  1.00  0.00     0.049 A 
ATOM     50  H   UNL A   1      44.481  27.044  29.002  1.00  0.00     0.167 HD
ATOM     51  C   UNL A   1      40.468  28.791  29.170  1.00  0.00     0.037 A 
ATOM     52  C   UNL A   1      47.268  27.124  29.152  1.00  0.00     0.037 A 
ATOM     53  C   UNL A   1      41.348  29.822  29.651  1.00  0.00     0.049 A 
ATOM     54  C   UNL A   1      46.785  28.480  29.587  1.00  0.00     0.074 A 
ATOM     55  C   UNL A   1      41.022  31.078  30.132  1.00  0.00     0.029 A 
ATOM     56  N   UNL A   1      42.729  29.716  29.713  1.00  0.00    -0.354 N 
ATOM     57  N   UNL A   1      45.557  28.931  29.673  1.00  0.00    -0.248 NA
ATOM     58  C   UNL A   1      47.812  29.455  29.979  1.00  0.00     0.031 C 
ATOM     59  C   UNL A   1      42.210  31.747  30.447  1.00  0.00     0.029 A 
ATOM     60  C   UNL A   1      43.272  30.890  30.207  1.00  0.00     0.049 A 
ATOM     61  H   UNL A   1      43.247  28.921  29.446  1.00  0.00     0.167 HD
ATOM     62  C   UNL A   1      45.662  30.229  30.155  1.00  0.00     0.074 A 
ATOM     63  C   UNL A   1      47.072  30.489  30.356  1.00  0.00     0.031 C 
ATOM     64  C   UNL A   1      44.678  31.127  30.408  1.00  0.00     0.037 A 
BRANCH  51  65
ATOM     65  C   UNL A   1      38.996  29.085  29.102  1.00  0.00     0.057 A 
ATOM     66  C   UNL A   1      38.172  28.996  30.231  1.00  0.00     0.134 A 
ATOM     67  C   UNL A   1      38.405  29.499  27.902  1.00  0.00     0.134 A 
ATOM     68  F   UNL A   1      38.673  28.594  31.409  1.00  0.00    -0.206 F 
ATOM     69  C   UNL A   1      36.808  29.284  30.164  1.00  0.00     0.040 A 
ATOM     70  C   UNL A   1      37.047  29.816  27.828  1.00  0.00     0.040 A 
ATOM     71  F   UNL A   1      39.137  29.613  26.784  1.00  0.00    -0.206 F 
ATOM     72  C   UNL A   1      36.243  29.703  28.961  1.00  0.00     0.006 A 
ENDBRANCH  51  65
BRANCH  52  73
ATOM     73  C   UNL A   1      48.719  26.809  29.128  1.00  0.00     0.057 A 
ATOM     74  C   UNL A   1      49.363  26.284  30.256  1.00  0.00     0.134 A 
ATOM     75  C   UNL A   1      49.499  27.032  27.988  1.00  0.00     0.134 A 
ATOM     76  F   UNL A   1      48.673  26.066  31.385  1.00  0.00    -0.206 F 
ATOM     77  C   UNL A   1      50.732  26.012  30.257  1.00  0.00     0.040 A 
ATOM     78  C   UNL A   1      50.863  26.741  27.965  1.00  0.00     0.040 A 
ATOM     79  F   UNL A   1      48.941  27.526  26.871  1.00  0.00    -0.206 F 
ATOM     80  C   UNL A   1      51.485  26.236  29.106  1.00  0.00     0.006 A 
ENDBRANCH  52  73
BRANCH  64  81
ATOM     81  C   UNL A   1      45.091  32.458  30.963  1.00  0.00     0.057 A 
ATOM     82  C   UNL A   1      45.234  32.675  32.338  1.00  0.00     0.134 A 
ATOM     83  C   UNL A   1      45.390  33.524  30.104  1.00  0.00     0.134 A 
ATOM     84  F   UNL A   1      44.949  31.697  33.213  1.00  0.00    -0.206 F 
ATOM     85  C   UNL A   1      45.638  33.911  32.843  1.00  0.00     0.040 A 
ATOM     86  C   UNL A   1      45.820  34.758  30.595  1.00  0.00     0.040 A 
ATOM     87  F   UNL A   1      45.283  33.380  28.774  1.00  0.00    -0.206 F 
ATOM     88  C   UNL A   1      45.939  34.956  31.970  1.00  0.00     0.006 A 
ENDBRANCH  64  81
ENDBRANCH  38  39
ENDBRANCH  30  33
ENDBRANCH  28  29
ENDBRANCH  27  28
ENDBRANCH   1  27
TORSDOF 14
ENDMDL
MODEL 3
REMARK VINA RESULT:     -11.6      0.854      6.127
REMARK SMILES CC[C@@H](C)c1ccccc1NC(=O)[C@@H]1[C@@H](C(=O)NCCCNC(=O)c2ccc(-c3c4nc(c(-c5c(F)cccc5F)c5ccc([nH]5)c(-c5c(F)cccc5F)c5nc(c(-c6c(F)cccc6F)c6ccc3[nH]6)C=C5)C=C4)cc2)[C@@H]2C=C[C@H]1C2
REMARK SMILES IDX 19 1 18 2 16 3 17 4 15 6 14 7 82 8 79 9 81 10 83 11 80 12
REMARK SMILES IDX 12 13 11 14 13 16 10 17 5 18 6 19 7 20 9 21 8 22 3 23 4 24
REMARK SMILES IDX 2 25 1 26 20 27 21 28 22 29 23 30 24 32 25 33 26 34 78 35
REMARK SMILES IDX 27 36 77 37 28 38 29 39 30 40 71 41 31 42 76 43 70 44 72 45
REMARK SMILES IDX 32 46 75 47 69 48 68 49 33 51 59 52 42 53 58 54 43 55 46 56
REMARK SMILES IDX 57 57 73 58 44 59 45 60 56 62 74 63 47 64 34 65 35 66 40 67
REMARK SMILES IDX 36 68 37 69 39 70 41 71 38 72 60 73 61 74 66 75 62 76 63 77
REMARK SMILES IDX 65 78 67 79 64 80 48 81 49 82 54 83 50 84 51 85 53 86 55 87
REMARK SMILES IDX 52 88
REMARK H PARENT 18 5 11 15 22 31 72 50 46 61
REMARK Flexibility Score: inf
ROOT
ATOM      1  C   UNL A   1      36.033  20.164  24.965  1.00  0.00     0.117 C 
ENDROOT
BRANCH   1   2
ATOM      2  N   UNL A   1      35.937  21.339  25.805  1.00  0.00    -0.356 N 
ATOM      3  C   UNL A   1      35.067  22.370  25.903  1.00  0.00     0.224 C 
ATOM      4  O   UNL A   1      35.293  23.133  26.855  1.00  0.00    -0.275 OA
ATOM      5  H   UNL A   1      36.675  21.402  26.455  1.00  0.00     0.163 HD
BRANCH   3   6
ATOM      6  C   UNL A   1      33.981  22.763  24.903  1.00  0.00     0.098 C 
ATOM      7  C   UNL A   1      33.221  24.150  24.902  1.00  0.00     0.099 C 
ATOM      8  C   UNL A   1      31.758  23.659  24.722  1.00  0.00     0.025 C 
ATOM      9  C   UNL A   1      32.828  21.721  24.943  1.00  0.00     0.025 C 
ATOM     10  C   UNL A   1      31.563  22.900  23.435  1.00  0.00    -0.027 C 
ATOM     11  C   UNL A   1      31.725  22.472  25.672  1.00  0.00     0.017 C 
ATOM     12  C   UNL A   1      32.185  21.721  23.574  1.00  0.00    -0.027 C 
BRANCH   7  13
ATOM     13  C   UNL A   1      33.829  25.139  23.883  1.00  0.00     0.228 C 
ATOM     14  N   UNL A   1      33.921  26.502  24.048  1.00  0.00    -0.326 N 
ATOM     15  H   UNL A   1      34.503  26.968  23.405  1.00  0.00     0.169 HD
ATOM     16  O   UNL A   1      34.356  24.690  22.855  1.00  0.00    -0.274 OA
BRANCH  14  17
ATOM     17  C   UNL A   1      33.304  27.317  25.002  1.00  0.00     0.044 A 
ATOM     18  C   UNL A   1      31.932  27.648  24.915  1.00  0.00    -0.022 A 
ATOM     19  C   UNL A   1      31.321  28.055  26.123  1.00  0.00     0.006 A 
ATOM     20  C   UNL A   1      32.064  28.338  27.271  1.00  0.00     0.000 A 
ATOM     21  C   UNL A   1      34.066  27.751  26.095  1.00  0.00     0.026 A 
ATOM     22  C   UNL A   1      33.446  28.273  27.229  1.00  0.00     0.002 A 
BRANCH  18  23
ATOM     23  C   UNL A   1      31.149  27.765  23.589  1.00  0.00     0.018 C 
ATOM     24  C   UNL A   1      30.240  29.018  23.524  1.00  0.00     0.013 C 
BRANCH  23  25
ATOM     25  C   UNL A   1      30.334  26.543  23.103  1.00  0.00     0.005 C 
ATOM     26  C   UNL A   1      29.047  26.345  23.910  1.00  0.00     0.004 C 
ENDBRANCH  23  25
ENDBRANCH  18  23
ENDBRANCH  14  17
ENDBRANCH   7  13
ENDBRANCH   3   6
ENDBRANCH   1   2
BRANCH   1  27
ATOM     27  C   UNL A   1      37.470  19.739  24.677  1.00  0.00     0.042 C 
BRANCH  27  28
ATOM     28  C   UNL A   1      38.516  20.215  25.672  1.00  0.00     0.118 C 
BRANCH  28  29
ATOM     29  N   UNL A   1      39.669  19.336  25.743  1.00  0.00    -0.352 N 
ATOM     30  C   UNL A   1      40.982  19.591  26.062  1.00  0.00     0.251 C 
ATOM     31  H   UNL A   1      39.478  18.395  25.526  1.00  0.00     0.163 HD
ATOM     32  O   UNL A   1      41.818  18.713  25.868  1.00  0.00    -0.269 OA
BRANCH  30  33
ATOM     33  C   UNL A   1      41.416  20.899  26.616  1.00  0.00     0.039 A 
ATOM     34  C   UNL A   1      41.865  21.882  25.727  1.00  0.00     0.014 A 
ATOM     35  C   UNL A   1      41.455  21.150  27.989  1.00  0.00     0.014 A 
ATOM     36  C   UNL A   1      42.301  23.122  26.207  1.00  0.00     0.010 A 
ATOM     37  C   UNL A   1      41.802  22.414  28.463  1.00  0.00     0.010 A 
ATOM     38  C   UNL A   1      42.246  23.409  27.579  1.00  0.00    -0.014 A 
BRANCH  38  39
ATOM     39  C   UNL A   1      42.677  24.727  28.112  1.00  0.00     0.031 A 
ATOM     40  C   UNL A   1      41.660  25.806  28.375  1.00  0.00     0.074 A 
ATOM     41  C   UNL A   1      43.987  24.976  28.304  1.00  0.00     0.049 A 
ATOM     42  N   UNL A   1      41.844  27.042  28.763  1.00  0.00    -0.248 NA
ATOM     43  C   UNL A   1      40.248  25.457  28.143  1.00  0.00     0.031 C 
ATOM     44  C   UNL A   1      45.075  24.032  28.047  1.00  0.00     0.029 A 
ATOM     45  N   UNL A   1      44.627  26.105  28.751  1.00  0.00    -0.354 N 
ATOM     46  C   UNL A   1      40.581  27.620  28.802  1.00  0.00     0.074 A 
ATOM     47  C   UNL A   1      39.643  26.617  28.350  1.00  0.00     0.031 C 
ATOM     48  C   UNL A   1      46.245  24.612  28.357  1.00  0.00     0.029 A 
ATOM     49  C   UNL A   1      45.995  25.980  28.800  1.00  0.00     0.049 A 
ATOM     50  H   UNL A   1      44.153  26.927  29.012  1.00  0.00     0.167 HD
ATOM     51  C   UNL A   1      40.230  28.867  29.201  1.00  0.00     0.037 A 
ATOM     52  C   UNL A   1      46.941  26.870  29.153  1.00  0.00     0.037 A 
ATOM     53  C   UNL A   1      41.161  29.852  29.683  1.00  0.00     0.049 A 
ATOM     54  C   UNL A   1      46.526  28.247  29.594  1.00  0.00     0.074 A 
ATOM     55  C   UNL A   1      40.898  31.121  30.169  1.00  0.00     0.029 A 
ATOM     56  N   UNL A   1      42.536  29.678  29.739  1.00  0.00    -0.354 N 
ATOM     57  N   UNL A   1      45.322  28.756  29.687  1.00  0.00    -0.248 NA
ATOM     58  C   UNL A   1      47.601  29.169  29.987  1.00  0.00     0.031 C 
ATOM     59  C   UNL A   1      42.119  31.730  30.482  1.00  0.00     0.029 A 
ATOM     60  C   UNL A   1      43.137  30.823  30.235  1.00  0.00     0.049 A 
ATOM     61  H   UNL A   1      43.013  28.860  29.467  1.00  0.00     0.167 HD
ATOM     62  C   UNL A   1      45.491  30.046  30.173  1.00  0.00     0.074 A 
ATOM     63  C   UNL A   1      46.913  30.236  30.370  1.00  0.00     0.031 C 
ATOM     64  C   UNL A   1      44.553  30.990  30.432  1.00  0.00     0.037 A 
BRANCH  51  65
ATOM     65  C   UNL A   1      38.775  29.233  29.139  1.00  0.00     0.057 A 
ATOM     66  C   UNL A   1      38.166  29.646  27.947  1.00  0.00     0.134 A 
ATOM     67  C   UNL A   1      37.963  29.133  30.276  1.00  0.00     0.134 A 
ATOM     68  F   UNL A   1      38.889  29.774  26.823  1.00  0.00    -0.206 F 
ATOM     69  C   UNL A   1      36.810  29.971  27.893  1.00  0.00     0.040 A 
ATOM     70  C   UNL A   1      36.600  29.429  30.229  1.00  0.00     0.040 A 
ATOM     71  F   UNL A   1      38.479  28.737  31.450  1.00  0.00    -0.206 F 
ATOM     72  C   UNL A   1      36.021  29.857  29.035  1.00  0.00     0.006 A 
ENDBRANCH  51  65
BRANCH  52  73
ATOM     73  C   UNL A   1      48.375  26.485  29.123  1.00  0.00     0.057 A 
ATOM     74  C   UNL A   1      49.168  26.744  27.999  1.00  0.00     0.134 A 
ATOM     75  C   UNL A   1      48.984  25.840  30.206  1.00  0.00     0.134 A 
ATOM     76  F   UNL A   1      48.638  27.342  26.922  1.00  0.00    -0.206 F 
ATOM     77  C   UNL A   1      50.509  26.360  27.945  1.00  0.00     0.040 A 
ATOM     78  C   UNL A   1      50.329  25.473  30.177  1.00  0.00     0.040 A 
ATOM     79  F   UNL A   1      48.279  25.570  31.316  1.00  0.00    -0.206 F 
ATOM     80  C   UNL A   1      51.094  25.726  29.040  1.00  0.00     0.006 A 
ENDBRANCH  52  73
BRANCH  64  81
ATOM     81  C   UNL A   1      45.033  32.298  30.991  1.00  0.00     0.057 A 
ATOM     82  C   UNL A   1      45.186  32.503  32.366  1.00  0.00     0.134 A 
ATOM     83  C   UNL A   1      45.385  33.349  30.135  1.00  0.00     0.134 A 
ATOM     84  F   UNL A   1      44.852  31.539  33.239  1.00  0.00    -0.206 F 
ATOM     85  C   UNL A   1      45.651  33.717  32.875  1.00  0.00     0.040 A 
ATOM     86  C   UNL A   1      45.876  34.558  30.629  1.00  0.00     0.040 A 
ATOM     87  F   UNL A   1      45.271  33.214  28.805  1.00  0.00    -0.206 F 
ATOM     88  C   UNL A   1      46.004  34.747  32.004  1.00  0.00     0.006 A 
ENDBRANCH  64  81
ENDBRANCH  38  39
ENDBRANCH  30  33
ENDBRANCH  28  29
ENDBRANCH  27  28
ENDBRANCH   1  27
TORSDOF 14
ENDMDL
