MODEL 1
REMARK VINA RESULT:     -12.9      0.000      0.000
REMARK SMILES C[N@H+]1CCO[C@H](c2noc(-c3ccccc3C(=O)NCCCNC(=O)c3ccc(-c4c5nc(c(-c6c(F)cccc6F)c6ccc([nH]6)c(-c6c(F)cccc6F)c6nc(c(-c7c(F)cccc7F)c7ccc4[nH]7)C=C6)C=C5)cc3)n2)C1
REMARK SMILES IDX 21 1 20 2 19 3 17 4 18 5 16 7 11 8 12 9 13 10 15 11 14 12
REMARK SMILES IDX 10 13 7 14 8 15 80 16 9 17 6 18 1 19 2 20 3 21 81 22 4 24
REMARK SMILES IDX 5 25 22 26 23 27 24 28 25 30 26 31 27 32 79 33 28 34 78 35
REMARK SMILES IDX 29 36 30 37 31 38 72 39 32 40 77 41 71 42 73 43 33 44 76 45
REMARK SMILES IDX 70 46 69 47 34 49 60 50 43 51 59 52 44 53 47 54 58 55 74 56
REMARK SMILES IDX 45 57 46 58 57 60 75 61 48 62 35 63 36 64 41 65 37 66 38 67
REMARK SMILES IDX 40 68 42 69 39 70 61 71 62 72 67 73 63 74 64 75 66 76 68 77
REMARK SMILES IDX 65 78 49 79 50 80 55 81 51 82 52 83 54 84 56 85 53 86
REMARK H PARENT 19 6 2 23 23 29 73 48 47 59
REMARK Flexibility Score: inf
ROOT
ATOM      1  C   UNL A   1      33.018  28.570  27.340  1.00  0.00     0.042 C 
ENDROOT
BRANCH   1   2
ATOM      2  C   UNL A   1      31.538  28.271  27.129  1.00  0.00     0.118 C 
BRANCH   2   3
ATOM      3  N   UNL A   1      31.170  26.880  27.183  1.00  0.00    -0.352 N 
ATOM      4  C   UNL A   1      31.552  25.742  26.536  1.00  0.00     0.252 C 
ATOM      5  O   UNL A   1      31.223  24.703  27.125  1.00  0.00    -0.269 OA
ATOM      6  H   UNL A   1      30.470  26.707  27.854  1.00  0.00     0.163 HD
BRANCH   4   7
ATOM      7  C   UNL A   1      32.193  25.590  25.189  1.00  0.00     0.052 A 
ATOM      8  C   UNL A   1      31.883  26.135  23.930  1.00  0.00     0.053 A 
ATOM      9  C   UNL A   1      32.745  25.861  22.831  1.00  0.00     0.015 A 
ATOM     10  C   UNL A   1      33.882  25.067  22.950  1.00  0.00     0.001 A 
ATOM     11  C   UNL A   1      33.357  24.771  25.268  1.00  0.00     0.014 A 
ATOM     12  C   UNL A   1      34.187  24.512  24.176  1.00  0.00     0.001 A 
BRANCH   8  13
ATOM     13  C   UNL A   1      30.746  26.965  23.589  1.00  0.00     0.258 A 
ATOM     14  C   UNL A   1      29.262  28.318  22.964  1.00  0.00     0.206 A 
ATOM     15  N   UNL A   1      28.561  27.326  23.536  1.00  0.00    -0.059 NA
ATOM     16  N   UNL A   1      30.627  28.084  22.908  1.00  0.00    -0.189 NA
ATOM     17  O   UNL A   1      29.539  26.439  23.962  1.00  0.00    -0.334 OA
BRANCH  14  18
ATOM     18  C   UNL A   1      28.602  29.604  22.534  1.00  0.00     0.245 C 
ATOM     19  C   UNL A   1      27.933  31.724  20.252  1.00  0.00     0.332 C 
ATOM     20  N   UNL A   1      29.015  31.785  21.232  1.00  0.00    -0.333 N 
ATOM     21  C   UNL A   1      28.600  32.476  22.468  1.00  0.00     0.290 C 
ATOM     22  C   UNL A   1      29.519  30.435  21.591  1.00  0.00     0.303 C 
ATOM     23  H   UNL A   1      29.763  32.314  20.782  1.00  0.00     0.348 HD
ATOM     24  C   UNL A   1      27.639  31.640  23.321  1.00  0.00     0.222 C 
ATOM     25  O   UNL A   1      28.236  30.396  23.695  1.00  0.00    -0.358 OA
ENDBRANCH  14  18
ENDBRANCH   8  13
ENDBRANCH   4   7
ENDBRANCH   2   3
ENDBRANCH   1   2
BRANCH   1  26
ATOM     26  C   UNL A   1      33.582  29.571  26.326  1.00  0.00     0.118 C 
BRANCH  26  27
ATOM     27  N   UNL A   1      33.958  30.826  26.963  1.00  0.00    -0.352 N 
ATOM     28  C   UNL A   1      34.697  30.969  28.111  1.00  0.00     0.251 C 
ATOM     29  H   UNL A   1      33.651  31.654  26.527  1.00  0.00     0.163 HD
ATOM     30  O   UNL A   1      34.392  31.828  28.933  1.00  0.00    -0.269 OA
BRANCH  28  31
ATOM     31  C   UNL A   1      35.923  30.169  28.308  1.00  0.00     0.039 A 
ATOM     32  C   UNL A   1      36.223  29.683  29.585  1.00  0.00     0.014 A 
ATOM     33  C   UNL A   1      36.879  30.107  27.292  1.00  0.00     0.014 A 
ATOM     34  C   UNL A   1      37.497  29.183  29.867  1.00  0.00     0.010 A 
ATOM     35  C   UNL A   1      38.139  29.582  27.564  1.00  0.00     0.010 A 
ATOM     36  C   UNL A   1      38.471  29.158  28.862  1.00  0.00    -0.014 A 
BRANCH  36  37
ATOM     37  C   UNL A   1      39.885  28.804  29.129  1.00  0.00     0.031 A 
ATOM     38  C   UNL A   1      40.816  29.885  29.597  1.00  0.00     0.074 A 
ATOM     39  C   UNL A   1      40.355  27.579  28.845  1.00  0.00     0.049 A 
ATOM     40  N   UNL A   1      42.118  29.960  29.502  1.00  0.00    -0.248 NA
ATOM     41  C   UNL A   1      40.185  31.060  30.220  1.00  0.00     0.031 C 
ATOM     42  C   UNL A   1      39.547  26.434  28.431  1.00  0.00     0.029 A 
ATOM     43  N   UNL A   1      41.645  27.113  28.819  1.00  0.00    -0.354 N 
ATOM     44  C   UNL A   1      42.453  31.226  29.968  1.00  0.00     0.074 A 
ATOM     45  C   UNL A   1      41.224  31.868  30.382  1.00  0.00     0.031 C 
ATOM     46  C   UNL A   1      40.364  25.401  28.161  1.00  0.00     0.029 A 
ATOM     47  C   UNL A   1      41.748  25.838  28.320  1.00  0.00     0.049 A 
ATOM     48  H   UNL A   1      42.418  27.641  29.127  1.00  0.00     0.167 HD
ATOM     49  C   UNL A   1      43.678  31.801  30.014  1.00  0.00     0.037 A 
ATOM     50  C   UNL A   1      42.837  25.130  27.969  1.00  0.00     0.037 A 
ATOM     51  C   UNL A   1      44.894  31.119  29.654  1.00  0.00     0.049 A 
ATOM     52  C   UNL A   1      44.194  25.762  28.092  1.00  0.00     0.074 A 
ATOM     53  C   UNL A   1      46.193  31.596  29.662  1.00  0.00     0.029 A 
ATOM     54  N   UNL A   1      44.956  29.795  29.247  1.00  0.00    -0.354 N 
ATOM     55  N   UNL A   1      44.506  26.986  28.445  1.00  0.00    -0.248 NA
ATOM     56  C   UNL A   1      45.350  24.919  27.756  1.00  0.00     0.031 C 
ATOM     57  C   UNL A   1      47.041  30.558  29.256  1.00  0.00     0.029 A 
ATOM     58  C   UNL A   1      46.271  29.430  29.020  1.00  0.00     0.049 A 
ATOM     59  H   UNL A   1      44.178  29.201  29.136  1.00  0.00     0.167 HD
ATOM     60  C   UNL A   1      45.891  27.060  28.380  1.00  0.00     0.074 A 
ATOM     61  C   UNL A   1      46.360  25.751  27.971  1.00  0.00     0.031 C 
ATOM     62  C   UNL A   1      46.703  28.116  28.627  1.00  0.00     0.037 A 
BRANCH  49  63
ATOM     63  C   UNL A   1      43.755  33.242  30.420  1.00  0.00     0.057 A 
ATOM     64  C   UNL A   1      43.635  34.287  29.498  1.00  0.00     0.134 A 
ATOM     65  C   UNL A   1      43.934  33.585  31.767  1.00  0.00     0.134 A 
ATOM     66  F   UNL A   1      43.480  34.026  28.192  1.00  0.00    -0.206 F 
ATOM     67  C   UNL A   1      43.707  35.623  29.898  1.00  0.00     0.040 A 
ATOM     68  C   UNL A   1      43.986  34.917  32.182  1.00  0.00     0.040 A 
ATOM     69  F   UNL A   1      44.057  32.631  32.703  1.00  0.00    -0.206 F 
ATOM     70  C   UNL A   1      43.877  35.941  31.245  1.00  0.00     0.006 A 
ENDBRANCH  49  63
BRANCH  50  71
ATOM     71  C   UNL A   1      42.677  23.760  27.429  1.00  0.00     0.057 A 
ATOM     72  C   UNL A   1      42.497  22.668  28.285  1.00  0.00     0.134 A 
ATOM     73  C   UNL A   1      42.675  23.511  26.052  1.00  0.00     0.134 A 
ATOM     74  F   UNL A   1      42.512  22.843  29.614  1.00  0.00    -0.206 F 
ATOM     75  C   UNL A   1      42.326  21.374  27.790  1.00  0.00     0.040 A 
ATOM     76  C   UNL A   1      42.483  22.226  25.542  1.00  0.00     0.040 A 
ATOM     77  F   UNL A   1      42.837  24.519  25.182  1.00  0.00    -0.206 F 
ATOM     78  C   UNL A   1      42.312  21.153  26.414  1.00  0.00     0.006 A 
ENDBRANCH  50  71
BRANCH  62  79
ATOM     79  C   UNL A   1      48.175  27.877  28.496  1.00  0.00     0.057 A 
ATOM     80  C   UNL A   1      48.945  27.429  29.575  1.00  0.00     0.134 A 
ATOM     81  C   UNL A   1      48.821  28.079  27.270  1.00  0.00     0.134 A 
ATOM     82  F   UNL A   1      48.382  27.231  30.776  1.00  0.00    -0.206 F 
ATOM     83  C   UNL A   1      50.316  27.207  29.445  1.00  0.00     0.040 A 
ATOM     84  C   UNL A   1      50.187  27.846  27.124  1.00  0.00     0.040 A 
ATOM     85  F   UNL A   1      48.132  28.504  26.200  1.00  0.00    -0.206 F 
ATOM     86  C   UNL A   1      50.939  27.412  28.214  1.00  0.00     0.006 A 
ENDBRANCH  62  79
ENDBRANCH  36  37
ENDBRANCH  28  31
ENDBRANCH  26  27
ENDBRANCH   1  26
TORSDOF 12
ENDMDL
MODEL 2
REMARK VINA RESULT:     -12.8      1.180      1.868
REMARK SMILES C[N@H+]1CCO[C@H](c2noc(-c3ccccc3C(=O)NCCCNC(=O)c3ccc(-c4c5nc(c(-c6c(F)cccc6F)c6ccc([nH]6)c(-c6c(F)cccc6F)c6nc(c(-c7c(F)cccc7F)c7ccc4[nH]7)C=C6)C=C5)cc3)n2)C1
REMARK SMILES IDX 21 1 20 2 19 3 17 4 18 5 16 7 11 8 12 9 13 10 15 11 14 12
REMARK SMILES IDX 10 13 7 14 8 15 80 16 9 17 6 18 1 19 2 20 3 21 81 22 4 24
REMARK SMILES IDX 5 25 22 26 23 27 24 28 25 30 26 31 27 32 79 33 28 34 78 35
REMARK SMILES IDX 29 36 30 37 31 38 72 39 32 40 77 41 71 42 73 43 33 44 76 45
REMARK SMILES IDX 70 46 69 47 34 49 60 50 43 51 59 52 44 53 47 54 58 55 74 56
REMARK SMILES IDX 45 57 46 58 57 60 75 61 48 62 35 63 36 64 41 65 37 66 38 67
REMARK SMILES IDX 40 68 42 69 39 70 61 71 62 72 67 73 63 74 64 75 66 76 68 77
REMARK SMILES IDX 65 78 49 79 50 80 55 81 51 82 52 83 54 84 56 85 53 86
REMARK H PARENT 19 6 2 23 23 29 73 48 47 59
REMARK Flexibility Score: inf
ROOT
ATOM      1  C   UNL A   1      33.328  28.740  27.535  1.00  0.00     0.042 C 
ENDROOT
BRANCH   1   2
ATOM      2  C   UNL A   1      31.864  28.516  27.174  1.00  0.00     0.118 C 
BRANCH   2   3
ATOM      3  N   UNL A   1      31.418  27.148  27.204  1.00  0.00    -0.352 N 
ATOM      4  C   UNL A   1      31.729  26.003  26.531  1.00  0.00     0.252 C 
ATOM      5  O   UNL A   1      31.346  24.973  27.102  1.00  0.00    -0.269 OA
ATOM      6  H   UNL A   1      30.714  27.002  27.877  1.00  0.00     0.163 HD
BRANCH   4   7
ATOM      7  C   UNL A   1      32.352  25.842  25.176  1.00  0.00     0.052 A 
ATOM      8  C   UNL A   1      32.019  26.373  23.917  1.00  0.00     0.053 A 
ATOM      9  C   UNL A   1      32.866  26.094  22.807  1.00  0.00     0.015 A 
ATOM     10  C   UNL A   1      34.011  25.309  22.918  1.00  0.00     0.001 A 
ATOM     11  C   UNL A   1      33.522  25.033  25.246  1.00  0.00     0.014 A 
ATOM     12  C   UNL A   1      34.339  24.769  24.144  1.00  0.00     0.001 A 
BRANCH   8  13
ATOM     13  C   UNL A   1      30.871  27.191  23.584  1.00  0.00     0.258 A 
ATOM     14  C   UNL A   1      29.372  28.543  22.995  1.00  0.00     0.206 A 
ATOM     15  N   UNL A   1      28.680  27.482  23.439  1.00  0.00    -0.059 NA
ATOM     16  N   UNL A   1      30.746  28.361  22.996  1.00  0.00    -0.189 NA
ATOM     17  O   UNL A   1      29.667  26.593  23.842  1.00  0.00    -0.334 OA
BRANCH  14  18
ATOM     18  C   UNL A   1      28.687  29.839  22.640  1.00  0.00     0.245 C 
ATOM     19  C   UNL A   1      27.659  31.893  20.434  1.00  0.00     0.332 C 
ATOM     20  N   UNL A   1      28.914  31.945  21.178  1.00  0.00    -0.333 N 
ATOM     21  C   UNL A   1      28.777  32.703  22.437  1.00  0.00     0.290 C 
ATOM     22  C   UNL A   1      29.430  30.589  21.497  1.00  0.00     0.303 C 
ATOM     23  H   UNL A   1      29.577  32.420  20.566  1.00  0.00     0.348 HD
ATOM     24  C   UNL A   1      27.973  31.947  23.501  1.00  0.00     0.222 C 
ATOM     25  O   UNL A   1      28.586  30.693  23.811  1.00  0.00    -0.358 OA
ENDBRANCH  14  18
ENDBRANCH   8  13
ENDBRANCH   4   7
ENDBRANCH   2   3
ENDBRANCH   1   2
BRANCH   1  26
ATOM     26  C   UNL A   1      34.049  29.689  26.572  1.00  0.00     0.118 C 
BRANCH  26  27
ATOM     27  N   UNL A   1      34.579  30.856  27.264  1.00  0.00    -0.352 N 
ATOM     28  C   UNL A   1      35.436  30.850  28.336  1.00  0.00     0.251 C 
ATOM     29  H   UNL A   1      34.293  31.738  26.929  1.00  0.00     0.163 HD
ATOM     30  O   UNL A   1      35.278  31.653  29.251  1.00  0.00    -0.269 OA
BRANCH  28  31
ATOM     31  C   UNL A   1      36.613  29.957  28.340  1.00  0.00     0.039 A 
ATOM     32  C   UNL A   1      36.970  29.303  29.523  1.00  0.00     0.014 A 
ATOM     33  C   UNL A   1      37.484  29.958  27.249  1.00  0.00     0.014 A 
ATOM     34  C   UNL A   1      38.222  28.695  29.642  1.00  0.00     0.010 A 
ATOM     35  C   UNL A   1      38.719  29.326  27.355  1.00  0.00     0.010 A 
ATOM     36  C   UNL A   1      39.114  28.729  28.565  1.00  0.00    -0.014 A 
BRANCH  36  37
ATOM     37  C   UNL A   1      40.516  28.258  28.674  1.00  0.00     0.031 A 
ATOM     38  C   UNL A   1      41.595  29.274  28.912  1.00  0.00     0.074 A 
ATOM     39  C   UNL A   1      40.831  26.973  28.445  1.00  0.00     0.049 A 
ATOM     40  N   UNL A   1      42.871  29.211  28.639  1.00  0.00    -0.248 NA
ATOM     41  C   UNL A   1      41.164  30.552  29.502  1.00  0.00     0.031 C 
ATOM     42  C   UNL A   1      39.875  25.885  28.249  1.00  0.00     0.029 A 
ATOM     43  N   UNL A   1      42.058  26.380  28.292  1.00  0.00    -0.354 N 
ATOM     44  C   UNL A   1      43.380  30.469  28.937  1.00  0.00     0.074 A 
ATOM     45  C   UNL A   1      42.282  31.262  29.449  1.00  0.00     0.031 C 
ATOM     46  C   UNL A   1      40.552  24.758  27.971  1.00  0.00     0.029 A 
ATOM     47  C   UNL A   1      41.977  25.066  27.904  1.00  0.00     0.049 A 
ATOM     48  H   UNL A   1      42.910  26.850  28.444  1.00  0.00     0.167 HD
ATOM     49  C   UNL A   1      44.645  30.921  28.767  1.00  0.00     0.037 A 
ATOM     50  C   UNL A   1      42.939  24.226  27.480  1.00  0.00     0.037 A 
ATOM     51  C   UNL A   1      45.733  30.095  28.314  1.00  0.00     0.049 A 
ATOM     52  C   UNL A   1      44.351  24.726  27.362  1.00  0.00     0.074 A 
ATOM     53  C   UNL A   1      47.057  30.438  28.106  1.00  0.00     0.029 A 
ATOM     54  N   UNL A   1      45.620  28.742  28.027  1.00  0.00    -0.354 N 
ATOM     55  N   UNL A   1      44.816  25.937  27.556  1.00  0.00    -0.248 NA
ATOM     56  C   UNL A   1      45.369  23.748  26.955  1.00  0.00     0.031 C 
ATOM     57  C   UNL A   1      47.745  29.291  27.689  1.00  0.00     0.029 A 
ATOM     58  C   UNL A   1      46.852  28.231  27.663  1.00  0.00     0.049 A 
ATOM     59  H   UNL A   1      44.785  28.223  28.075  1.00  0.00     0.167 HD
ATOM     60  C   UNL A   1      46.179  25.867  27.302  1.00  0.00     0.074 A 
ATOM     61  C   UNL A   1      46.468  24.490  26.957  1.00  0.00     0.031 C 
ATOM     62  C   UNL A   1      47.108  26.853  27.339  1.00  0.00     0.037 A 
BRANCH  49  63
ATOM     63  C   UNL A   1      44.905  32.374  29.024  1.00  0.00     0.057 A 
ATOM     64  C   UNL A   1      45.387  32.843  30.251  1.00  0.00     0.134 A 
ATOM     65  C   UNL A   1      44.686  33.320  28.013  1.00  0.00     0.134 A 
ATOM     66  F   UNL A   1      45.602  31.993  31.266  1.00  0.00    -0.206 F 
ATOM     67  C   UNL A   1      45.626  34.201  30.470  1.00  0.00     0.040 A 
ATOM     68  C   UNL A   1      44.940  34.677  28.212  1.00  0.00     0.040 A 
ATOM     69  F   UNL A   1      44.223  32.937  26.812  1.00  0.00    -0.206 F 
ATOM     70  C   UNL A   1      45.408  35.122  29.446  1.00  0.00     0.006 A 
ENDBRANCH  49  63
BRANCH  50  71
ATOM     71  C   UNL A   1      42.585  22.840  27.095  1.00  0.00     0.057 A 
ATOM     72  C   UNL A   1      42.572  22.449  25.752  1.00  0.00     0.134 A 
ATOM     73  C   UNL A   1      42.277  21.870  28.055  1.00  0.00     0.134 A 
ATOM     74  F   UNL A   1      42.838  23.342  24.787  1.00  0.00    -0.206 F 
ATOM     75  C   UNL A   1      42.259  21.142  25.376  1.00  0.00     0.040 A 
ATOM     76  C   UNL A   1      41.984  20.553  27.696  1.00  0.00     0.040 A 
ATOM     77  F   UNL A   1      42.279  22.184  29.360  1.00  0.00    -0.206 F 
ATOM     78  C   UNL A   1      41.971  20.188  26.351  1.00  0.00     0.006 A 
ENDBRANCH  50  71
BRANCH  62  79
ATOM     79  C   UNL A   1      48.520  26.459  27.038  1.00  0.00     0.057 A 
ATOM     80  C   UNL A   1      49.376  25.977  28.034  1.00  0.00     0.134 A 
ATOM     81  C   UNL A   1      49.017  26.543  25.732  1.00  0.00     0.134 A 
ATOM     82  F   UNL A   1      48.958  25.886  29.305  1.00  0.00    -0.206 F 
ATOM     83  C   UNL A   1      50.690  25.609  27.744  1.00  0.00     0.040 A 
ATOM     84  C   UNL A   1      50.323  26.165  25.427  1.00  0.00     0.040 A 
ATOM     85  F   UNL A   1      48.239  26.994  24.736  1.00  0.00    -0.206 F 
ATOM     86  C   UNL A   1      51.165  25.700  26.435  1.00  0.00     0.006 A 
ENDBRANCH  62  79
ENDBRANCH  36  37
ENDBRANCH  28  31
ENDBRANCH  26  27
ENDBRANCH   1  26
TORSDOF 12
ENDMDL
MODEL 3
REMARK VINA RESULT:     -12.7      5.186      9.875
REMARK SMILES C[N@H+]1CCO[C@H](c2noc(-c3ccccc3C(=O)NCCCNC(=O)c3ccc(-c4c5nc(c(-c6c(F)cccc6F)c6ccc([nH]6)c(-c6c(F)cccc6F)c6nc(c(-c7c(F)cccc7F)c7ccc4[nH]7)C=C6)C=C5)cc3)n2)C1
REMARK SMILES IDX 21 1 20 2 19 3 17 4 18 5 16 7 11 8 12 9 13 10 15 11 14 12
REMARK SMILES IDX 10 13 7 14 8 15 80 16 9 17 6 18 1 19 2 20 3 21 81 22 4 24
REMARK SMILES IDX 5 25 22 26 23 27 24 28 25 30 26 31 27 32 79 33 28 34 78 35
REMARK SMILES IDX 29 36 30 37 31 38 72 39 32 40 77 41 71 42 73 43 33 44 76 45
REMARK SMILES IDX 70 46 69 47 34 49 60 50 43 51 59 52 44 53 47 54 58 55 74 56
REMARK SMILES IDX 45 57 46 58 57 60 75 61 48 62 35 63 36 64 41 65 37 66 38 67
REMARK SMILES IDX 40 68 42 69 39 70 61 71 62 72 67 73 63 74 64 75 66 76 68 77
REMARK SMILES IDX 65 78 49 79 50 80 55 81 51 82 52 83 54 84 56 85 53 86
REMARK H PARENT 19 6 2 23 23 29 73 48 47 59
REMARK Flexibility Score: inf
ROOT
ATOM      1  C   UNL A   1      37.153  22.265  24.777  1.00  0.00     0.042 C 
ENDROOT
BRANCH   1   2
ATOM      2  C   UNL A   1      36.217  21.432  25.644  1.00  0.00     0.118 C 
BRANCH   2   3
ATOM      3  N   UNL A   1      35.556  22.143  26.708  1.00  0.00    -0.352 N 
ATOM      4  C   UNL A   1      34.385  22.827  26.847  1.00  0.00     0.252 C 
ATOM      5  O   UNL A   1      34.046  22.994  28.026  1.00  0.00    -0.269 OA
ATOM      6  H   UNL A   1      36.080  22.132  27.543  1.00  0.00     0.163 HD
BRANCH   4   7
ATOM      7  C   UNL A   1      33.542  23.483  25.794  1.00  0.00     0.052 A 
ATOM      8  C   UNL A   1      32.762  22.957  24.748  1.00  0.00     0.053 A 
ATOM      9  C   UNL A   1      31.996  23.848  23.946  1.00  0.00     0.015 A 
ATOM     10  C   UNL A   1      31.993  25.226  24.151  1.00  0.00     0.001 A 
ATOM     11  C   UNL A   1      33.524  24.897  25.963  1.00  0.00     0.014 A 
ATOM     12  C   UNL A   1      32.767  25.755  25.163  1.00  0.00     0.001 A 
BRANCH   8  13
ATOM     13  C   UNL A   1      32.641  21.568  24.356  1.00  0.00     0.258 A 
ATOM     14  C   UNL A   1      32.510  19.494  24.033  1.00  0.00     0.206 A 
ATOM     15  N   UNL A   1      32.123  20.018  22.859  1.00  0.00    -0.059 NA
ATOM     16  N   UNL A   1      32.762  20.437  25.017  1.00  0.00    -0.189 NA
ATOM     17  O   UNL A   1      32.223  21.387  23.065  1.00  0.00    -0.334 OA
BRANCH  14  18
ATOM     18  C   UNL A   1      32.744  18.013  24.196  1.00  0.00     0.245 C 
ATOM     19  C   UNL A   1      32.040  15.257  25.631  1.00  0.00     0.332 C 
ATOM     20  N   UNL A   1      33.124  16.179  25.962  1.00  0.00    -0.333 N 
ATOM     21  C   UNL A   1      34.359  15.867  25.216  1.00  0.00     0.290 C 
ATOM     22  C   UNL A   1      32.755  17.593  25.694  1.00  0.00     0.303 C 
ATOM     23  H   UNL A   1      33.291  16.059  26.961  1.00  0.00     0.348 HD
ATOM     24  C   UNL A   1      34.264  16.234  23.730  1.00  0.00     0.222 C 
ATOM     25  O   UNL A   1      33.994  17.627  23.563  1.00  0.00    -0.358 OA
ENDBRANCH  14  18
ENDBRANCH   8  13
ENDBRANCH   4   7
ENDBRANCH   2   3
ENDBRANCH   1   2
BRANCH   1  26
ATOM     26  C   UNL A   1      37.809  23.423  25.536  1.00  0.00     0.118 C 
BRANCH  26  27
ATOM     27  N   UNL A   1      39.053  23.011  26.174  1.00  0.00    -0.352 N 
ATOM     28  C   UNL A   1      40.115  23.821  26.490  1.00  0.00     0.251 C 
ATOM     29  H   UNL A   1      39.140  22.056  26.400  1.00  0.00     0.163 HD
ATOM     30  O   UNL A   1      41.262  23.420  26.323  1.00  0.00    -0.269 OA
BRANCH  28  31
ATOM     31  C   UNL A   1      39.883  25.130  27.134  1.00  0.00     0.039 A 
ATOM     32  C   UNL A   1      40.519  26.266  26.621  1.00  0.00     0.014 A 
ATOM     33  C   UNL A   1      39.235  25.188  28.369  1.00  0.00     0.014 A 
ATOM     34  C   UNL A   1      40.559  27.447  27.365  1.00  0.00     0.010 A 
ATOM     35  C   UNL A   1      39.248  26.373  29.098  1.00  0.00     0.010 A 
ATOM     36  C   UNL A   1      39.946  27.497  28.622  1.00  0.00    -0.014 A 
BRANCH  36  37
ATOM     37  C   UNL A   1      40.093  28.653  29.537  1.00  0.00     0.031 A 
ATOM     38  C   UNL A   1      41.117  28.574  30.632  1.00  0.00     0.074 A 
ATOM     39  C   UNL A   1      39.251  29.697  29.469  1.00  0.00     0.049 A 
ATOM     40  N   UNL A   1      41.168  29.213  31.771  1.00  0.00    -0.248 NA
ATOM     41  C   UNL A   1      42.211  27.610  30.427  1.00  0.00     0.031 C 
ATOM     42  C   UNL A   1      38.247  29.914  28.429  1.00  0.00     0.029 A 
ATOM     43  N   UNL A   1      39.080  30.750  30.332  1.00  0.00    -0.354 N 
ATOM     44  C   UNL A   1      42.244  28.664  32.458  1.00  0.00     0.074 A 
ATOM     45  C   UNL A   1      42.841  27.669  31.593  1.00  0.00     0.031 C 
ATOM     46  C   UNL A   1      37.543  31.018  28.729  1.00  0.00     0.029 A 
ATOM     47  C   UNL A   1      38.003  31.539  30.012  1.00  0.00     0.049 A 
ATOM     48  H   UNL A   1      39.671  30.922  31.101  1.00  0.00     0.167 HD
ATOM     49  C   UNL A   1      42.668  28.952  33.712  1.00  0.00     0.037 A 
ATOM     50  C   UNL A   1      37.416  32.528  30.711  1.00  0.00     0.037 A 
ATOM     51  C   UNL A   1      42.096  29.988  34.530  1.00  0.00     0.049 A 
ATOM     52  C   UNL A   1      37.945  32.880  32.072  1.00  0.00     0.074 A 
ATOM     53  C   UNL A   1      42.443  30.374  35.813  1.00  0.00     0.029 A 
ATOM     54  N   UNL A   1      41.069  30.827  34.123  1.00  0.00    -0.354 N 
ATOM     55  N   UNL A   1      38.901  32.303  32.760  1.00  0.00    -0.248 NA
ATOM     56  C   UNL A   1      37.305  34.009  32.760  1.00  0.00     0.031 C 
ATOM     57  C   UNL A   1      41.621  31.446  36.183  1.00  0.00     0.029 A 
ATOM     58  C   UNL A   1      40.781  31.742  35.120  1.00  0.00     0.049 A 
ATOM     59  H   UNL A   1      40.611  30.778  33.252  1.00  0.00     0.167 HD
ATOM     60  C   UNL A   1      38.983  33.001  33.957  1.00  0.00     0.074 A 
ATOM     61  C   UNL A   1      37.991  34.056  33.894  1.00  0.00     0.031 C 
ATOM     62  C   UNL A   1      39.797  32.786  35.019  1.00  0.00     0.037 A 
BRANCH  49  63
ATOM     63  C   UNL A   1      43.765  28.106  34.286  1.00  0.00     0.057 A 
ATOM     64  C   UNL A   1      45.111  28.482  34.221  1.00  0.00     0.134 A 
ATOM     65  C   UNL A   1      43.461  26.901  34.933  1.00  0.00     0.134 A 
ATOM     66  F   UNL A   1      45.471  29.615  33.601  1.00  0.00    -0.206 F 
ATOM     67  C   UNL A   1      46.118  27.682  34.765  1.00  0.00     0.040 A 
ATOM     68  C   UNL A   1      44.455  26.102  35.498  1.00  0.00     0.040 A 
ATOM     69  F   UNL A   1      42.189  26.482  35.029  1.00  0.00    -0.206 F 
ATOM     70  C   UNL A   1      45.790  26.490  35.411  1.00  0.00     0.006 A 
ENDBRANCH  49  63
BRANCH  50  71
ATOM     71  C   UNL A   1      36.236  33.223  30.146  1.00  0.00     0.057 A 
ATOM     72  C   UNL A   1      34.946  32.933  30.603  1.00  0.00     0.134 A 
ATOM     73  C   UNL A   1      36.368  34.207  29.159  1.00  0.00     0.134 A 
ATOM     74  F   UNL A   1      34.757  31.986  31.532  1.00  0.00    -0.206 F 
ATOM     75  C   UNL A   1      33.827  33.594  30.095  1.00  0.00     0.040 A 
ATOM     76  C   UNL A   1      35.260  34.891  28.657  1.00  0.00     0.040 A 
ATOM     77  F   UNL A   1      37.580  34.532  28.685  1.00  0.00    -0.206 F 
ATOM     78  C   UNL A   1      33.984  34.582  29.123  1.00  0.00     0.006 A 
ENDBRANCH  50  71
BRANCH  62  79
ATOM     79  C   UNL A   1      39.668  33.735  36.169  1.00  0.00     0.057 A 
ATOM     80  C   UNL A   1      40.323  34.971  36.179  1.00  0.00     0.134 A 
ATOM     81  C   UNL A   1      38.862  33.413  37.267  1.00  0.00     0.134 A 
ATOM     82  F   UNL A   1      41.119  35.327  35.159  1.00  0.00    -0.206 F 
ATOM     83  C   UNL A   1      40.196  35.851  37.253  1.00  0.00     0.040 A 
ATOM     84  C   UNL A   1      38.714  34.290  38.341  1.00  0.00     0.040 A 
ATOM     85  F   UNL A   1      38.206  32.243  37.311  1.00  0.00    -0.206 F 
ATOM     86  C   UNL A   1      39.386  35.511  38.337  1.00  0.00     0.006 A 
ENDBRANCH  62  79
ENDBRANCH  36  37
ENDBRANCH  28  31
ENDBRANCH  26  27
ENDBRANCH   1  26
TORSDOF 12
ENDMDL
