MODEL 1
REMARK VINA RESULT:     -11.8      0.000      0.000
REMARK SMILES CCOC(=O)c1c(S(=O)(=O)N2CCC[C@@H](C(=O)NCCCNC(=O)c3ccc(-c4c5nc(c(-c6c(F)cccc6F)c6ccc([nH]6)c(-c6c(F)cccc6F)c6nc(c(-c7c(F)cccc7F)c7ccc4[nH]7)C=C6)C=C5)cc3)C2)c(C)n(C)c1C
REMARK SMILES IDX 16 1 17 2 18 3 15 5 11 6 12 7 79 8 13 9 14 10 8 11 9 12
REMARK SMILES IDX 10 13 7 14 6 15 84 16 80 17 82 18 85 19 81 20 83 21 4 22
REMARK SMILES IDX 5 23 3 24 2 25 1 26 19 27 20 28 21 29 22 30 23 31 24 33
REMARK SMILES IDX 25 34 26 35 78 36 27 37 77 38 28 39 29 40 30 41 71 42 31 43
REMARK SMILES IDX 76 44 70 45 72 46 32 47 75 48 69 49 68 50 33 52 59 53 42 54
REMARK SMILES IDX 58 55 43 56 46 57 57 58 73 59 44 60 45 61 56 63 74 64 47 65
REMARK SMILES IDX 34 66 35 67 40 68 36 69 37 70 39 71 41 72 38 73 60 74 61 75
REMARK SMILES IDX 66 76 62 77 63 78 65 79 67 80 64 81 48 82 49 83 54 84 50 85
REMARK SMILES IDX 51 86 53 87 55 88 52 89
REMARK H PARENT 18 4 22 32 72 51 46 62
REMARK Flexibility Score: inf
ROOT
ATOM      1  C   UNL A   1      35.918  23.004  23.934  1.00  0.00     0.224 C 
ATOM      2  O   UNL A   1      35.713  23.343  22.765  1.00  0.00    -0.275 OA
ATOM      3  N   UNL A   1      37.147  23.303  24.433  1.00  0.00    -0.356 N 
ATOM      4  H   UNL A   1      37.765  23.699  23.777  1.00  0.00     0.163 HD
ENDROOT
BRANCH   1   5
ATOM      5  C   UNL A   1      34.834  22.325  24.779  1.00  0.00     0.093 C 
ATOM      6  N   UNL A   1      32.621  22.913  25.877  1.00  0.00    -0.197 NA
ATOM      7  C   UNL A   1      32.033  21.611  25.521  1.00  0.00     0.102 C 
ATOM      8  C   UNL A   1      33.847  23.414  25.221  1.00  0.00     0.116 C 
ATOM      9  C   UNL A   1      33.042  20.606  25.010  1.00  0.00     0.018 C 
ATOM     10  C   UNL A   1      34.069  21.211  24.074  1.00  0.00     0.016 C 
BRANCH   6  11
ATOM     11  S   UNL A   1      31.517  24.094  26.375  1.00  0.00     0.245 S 
ATOM     12  O   UNL A   1      31.988  24.606  27.648  1.00  0.00    -0.207 OA
ATOM     13  O   UNL A   1      30.186  23.538  26.247  1.00  0.00    -0.207 OA
BRANCH  11  14
ATOM     14  C   UNL A   1      31.436  25.543  25.395  1.00  0.00     0.118 A 
ATOM     15  C   UNL A   1      31.589  26.929  25.736  1.00  0.00     0.101 A 
ATOM     16  C   UNL A   1      31.371  27.653  24.558  1.00  0.00     0.030 A 
ATOM     17  C   UNL A   1      31.136  25.478  24.033  1.00  0.00     0.035 A 
ATOM     18  N   UNL A   1      31.103  26.762  23.544  1.00  0.00    -0.350 N 
ATOM     19  C   UNL A   1      31.440  29.128  24.317  1.00  0.00     0.065 C 
ATOM     20  C   UNL A   1      30.880  24.266  23.192  1.00  0.00     0.066 C 
ATOM     21  C   UNL A   1      30.849  27.103  22.157  1.00  0.00     0.149 C 
BRANCH  15  22
ATOM     22  C   UNL A   1      31.970  27.582  26.983  1.00  0.00     0.341 C 
ATOM     23  O   UNL A   1      31.192  27.786  27.900  1.00  0.00    -0.246 OA
BRANCH  22  24
ATOM     24  O   UNL A   1      33.316  27.825  27.056  1.00  0.00    -0.462 OA
BRANCH  24  25
ATOM     25  C   UNL A   1      33.708  29.201  27.199  1.00  0.00     0.230 C 
ATOM     26  C   UNL A   1      35.197  29.311  27.447  1.00  0.00     0.049 C 
ENDBRANCH  24  25
ENDBRANCH  22  24
ENDBRANCH  15  22
ENDBRANCH  11  14
ENDBRANCH   6  11
ENDBRANCH   1   5
BRANCH   3  27
ATOM     27  C   UNL A   1      37.708  23.143  25.763  1.00  0.00     0.117 C 
BRANCH  27  28
ATOM     28  C   UNL A   1      38.657  21.941  25.875  1.00  0.00     0.042 C 
BRANCH  28  29
ATOM     29  C   UNL A   1      39.855  22.205  26.767  1.00  0.00     0.118 C 
BRANCH  29  30
ATOM     30  N   UNL A   1      41.140  22.112  26.071  1.00  0.00    -0.352 N 
ATOM     31  C   UNL A   1      42.010  23.125  25.705  1.00  0.00     0.251 C 
ATOM     32  H   UNL A   1      41.424  21.201  25.827  1.00  0.00     0.163 HD
ATOM     33  O   UNL A   1      42.871  22.928  24.855  1.00  0.00    -0.269 OA
BRANCH  31  34
ATOM     34  C   UNL A   1      41.891  24.447  26.345  1.00  0.00     0.039 A 
ATOM     35  C   UNL A   1      41.112  25.475  25.802  1.00  0.00     0.014 A 
ATOM     36  C   UNL A   1      42.587  24.655  27.526  1.00  0.00     0.014 A 
ATOM     37  C   UNL A   1      41.019  26.683  26.494  1.00  0.00     0.010 A 
ATOM     38  C   UNL A   1      42.286  25.719  28.321  1.00  0.00     0.010 A 
ATOM     39  C   UNL A   1      41.616  26.790  27.757  1.00  0.00    -0.014 A 
BRANCH  39  40
ATOM     40  C   UNL A   1      41.545  28.000  28.561  1.00  0.00     0.031 A 
ATOM     41  C   UNL A   1      42.633  28.973  28.305  1.00  0.00     0.074 A 
ATOM     42  C   UNL A   1      40.436  28.326  29.264  1.00  0.00     0.049 A 
ATOM     43  N   UNL A   1      43.569  29.346  29.110  1.00  0.00    -0.248 NA
ATOM     44  C   UNL A   1      42.777  29.493  26.936  1.00  0.00     0.031 C 
ATOM     45  C   UNL A   1      39.143  27.625  29.314  1.00  0.00     0.029 A 
ATOM     46  N   UNL A   1      40.188  29.443  29.996  1.00  0.00    -0.354 N 
ATOM     47  C   UNL A   1      44.289  30.319  28.423  1.00  0.00     0.074 A 
ATOM     48  C   UNL A   1      43.897  30.209  27.044  1.00  0.00     0.031 C 
ATOM     49  C   UNL A   1      38.199  28.443  29.829  1.00  0.00     0.029 A 
ATOM     50  C   UNL A   1      38.850  29.644  30.312  1.00  0.00     0.049 A 
ATOM     51  H   UNL A   1      40.901  30.060  30.280  1.00  0.00     0.167 HD
ATOM     52  C   UNL A   1      44.935  31.313  29.094  1.00  0.00     0.037 A 
ATOM     53  C   UNL A   1      38.317  30.738  30.907  1.00  0.00     0.037 A 
ATOM     54  C   UNL A   1      45.097  30.971  30.489  1.00  0.00     0.049 A 
ATOM     55  C   UNL A   1      39.432  31.470  31.556  1.00  0.00     0.074 A 
ATOM     56  C   UNL A   1      45.685  29.924  31.172  1.00  0.00     0.029 A 
ATOM     57  N   UNL A   1      44.265  31.580  31.398  1.00  0.00    -0.354 N 
ATOM     58  N   UNL A   1      40.101  31.018  32.580  1.00  0.00    -0.248 NA
ATOM     59  C   UNL A   1      40.105  32.496  30.774  1.00  0.00     0.031 C 
ATOM     60  C   UNL A   1      44.811  29.663  32.270  1.00  0.00     0.029 A 
ATOM     61  C   UNL A   1      43.784  30.606  32.233  1.00  0.00     0.049 A 
ATOM     62  H   UNL A   1      44.054  32.542  31.441  1.00  0.00     0.167 HD
ATOM     63  C   UNL A   1      41.418  31.372  32.327  1.00  0.00     0.074 A 
ATOM     64  C   UNL A   1      41.345  32.360  31.252  1.00  0.00     0.031 C 
ATOM     65  C   UNL A   1      42.454  30.619  32.801  1.00  0.00     0.037 A 
BRANCH  52  66
ATOM     66  C   UNL A   1      45.052  32.738  28.597  1.00  0.00     0.057 A 
ATOM     67  C   UNL A   1      46.335  33.294  28.436  1.00  0.00     0.134 A 
ATOM     68  C   UNL A   1      43.994  33.670  28.555  1.00  0.00     0.134 A 
ATOM     69  F   UNL A   1      47.429  32.519  28.454  1.00  0.00    -0.206 F 
ATOM     70  C   UNL A   1      46.552  34.675  28.345  1.00  0.00     0.040 A 
ATOM     71  C   UNL A   1      44.197  35.045  28.410  1.00  0.00     0.040 A 
ATOM     72  F   UNL A   1      42.716  33.330  28.748  1.00  0.00    -0.206 F 
ATOM     73  C   UNL A   1      45.481  35.558  28.344  1.00  0.00     0.006 A 
ENDBRANCH  52  66
BRANCH  53  74
ATOM     74  C   UNL A   1      36.978  31.339  30.718  1.00  0.00     0.057 A 
ATOM     75  C   UNL A   1      36.099  31.503  31.797  1.00  0.00     0.134 A 
ATOM     76  C   UNL A   1      36.639  32.019  29.535  1.00  0.00     0.134 A 
ATOM     77  F   UNL A   1      36.358  30.924  32.979  1.00  0.00    -0.206 F 
ATOM     78  C   UNL A   1      34.964  32.321  31.716  1.00  0.00     0.040 A 
ATOM     79  C   UNL A   1      35.504  32.833  29.438  1.00  0.00     0.040 A 
ATOM     80  F   UNL A   1      37.446  31.991  28.464  1.00  0.00    -0.206 F 
ATOM     81  C   UNL A   1      34.671  33.000  30.537  1.00  0.00     0.006 A 
ENDBRANCH  53  74
BRANCH  65  82
ATOM     82  C   UNL A   1      42.142  29.551  33.817  1.00  0.00     0.057 A 
ATOM     83  C   UNL A   1      41.840  28.218  33.495  1.00  0.00     0.134 A 
ATOM     84  C   UNL A   1      42.298  29.848  35.175  1.00  0.00     0.134 A 
ATOM     85  F   UNL A   1      41.768  27.811  32.224  1.00  0.00    -0.206 F 
ATOM     86  C   UNL A   1      41.659  27.240  34.479  1.00  0.00     0.040 A 
ATOM     87  C   UNL A   1      42.154  28.874  36.166  1.00  0.00     0.040 A 
ATOM     88  F   UNL A   1      42.642  31.088  35.559  1.00  0.00    -0.206 F 
ATOM     89  C   UNL A   1      41.824  27.566  35.821  1.00  0.00     0.006 A 
ENDBRANCH  65  82
ENDBRANCH  39  40
ENDBRANCH  31  34
ENDBRANCH  29  30
ENDBRANCH  28  29
ENDBRANCH  27  28
ENDBRANCH   3  27
TORSDOF 15
ENDMDL
MODEL 2
REMARK VINA RESULT:     -11.6      2.479      8.096
REMARK SMILES CCOC(=O)c1c(S(=O)(=O)N2CCC[C@@H](C(=O)NCCCNC(=O)c3ccc(-c4c5nc(c(-c6c(F)cccc6F)c6ccc([nH]6)c(-c6c(F)cccc6F)c6nc(c(-c7c(F)cccc7F)c7ccc4[nH]7)C=C6)C=C5)cc3)C2)c(C)n(C)c1C
REMARK SMILES IDX 16 1 17 2 18 3 15 5 11 6 12 7 79 8 13 9 14 10 8 11 9 12
REMARK SMILES IDX 10 13 7 14 6 15 84 16 80 17 82 18 85 19 81 20 83 21 4 22
REMARK SMILES IDX 5 23 3 24 2 25 1 26 19 27 20 28 21 29 22 30 23 31 24 33
REMARK SMILES IDX 25 34 26 35 78 36 27 37 77 38 28 39 29 40 30 41 71 42 31 43
REMARK SMILES IDX 76 44 70 45 72 46 32 47 75 48 69 49 68 50 33 52 59 53 42 54
REMARK SMILES IDX 58 55 43 56 46 57 57 58 73 59 44 60 45 61 56 63 74 64 47 65
REMARK SMILES IDX 34 66 35 67 40 68 36 69 37 70 39 71 41 72 38 73 60 74 61 75
REMARK SMILES IDX 66 76 62 77 63 78 65 79 67 80 64 81 48 82 49 83 54 84 50 85
REMARK SMILES IDX 51 86 53 87 55 88 52 89
REMARK H PARENT 18 4 22 32 72 51 46 62
REMARK Flexibility Score: inf
ROOT
ATOM      1  C   UNL A   1      31.824  28.091  27.160  1.00  0.00     0.224 C 
ATOM      2  O   UNL A   1      31.052  27.538  27.949  1.00  0.00    -0.275 OA
ATOM      3  N   UNL A   1      32.107  29.395  27.420  1.00  0.00    -0.356 N 
ATOM      4  H   UNL A   1      31.606  29.775  28.177  1.00  0.00     0.163 HD
ENDROOT
BRANCH   1   5
ATOM      5  C   UNL A   1      32.454  27.336  25.984  1.00  0.00     0.093 C 
ATOM      6  N   UNL A   1      32.655  24.951  25.134  1.00  0.00    -0.197 NA
ATOM      7  C   UNL A   1      32.487  25.375  23.734  1.00  0.00     0.102 C 
ATOM      8  C   UNL A   1      32.287  25.835  26.259  1.00  0.00     0.116 C 
ATOM      9  C   UNL A   1      32.575  26.873  23.536  1.00  0.00     0.018 C 
ATOM     10  C   UNL A   1      31.864  27.663  24.617  1.00  0.00     0.016 C 
BRANCH   6  11
ATOM     11  S   UNL A   1      32.481  23.292  25.413  1.00  0.00     0.245 S 
ATOM     12  O   UNL A   1      31.618  22.773  24.370  1.00  0.00    -0.207 OA
ATOM     13  O   UNL A   1      32.144  23.112  26.810  1.00  0.00    -0.207 OA
BRANCH  11  14
ATOM     14  C   UNL A   1      33.925  22.318  25.226  1.00  0.00     0.118 A 
ATOM     15  C   UNL A   1      34.099  20.906  25.043  1.00  0.00     0.101 A 
ATOM     16  C   UNL A   1      35.480  20.679  25.004  1.00  0.00     0.030 A 
ATOM     17  C   UNL A   1      35.197  22.892  25.289  1.00  0.00     0.035 A 
ATOM     18  N   UNL A   1      36.123  21.887  25.150  1.00  0.00    -0.350 N 
ATOM     19  C   UNL A   1      36.233  19.403  24.796  1.00  0.00     0.065 C 
ATOM     20  C   UNL A   1      35.560  24.333  25.475  1.00  0.00     0.066 C 
ATOM     21  C   UNL A   1      37.559  22.094  25.136  1.00  0.00     0.149 C 
BRANCH  15  22
ATOM     22  C   UNL A   1      33.136  19.830  24.841  1.00  0.00     0.341 C 
ATOM     23  O   UNL A   1      32.311  19.501  25.678  1.00  0.00    -0.246 OA
BRANCH  22  24
ATOM     24  O   UNL A   1      33.179  19.319  23.571  1.00  0.00    -0.462 OA
BRANCH  24  25
ATOM     25  C   UNL A   1      32.735  17.960  23.415  1.00  0.00     0.230 C 
ATOM     26  C   UNL A   1      33.907  17.042  23.144  1.00  0.00     0.049 C 
ENDBRANCH  24  25
ENDBRANCH  22  24
ENDBRANCH  15  22
ENDBRANCH  11  14
ENDBRANCH   6  11
ENDBRANCH   1   5
BRANCH   3  27
ATOM     27  C   UNL A   1      33.020  30.326  26.779  1.00  0.00     0.117 C 
BRANCH  27  28
ATOM     28  C   UNL A   1      34.403  30.368  27.445  1.00  0.00     0.042 C 
BRANCH  28  29
ATOM     29  C   UNL A   1      34.935  31.776  27.631  1.00  0.00     0.118 C 
BRANCH  29  30
ATOM     30  N   UNL A   1      34.652  32.343  28.951  1.00  0.00    -0.352 N 
ATOM     31  C   UNL A   1      35.155  31.972  30.186  1.00  0.00     0.251 C 
ATOM     32  H   UNL A   1      34.013  33.092  28.962  1.00  0.00     0.163 HD
ATOM     33  O   UNL A   1      34.588  32.316  31.217  1.00  0.00    -0.269 OA
BRANCH  31  34
ATOM     34  C   UNL A   1      36.380  31.155  30.253  1.00  0.00     0.039 A 
ATOM     35  C   UNL A   1      36.347  29.770  30.448  1.00  0.00     0.014 A 
ATOM     36  C   UNL A   1      37.596  31.807  30.116  1.00  0.00     0.014 A 
ATOM     37  C   UNL A   1      37.550  29.065  30.457  1.00  0.00     0.010 A 
ATOM     38  C   UNL A   1      38.729  31.096  29.860  1.00  0.00     0.010 A 
ATOM     39  C   UNL A   1      38.739  29.746  30.161  1.00  0.00    -0.014 A 
BRANCH  39  40
ATOM     40  C   UNL A   1      40.034  29.086  30.118  1.00  0.00     0.031 A 
ATOM     41  C   UNL A   1      40.690  28.933  31.437  1.00  0.00     0.074 A 
ATOM     42  C   UNL A   1      40.462  28.425  29.019  1.00  0.00     0.049 A 
ATOM     43  N   UNL A   1      41.781  29.484  31.850  1.00  0.00    -0.248 NA
ATOM     44  C   UNL A   1      39.969  28.179  32.476  1.00  0.00     0.031 C 
ATOM     45  C   UNL A   1      39.748  28.188  27.753  1.00  0.00     0.029 A 
ATOM     46  N   UNL A   1      41.602  27.704  28.846  1.00  0.00    -0.354 N 
ATOM     47  C   UNL A   1      42.003  28.968  33.124  1.00  0.00     0.074 A 
ATOM     48  C   UNL A   1      40.767  28.355  33.530  1.00  0.00     0.031 C 
ATOM     49  C   UNL A   1      40.357  27.201  27.061  1.00  0.00     0.029 A 
ATOM     50  C   UNL A   1      41.596  26.869  27.735  1.00  0.00     0.049 A 
ATOM     51  H   UNL A   1      42.368  27.769  29.459  1.00  0.00     0.167 HD
ATOM     52  C   UNL A   1      43.267  28.847  33.616  1.00  0.00     0.037 A 
ATOM     53  C   UNL A   1      42.538  25.950  27.412  1.00  0.00     0.037 A 
ATOM     54  C   UNL A   1      44.194  29.660  32.862  1.00  0.00     0.049 A 
ATOM     55  C   UNL A   1      43.763  26.293  28.176  1.00  0.00     0.074 A 
ATOM     56  C   UNL A   1      44.282  31.004  32.554  1.00  0.00     0.029 A 
ATOM     57  N   UNL A   1      45.019  29.025  31.965  1.00  0.00    -0.354 N 
ATOM     58  N   UNL A   1      44.478  27.363  27.965  1.00  0.00    -0.248 NA
ATOM     59  C   UNL A   1      43.930  25.679  29.485  1.00  0.00     0.031 C 
ATOM     60  C   UNL A   1      44.743  31.045  31.204  1.00  0.00     0.029 A 
ATOM     61  C   UNL A   1      44.976  29.732  30.792  1.00  0.00     0.049 A 
ATOM     62  H   UNL A   1      45.546  28.210  32.135  1.00  0.00     0.167 HD
ATOM     63  C   UNL A   1      44.843  27.800  29.230  1.00  0.00     0.074 A 
ATOM     64  C   UNL A   1      44.559  26.673  30.117  1.00  0.00     0.031 C 
ATOM     65  C   UNL A   1      45.060  29.124  29.483  1.00  0.00     0.037 A 
BRANCH  52  66
ATOM     66  C   UNL A   1      43.732  27.707  34.497  1.00  0.00     0.057 A 
ATOM     67  C   UNL A   1      43.636  26.391  34.006  1.00  0.00     0.134 A 
ATOM     68  C   UNL A   1      43.983  27.804  35.882  1.00  0.00     0.134 A 
ATOM     69  F   UNL A   1      43.401  26.156  32.707  1.00  0.00    -0.206 F 
ATOM     70  C   UNL A   1      43.683  25.269  34.843  1.00  0.00     0.040 A 
ATOM     71  C   UNL A   1      44.086  26.689  36.717  1.00  0.00     0.040 A 
ATOM     72  F   UNL A   1      44.047  28.972  36.530  1.00  0.00    -0.206 F 
ATOM     73  C   UNL A   1      43.896  25.416  36.207  1.00  0.00     0.006 A 
ENDBRANCH  52  66
BRANCH  53  74
ATOM     74  C   UNL A   1      42.372  24.654  26.720  1.00  0.00     0.057 A 
ATOM     75  C   UNL A   1      43.053  24.377  25.527  1.00  0.00     0.134 A 
ATOM     76  C   UNL A   1      41.764  23.555  27.355  1.00  0.00     0.134 A 
ATOM     77  F   UNL A   1      43.696  25.353  24.869  1.00  0.00    -0.206 F 
ATOM     78  C   UNL A   1      43.151  23.079  25.009  1.00  0.00     0.040 A 
ATOM     79  C   UNL A   1      41.849  22.255  26.844  1.00  0.00     0.040 A 
ATOM     80  F   UNL A   1      41.149  23.692  28.538  1.00  0.00    -0.206 F 
ATOM     81  C   UNL A   1      42.559  22.010  25.675  1.00  0.00     0.006 A 
ENDBRANCH  53  74
BRANCH  65  82
ATOM     82  C   UNL A   1      45.148  30.061  28.306  1.00  0.00     0.057 A 
ATOM     83  C   UNL A   1      44.052  30.746  27.757  1.00  0.00     0.134 A 
ATOM     84  C   UNL A   1      46.411  30.395  27.805  1.00  0.00     0.134 A 
ATOM     85  F   UNL A   1      42.816  30.571  28.234  1.00  0.00    -0.206 F 
ATOM     86  C   UNL A   1      44.203  31.684  26.731  1.00  0.00     0.040 A 
ATOM     87  C   UNL A   1      46.579  31.356  26.805  1.00  0.00     0.040 A 
ATOM     88  F   UNL A   1      47.512  29.824  28.319  1.00  0.00    -0.206 F 
ATOM     89  C   UNL A   1      45.472  31.997  26.256  1.00  0.00     0.006 A 
ENDBRANCH  65  82
ENDBRANCH  39  40
ENDBRANCH  31  34
ENDBRANCH  29  30
ENDBRANCH  28  29
ENDBRANCH  27  28
ENDBRANCH   3  27
TORSDOF 15
ENDMDL
MODEL 3
REMARK VINA RESULT:     -11.5      2.370      7.824
REMARK SMILES CCOC(=O)c1c(S(=O)(=O)N2CCC[C@@H](C(=O)NCCCNC(=O)c3ccc(-c4c5nc(c(-c6c(F)cccc6F)c6ccc([nH]6)c(-c6c(F)cccc6F)c6nc(c(-c7c(F)cccc7F)c7ccc4[nH]7)C=C6)C=C5)cc3)C2)c(C)n(C)c1C
REMARK SMILES IDX 16 1 17 2 18 3 15 5 11 6 12 7 79 8 13 9 14 10 8 11 9 12
REMARK SMILES IDX 10 13 7 14 6 15 84 16 80 17 82 18 85 19 81 20 83 21 4 22
REMARK SMILES IDX 5 23 3 24 2 25 1 26 19 27 20 28 21 29 22 30 23 31 24 33
REMARK SMILES IDX 25 34 26 35 78 36 27 37 77 38 28 39 29 40 30 41 71 42 31 43
REMARK SMILES IDX 76 44 70 45 72 46 32 47 75 48 69 49 68 50 33 52 59 53 42 54
REMARK SMILES IDX 58 55 43 56 46 57 57 58 73 59 44 60 45 61 56 63 74 64 47 65
REMARK SMILES IDX 34 66 35 67 40 68 36 69 37 70 39 71 41 72 38 73 60 74 61 75
REMARK SMILES IDX 66 76 62 77 63 78 65 79 67 80 64 81 48 82 49 83 54 84 50 85
REMARK SMILES IDX 51 86 53 87 55 88 52 89
REMARK H PARENT 18 4 22 32 72 51 46 62
REMARK Flexibility Score: inf
ROOT
ATOM      1  C   UNL A   1      32.201  28.194  26.819  1.00  0.00     0.224 C 
ATOM      2  O   UNL A   1      31.404  27.445  27.392  1.00  0.00    -0.275 OA
ATOM      3  N   UNL A   1      33.109  28.816  27.616  1.00  0.00    -0.356 N 
ATOM      4  H   UNL A   1      32.985  28.651  28.579  1.00  0.00     0.163 HD
ENDROOT
BRANCH   1   5
ATOM      5  C   UNL A   1      32.187  28.375  25.297  1.00  0.00     0.093 C 
ATOM      6  N   UNL A   1      32.639  27.005  23.207  1.00  0.00    -0.197 NA
ATOM      7  C   UNL A   1      31.512  27.623  22.489  1.00  0.00     0.102 C 
ATOM      8  C   UNL A   1      32.762  27.094  24.677  1.00  0.00     0.116 C 
ATOM      9  C   UNL A   1      30.930  28.830  23.191  1.00  0.00     0.018 C 
ATOM     10  C   UNL A   1      30.815  28.652  24.692  1.00  0.00     0.016 C 
BRANCH   6  11
ATOM     11  S   UNL A   1      33.268  25.603  22.499  1.00  0.00     0.245 S 
ATOM     12  O   UNL A   1      34.687  25.828  22.299  1.00  0.00    -0.207 OA
ATOM     13  O   UNL A   1      32.411  25.247  21.387  1.00  0.00    -0.207 OA
BRANCH  11  14
ATOM     14  C   UNL A   1      33.252  24.160  23.490  1.00  0.00     0.118 A 
ATOM     15  C   UNL A   1      34.309  23.282  23.904  1.00  0.00     0.101 A 
ATOM     16  C   UNL A   1      33.706  22.258  24.646  1.00  0.00     0.030 A 
ATOM     17  C   UNL A   1      32.056  23.642  23.993  1.00  0.00     0.035 A 
ATOM     18  N   UNL A   1      32.350  22.495  24.690  1.00  0.00    -0.350 N 
ATOM     19  C   UNL A   1      34.329  21.095  25.350  1.00  0.00     0.065 C 
ATOM     20  C   UNL A   1      30.669  24.182  23.837  1.00  0.00     0.066 C 
ATOM     21  C   UNL A   1      31.368  21.685  25.385  1.00  0.00     0.149 C 
BRANCH  15  22
ATOM     22  C   UNL A   1      35.755  23.360  23.734  1.00  0.00     0.341 C 
ATOM     23  O   UNL A   1      36.328  23.033  22.708  1.00  0.00    -0.246 OA
BRANCH  22  24
ATOM     24  O   UNL A   1      36.376  23.954  24.799  1.00  0.00    -0.462 OA
BRANCH  24  25
ATOM     25  C   UNL A   1      37.488  23.240  25.368  1.00  0.00     0.230 C 
ATOM     26  C   UNL A   1      38.252  24.119  26.333  1.00  0.00     0.049 C 
ENDBRANCH  24  25
ENDBRANCH  22  24
ENDBRANCH  15  22
ENDBRANCH  11  14
ENDBRANCH   6  11
ENDBRANCH   1   5
BRANCH   3  27
ATOM     27  C   UNL A   1      34.233  29.681  27.298  1.00  0.00     0.117 C 
BRANCH  27  28
ATOM     28  C   UNL A   1      33.864  31.171  27.298  1.00  0.00     0.042 C 
BRANCH  28  29
ATOM     29  C   UNL A   1      34.950  32.058  27.877  1.00  0.00     0.118 C 
BRANCH  29  30
ATOM     30  N   UNL A   1      34.667  32.523  29.236  1.00  0.00    -0.352 N 
ATOM     31  C   UNL A   1      35.166  32.056  30.440  1.00  0.00     0.251 C 
ATOM     32  H   UNL A   1      34.032  33.273  29.303  1.00  0.00     0.163 HD
ATOM     33  O   UNL A   1      34.599  32.323  31.493  1.00  0.00    -0.269 OA
BRANCH  31  34
ATOM     34  C   UNL A   1      36.386  31.229  30.445  1.00  0.00     0.039 A 
ATOM     35  C   UNL A   1      36.344  29.830  30.410  1.00  0.00     0.014 A 
ATOM     36  C   UNL A   1      37.607  31.884  30.489  1.00  0.00     0.014 A 
ATOM     37  C   UNL A   1      37.546  29.123  30.375  1.00  0.00     0.010 A 
ATOM     38  C   UNL A   1      38.754  31.216  30.189  1.00  0.00     0.010 A 
ATOM     39  C   UNL A   1      38.749  29.835  30.265  1.00  0.00    -0.014 A 
BRANCH  39  40
ATOM     40  C   UNL A   1      40.045  29.180  30.193  1.00  0.00     0.031 A 
ATOM     41  C   UNL A   1      40.724  29.012  31.499  1.00  0.00     0.074 A 
ATOM     42  C   UNL A   1      40.457  28.534  29.078  1.00  0.00     0.049 A 
ATOM     43  N   UNL A   1      41.819  29.562  31.901  1.00  0.00    -0.248 NA
ATOM     44  C   UNL A   1      40.023  28.243  32.540  1.00  0.00     0.031 C 
ATOM     45  C   UNL A   1      39.723  28.310  27.822  1.00  0.00     0.029 A 
ATOM     46  N   UNL A   1      41.596  27.820  28.878  1.00  0.00    -0.354 N 
ATOM     47  C   UNL A   1      42.064  29.031  33.163  1.00  0.00     0.074 A 
ATOM     48  C   UNL A   1      40.838  28.409  33.582  1.00  0.00     0.031 C 
ATOM     49  C   UNL A   1      40.324  27.335  27.107  1.00  0.00     0.029 A 
ATOM     50  C   UNL A   1      41.575  26.999  27.756  1.00  0.00     0.049 A 
ATOM     51  H   UNL A   1      42.373  27.880  29.479  1.00  0.00     0.167 HD
ATOM     52  C   UNL A   1      43.337  28.909  33.634  1.00  0.00     0.037 A 
ATOM     53  C   UNL A   1      42.514  26.087  27.406  1.00  0.00     0.037 A 
ATOM     54  C   UNL A   1      44.248  29.734  32.874  1.00  0.00     0.049 A 
ATOM     55  C   UNL A   1      43.751  26.425  28.154  1.00  0.00     0.074 A 
ATOM     56  C   UNL A   1      44.327  31.083  32.582  1.00  0.00     0.029 A 
ATOM     57  N   UNL A   1      45.060  29.113  31.956  1.00  0.00    -0.354 N 
ATOM     58  N   UNL A   1      44.458  27.500  27.945  1.00  0.00    -0.248 NA
ATOM     59  C   UNL A   1      43.941  25.795  29.452  1.00  0.00     0.031 C 
ATOM     60  C   UNL A   1      44.765  31.142  31.225  1.00  0.00     0.029 A 
ATOM     61  C   UNL A   1      44.995  29.835  30.792  1.00  0.00     0.049 A 
ATOM     62  H   UNL A   1      45.593  28.298  32.107  1.00  0.00     0.167 HD
ATOM     63  C   UNL A   1      44.843  27.922  29.209  1.00  0.00     0.074 A 
ATOM     64  C   UNL A   1      44.577  26.783  30.086  1.00  0.00     0.031 C 
ATOM     65  C   UNL A   1      45.060  29.244  29.475  1.00  0.00     0.037 A 
BRANCH  52  66
ATOM     66  C   UNL A   1      43.820  27.759  34.492  1.00  0.00     0.057 A 
ATOM     67  C   UNL A   1      43.757  26.453  33.971  1.00  0.00     0.134 A 
ATOM     68  C   UNL A   1      44.058  27.831  35.881  1.00  0.00     0.134 A 
ATOM     69  F   UNL A   1      43.537  26.243  32.665  1.00  0.00    -0.206 F 
ATOM     70  C   UNL A   1      43.822  25.314  34.783  1.00  0.00     0.040 A 
ATOM     71  C   UNL A   1      44.180  26.699  36.691  1.00  0.00     0.040 A 
ATOM     72  F   UNL A   1      44.092  28.985  36.555  1.00  0.00    -0.206 F 
ATOM     73  C   UNL A   1      44.022  25.434  36.151  1.00  0.00     0.006 A 
ENDBRANCH  52  66
BRANCH  53  74
ATOM     74  C   UNL A   1      42.341  24.799  26.701  1.00  0.00     0.057 A 
ATOM     75  C   UNL A   1      43.000  24.541  25.492  1.00  0.00     0.134 A 
ATOM     76  C   UNL A   1      41.752  23.689  27.333  1.00  0.00     0.134 A 
ATOM     77  F   UNL A   1      43.625  25.529  24.834  1.00  0.00    -0.206 F 
ATOM     78  C   UNL A   1      43.095  23.250  24.955  1.00  0.00     0.040 A 
ATOM     79  C   UNL A   1      41.833  22.396  26.804  1.00  0.00     0.040 A 
ATOM     80  F   UNL A   1      41.159  23.808  28.530  1.00  0.00    -0.206 F 
ATOM     81  C   UNL A   1      42.521  22.170  25.619  1.00  0.00     0.006 A 
ENDBRANCH  53  74
BRANCH  65  82
ATOM     82  C   UNL A   1      45.125  30.196  28.308  1.00  0.00     0.057 A 
ATOM     83  C   UNL A   1      44.016  30.876  27.780  1.00  0.00     0.134 A 
ATOM     84  C   UNL A   1      46.379  30.548  27.798  1.00  0.00     0.134 A 
ATOM     85  F   UNL A   1      42.787  30.684  28.269  1.00  0.00    -0.206 F 
ATOM     86  C   UNL A   1      44.145  31.828  26.764  1.00  0.00     0.040 A 
ATOM     87  C   UNL A   1      46.525  31.523  26.807  1.00  0.00     0.040 A 
ATOM     88  F   UNL A   1      47.491  29.983  28.291  1.00  0.00    -0.206 F 
ATOM     89  C   UNL A   1      45.406  32.160  26.279  1.00  0.00     0.006 A 
ENDBRANCH  65  82
ENDBRANCH  39  40
ENDBRANCH  31  34
ENDBRANCH  29  30
ENDBRANCH  28  29
ENDBRANCH  27  28
ENDBRANCH   3  27
TORSDOF 15
ENDMDL
