MODEL 1
REMARK VINA RESULT:     -12.6      0.000      0.000
REMARK SMILES Cc1c(CC(=O)N[C@@H](CCO)C(=O)NCCCNC(=O)c2ccc(-c3c4nc(c(-c5c(F)cccc5F)c5ccc([nH]5)c(-c5c(F)cccc5F)c5nc(c(-c6c(F)cccc6F)c6ccc3[nH]6)C=C5)C=C4)cc2)cc(-c2ccc(S(C)(=O)=O)cc2)n1-c1ccc(F)cc1
REMARK SMILES IDX 12 1 13 2 14 3 8 5 7 6 5 7 6 8 4 10 3 11 1 12 2 13 87 14
REMARK SMILES IDX 75 15 76 16 88 17 89 18 94 19 90 20 93 21 91 22 92 23 77 24
REMARK SMILES IDX 78 25 86 26 79 27 85 28 80 29 81 30 82 31 83 32 84 33 9 34
REMARK SMILES IDX 10 35 11 36 15 38 16 39 17 40 18 41 19 42 20 44 21 45 22 46
REMARK SMILES IDX 74 47 23 48 73 49 24 50 25 51 26 52 67 53 27 54 72 55 66 56
REMARK SMILES IDX 68 57 28 58 71 59 65 60 64 61 29 63 55 64 38 65 54 66 39 67
REMARK SMILES IDX 42 68 53 69 69 70 40 71 41 72 52 74 70 75 43 76 30 77 31 78
REMARK SMILES IDX 36 79 32 80 33 81 35 82 37 83 34 84 56 85 57 86 62 87 58 88
REMARK SMILES IDX 59 89 61 90 63 91 60 92 44 93 45 94 50 95 46 96 47 97 49 98
REMARK SMILES IDX 51 99 48 100
REMARK H PARENT 14 4 7 9 11 37 18 43 68 62 42 73
REMARK Flexibility Score: inf
ROOT
ATOM      1  C   UNL A   1      31.544  28.983  23.308  1.00  0.00     0.242 C 
ATOM      2  O   UNL A   1      30.951  29.643  22.447  1.00  0.00    -0.273 OA
ATOM      3  N   UNL A   1      31.891  29.662  24.430  1.00  0.00    -0.354 N 
ATOM      4  H   UNL A   1      31.736  30.630  24.352  1.00  0.00     0.163 HD
ENDROOT
BRANCH   1   5
ATOM      5  C   UNL A   1      31.693  27.463  23.123  1.00  0.00     0.173 C 
BRANCH   5   6
ATOM      6  N   UNL A   1      30.426  26.742  23.059  1.00  0.00    -0.344 N 
ATOM      7  C   UNL A   1      29.857  25.968  24.037  1.00  0.00     0.225 C 
ATOM      8  O   UNL A   1      28.700  25.583  23.861  1.00  0.00    -0.275 OA
ATOM      9  H   UNL A   1      29.921  26.822  22.217  1.00  0.00     0.164 HD
BRANCH   7  10
ATOM     10  C   UNL A   1      30.633  25.604  25.307  1.00  0.00     0.137 C 
BRANCH  10  11
ATOM     11  C   UNL A   1      31.653  24.526  25.073  1.00  0.00    -0.017 A 
ATOM     12  C   UNL A   1      33.829  25.896  25.343  1.00  0.00     0.065 C 
ATOM     13  C   UNL A   1      33.034  24.644  25.151  1.00  0.00     0.024 A 
ATOM     14  N   UNL A   1      33.595  23.383  24.979  1.00  0.00    -0.314 N 
ATOM     15  C   UNL A   1      31.380  23.173  24.744  1.00  0.00     0.033 A 
ATOM     16  C   UNL A   1      32.569  22.464  24.751  1.00  0.00     0.053 A 
BRANCH  14  17
ATOM     17  C   UNL A   1      34.980  23.070  25.051  1.00  0.00     0.046 A 
ATOM     18  C   UNL A   1      35.661  23.217  26.267  1.00  0.00     0.029 A 
ATOM     19  C   UNL A   1      35.661  22.649  23.900  1.00  0.00     0.029 A 
ATOM     20  C   UNL A   1      37.023  22.929  26.332  1.00  0.00     0.041 A 
ATOM     21  C   UNL A   1      37.029  22.382  23.971  1.00  0.00     0.041 A 
ATOM     22  C   UNL A   1      37.695  22.519  25.185  1.00  0.00     0.123 A 
ATOM     23  F   UNL A   1      39.006  22.256  25.248  1.00  0.00    -0.207 F 
ENDBRANCH  14  17
BRANCH  16  24
ATOM     24  C   UNL A   1      32.727  21.002  24.702  1.00  0.00    -0.001 A 
ATOM     25  C   UNL A   1      33.090  20.282  25.852  1.00  0.00     0.011 A 
ATOM     26  C   UNL A   1      32.469  20.304  23.516  1.00  0.00     0.011 A 
ATOM     27  C   UNL A   1      33.223  18.891  25.812  1.00  0.00     0.021 A 
ATOM     28  C   UNL A   1      32.602  18.912  23.467  1.00  0.00     0.021 A 
ATOM     29  C   UNL A   1      32.989  18.214  24.613  1.00  0.00     0.067 A 
BRANCH  29  30
ATOM     30  S   UNL A   1      33.125  16.442  24.585  1.00  0.00     0.175 S 
ATOM     31  C   UNL A   1      34.665  16.110  25.402  1.00  0.00     0.163 C 
ATOM     32  O   UNL A   1      32.056  15.918  25.387  1.00  0.00    -0.224 OA
ATOM     33  O   UNL A   1      33.287  16.040  23.187  1.00  0.00    -0.224 OA
ENDBRANCH  29  30
ENDBRANCH  16  24
ENDBRANCH  10  11
ENDBRANCH   7  10
ENDBRANCH   5   6
BRANCH   5  34
ATOM     34  C   UNL A   1      32.722  27.026  22.064  1.00  0.00     0.063 C 
BRANCH  34  35
ATOM     35  C   UNL A   1      32.509  25.708  21.337  1.00  0.00     0.158 C 
BRANCH  35  36
ATOM     36  O   UNL A   1      31.803  25.834  20.113  1.00  0.00    -0.396 OA
ATOM     37  H   UNL A   1      32.435  25.911  19.382  1.00  0.00     0.210 HD
ENDBRANCH  35  36
ENDBRANCH  34  35
ENDBRANCH   5  34
ENDBRANCH   1   5
BRANCH   3  38
ATOM     38  C   UNL A   1      32.439  29.282  25.723  1.00  0.00     0.117 C 
BRANCH  38  39
ATOM     39  C   UNL A   1      33.949  29.029  25.716  1.00  0.00     0.042 C 
BRANCH  39  40
ATOM     40  C   UNL A   1      34.653  29.060  27.077  1.00  0.00     0.118 C 
BRANCH  40  41
ATOM     41  N   UNL A   1      34.300  30.189  27.911  1.00  0.00    -0.352 N 
ATOM     42  C   UNL A   1      35.159  30.948  28.683  1.00  0.00     0.251 C 
ATOM     43  H   UNL A   1      33.348  30.441  27.931  1.00  0.00     0.163 HD
ATOM     44  O   UNL A   1      34.728  31.942  29.261  1.00  0.00    -0.269 OA
BRANCH  42  45
ATOM     45  C   UNL A   1      36.581  30.521  28.878  1.00  0.00     0.039 A 
ATOM     46  C   UNL A   1      37.344  30.249  27.750  1.00  0.00     0.014 A 
ATOM     47  C   UNL A   1      37.140  30.236  30.134  1.00  0.00     0.014 A 
ATOM     48  C   UNL A   1      38.649  29.719  27.883  1.00  0.00     0.010 A 
ATOM     49  C   UNL A   1      38.437  29.625  30.260  1.00  0.00     0.010 A 
ATOM     50  C   UNL A   1      39.226  29.319  29.134  1.00  0.00    -0.014 A 
BRANCH  50  51
ATOM     51  C   UNL A   1      40.209  28.102  29.052  1.00  0.00     0.031 A 
ATOM     52  C   UNL A   1      41.251  28.447  30.066  1.00  0.00     0.074 A 
ATOM     53  C   UNL A   1      40.428  26.953  28.316  1.00  0.00     0.049 A 
ATOM     54  N   UNL A   1      41.922  29.563  29.976  1.00  0.00    -0.248 NA
ATOM     55  C   UNL A   1      41.290  27.811  31.384  1.00  0.00     0.031 C 
ATOM     56  C   UNL A   1      39.701  26.492  27.125  1.00  0.00     0.029 A 
ATOM     57  N   UNL A   1      41.369  25.899  28.462  1.00  0.00    -0.354 N 
ATOM     58  C   UNL A   1      42.707  29.617  31.099  1.00  0.00     0.074 A 
ATOM     59  C   UNL A   1      42.086  28.675  32.020  1.00  0.00     0.031 C 
ATOM     60  C   UNL A   1      40.111  25.249  26.741  1.00  0.00     0.029 A 
ATOM     61  C   UNL A   1      41.188  24.766  27.601  1.00  0.00     0.049 A 
ATOM     62  H   UNL A   1      42.102  25.944  29.117  1.00  0.00     0.167 HD
ATOM     63  C   UNL A   1      44.041  29.812  30.893  1.00  0.00     0.037 A 
ATOM     64  C   UNL A   1      41.876  23.563  27.537  1.00  0.00     0.037 A 
ATOM     65  C   UNL A   1      44.795  28.597  31.035  1.00  0.00     0.049 A 
ATOM     66  C   UNL A   1      43.169  23.780  28.192  1.00  0.00     0.074 A 
ATOM     67  C   UNL A   1      44.784  27.572  31.961  1.00  0.00     0.029 A 
ATOM     68  N   UNL A   1      45.364  28.087  29.888  1.00  0.00    -0.354 N 
ATOM     69  N   UNL A   1      44.155  24.363  27.583  1.00  0.00    -0.248 NA
ATOM     70  C   UNL A   1      43.454  23.275  29.530  1.00  0.00     0.031 C 
ATOM     71  C   UNL A   1      44.845  26.390  31.188  1.00  0.00     0.029 A 
ATOM     72  C   UNL A   1      45.245  26.715  29.899  1.00  0.00     0.049 A 
ATOM     73  H   UNL A   1      45.788  28.618  29.176  1.00  0.00     0.167 HD
ATOM     74  C   UNL A   1      44.968  24.727  28.606  1.00  0.00     0.074 A 
ATOM     75  C   UNL A   1      44.659  23.823  29.696  1.00  0.00     0.031 C 
ATOM     76  C   UNL A   1      45.345  26.025  28.641  1.00  0.00     0.037 A 
BRANCH  63  77
ATOM     77  C   UNL A   1      44.387  30.895  29.914  1.00  0.00     0.057 A 
ATOM     78  C   UNL A   1      44.907  32.098  30.394  1.00  0.00     0.134 A 
ATOM     79  C   UNL A   1      44.149  30.810  28.529  1.00  0.00     0.134 A 
ATOM     80  F   UNL A   1      45.228  32.228  31.690  1.00  0.00    -0.206 F 
ATOM     81  C   UNL A   1      45.113  33.192  29.550  1.00  0.00     0.040 A 
ATOM     82  C   UNL A   1      44.296  31.912  27.688  1.00  0.00     0.040 A 
ATOM     83  F   UNL A   1      43.799  29.648  27.955  1.00  0.00    -0.206 F 
ATOM     84  C   UNL A   1      44.772  33.112  28.200  1.00  0.00     0.006 A 
ENDBRANCH  63  77
BRANCH  64  85
ATOM     85  C   UNL A   1      41.844  22.154  26.925  1.00  0.00     0.057 A 
ATOM     86  C   UNL A   1      42.636  21.832  25.773  1.00  0.00     0.134 A 
ATOM     87  C   UNL A   1      41.395  21.029  27.620  1.00  0.00     0.134 A 
ATOM     88  F   UNL A   1      43.110  22.782  24.954  1.00  0.00    -0.206 F 
ATOM     89  C   UNL A   1      43.052  20.535  25.427  1.00  0.00     0.040 A 
ATOM     90  C   UNL A   1      41.775  19.709  27.256  1.00  0.00     0.040 A 
ATOM     91  F   UNL A   1      40.648  21.168  28.722  1.00  0.00    -0.206 F 
ATOM     92  C   UNL A   1      42.636  19.462  26.186  1.00  0.00     0.006 A 
ENDBRANCH  64  85
BRANCH  76  93
ATOM     93  C   UNL A   1      45.653  26.683  27.312  1.00  0.00     0.057 A 
ATOM     94  C   UNL A   1      44.724  27.141  26.355  1.00  0.00     0.134 A 
ATOM     95  C   UNL A   1      47.003  26.808  26.961  1.00  0.00     0.134 A 
ATOM     96  F   UNL A   1      43.406  27.174  26.598  1.00  0.00    -0.206 F 
ATOM     97  C   UNL A   1      45.122  27.616  25.098  1.00  0.00     0.040 A 
ATOM     98  C   UNL A   1      47.414  27.327  25.731  1.00  0.00     0.040 A 
ATOM     99  F   UNL A   1      47.958  26.435  27.827  1.00  0.00    -0.206 F 
ATOM    100  C   UNL A   1      46.472  27.712  24.784  1.00  0.00     0.006 A 
ENDBRANCH  76  93
ENDBRANCH  50  51
ENDBRANCH  42  45
ENDBRANCH  40  41
ENDBRANCH  39  40
ENDBRANCH  38  39
ENDBRANCH   3  38
TORSDOF 19
ENDMDL
MODEL 2
REMARK VINA RESULT:     -12.4      1.866      2.632
REMARK SMILES Cc1c(CC(=O)N[C@@H](CCO)C(=O)NCCCNC(=O)c2ccc(-c3c4nc(c(-c5c(F)cccc5F)c5ccc([nH]5)c(-c5c(F)cccc5F)c5nc(c(-c6c(F)cccc6F)c6ccc3[nH]6)C=C5)C=C4)cc2)cc(-c2ccc(S(C)(=O)=O)cc2)n1-c1ccc(F)cc1
REMARK SMILES IDX 12 1 13 2 14 3 8 5 7 6 5 7 6 8 4 10 3 11 1 12 2 13 87 14
REMARK SMILES IDX 75 15 76 16 88 17 89 18 94 19 90 20 93 21 91 22 92 23 77 24
REMARK SMILES IDX 78 25 86 26 79 27 85 28 80 29 81 30 82 31 83 32 84 33 9 34
REMARK SMILES IDX 10 35 11 36 15 38 16 39 17 40 18 41 19 42 20 44 21 45 22 46
REMARK SMILES IDX 74 47 23 48 73 49 24 50 25 51 26 52 67 53 27 54 72 55 66 56
REMARK SMILES IDX 68 57 28 58 71 59 65 60 64 61 29 63 55 64 38 65 54 66 39 67
REMARK SMILES IDX 42 68 53 69 69 70 40 71 41 72 52 74 70 75 43 76 30 77 31 78
REMARK SMILES IDX 36 79 32 80 33 81 35 82 37 83 34 84 56 85 57 86 62 87 58 88
REMARK SMILES IDX 59 89 61 90 63 91 60 92 44 93 45 94 50 95 46 96 47 97 49 98
REMARK SMILES IDX 51 99 48 100
REMARK H PARENT 14 4 7 9 11 37 18 43 68 62 42 73
REMARK Flexibility Score: inf
ROOT
ATOM      1  C   UNL A   1      31.052  29.485  24.094  1.00  0.00     0.242 C 
ATOM      2  O   UNL A   1      30.051  30.101  23.709  1.00  0.00    -0.273 OA
ATOM      3  N   UNL A   1      31.787  30.102  25.054  1.00  0.00    -0.354 N 
ATOM      4  H   UNL A   1      31.492  31.025  25.223  1.00  0.00     0.163 HD
ENDROOT
BRANCH   1   5
ATOM      5  C   UNL A   1      31.290  28.048  23.598  1.00  0.00     0.173 C 
BRANCH   5   6
ATOM      6  N   UNL A   1      30.068  27.278  23.392  1.00  0.00    -0.344 N 
ATOM      7  C   UNL A   1      29.503  26.368  24.249  1.00  0.00     0.225 C 
ATOM      8  O   UNL A   1      28.377  25.948  23.976  1.00  0.00    -0.275 OA
ATOM      9  H   UNL A   1      29.595  27.429  22.542  1.00  0.00     0.164 HD
BRANCH   7  10
ATOM     10  C   UNL A   1      30.244  25.899  25.505  1.00  0.00     0.137 C 
BRANCH  10  11
ATOM     11  C   UNL A   1      31.293  24.866  25.207  1.00  0.00    -0.017 A 
ATOM     12  C   UNL A   1      33.431  26.282  25.532  1.00  0.00     0.065 C 
ATOM     13  C   UNL A   1      32.670  25.019  25.279  1.00  0.00     0.024 A 
ATOM     14  N   UNL A   1      33.266  23.785  25.037  1.00  0.00    -0.314 N 
ATOM     15  C   UNL A   1      31.055  23.524  24.807  1.00  0.00     0.033 A 
ATOM     16  C   UNL A   1      32.264  22.850  24.768  1.00  0.00     0.053 A 
BRANCH  14  17
ATOM     17  C   UNL A   1      34.660  23.510  25.081  1.00  0.00     0.046 A 
ATOM     18  C   UNL A   1      35.395  23.467  23.890  1.00  0.00     0.029 A 
ATOM     19  C   UNL A   1      35.281  23.253  26.313  1.00  0.00     0.029 A 
ATOM     20  C   UNL A   1      36.758  23.178  23.933  1.00  0.00     0.041 A 
ATOM     21  C   UNL A   1      36.641  22.946  26.343  1.00  0.00     0.041 A 
ATOM     22  C   UNL A   1      37.367  22.916  25.156  1.00  0.00     0.123 A 
ATOM     23  F   UNL A   1      38.674  22.625  25.193  1.00  0.00    -0.207 F 
ENDBRANCH  14  17
BRANCH  16  24
ATOM     24  C   UNL A   1      32.463  21.399  24.640  1.00  0.00    -0.001 A 
ATOM     25  C   UNL A   1      32.369  20.771  23.387  1.00  0.00     0.011 A 
ATOM     26  C   UNL A   1      32.800  20.631  25.762  1.00  0.00     0.011 A 
ATOM     27  C   UNL A   1      32.577  19.394  23.260  1.00  0.00     0.021 A 
ATOM     28  C   UNL A   1      33.008  19.252  25.643  1.00  0.00     0.021 A 
ATOM     29  C   UNL A   1      32.884  18.640  24.394  1.00  0.00     0.067 A 
BRANCH  29  30
ATOM     30  S   UNL A   1      33.182  16.896  24.213  1.00  0.00     0.175 S 
ATOM     31  C   UNL A   1      34.820  16.664  24.855  1.00  0.00     0.163 C 
ATOM     32  O   UNL A   1      32.252  16.213  25.068  1.00  0.00    -0.224 OA
ATOM     33  O   UNL A   1      33.239  16.612  22.778  1.00  0.00    -0.224 OA
ENDBRANCH  29  30
ENDBRANCH  16  24
ENDBRANCH  10  11
ENDBRANCH   7  10
ENDBRANCH   5   6
BRANCH   5  34
ATOM     34  C   UNL A   1      32.324  27.905  22.466  1.00  0.00     0.063 C 
BRANCH  34  35
ATOM     35  C   UNL A   1      32.536  26.537  21.837  1.00  0.00     0.158 C 
BRANCH  35  36
ATOM     36  O   UNL A   1      33.878  26.080  21.892  1.00  0.00    -0.396 OA
ATOM     37  H   UNL A   1      34.371  26.434  21.136  1.00  0.00     0.210 HD
ENDBRANCH  35  36
ENDBRANCH  34  35
ENDBRANCH   5  34
ENDBRANCH   1   5
BRANCH   3  38
ATOM     38  C   UNL A   1      32.911  29.707  25.888  1.00  0.00     0.117 C 
BRANCH  38  39
ATOM     39  C   UNL A   1      32.966  30.415  27.244  1.00  0.00     0.042 C 
BRANCH  39  40
ATOM     40  C   UNL A   1      34.097  31.433  27.438  1.00  0.00     0.118 C 
BRANCH  40  41
ATOM     41  N   UNL A   1      33.710  32.633  28.148  1.00  0.00    -0.352 N 
ATOM     42  C   UNL A   1      34.467  33.330  29.070  1.00  0.00     0.251 C 
ATOM     43  H   UNL A   1      32.813  32.990  27.954  1.00  0.00     0.163 HD
ATOM     44  O   UNL A   1      34.044  34.392  29.516  1.00  0.00    -0.269 OA
BRANCH  42  45
ATOM     45  C   UNL A   1      35.755  32.758  29.580  1.00  0.00     0.039 A 
ATOM     46  C   UNL A   1      36.924  33.062  28.895  1.00  0.00     0.014 A 
ATOM     47  C   UNL A   1      35.827  31.816  30.618  1.00  0.00     0.014 A 
ATOM     48  C   UNL A   1      38.144  32.444  29.259  1.00  0.00     0.010 A 
ATOM     49  C   UNL A   1      37.054  31.133  30.932  1.00  0.00     0.010 A 
ATOM     50  C   UNL A   1      38.252  31.405  30.241  1.00  0.00    -0.014 A 
BRANCH  50  51
ATOM     51  C   UNL A   1      39.368  30.342  29.962  1.00  0.00     0.031 A 
ATOM     52  C   UNL A   1      40.255  30.468  31.158  1.00  0.00     0.074 A 
ATOM     53  C   UNL A   1      39.789  29.467  28.978  1.00  0.00     0.049 A 
ATOM     54  N   UNL A   1      40.803  31.614  31.461  1.00  0.00    -0.248 NA
ATOM     55  C   UNL A   1      40.229  29.492  32.249  1.00  0.00     0.031 C 
ATOM     56  C   UNL A   1      39.244  29.305  27.623  1.00  0.00     0.029 A 
ATOM     57  N   UNL A   1      40.822  28.493  28.955  1.00  0.00    -0.354 N 
ATOM     58  C   UNL A   1      41.457  31.411  32.649  1.00  0.00     0.074 A 
ATOM     59  C   UNL A   1      40.854  30.202  33.193  1.00  0.00     0.031 C 
ATOM     60  C   UNL A   1      39.828  28.256  26.974  1.00  0.00     0.029 A 
ATOM     61  C   UNL A   1      40.858  27.638  27.804  1.00  0.00     0.049 A 
ATOM     62  H   UNL A   1      41.474  28.409  29.687  1.00  0.00     0.167 HD
ATOM     63  C   UNL A   1      42.776  31.760  32.678  1.00  0.00     0.037 A 
ATOM     64  C   UNL A   1      41.679  26.559  27.507  1.00  0.00     0.037 A 
ATOM     65  C   UNL A   1      43.642  30.618  32.584  1.00  0.00     0.049 A 
ATOM     66  C   UNL A   1      42.865  26.684  28.359  1.00  0.00     0.074 A 
ATOM     67  C   UNL A   1      43.650  29.377  33.188  1.00  0.00     0.029 A 
ATOM     68  N   UNL A   1      44.379  30.497  31.426  1.00  0.00    -0.354 N 
ATOM     69  N   UNL A   1      43.837  27.490  28.063  1.00  0.00    -0.248 NA
ATOM     70  C   UNL A   1      43.066  25.846  29.536  1.00  0.00     0.031 C 
ATOM     71  C   UNL A   1      43.921  28.468  32.139  1.00  0.00     0.029 A 
ATOM     72  C   UNL A   1      44.413  29.173  31.050  1.00  0.00     0.049 A 
ATOM     73  H   UNL A   1      44.812  31.239  30.945  1.00  0.00     0.167 HD
ATOM     74  C   UNL A   1      44.495  27.614  29.244  1.00  0.00     0.074 A 
ATOM     75  C   UNL A   1      44.178  26.418  29.998  1.00  0.00     0.031 C 
ATOM     76  C   UNL A   1      44.719  28.875  29.676  1.00  0.00     0.037 A 
BRANCH  63  77
ATOM     77  C   UNL A   1      43.097  33.098  32.082  1.00  0.00     0.057 A 
ATOM     78  C   UNL A   1      43.430  34.154  32.932  1.00  0.00     0.134 A 
ATOM     79  C   UNL A   1      43.011  33.389  30.707  1.00  0.00     0.134 A 
ATOM     80  F   UNL A   1      43.602  33.938  34.245  1.00  0.00    -0.206 F 
ATOM     81  C   UNL A   1      43.599  35.455  32.450  1.00  0.00     0.040 A 
ATOM     82  C   UNL A   1      43.120  34.692  30.221  1.00  0.00     0.040 A 
ATOM     83  F   UNL A   1      42.852  32.413  29.800  1.00  0.00    -0.206 F 
ATOM     84  C   UNL A   1      43.407  35.732  31.096  1.00  0.00     0.006 A 
ENDBRANCH  63  77
BRANCH  64  85
ATOM     85  C   UNL A   1      41.868  25.381  26.538  1.00  0.00     0.057 A 
ATOM     86  C   UNL A   1      42.780  25.473  25.435  1.00  0.00     0.134 A 
ATOM     87  C   UNL A   1      41.508  24.068  26.852  1.00  0.00     0.134 A 
ATOM     88  F   UNL A   1      43.196  26.655  24.958  1.00  0.00    -0.206 F 
ATOM     89  C   UNL A   1      43.377  24.371  24.800  1.00  0.00     0.040 A 
ATOM     90  C   UNL A   1      42.074  22.947  26.189  1.00  0.00     0.040 A 
ATOM     91  F   UNL A   1      40.665  23.821  27.863  1.00  0.00    -0.206 F 
ATOM     92  C   UNL A   1      43.039  23.093  25.192  1.00  0.00     0.006 A 
ENDBRANCH  64  85
BRANCH  76  93
ATOM     93  C   UNL A   1      45.086  29.903  28.626  1.00  0.00     0.057 A 
ATOM     94  C   UNL A   1      44.213  30.550  27.727  1.00  0.00     0.134 A 
ATOM     95  C   UNL A   1      46.445  30.214  28.488  1.00  0.00     0.134 A 
ATOM     96  F   UNL A   1      42.881  30.422  27.810  1.00  0.00    -0.206 F 
ATOM     97  C   UNL A   1      44.682  31.388  26.706  1.00  0.00     0.040 A 
ATOM     98  C   UNL A   1      46.919  31.089  27.507  1.00  0.00     0.040 A 
ATOM     99  F   UNL A   1      47.345  29.677  29.327  1.00  0.00    -0.206 F 
ATOM    100  C   UNL A   1      46.039  31.660  26.595  1.00  0.00     0.006 A 
ENDBRANCH  76  93
ENDBRANCH  50  51
ENDBRANCH  42  45
ENDBRANCH  40  41
ENDBRANCH  39  40
ENDBRANCH  38  39
ENDBRANCH   3  38
TORSDOF 19
ENDMDL
MODEL 3
REMARK VINA RESULT:     -11.3      2.649      3.950
REMARK SMILES Cc1c(CC(=O)N[C@@H](CCO)C(=O)NCCCNC(=O)c2ccc(-c3c4nc(c(-c5c(F)cccc5F)c5ccc([nH]5)c(-c5c(F)cccc5F)c5nc(c(-c6c(F)cccc6F)c6ccc3[nH]6)C=C5)C=C4)cc2)cc(-c2ccc(S(C)(=O)=O)cc2)n1-c1ccc(F)cc1
REMARK SMILES IDX 12 1 13 2 14 3 8 5 7 6 5 7 6 8 4 10 3 11 1 12 2 13 87 14
REMARK SMILES IDX 75 15 76 16 88 17 89 18 94 19 90 20 93 21 91 22 92 23 77 24
REMARK SMILES IDX 78 25 86 26 79 27 85 28 80 29 81 30 82 31 83 32 84 33 9 34
REMARK SMILES IDX 10 35 11 36 15 38 16 39 17 40 18 41 19 42 20 44 21 45 22 46
REMARK SMILES IDX 74 47 23 48 73 49 24 50 25 51 26 52 67 53 27 54 72 55 66 56
REMARK SMILES IDX 68 57 28 58 71 59 65 60 64 61 29 63 55 64 38 65 54 66 39 67
REMARK SMILES IDX 42 68 53 69 69 70 40 71 41 72 52 74 70 75 43 76 30 77 31 78
REMARK SMILES IDX 36 79 32 80 33 81 35 82 37 83 34 84 56 85 57 86 62 87 58 88
REMARK SMILES IDX 59 89 61 90 63 91 60 92 44 93 45 94 50 95 46 96 47 97 49 98
REMARK SMILES IDX 51 99 48 100
REMARK H PARENT 14 4 7 9 11 37 18 43 68 62 42 73
REMARK Flexibility Score: inf
ROOT
ATOM      1  C   UNL A   1      32.695  28.129  26.004  1.00  0.00     0.242 C 
ATOM      2  O   UNL A   1      32.387  26.960  26.265  1.00  0.00    -0.273 OA
ATOM      3  N   UNL A   1      33.500  28.738  26.911  1.00  0.00    -0.354 N 
ATOM      4  H   UNL A   1      33.626  28.205  27.727  1.00  0.00     0.163 HD
ENDROOT
BRANCH   1   5
ATOM      5  C   UNL A   1      32.298  28.728  24.644  1.00  0.00     0.173 C 
BRANCH   5   6
ATOM      6  N   UNL A   1      33.360  28.696  23.644  1.00  0.00    -0.344 N 
ATOM      7  C   UNL A   1      33.521  27.788  22.630  1.00  0.00     0.225 C 
ATOM      8  O   UNL A   1      34.381  28.026  21.779  1.00  0.00    -0.275 OA
ATOM      9  H   UNL A   1      34.037  29.409  23.704  1.00  0.00     0.164 HD
BRANCH   7  10
ATOM     10  C   UNL A   1      32.655  26.526  22.553  1.00  0.00     0.137 C 
BRANCH  10  11
ATOM     11  C   UNL A   1      33.217  25.389  23.360  1.00  0.00    -0.017 A 
ATOM     12  C   UNL A   1      31.193  23.780  23.345  1.00  0.00     0.065 C 
ATOM     13  C   UNL A   1      32.603  24.178  23.648  1.00  0.00     0.024 A 
ATOM     14  N   UNL A   1      33.515  23.369  24.318  1.00  0.00    -0.314 N 
ATOM     15  C   UNL A   1      34.501  25.347  23.965  1.00  0.00     0.033 A 
ATOM     16  C   UNL A   1      34.702  24.083  24.494  1.00  0.00     0.053 A 
BRANCH  14  17
ATOM     17  C   UNL A   1      33.291  22.028  24.732  1.00  0.00     0.046 A 
ATOM     18  C   UNL A   1      33.246  21.724  26.100  1.00  0.00     0.029 A 
ATOM     19  C   UNL A   1      33.148  21.016  23.772  1.00  0.00     0.029 A 
ATOM     20  C   UNL A   1      33.046  20.405  26.504  1.00  0.00     0.041 A 
ATOM     21  C   UNL A   1      32.968  19.696  24.188  1.00  0.00     0.041 A 
ATOM     22  C   UNL A   1      32.913  19.404  25.547  1.00  0.00     0.123 A 
ATOM     23  F   UNL A   1      32.735  18.137  25.940  1.00  0.00    -0.207 F 
ENDBRANCH  14  17
BRANCH  16  24
ATOM     24  C   UNL A   1      35.967  23.526  24.995  1.00  0.00    -0.001 A 
ATOM     25  C   UNL A   1      36.605  22.474  24.317  1.00  0.00     0.011 A 
ATOM     26  C   UNL A   1      36.580  24.073  26.129  1.00  0.00     0.011 A 
ATOM     27  C   UNL A   1      37.817  21.954  24.780  1.00  0.00     0.021 A 
ATOM     28  C   UNL A   1      37.792  23.558  26.600  1.00  0.00     0.021 A 
ATOM     29  C   UNL A   1      38.398  22.493  25.929  1.00  0.00     0.067 A 
BRANCH  29  30
ATOM     30  S   UNL A   1      39.959  21.849  26.487  1.00  0.00     0.175 S 
ATOM     31  C   UNL A   1      40.529  23.046  27.666  1.00  0.00     0.163 C 
ATOM     32  O   UNL A   1      39.691  20.617  27.175  1.00  0.00    -0.224 OA
ATOM     33  O   UNL A   1      40.879  21.894  25.350  1.00  0.00    -0.224 OA
ENDBRANCH  29  30
ENDBRANCH  16  24
ENDBRANCH  10  11
ENDBRANCH   7  10
ENDBRANCH   5   6
BRANCH   5  34
ATOM     34  C   UNL A   1      30.917  28.298  24.113  1.00  0.00     0.063 C 
BRANCH  34  35
ATOM     35  C   UNL A   1      30.059  29.325  23.391  1.00  0.00     0.158 C 
BRANCH  35  36
ATOM     36  O   UNL A   1      30.731  30.000  22.340  1.00  0.00    -0.396 OA
ATOM     37  H   UNL A   1      30.967  30.894  22.630  1.00  0.00     0.210 HD
ENDBRANCH  35  36
ENDBRANCH  34  35
ENDBRANCH   5  34
ENDBRANCH   1   5
BRANCH   3  38
ATOM     38  C   UNL A   1      34.220  30.002  26.947  1.00  0.00     0.117 C 
BRANCH  38  39
ATOM     39  C   UNL A   1      33.451  31.144  27.617  1.00  0.00     0.042 C 
BRANCH  39  40
ATOM     40  C   UNL A   1      34.291  32.297  28.177  1.00  0.00     0.118 C 
BRANCH  40  41
ATOM     41  N   UNL A   1      34.484  32.259  29.611  1.00  0.00    -0.352 N 
ATOM     42  C   UNL A   1      35.520  31.646  30.291  1.00  0.00     0.251 C 
ATOM     43  H   UNL A   1      33.806  32.718  30.160  1.00  0.00     0.163 HD
ATOM     44  O   UNL A   1      35.606  31.785  31.507  1.00  0.00    -0.269 OA
BRANCH  42  45
ATOM     45  C   UNL A   1      36.482  30.757  29.564  1.00  0.00     0.039 A 
ATOM     46  C   UNL A   1      36.587  29.434  29.972  1.00  0.00     0.014 A 
ATOM     47  C   UNL A   1      37.386  31.221  28.597  1.00  0.00     0.014 A 
ATOM     48  C   UNL A   1      37.572  28.590  29.405  1.00  0.00     0.010 A 
ATOM     49  C   UNL A   1      38.434  30.381  28.081  1.00  0.00     0.010 A 
ATOM     50  C   UNL A   1      38.580  29.040  28.490  1.00  0.00    -0.014 A 
BRANCH  50  51
ATOM     51  C   UNL A   1      39.955  28.298  28.600  1.00  0.00     0.031 A 
ATOM     52  C   UNL A   1      40.420  28.659  29.974  1.00  0.00     0.074 A 
ATOM     53  C   UNL A   1      40.832  27.554  27.834  1.00  0.00     0.049 A 
ATOM     54  N   UNL A   1      40.564  29.910  30.319  1.00  0.00    -0.248 NA
ATOM     55  C   UNL A   1      40.335  27.718  31.093  1.00  0.00     0.031 C 
ATOM     56  C   UNL A   1      40.738  27.244  26.400  1.00  0.00     0.029 A 
ATOM     57  N   UNL A   1      42.038  26.878  28.160  1.00  0.00    -0.354 N 
ATOM     58  C   UNL A   1      40.895  29.893  31.649  1.00  0.00     0.074 A 
ATOM     59  C   UNL A   1      40.482  28.574  32.109  1.00  0.00     0.031 C 
ATOM     60  C   UNL A   1      41.716  26.376  26.013  1.00  0.00     0.029 A 
ATOM     61  C   UNL A   1      42.598  26.052  27.131  1.00  0.00     0.049 A 
ATOM     62  H   UNL A   1      42.463  26.971  29.043  1.00  0.00     0.167 HD
ATOM     63  C   UNL A   1      42.027  30.571  31.997  1.00  0.00     0.037 A 
ATOM     64  C   UNL A   1      43.708  25.218  27.147  1.00  0.00     0.037 A 
ATOM     65  C   UNL A   1      43.139  29.690  32.225  1.00  0.00     0.049 A 
ATOM     66  C   UNL A   1      44.546  25.653  28.269  1.00  0.00     0.074 A 
ATOM     67  C   UNL A   1      43.285  28.498  32.906  1.00  0.00     0.029 A 
ATOM     68  N   UNL A   1      44.172  29.754  31.315  1.00  0.00    -0.354 N 
ATOM     69  N   UNL A   1      45.332  26.680  28.177  1.00  0.00    -0.248 NA
ATOM     70  C   UNL A   1      44.614  24.905  29.519  1.00  0.00     0.031 C 
ATOM     71  C   UNL A   1      44.049  27.681  32.041  1.00  0.00     0.029 A 
ATOM     72  C   UNL A   1      44.633  28.480  31.068  1.00  0.00     0.049 A 
ATOM     73  H   UNL A   1      44.524  30.578  30.909  1.00  0.00     0.167 HD
ATOM     74  C   UNL A   1      45.588  26.979  29.475  1.00  0.00     0.074 A 
ATOM     75  C   UNL A   1      45.380  25.749  30.212  1.00  0.00     0.031 C 
ATOM     76  C   UNL A   1      45.368  28.260  29.851  1.00  0.00     0.037 A 
BRANCH  63  77
ATOM     77  C   UNL A   1      42.160  31.942  31.403  1.00  0.00     0.057 A 
ATOM     78  C   UNL A   1      41.945  33.055  32.217  1.00  0.00     0.134 A 
ATOM     79  C   UNL A   1      42.418  32.188  30.041  1.00  0.00     0.134 A 
ATOM     80  F   UNL A   1      41.766  32.903  33.539  1.00  0.00    -0.206 F 
ATOM     81  C   UNL A   1      41.914  34.349  31.692  1.00  0.00     0.040 A 
ATOM     82  C   UNL A   1      42.332  33.468  29.495  1.00  0.00     0.040 A 
ATOM     83  F   UNL A   1      42.790  31.198  29.215  1.00  0.00    -0.206 F 
ATOM     84  C   UNL A   1      42.070  34.554  30.321  1.00  0.00     0.006 A 
ENDBRANCH  63  77
BRANCH  64  85
ATOM     85  C   UNL A   1      44.440  24.121  26.358  1.00  0.00     0.057 A 
ATOM     86  C   UNL A   1      44.137  22.735  26.569  1.00  0.00     0.134 A 
ATOM     87  C   UNL A   1      45.120  24.365  25.163  1.00  0.00     0.134 A 
ATOM     88  F   UNL A   1      43.534  22.306  27.686  1.00  0.00    -0.206 F 
ATOM     89  C   UNL A   1      44.365  21.717  25.628  1.00  0.00     0.040 A 
ATOM     90  C   UNL A   1      45.392  23.336  24.222  1.00  0.00     0.040 A 
ATOM     91  F   UNL A   1      45.467  25.612  24.824  1.00  0.00    -0.206 F 
ATOM     92  C   UNL A   1      44.980  22.020  24.432  1.00  0.00     0.006 A 
ENDBRANCH  64  85
BRANCH  76  93
ATOM     93  C   UNL A   1      45.745  29.339  28.857  1.00  0.00     0.057 A 
ATOM     94  C   UNL A   1      45.022  29.730  27.712  1.00  0.00     0.134 A 
ATOM     95  C   UNL A   1      46.969  29.989  29.058  1.00  0.00     0.134 A 
ATOM     96  F   UNL A   1      43.793  29.263  27.450  1.00  0.00    -0.206 F 
ATOM     97  C   UNL A   1      45.532  30.652  26.787  1.00  0.00     0.040 A 
ATOM     98  C   UNL A   1      47.465  30.947  28.171  1.00  0.00     0.040 A 
ATOM     99  F   UNL A   1      47.707  29.710  30.144  1.00  0.00    -0.206 F 
ATOM    100  C   UNL A   1      46.757  31.265  27.017  1.00  0.00     0.006 A 
ENDBRANCH  76  93
ENDBRANCH  50  51
ENDBRANCH  42  45
ENDBRANCH  40  41
ENDBRANCH  39  40
ENDBRANCH  38  39
ENDBRANCH   3  38
TORSDOF 19
ENDMDL
