MODEL 1
REMARK VINA RESULT:     -11.1      0.000      0.000
REMARK SMILES C[N@@H+]1CCC[C@@H](NC(=O)N(CC(=O)NCCCNC(=O)c2ccc(-c3c4nc(c(-c5c(F)cccc5F)c5ccc([nH]5)c(-c5c(F)cccc5F)c5nc(c(-c6c(F)cccc6F)c6ccc3[nH]6)C=C5)C=C4)cc2)C(C)(C)C)C1
REMARK SMILES IDX 15 1 14 2 12 3 13 4 11 6 10 7 8 8 7 9 9 11 6 12 1 13 2 14
REMARK SMILES IDX 3 15 79 16 4 18 5 19 75 20 76 21 77 22 78 23 16 24 17 25
REMARK SMILES IDX 18 26 19 27 20 29 21 30 22 31 74 32 23 33 73 34 24 35 25 36
REMARK SMILES IDX 26 37 67 38 27 39 72 40 66 41 68 42 28 43 71 44 65 45 64 46
REMARK SMILES IDX 29 48 55 49 38 50 54 51 39 52 42 53 53 54 69 55 40 56 41 57
REMARK SMILES IDX 52 59 70 60 43 61 30 62 31 63 36 64 32 65 33 66 35 67 37 68
REMARK SMILES IDX 34 69 56 70 57 71 62 72 58 73 59 74 61 75 63 76 60 77 44 78
REMARK SMILES IDX 45 79 50 80 46 81 47 82 49 83 51 84 48 85
REMARK H PARENT 14 5 7 10 2 17 18 28 68 47 42 58
REMARK Flexibility Score: inf
ROOT
ATOM      1  C   UNL A   1      36.252  20.939  24.819  1.00  0.00     0.117 C 
ENDROOT
BRANCH   1   2
ATOM      2  N   UNL A   1      35.791  21.126  26.172  1.00  0.00    -0.354 N 
ATOM      3  C   UNL A   1      34.875  22.018  26.647  1.00  0.00     0.239 C 
ATOM      4  O   UNL A   1      34.294  21.700  27.691  1.00  0.00    -0.273 OA
ATOM      5  H   UNL A   1      36.192  20.530  26.845  1.00  0.00     0.163 HD
BRANCH   3   6
ATOM      6  C   UNL A   1      34.450  23.299  25.895  1.00  0.00     0.221 C 
BRANCH   6   7
ATOM      7  N   UNL A   1      33.019  23.555  25.705  1.00  0.00    -0.311 N 
BRANCH   7   8
ATOM      8  C   UNL A   1      32.257  24.432  26.453  1.00  0.00     0.318 C 
ATOM      9  N   UNL A   1      32.331  25.780  26.407  1.00  0.00    -0.330 N 
ATOM     10  H   UNL A   1      31.654  26.160  27.011  1.00  0.00     0.165 HD
ATOM     11  O   UNL A   1      31.425  24.027  27.272  1.00  0.00    -0.249 OA
BRANCH   9  12
ATOM     12  C   UNL A   1      33.078  26.883  25.764  1.00  0.00     0.139 C 
ATOM     13  C   UNL A   1      30.527  28.793  23.669  1.00  0.00     0.332 C 
ATOM     14  N   UNL A   1      31.203  28.324  24.880  1.00  0.00    -0.336 N 
ATOM     15  C   UNL A   1      31.686  29.475  25.654  1.00  0.00     0.262 C 
ATOM     16  C   UNL A   1      32.315  27.419  24.530  1.00  0.00     0.287 C 
ATOM     17  H   UNL A   1      30.540  27.803  25.454  1.00  0.00     0.347 HD
ATOM     18  C   UNL A   1      32.264  28.998  26.977  1.00  0.00     0.064 C 
ATOM     19  C   UNL A   1      33.406  28.021  26.754  1.00  0.00     0.037 C 
ENDBRANCH   9  12
ENDBRANCH   7   8
BRANCH   7  20
ATOM     20  C   UNL A   1      32.357  22.818  24.530  1.00  0.00     0.037 C 
ATOM     21  C   UNL A   1      33.323  22.655  23.338  1.00  0.00     0.034 C 
ATOM     22  C   UNL A   1      31.841  21.428  24.970  1.00  0.00     0.034 C 
ATOM     23  C   UNL A   1      31.109  23.539  23.932  1.00  0.00     0.034 C 
ENDBRANCH   7  20
ENDBRANCH   6   7
ENDBRANCH   3   6
ENDBRANCH   1   2
BRANCH   1  24
ATOM     24  C   UNL A   1      37.552  20.176  24.654  1.00  0.00     0.042 C 
BRANCH  24  25
ATOM     25  C   UNL A   1      38.580  20.491  25.719  1.00  0.00     0.118 C 
BRANCH  25  26
ATOM     26  N   UNL A   1      39.636  19.490  25.772  1.00  0.00    -0.352 N 
ATOM     27  C   UNL A   1      40.972  19.646  26.056  1.00  0.00     0.251 C 
ATOM     28  H   UNL A   1      39.352  18.569  25.574  1.00  0.00     0.163 HD
ATOM     29  O   UNL A   1      41.753  18.726  25.836  1.00  0.00    -0.269 OA
BRANCH  27  30
ATOM     30  C   UNL A   1      41.468  20.925  26.610  1.00  0.00     0.039 A 
ATOM     31  C   UNL A   1      41.955  21.898  25.735  1.00  0.00     0.014 A 
ATOM     32  C   UNL A   1      41.465  21.161  27.988  1.00  0.00     0.014 A 
ATOM     33  C   UNL A   1      42.384  23.128  26.239  1.00  0.00     0.010 A 
ATOM     34  C   UNL A   1      41.796  22.419  28.477  1.00  0.00     0.010 A 
ATOM     35  C   UNL A   1      42.275  23.413  27.610  1.00  0.00    -0.014 A 
BRANCH  35  36
ATOM     36  C   UNL A   1      42.672  24.733  28.159  1.00  0.00     0.031 A 
ATOM     37  C   UNL A   1      41.636  25.804  28.373  1.00  0.00     0.074 A 
ATOM     38  C   UNL A   1      43.970  24.987  28.413  1.00  0.00     0.049 A 
ATOM     39  N   UNL A   1      41.793  27.035  28.789  1.00  0.00    -0.248 NA
ATOM     40  C   UNL A   1      40.243  25.457  28.047  1.00  0.00     0.031 C 
ATOM     41  C   UNL A   1      45.075  24.051  28.198  1.00  0.00     0.029 A 
ATOM     42  N   UNL A   1      44.582  26.115  28.900  1.00  0.00    -0.354 N 
ATOM     43  C   UNL A   1      40.528  27.607  28.763  1.00  0.00     0.074 A 
ATOM     44  C   UNL A   1      39.624  26.612  28.231  1.00  0.00     0.031 C 
ATOM     45  C   UNL A   1      46.224  24.631  28.580  1.00  0.00     0.029 A 
ATOM     46  C   UNL A   1      45.945  25.991  29.025  1.00  0.00     0.049 A 
ATOM     47  H   UNL A   1      44.091  26.935  29.137  1.00  0.00     0.167 HD
ATOM     48  C   UNL A   1      40.147  28.841  29.172  1.00  0.00     0.037 A 
ATOM     49  C   UNL A   1      46.866  26.880  29.445  1.00  0.00     0.037 A 
ATOM     50  C   UNL A   1      41.046  29.821  29.722  1.00  0.00     0.049 A 
ATOM     51  C   UNL A   1      46.418  28.248  29.882  1.00  0.00     0.074 A 
ATOM     52  C   UNL A   1      40.750  31.079  30.219  1.00  0.00     0.029 A 
ATOM     53  N   UNL A   1      42.417  29.654  29.844  1.00  0.00    -0.354 N 
ATOM     54  N   UNL A   1      45.208  28.750  29.920  1.00  0.00    -0.248 NA
ATOM     55  C   UNL A   1      47.466  29.171  30.341  1.00  0.00     0.031 C 
ATOM     56  C   UNL A   1      41.950  31.693  30.593  1.00  0.00     0.029 A 
ATOM     57  C   UNL A   1      42.985  30.796  30.386  1.00  0.00     0.049 A 
ATOM     58  H   UNL A   1      42.913  28.844  29.586  1.00  0.00     0.167 HD
ATOM     59  C   UNL A   1      45.344  30.033  30.435  1.00  0.00     0.074 A 
ATOM     60  C   UNL A   1      46.753  30.224  30.709  1.00  0.00     0.031 C 
ATOM     61  C   UNL A   1      44.389  30.968  30.661  1.00  0.00     0.037 A 
BRANCH  48  62
ATOM     62  C   UNL A   1      38.693  29.198  29.042  1.00  0.00     0.057 A 
ATOM     63  C   UNL A   1      38.135  29.595  27.819  1.00  0.00     0.134 A 
ATOM     64  C   UNL A   1      37.834  29.111  30.144  1.00  0.00     0.134 A 
ATOM     65  F   UNL A   1      38.905  29.712  26.725  1.00  0.00    -0.206 F 
ATOM     66  C   UNL A   1      36.782  29.920  27.703  1.00  0.00     0.040 A 
ATOM     67  C   UNL A   1      36.472  29.403  30.034  1.00  0.00     0.040 A 
ATOM     68  F   UNL A   1      38.298  28.732  31.344  1.00  0.00    -0.206 F 
ATOM     69  C   UNL A   1      35.945  29.816  28.812  1.00  0.00     0.006 A 
ENDBRANCH  48  62
BRANCH  49  70
ATOM     70  C   UNL A   1      48.301  26.499  29.494  1.00  0.00     0.057 A 
ATOM     71  C   UNL A   1      48.837  25.846  30.611  1.00  0.00     0.134 A 
ATOM     72  C   UNL A   1      49.172  26.788  28.438  1.00  0.00     0.134 A 
ATOM     73  F   UNL A   1      48.058  25.558  31.663  1.00  0.00    -0.206 F 
ATOM     74  C   UNL A   1      50.193  25.518  30.686  1.00  0.00     0.040 A 
ATOM     75  C   UNL A   1      50.523  26.440  28.487  1.00  0.00     0.040 A 
ATOM     76  F   UNL A   1      48.719  27.405  27.336  1.00  0.00    -0.206 F 
ATOM     77  C   UNL A   1      51.039  25.811  29.618  1.00  0.00     0.006 A 
ENDBRANCH  49  70
BRANCH  61  78
ATOM     78  C   UNL A   1      44.830  32.267  31.270  1.00  0.00     0.057 A 
ATOM     79  C   UNL A   1      45.176  33.376  30.488  1.00  0.00     0.134 A 
ATOM     80  C   UNL A   1      44.874  32.420  32.662  1.00  0.00     0.134 A 
ATOM     81  F   UNL A   1      45.166  33.293  29.148  1.00  0.00    -0.206 F 
ATOM     82  C   UNL A   1      45.576  34.581  31.067  1.00  0.00     0.040 A 
ATOM     83  C   UNL A   1      45.243  33.628  33.253  1.00  0.00     0.040 A 
ATOM     84  F   UNL A   1      44.545  31.401  33.471  1.00  0.00    -0.206 F 
ATOM     85  C   UNL A   1      45.603  34.712  32.454  1.00  0.00     0.006 A 
ENDBRANCH  61  78
ENDBRANCH  35  36
ENDBRANCH  27  30
ENDBRANCH  25  26
ENDBRANCH  24  25
ENDBRANCH   1  24
TORSDOF 14
ENDMDL
MODEL 2
REMARK VINA RESULT:     -11.1      4.768      9.488
REMARK SMILES C[N@@H+]1CCC[C@@H](NC(=O)N(CC(=O)NCCCNC(=O)c2ccc(-c3c4nc(c(-c5c(F)cccc5F)c5ccc([nH]5)c(-c5c(F)cccc5F)c5nc(c(-c6c(F)cccc6F)c6ccc3[nH]6)C=C5)C=C4)cc2)C(C)(C)C)C1
REMARK SMILES IDX 15 1 14 2 12 3 13 4 11 6 10 7 8 8 7 9 9 11 6 12 1 13 2 14
REMARK SMILES IDX 3 15 79 16 4 18 5 19 75 20 76 21 77 22 78 23 16 24 17 25
REMARK SMILES IDX 18 26 19 27 20 29 21 30 22 31 74 32 23 33 73 34 24 35 25 36
REMARK SMILES IDX 26 37 67 38 27 39 72 40 66 41 68 42 28 43 71 44 65 45 64 46
REMARK SMILES IDX 29 48 55 49 38 50 54 51 39 52 42 53 53 54 69 55 40 56 41 57
REMARK SMILES IDX 52 59 70 60 43 61 30 62 31 63 36 64 32 65 33 66 35 67 37 68
REMARK SMILES IDX 34 69 56 70 57 71 62 72 58 73 59 74 61 75 63 76 60 77 44 78
REMARK SMILES IDX 45 79 50 80 46 81 47 82 49 83 51 84 48 85
REMARK H PARENT 14 5 7 10 2 17 18 28 68 47 42 58
REMARK Flexibility Score: inf
ROOT
ATOM      1  C   UNL A   1      31.842  30.864  26.189  1.00  0.00     0.117 C 
ENDROOT
BRANCH   1   2
ATOM      2  N   UNL A   1      31.348  29.694  26.871  1.00  0.00    -0.354 N 
ATOM      3  C   UNL A   1      31.756  28.398  26.749  1.00  0.00     0.239 C 
ATOM      4  O   UNL A   1      31.553  27.668  27.727  1.00  0.00    -0.273 OA
ATOM      5  H   UNL A   1      30.617  29.852  27.511  1.00  0.00     0.163 HD
BRANCH   3   6
ATOM      6  C   UNL A   1      32.551  27.855  25.541  1.00  0.00     0.221 C 
BRANCH   6   7
ATOM      7  N   UNL A   1      31.873  27.764  24.244  1.00  0.00    -0.311 N 
BRANCH   7   8
ATOM      8  C   UNL A   1      31.864  28.749  23.276  1.00  0.00     0.318 C 
ATOM      9  N   UNL A   1      30.830  29.573  22.996  1.00  0.00    -0.330 N 
ATOM     10  H   UNL A   1      31.102  30.203  22.291  1.00  0.00     0.165 HD
ATOM     11  O   UNL A   1      32.843  28.947  22.547  1.00  0.00    -0.249 OA
BRANCH   9  12
ATOM     12  C   UNL A   1      29.430  29.854  23.381  1.00  0.00     0.139 C 
ATOM     13  C   UNL A   1      29.023  33.639  23.155  1.00  0.00     0.332 C 
ATOM     14  N   UNL A   1      29.180  32.265  22.674  1.00  0.00    -0.336 N 
ATOM     15  C   UNL A   1      28.058  31.919  21.792  1.00  0.00     0.262 C 
ATOM     16  C   UNL A   1      29.264  31.330  23.814  1.00  0.00     0.287 C 
ATOM     17  H   UNL A   1      30.047  32.193  22.142  1.00  0.00     0.347 HD
ATOM     18  C   UNL A   1      28.290  30.544  21.184  1.00  0.00     0.064 C 
ATOM     19  C   UNL A   1      28.431  29.485  22.262  1.00  0.00     0.037 C 
ENDBRANCH   9  12
ENDBRANCH   7   8
BRANCH   7  20
ATOM     20  C   UNL A   1      31.179  26.426  23.943  1.00  0.00     0.037 C 
ATOM     21  C   UNL A   1      31.241  26.072  22.443  1.00  0.00     0.034 C 
ATOM     22  C   UNL A   1      31.808  25.280  24.770  1.00  0.00     0.034 C 
ATOM     23  C   UNL A   1      29.660  26.390  24.297  1.00  0.00     0.034 C 
ENDBRANCH   7  20
ENDBRANCH   6   7
ENDBRANCH   3   6
ENDBRANCH   1   2
BRANCH   1  24
ATOM     24  C   UNL A   1      31.576  32.195  26.863  1.00  0.00     0.042 C 
BRANCH  24  25
ATOM     25  C   UNL A   1      32.835  32.962  27.210  1.00  0.00     0.118 C 
BRANCH  25  26
ATOM     26  N   UNL A   1      32.544  34.316  27.660  1.00  0.00    -0.352 N 
ATOM     27  C   UNL A   1      33.056  35.008  28.731  1.00  0.00     0.251 C 
ATOM     28  H   UNL A   1      31.883  34.805  27.119  1.00  0.00     0.163 HD
ATOM     29  O   UNL A   1      32.529  36.058  29.086  1.00  0.00    -0.269 OA
BRANCH  27  30
ATOM     30  C   UNL A   1      34.228  34.481  29.463  1.00  0.00     0.039 A 
ATOM     31  C   UNL A   1      34.028  33.822  30.677  1.00  0.00     0.014 A 
ATOM     32  C   UNL A   1      35.523  34.644  28.960  1.00  0.00     0.014 A 
ATOM     33  C   UNL A   1      35.120  33.278  31.357  1.00  0.00     0.010 A 
ATOM     34  C   UNL A   1      36.594  34.016  29.585  1.00  0.00     0.010 A 
ATOM     35  C   UNL A   1      36.408  33.339  30.799  1.00  0.00    -0.014 A 
BRANCH  35  36
ATOM     36  C   UNL A   1      37.574  32.719  31.477  1.00  0.00     0.031 A 
ATOM     37  C   UNL A   1      38.245  31.514  30.873  1.00  0.00     0.074 A 
ATOM     38  C   UNL A   1      37.993  33.204  32.661  1.00  0.00     0.049 A 
ATOM     39  N   UNL A   1      39.237  30.800  31.339  1.00  0.00    -0.248 NA
ATOM     40  C   UNL A   1      37.710  31.028  29.591  1.00  0.00     0.031 C 
ATOM     41  C   UNL A   1      37.394  34.333  33.375  1.00  0.00     0.029 A 
ATOM     42  N   UNL A   1      39.020  32.803  33.479  1.00  0.00    -0.354 N 
ATOM     43  C   UNL A   1      39.435  29.780  30.418  1.00  0.00     0.074 A 
ATOM     44  C   UNL A   1      38.421  29.929  29.398  1.00  0.00     0.031 C 
ATOM     45  C   UNL A   1      38.081  34.553  34.507  1.00  0.00     0.029 A 
ATOM     46  C   UNL A   1      39.140  33.557  34.621  1.00  0.00     0.049 A 
ATOM     47  H   UNL A   1      39.613  32.046  33.267  1.00  0.00     0.167 HD
ATOM     48  C   UNL A   1      40.393  28.823  30.405  1.00  0.00     0.037 A 
ATOM     49  C   UNL A   1      40.005  33.451  35.649  1.00  0.00     0.037 A 
ATOM     50  C   UNL A   1      41.415  28.691  31.411  1.00  0.00     0.049 A 
ATOM     51  C   UNL A   1      41.051  32.371  35.617  1.00  0.00     0.074 A 
ATOM     52  C   UNL A   1      42.465  27.791  31.460  1.00  0.00     0.029 A 
ATOM     53  N   UNL A   1      41.511  29.483  32.546  1.00  0.00    -0.354 N 
ATOM     54  N   UNL A   1      41.272  31.459  34.703  1.00  0.00    -0.248 NA
ATOM     55  C   UNL A   1      41.973  32.311  36.760  1.00  0.00     0.031 C 
ATOM     56  C   UNL A   1      43.166  28.004  32.651  1.00  0.00     0.029 A 
ATOM     57  C   UNL A   1      42.589  29.074  33.315  1.00  0.00     0.049 A 
ATOM     58  H   UNL A   1      40.905  30.224  32.771  1.00  0.00     0.167 HD
ATOM     59  C   UNL A   1      42.375  30.738  35.142  1.00  0.00     0.074 A 
ATOM     60  C   UNL A   1      42.786  31.330  36.397  1.00  0.00     0.031 C 
ATOM     61  C   UNL A   1      42.991  29.680  34.559  1.00  0.00     0.037 A 
BRANCH  48  62
ATOM     62  C   UNL A   1      40.382  27.843  29.266  1.00  0.00     0.057 A 
ATOM     63  C   UNL A   1      41.216  27.998  28.150  1.00  0.00     0.134 A 
ATOM     64  C   UNL A   1      39.553  26.716  29.299  1.00  0.00     0.134 A 
ATOM     65  F   UNL A   1      42.027  29.063  28.047  1.00  0.00    -0.206 F 
ATOM     66  C   UNL A   1      41.206  27.081  27.096  1.00  0.00     0.040 A 
ATOM     67  C   UNL A   1      39.556  25.775  28.266  1.00  0.00     0.040 A 
ATOM     68  F   UNL A   1      38.733  26.502  30.339  1.00  0.00    -0.206 F 
ATOM     69  C   UNL A   1      40.379  25.961  27.157  1.00  0.00     0.006 A 
ENDBRANCH  48  62
BRANCH  49  70
ATOM     70  C   UNL A   1      39.933  34.406  36.785  1.00  0.00     0.057 A 
ATOM     71  C   UNL A   1      39.198  34.103  37.937  1.00  0.00     0.134 A 
ATOM     72  C   UNL A   1      40.581  35.645  36.742  1.00  0.00     0.134 A 
ATOM     73  F   UNL A   1      38.540  32.939  38.032  1.00  0.00    -0.206 F 
ATOM     74  C   UNL A   1      39.091  35.008  38.996  1.00  0.00     0.040 A 
ATOM     75  C   UNL A   1      40.506  36.548  37.804  1.00  0.00     0.040 A 
ATOM     76  F   UNL A   1      41.308  35.993  35.669  1.00  0.00    -0.206 F 
ATOM     77  C   UNL A   1      39.751  36.234  38.931  1.00  0.00     0.006 A 
ENDBRANCH  49  70
BRANCH  61  78
ATOM     78  C   UNL A   1      44.200  29.122  35.252  1.00  0.00     0.057 A 
ATOM     79  C   UNL A   1      45.494  29.586  34.981  1.00  0.00     0.134 A 
ATOM     80  C   UNL A   1      44.062  28.130  36.232  1.00  0.00     0.134 A 
ATOM     81  F   UNL A   1      45.696  30.527  34.045  1.00  0.00    -0.206 F 
ATOM     82  C   UNL A   1      46.609  29.065  35.638  1.00  0.00     0.040 A 
ATOM     83  C   UNL A   1      45.166  27.623  36.918  1.00  0.00     0.040 A 
ATOM     84  F   UNL A   1      42.851  27.649  36.550  1.00  0.00    -0.206 F 
ATOM     85  C   UNL A   1      46.445  28.085  36.616  1.00  0.00     0.006 A 
ENDBRANCH  61  78
ENDBRANCH  35  36
ENDBRANCH  27  30
ENDBRANCH  25  26
ENDBRANCH  24  25
ENDBRANCH   1  24
TORSDOF 14
ENDMDL
MODEL 3
REMARK VINA RESULT:     -11.0      4.425      8.729
REMARK SMILES C[N@@H+]1CCC[C@@H](NC(=O)N(CC(=O)NCCCNC(=O)c2ccc(-c3c4nc(c(-c5c(F)cccc5F)c5ccc([nH]5)c(-c5c(F)cccc5F)c5nc(c(-c6c(F)cccc6F)c6ccc3[nH]6)C=C5)C=C4)cc2)C(C)(C)C)C1
REMARK SMILES IDX 15 1 14 2 12 3 13 4 11 6 10 7 8 8 7 9 9 11 6 12 1 13 2 14
REMARK SMILES IDX 3 15 79 16 4 18 5 19 75 20 76 21 77 22 78 23 16 24 17 25
REMARK SMILES IDX 18 26 19 27 20 29 21 30 22 31 74 32 23 33 73 34 24 35 25 36
REMARK SMILES IDX 26 37 67 38 27 39 72 40 66 41 68 42 28 43 71 44 65 45 64 46
REMARK SMILES IDX 29 48 55 49 38 50 54 51 39 52 42 53 53 54 69 55 40 56 41 57
REMARK SMILES IDX 52 59 70 60 43 61 30 62 31 63 36 64 32 65 33 66 35 67 37 68
REMARK SMILES IDX 34 69 56 70 57 71 62 72 58 73 59 74 61 75 63 76 60 77 44 78
REMARK SMILES IDX 45 79 50 80 46 81 47 82 49 83 51 84 48 85
REMARK H PARENT 14 5 7 10 2 17 18 28 68 47 42 58
REMARK Flexibility Score: inf
ROOT
ATOM      1  C   UNL A   1      31.412  31.128  26.209  1.00  0.00     0.117 C 
ENDROOT
BRANCH   1   2
ATOM      2  N   UNL A   1      32.618  30.350  26.345  1.00  0.00    -0.354 N 
ATOM      3  C   UNL A   1      32.844  29.054  25.983  1.00  0.00     0.239 C 
ATOM      4  O   UNL A   1      34.019  28.751  25.747  1.00  0.00    -0.273 OA
ATOM      5  H   UNL A   1      33.381  30.817  26.754  1.00  0.00     0.163 HD
BRANCH   3   6
ATOM      6  C   UNL A   1      31.723  28.021  25.736  1.00  0.00     0.221 C 
BRANCH   6   7
ATOM      7  N   UNL A   1      31.262  27.807  24.361  1.00  0.00    -0.311 N 
BRANCH   7   8
ATOM      8  C   UNL A   1      31.396  28.709  23.323  1.00  0.00     0.318 C 
ATOM      9  N   UNL A   1      30.458  29.594  22.918  1.00  0.00    -0.330 N 
ATOM     10  H   UNL A   1      30.826  30.140  22.187  1.00  0.00     0.165 HD
ATOM     11  O   UNL A   1      32.428  28.762  22.643  1.00  0.00    -0.249 OA
BRANCH   9  12
ATOM     12  C   UNL A   1      29.071  30.025  23.194  1.00  0.00     0.139 C 
ATOM     13  C   UNL A   1      29.154  33.838  23.256  1.00  0.00     0.332 C 
ATOM     14  N   UNL A   1      29.191  32.494  22.676  1.00  0.00    -0.336 N 
ATOM     15  C   UNL A   1      28.133  32.361  21.666  1.00  0.00     0.262 C 
ATOM     16  C   UNL A   1      29.042  31.475  23.734  1.00  0.00     0.287 C 
ATOM     17  H   UNL A   1      30.093  32.349  22.222  1.00  0.00     0.347 HD
ATOM     18  C   UNL A   1      28.257  31.017  20.967  1.00  0.00     0.064 C 
ATOM     19  C   UNL A   1      28.156  29.872  21.959  1.00  0.00     0.037 C 
ENDBRANCH   9  12
ENDBRANCH   7   8
BRANCH   7  20
ATOM     20  C   UNL A   1      30.638  26.433  24.069  1.00  0.00     0.037 C 
ATOM     21  C   UNL A   1      29.106  26.519  23.914  1.00  0.00     0.034 C 
ATOM     22  C   UNL A   1      31.252  25.808  22.794  1.00  0.00     0.034 C 
ATOM     23  C   UNL A   1      30.864  25.368  25.186  1.00  0.00     0.034 C 
ENDBRANCH   7  20
ENDBRANCH   6   7
ENDBRANCH   3   6
ENDBRANCH   1   2
BRANCH   1  24
ATOM     24  C   UNL A   1      31.416  32.492  26.870  1.00  0.00     0.042 C 
BRANCH  24  25
ATOM     25  C   UNL A   1      32.805  33.032  27.139  1.00  0.00     0.118 C 
BRANCH  25  26
ATOM     26  N   UNL A   1      32.769  34.284  27.880  1.00  0.00    -0.352 N 
ATOM     27  C   UNL A   1      33.496  34.666  28.983  1.00  0.00     0.251 C 
ATOM     28  H   UNL A   1      32.132  34.955  27.544  1.00  0.00     0.163 HD
ATOM     29  O   UNL A   1      33.174  35.672  29.606  1.00  0.00    -0.269 OA
BRANCH  27  30
ATOM     30  C   UNL A   1      34.652  33.856  29.426  1.00  0.00     0.039 A 
ATOM     31  C   UNL A   1      35.931  34.204  28.986  1.00  0.00     0.014 A 
ATOM     32  C   UNL A   1      34.477  32.750  30.263  1.00  0.00     0.014 A 
ATOM     33  C   UNL A   1      37.037  33.478  29.433  1.00  0.00     0.010 A 
ATOM     34  C   UNL A   1      35.585  32.093  30.784  1.00  0.00     0.010 A 
ATOM     35  C   UNL A   1      36.877  32.439  30.364  1.00  0.00    -0.014 A 
BRANCH  35  36
ATOM     36  C   UNL A   1      38.044  31.690  30.895  1.00  0.00     0.031 A 
ATOM     37  C   UNL A   1      38.604  32.028  32.250  1.00  0.00     0.074 A 
ATOM     38  C   UNL A   1      38.633  30.746  30.135  1.00  0.00     0.049 A 
ATOM     39  N   UNL A   1      39.647  31.528  32.862  1.00  0.00    -0.248 NA
ATOM     40  C   UNL A   1      37.920  33.090  33.006  1.00  0.00     0.031 C 
ATOM     41  C   UNL A   1      38.217  30.364  28.784  1.00  0.00     0.029 A 
ATOM     42  N   UNL A   1      39.715  29.941  30.389  1.00  0.00    -0.354 N 
ATOM     43  C   UNL A   1      39.750  32.220  34.061  1.00  0.00     0.074 A 
ATOM     44  C   UNL A   1      38.703  33.217  34.066  1.00  0.00     0.031 C 
ATOM     45  C   UNL A   1      39.014  29.378  28.341  1.00  0.00     0.029 A 
ATOM     46  C   UNL A   1      40.021  29.089  29.356  1.00  0.00     0.049 A 
ATOM     47  H   UNL A   1      40.223  29.972  31.231  1.00  0.00     0.167 HD
ATOM     48  C   UNL A   1      40.619  32.024  35.081  1.00  0.00     0.037 A 
ATOM     49  C   UNL A   1      41.009  28.181  29.238  1.00  0.00     0.037 A 
ATOM     50  C   UNL A   1      41.646  31.015  35.083  1.00  0.00     0.049 A 
ATOM     51  C   UNL A   1      41.970  27.992  30.380  1.00  0.00     0.074 A 
ATOM     52  C   UNL A   1      42.541  30.698  36.090  1.00  0.00     0.029 A 
ATOM     53  N   UNL A   1      41.917  30.163  34.023  1.00  0.00    -0.354 N 
ATOM     54  N   UNL A   1      42.009  28.603  31.539  1.00  0.00    -0.248 NA
ATOM     55  C   UNL A   1      43.020  26.979  30.199  1.00  0.00     0.031 C 
ATOM     56  C   UNL A   1      43.387  29.689  35.620  1.00  0.00     0.029 A 
ATOM     57  C   UNL A   1      42.982  29.336  34.342  1.00  0.00     0.049 A 
ATOM     58  H   UNL A   1      41.425  30.147  33.170  1.00  0.00     0.167 HD
ATOM     59  C   UNL A   1      43.064  28.029  32.236  1.00  0.00     0.074 A 
ATOM     60  C   UNL A   1      43.628  27.011  31.375  1.00  0.00     0.031 C 
ATOM     61  C   UNL A   1      43.526  28.320  33.477  1.00  0.00     0.037 A 
BRANCH  48  62
ATOM     62  C   UNL A   1      40.494  32.918  36.283  1.00  0.00     0.057 A 
ATOM     63  C   UNL A   1      41.326  34.031  36.466  1.00  0.00     0.134 A 
ATOM     64  C   UNL A   1      39.509  32.684  37.250  1.00  0.00     0.134 A 
ATOM     65  F   UNL A   1      42.300  34.307  35.584  1.00  0.00    -0.206 F 
ATOM     66  C   UNL A   1      41.201  34.862  37.582  1.00  0.00     0.040 A 
ATOM     67  C   UNL A   1      39.354  33.525  38.354  1.00  0.00     0.040 A 
ATOM     68  F   UNL A   1      38.675  31.640  37.135  1.00  0.00    -0.206 F 
ATOM     69  C   UNL A   1      40.207  34.613  38.526  1.00  0.00     0.006 A 
ENDBRANCH  48  62
BRANCH  49  70
ATOM     70  C   UNL A   1      41.129  27.366  28.002  1.00  0.00     0.057 A 
ATOM     71  C   UNL A   1      41.889  27.811  26.914  1.00  0.00     0.134 A 
ATOM     72  C   UNL A   1      40.478  26.134  27.870  1.00  0.00     0.134 A 
ATOM     73  F   UNL A   1      42.522  28.992  26.970  1.00  0.00    -0.206 F 
ATOM     74  C   UNL A   1      41.978  27.073  25.731  1.00  0.00     0.040 A 
ATOM     75  C   UNL A   1      40.581  25.372  26.705  1.00  0.00     0.040 A 
ATOM     76  F   UNL A   1      39.740  25.647  28.880  1.00  0.00    -0.206 F 
ATOM     77  C   UNL A   1      41.325  25.846  25.628  1.00  0.00     0.006 A 
ENDBRANCH  49  70
BRANCH  61  78
ATOM     78  C   UNL A   1      44.671  27.499  33.994  1.00  0.00     0.057 A 
ATOM     79  C   UNL A   1      46.004  27.895  33.830  1.00  0.00     0.134 A 
ATOM     80  C   UNL A   1      44.432  26.311  34.698  1.00  0.00     0.134 A 
ATOM     81  F   UNL A   1      46.302  29.017  33.155  1.00  0.00    -0.206 F 
ATOM     82  C   UNL A   1      47.060  27.126  34.323  1.00  0.00     0.040 A 
ATOM     83  C   UNL A   1      45.477  25.550  35.223  1.00  0.00     0.040 A 
ATOM     84  F   UNL A   1      43.179  25.879  34.901  1.00  0.00    -0.206 F 
ATOM     85  C   UNL A   1      46.797  25.954  35.029  1.00  0.00     0.006 A 
ENDBRANCH  61  78
ENDBRANCH  35  36
ENDBRANCH  27  30
ENDBRANCH  25  26
ENDBRANCH  24  25
ENDBRANCH   1  24
TORSDOF 14
ENDMDL
