MODEL 1
REMARK VINA RESULT:     -12.6      0.000      0.000
REMARK SMILES Cc1ccc2c(CC(=O)N3CCC(C(=O)NCCCNC(=O)c4ccc(-c5c6nc(c(-c7c(F)cccc7F)c7ccc([nH]7)c(-c7c(F)cccc7F)c7nc(c(-c8c(F)cccc8F)c8ccc5[nH]8)C=C7)C=C6)cc4)CC3)coc2c1
REMARK SMILES IDX 18 1 17 2 16 3 14 4 15 5 13 7 8 8 9 9 10 10 11 11 78 12
REMARK SMILES IDX 12 13 77 14 7 15 6 16 1 17 2 18 3 19 82 20 4 21 81 22 5 23
REMARK SMILES IDX 80 24 79 25 19 26 20 27 21 28 22 30 23 31 24 32 76 33 25 34
REMARK SMILES IDX 75 35 26 36 27 37 28 38 69 39 29 40 74 41 68 42 70 43 30 44
REMARK SMILES IDX 73 45 67 46 66 47 31 49 57 50 40 51 56 52 41 53 44 54 55 55
REMARK SMILES IDX 71 56 42 57 43 58 54 60 72 61 45 62 32 63 33 64 38 65 34 66
REMARK SMILES IDX 35 67 37 68 39 69 36 70 58 71 59 72 64 73 60 74 61 75 63 76
REMARK SMILES IDX 65 77 62 78 46 79 47 80 52 81 48 82 49 83 51 84 53 85 50 86
REMARK H PARENT 16 6 20 29 70 48 44 59
REMARK Flexibility Score: inf
ROOT
ATOM      1  C   UNL A   1      34.264  30.442  27.550  1.00  0.00     0.042 C 
ENDROOT
BRANCH   1   2
ATOM      2  C   UNL A   1      33.151  30.297  26.513  1.00  0.00     0.117 C 
BRANCH   2   3
ATOM      3  N   UNL A   1      33.593  29.633  25.296  1.00  0.00    -0.356 N 
ATOM      4  C   UNL A   1      33.201  28.476  24.702  1.00  0.00     0.223 C 
ATOM      5  O   UNL A   1      33.737  28.178  23.630  1.00  0.00    -0.275 OA
ATOM      6  H   UNL A   1      34.307  30.111  24.815  1.00  0.00     0.163 HD
BRANCH   4   7
ATOM      7  C   UNL A   1      32.138  27.563  25.301  1.00  0.00     0.082 C 
ATOM      8  C   UNL A   1      31.131  23.764  24.705  1.00  0.00     0.227 C 
ATOM      9  O   UNL A   1      31.048  23.738  23.472  1.00  0.00    -0.275 OA
ATOM     10  N   UNL A   1      30.945  24.952  25.403  1.00  0.00    -0.342 N 
ATOM     11  C   UNL A   1      30.189  26.025  24.772  1.00  0.00     0.120 C 
ATOM     12  C   UNL A   1      31.728  25.389  26.552  1.00  0.00     0.120 C 
ATOM     13  C   UNL A   1      31.105  27.123  24.255  1.00  0.00     0.035 C 
ATOM     14  C   UNL A   1      32.764  26.424  26.118  1.00  0.00     0.035 C 
BRANCH   8  15
ATOM     15  C   UNL A   1      31.189  22.447  25.475  1.00  0.00     0.139 C 
BRANCH  15  16
ATOM     16  C   UNL A   1      32.355  21.565  25.220  1.00  0.00     0.008 A 
ATOM     17  C   UNL A   1      38.038  21.870  25.556  1.00  0.00     0.044 C 
ATOM     18  C   UNL A   1      36.536  21.859  25.543  1.00  0.00    -0.047 A 
ATOM     19  C   UNL A   1      35.817  22.935  26.082  1.00  0.00     0.004 A 
ATOM     20  C   UNL A   1      35.857  20.752  25.004  1.00  0.00     0.051 A 
ATOM     21  C   UNL A   1      34.416  22.955  26.068  1.00  0.00     0.012 A 
ATOM     22  C   UNL A   1      34.464  20.803  25.005  1.00  0.00     0.134 A 
ATOM     23  C   UNL A   1      33.726  21.867  25.504  1.00  0.00     0.024 A 
ATOM     24  O   UNL A   1      33.632  19.848  24.505  1.00  0.00    -0.464 OA
ATOM     25  C   UNL A   1      32.362  20.308  24.650  1.00  0.00     0.200 A 
ENDBRANCH  15  16
ENDBRANCH   8  15
ENDBRANCH   4   7
ENDBRANCH   2   3
ENDBRANCH   1   2
BRANCH   1  26
ATOM     26  C   UNL A   1      34.556  31.880  27.981  1.00  0.00     0.118 C 
BRANCH  26  27
ATOM     27  N   UNL A   1      34.389  32.129  29.400  1.00  0.00    -0.352 N 
ATOM     28  C   UNL A   1      35.177  32.002  30.507  1.00  0.00     0.251 C 
ATOM     29  H   UNL A   1      33.491  32.472  29.616  1.00  0.00     0.163 HD
ATOM     30  O   UNL A   1      34.724  32.502  31.545  1.00  0.00    -0.269 OA
BRANCH  28  31
ATOM     31  C   UNL A   1      36.469  31.270  30.582  1.00  0.00     0.039 A 
ATOM     32  C   UNL A   1      37.735  31.849  30.527  1.00  0.00     0.014 A 
ATOM     33  C   UNL A   1      36.380  29.863  30.625  1.00  0.00     0.014 A 
ATOM     34  C   UNL A   1      38.866  31.045  30.400  1.00  0.00     0.010 A 
ATOM     35  C   UNL A   1      37.508  29.054  30.522  1.00  0.00     0.010 A 
ATOM     36  C   UNL A   1      38.752  29.648  30.354  1.00  0.00    -0.014 A 
BRANCH  36  37
ATOM     37  C   UNL A   1      39.984  28.866  30.240  1.00  0.00     0.031 A 
ATOM     38  C   UNL A   1      40.723  28.705  31.523  1.00  0.00     0.074 A 
ATOM     39  C   UNL A   1      40.431  28.264  29.117  1.00  0.00     0.049 A 
ATOM     40  N   UNL A   1      41.871  29.204  31.843  1.00  0.00    -0.248 NA
ATOM     41  C   UNL A   1      40.042  28.007  32.625  1.00  0.00     0.031 C 
ATOM     42  C   UNL A   1      39.737  28.078  27.842  1.00  0.00     0.029 A 
ATOM     43  N   UNL A   1      41.620  27.621  28.912  1.00  0.00    -0.354 N 
ATOM     44  C   UNL A   1      42.152  28.730  33.121  1.00  0.00     0.074 A 
ATOM     45  C   UNL A   1      40.941  28.117  33.604  1.00  0.00     0.031 C 
ATOM     46  C   UNL A   1      40.429  27.202  27.076  1.00  0.00     0.029 A 
ATOM     47  C   UNL A   1      41.683  26.880  27.739  1.00  0.00     0.049 A 
ATOM     48  H   UNL A   1      42.372  27.680  29.546  1.00  0.00     0.167 HD
ATOM     49  C   UNL A   1      43.427  28.679  33.592  1.00  0.00     0.037 A 
ATOM     50  C   UNL A   1      42.679  26.042  27.352  1.00  0.00     0.037 A 
ATOM     51  C   UNL A   1      44.301  29.563  32.865  1.00  0.00     0.049 A 
ATOM     52  C   UNL A   1      43.896  26.400  28.112  1.00  0.00     0.074 A 
ATOM     53  C   UNL A   1      44.335  30.924  32.622  1.00  0.00     0.029 A 
ATOM     54  N   UNL A   1      45.163  29.010  31.951  1.00  0.00    -0.354 N 
ATOM     55  N   UNL A   1      44.582  27.490  27.920  1.00  0.00    -0.248 NA
ATOM     56  C   UNL A   1      44.124  25.736  29.385  1.00  0.00     0.031 C 
ATOM     57  C   UNL A   1      44.805  31.049  31.281  1.00  0.00     0.029 A 
ATOM     58  C   UNL A   1      45.078  29.765  30.810  1.00  0.00     0.049 A 
ATOM     59  H   UNL A   1      45.734  28.221  32.089  1.00  0.00     0.167 HD
ATOM     60  C   UNL A   1      44.964  27.890  29.190  1.00  0.00     0.074 A 
ATOM     61  C   UNL A   1      44.744  26.721  30.038  1.00  0.00     0.031 C 
ATOM     62  C   UNL A   1      45.157  29.209  29.481  1.00  0.00     0.037 A 
BRANCH  49  63
ATOM     63  C   UNL A   1      43.953  27.541  34.433  1.00  0.00     0.057 A 
ATOM     64  C   UNL A   1      44.119  26.226  33.952  1.00  0.00     0.134 A 
ATOM     65  C   UNL A   1      44.613  27.823  35.642  1.00  0.00     0.134 A 
ATOM     66  F   UNL A   1      43.621  25.824  32.776  1.00  0.00    -0.206 F 
ATOM     67  C   UNL A   1      44.905  25.274  34.605  1.00  0.00     0.040 A 
ATOM     68  C   UNL A   1      45.443  26.892  36.278  1.00  0.00     0.040 A 
ATOM     69  F   UNL A   1      44.546  29.045  36.194  1.00  0.00    -0.206 F 
ATOM     70  C   UNL A   1      45.600  25.615  35.753  1.00  0.00     0.006 A 
ENDBRANCH  49  63
BRANCH  50  71
ATOM     71  C   UNL A   1      42.608  24.792  26.560  1.00  0.00     0.057 A 
ATOM     72  C   UNL A   1      42.017  23.634  27.089  1.00  0.00     0.134 A 
ATOM     73  C   UNL A   1      43.375  24.616  25.397  1.00  0.00     0.134 A 
ATOM     74  F   UNL A   1      41.325  23.674  28.237  1.00  0.00    -0.206 F 
ATOM     75  C   UNL A   1      42.196  22.371  26.514  1.00  0.00     0.040 A 
ATOM     76  C   UNL A   1      43.566  23.356  24.813  1.00  0.00     0.040 A 
ATOM     77  F   UNL A   1      44.017  25.654  24.839  1.00  0.00    -0.206 F 
ATOM     78  C   UNL A   1      42.986  22.226  25.379  1.00  0.00     0.006 A 
ENDBRANCH  50  71
BRANCH  62  79
ATOM     79  C   UNL A   1      45.216  30.173  28.328  1.00  0.00     0.057 A 
ATOM     80  C   UNL A   1      46.468  30.560  27.838  1.00  0.00     0.134 A 
ATOM     81  C   UNL A   1      44.094  30.796  27.760  1.00  0.00     0.134 A 
ATOM     82  F   UNL A   1      47.590  30.050  28.370  1.00  0.00    -0.206 F 
ATOM     83  C   UNL A   1      46.600  31.503  26.816  1.00  0.00     0.040 A 
ATOM     84  C   UNL A   1      44.211  31.715  26.712  1.00  0.00     0.040 A 
ATOM     85  F   UNL A   1      42.860  30.569  28.230  1.00  0.00    -0.206 F 
ATOM     86  C   UNL A   1      45.470  32.073  26.238  1.00  0.00     0.006 A 
ENDBRANCH  62  79
ENDBRANCH  36  37
ENDBRANCH  28  31
ENDBRANCH  26  27
ENDBRANCH   1  26
TORSDOF 12
ENDMDL
MODEL 2
REMARK VINA RESULT:     -12.5      1.656      2.778
REMARK SMILES Cc1ccc2c(CC(=O)N3CCC(C(=O)NCCCNC(=O)c4ccc(-c5c6nc(c(-c7c(F)cccc7F)c7ccc([nH]7)c(-c7c(F)cccc7F)c7nc(c(-c8c(F)cccc8F)c8ccc5[nH]8)C=C7)C=C6)cc4)CC3)coc2c1
REMARK SMILES IDX 18 1 17 2 16 3 14 4 15 5 13 7 8 8 9 9 10 10 11 11 78 12
REMARK SMILES IDX 12 13 77 14 7 15 6 16 1 17 2 18 3 19 82 20 4 21 81 22 5 23
REMARK SMILES IDX 80 24 79 25 19 26 20 27 21 28 22 30 23 31 24 32 76 33 25 34
REMARK SMILES IDX 75 35 26 36 27 37 28 38 69 39 29 40 74 41 68 42 70 43 30 44
REMARK SMILES IDX 73 45 67 46 66 47 31 49 57 50 40 51 56 52 41 53 44 54 55 55
REMARK SMILES IDX 71 56 42 57 43 58 54 60 72 61 45 62 32 63 33 64 38 65 34 66
REMARK SMILES IDX 35 67 37 68 39 69 36 70 58 71 59 72 64 73 60 74 61 75 63 76
REMARK SMILES IDX 65 77 62 78 46 79 47 80 52 81 48 82 49 83 51 84 53 85 50 86
REMARK H PARENT 16 6 20 29 70 48 44 59
REMARK Flexibility Score: inf
ROOT
ATOM      1  C   UNL A   1      31.885  29.699  26.443  1.00  0.00     0.042 C 
ENDROOT
BRANCH   1   2
ATOM      2  C   UNL A   1      31.402  29.701  24.992  1.00  0.00     0.117 C 
BRANCH   2   3
ATOM      3  N   UNL A   1      32.482  29.513  24.036  1.00  0.00    -0.356 N 
ATOM      4  C   UNL A   1      33.046  28.391  23.515  1.00  0.00     0.223 C 
ATOM      5  O   UNL A   1      33.938  28.542  22.675  1.00  0.00    -0.275 OA
ATOM      6  H   UNL A   1      32.876  30.352  23.705  1.00  0.00     0.163 HD
BRANCH   4   7
ATOM      7  C   UNL A   1      32.614  26.989  23.923  1.00  0.00     0.082 C 
ATOM      8  C   UNL A   1      34.297  23.401  23.616  1.00  0.00     0.227 C 
ATOM      9  O   UNL A   1      34.624  23.400  22.424  1.00  0.00    -0.275 OA
ATOM     10  N   UNL A   1      33.242  24.190  24.061  1.00  0.00    -0.342 N 
ATOM     11  C   UNL A   1      32.232  24.617  23.102  1.00  0.00     0.120 C 
ATOM     12  C   UNL A   1      33.218  24.945  25.307  1.00  0.00     0.120 C 
ATOM     13  C   UNL A   1      32.421  26.073  22.707  1.00  0.00     0.035 C 
ATOM     14  C   UNL A   1      33.508  26.419  25.033  1.00  0.00     0.035 C 
BRANCH   8  15
ATOM     15  C   UNL A   1      34.887  22.347  24.551  1.00  0.00     0.139 C 
BRANCH  15  16
ATOM     16  C   UNL A   1      36.237  22.618  25.107  1.00  0.00     0.008 A 
ATOM     17  C   UNL A   1      40.987  19.695  26.284  1.00  0.00     0.044 C 
ATOM     18  C   UNL A   1      39.716  20.397  25.900  1.00  0.00    -0.047 A 
ATOM     19  C   UNL A   1      38.719  19.714  25.188  1.00  0.00     0.004 A 
ATOM     20  C   UNL A   1      39.543  21.749  26.241  1.00  0.00     0.051 A 
ATOM     21  C   UNL A   1      37.519  20.342  24.831  1.00  0.00     0.012 A 
ATOM     22  C   UNL A   1      38.338  22.346  25.872  1.00  0.00     0.134 A 
ATOM     23  C   UNL A   1      37.321  21.687  25.194  1.00  0.00     0.024 A 
ATOM     24  O   UNL A   1      37.971  23.629  26.136  1.00  0.00    -0.464 OA
ATOM     25  C   UNL A   1      36.709  23.791  25.660  1.00  0.00     0.200 A 
ENDBRANCH  15  16
ENDBRANCH   8  15
ENDBRANCH   4   7
ENDBRANCH   2   3
ENDBRANCH   1   2
BRANCH   1  26
ATOM     26  C   UNL A   1      33.369  30.019  26.626  1.00  0.00     0.118 C 
BRANCH  26  27
ATOM     27  N   UNL A   1      33.642  31.083  27.574  1.00  0.00    -0.352 N 
ATOM     28  C   UNL A   1      34.753  31.547  28.216  1.00  0.00     0.251 C 
ATOM     29  H   UNL A   1      32.833  31.591  27.810  1.00  0.00     0.163 HD
ATOM     30  O   UNL A   1      34.611  32.617  28.824  1.00  0.00    -0.269 OA
BRANCH  28  31
ATOM     31  C   UNL A   1      36.068  30.856  28.304  1.00  0.00     0.039 A 
ATOM     32  C   UNL A   1      36.298  29.510  28.026  1.00  0.00     0.014 A 
ATOM     33  C   UNL A   1      37.140  31.630  28.794  1.00  0.00     0.014 A 
ATOM     34  C   UNL A   1      37.526  28.932  28.342  1.00  0.00     0.010 A 
ATOM     35  C   UNL A   1      38.377  31.063  29.089  1.00  0.00     0.010 A 
ATOM     36  C   UNL A   1      38.553  29.697  28.914  1.00  0.00    -0.014 A 
BRANCH  36  37
ATOM     37  C   UNL A   1      39.823  29.028  29.199  1.00  0.00     0.031 A 
ATOM     38  C   UNL A   1      40.172  28.980  30.647  1.00  0.00     0.074 A 
ATOM     39  C   UNL A   1      40.619  28.431  28.287  1.00  0.00     0.049 A 
ATOM     40  N   UNL A   1      41.138  29.592  31.249  1.00  0.00    -0.248 NA
ATOM     41  C   UNL A   1      39.261  28.260  31.549  1.00  0.00     0.031 C 
ATOM     42  C   UNL A   1      40.338  28.140  26.881  1.00  0.00     0.029 A 
ATOM     43  N   UNL A   1      41.863  27.894  28.465  1.00  0.00    -0.354 N 
ATOM     44  C   UNL A   1      41.076  29.190  32.579  1.00  0.00     0.074 A 
ATOM     45  C   UNL A   1      39.829  28.485  32.735  1.00  0.00     0.031 C 
ATOM     46  C   UNL A   1      41.287  27.305  26.395  1.00  0.00     0.029 A 
ATOM     47  C   UNL A   1      42.319  27.122  27.403  1.00  0.00     0.049 A 
ATOM     48  H   UNL A   1      42.395  28.043  29.281  1.00  0.00     0.167 HD
ATOM     49  C   UNL A   1      42.162  29.272  33.394  1.00  0.00     0.037 A 
ATOM     50  C   UNL A   1      43.446  26.366  27.364  1.00  0.00     0.037 A 
ATOM     51  C   UNL A   1      43.136  30.207  32.894  1.00  0.00     0.049 A 
ATOM     52  C   UNL A   1      44.362  26.860  28.416  1.00  0.00     0.074 A 
ATOM     53  C   UNL A   1      43.132  31.556  32.591  1.00  0.00     0.029 A 
ATOM     54  N   UNL A   1      44.264  29.705  32.295  1.00  0.00    -0.354 N 
ATOM     55  N   UNL A   1      44.986  28.002  28.362  1.00  0.00    -0.248 NA
ATOM     56  C   UNL A   1      44.266  26.264  29.738  1.00  0.00     0.031 C 
ATOM     57  C   UNL A   1      43.956  31.678  31.433  1.00  0.00     0.029 A 
ATOM     58  C   UNL A   1      44.452  30.409  31.135  1.00  0.00     0.049 A 
ATOM     59  H   UNL A   1      44.831  28.976  32.636  1.00  0.00     0.167 HD
ATOM     60  C   UNL A   1      44.955  28.478  29.662  1.00  0.00     0.074 A 
ATOM     61  C   UNL A   1      44.593  27.323  30.481  1.00  0.00     0.031 C 
ATOM     62  C   UNL A   1      44.953  29.818  29.918  1.00  0.00     0.037 A 
BRANCH  49  63
ATOM     63  C   UNL A   1      42.511  28.216  34.415  1.00  0.00     0.057 A 
ATOM     64  C   UNL A   1      42.212  28.328  35.788  1.00  0.00     0.134 A 
ATOM     65  C   UNL A   1      42.856  26.924  33.982  1.00  0.00     0.134 A 
ATOM     66  F   UNL A   1      41.790  29.473  36.340  1.00  0.00    -0.206 F 
ATOM     67  C   UNL A   1      42.224  27.236  36.659  1.00  0.00     0.040 A 
ATOM     68  C   UNL A   1      42.823  25.814  34.835  1.00  0.00     0.040 A 
ATOM     69  F   UNL A   1      43.146  26.684  32.693  1.00  0.00    -0.206 F 
ATOM     70  C   UNL A   1      42.496  25.967  36.176  1.00  0.00     0.006 A 
ENDBRANCH  49  63
BRANCH  50  71
ATOM     71  C   UNL A   1      43.703  25.089  26.660  1.00  0.00     0.057 A 
ATOM     72  C   UNL A   1      44.404  25.063  25.444  1.00  0.00     0.134 A 
ATOM     73  C   UNL A   1      43.018  23.912  27.002  1.00  0.00     0.134 A 
ATOM     74  F   UNL A   1      45.032  26.155  24.985  1.00  0.00    -0.206 F 
ATOM     75  C   UNL A   1      44.405  23.944  24.603  1.00  0.00     0.040 A 
ATOM     76  C   UNL A   1      43.007  22.786  26.167  1.00  0.00     0.040 A 
ATOM     77  F   UNL A   1      42.283  23.851  28.122  1.00  0.00    -0.206 F 
ATOM     78  C   UNL A   1      43.692  22.804  24.957  1.00  0.00     0.006 A 
ENDBRANCH  50  71
BRANCH  62  79
ATOM     79  C   UNL A   1      45.265  30.743  28.774  1.00  0.00     0.057 A 
ATOM     80  C   UNL A   1      44.216  31.181  27.958  1.00  0.00     0.134 A 
ATOM     81  C   UNL A   1      46.561  31.129  28.400  1.00  0.00     0.134 A 
ATOM     82  F   UNL A   1      42.953  30.806  28.219  1.00  0.00    -0.206 F 
ATOM     83  C   UNL A   1      44.440  31.985  26.838  1.00  0.00     0.040 A 
ATOM     84  C   UNL A   1      46.795  31.963  27.302  1.00  0.00     0.040 A 
ATOM     85  F   UNL A   1      47.638  30.678  29.057  1.00  0.00    -0.206 F 
ATOM     86  C   UNL A   1      45.730  32.392  26.515  1.00  0.00     0.006 A 
ENDBRANCH  62  79
ENDBRANCH  36  37
ENDBRANCH  28  31
ENDBRANCH  26  27
ENDBRANCH   1  26
TORSDOF 12
ENDMDL
MODEL 3
REMARK VINA RESULT:     -12.4      1.228      1.935
REMARK SMILES Cc1ccc2c(CC(=O)N3CCC(C(=O)NCCCNC(=O)c4ccc(-c5c6nc(c(-c7c(F)cccc7F)c7ccc([nH]7)c(-c7c(F)cccc7F)c7nc(c(-c8c(F)cccc8F)c8ccc5[nH]8)C=C7)C=C6)cc4)CC3)coc2c1
REMARK SMILES IDX 18 1 17 2 16 3 14 4 15 5 13 7 8 8 9 9 10 10 11 11 78 12
REMARK SMILES IDX 12 13 77 14 7 15 6 16 1 17 2 18 3 19 82 20 4 21 81 22 5 23
REMARK SMILES IDX 80 24 79 25 19 26 20 27 21 28 22 30 23 31 24 32 76 33 25 34
REMARK SMILES IDX 75 35 26 36 27 37 28 38 69 39 29 40 74 41 68 42 70 43 30 44
REMARK SMILES IDX 73 45 67 46 66 47 31 49 57 50 40 51 56 52 41 53 44 54 55 55
REMARK SMILES IDX 71 56 42 57 43 58 54 60 72 61 45 62 32 63 33 64 38 65 34 66
REMARK SMILES IDX 35 67 37 68 39 69 36 70 58 71 59 72 64 73 60 74 61 75 63 76
REMARK SMILES IDX 65 77 62 78 46 79 47 80 52 81 48 82 49 83 51 84 53 85 50 86
REMARK H PARENT 16 6 20 29 70 48 44 59
REMARK Flexibility Score: inf
ROOT
ATOM      1  C   UNL A   1      32.147  30.764  26.770  1.00  0.00     0.042 C 
ENDROOT
BRANCH   1   2
ATOM      2  C   UNL A   1      31.819  30.051  25.458  1.00  0.00     0.117 C 
BRANCH   2   3
ATOM      3  N   UNL A   1      33.005  29.689  24.698  1.00  0.00    -0.356 N 
ATOM      4  C   UNL A   1      33.305  28.591  23.954  1.00  0.00     0.223 C 
ATOM      5  O   UNL A   1      34.395  28.577  23.377  1.00  0.00    -0.275 OA
ATOM      6  H   UNL A   1      33.722  30.362  24.727  1.00  0.00     0.163 HD
BRANCH   4   7
ATOM      7  C   UNL A   1      32.351  27.412  23.809  1.00  0.00     0.082 C 
ATOM      8  C   UNL A   1      32.864  23.551  23.016  1.00  0.00     0.227 C 
ATOM      9  O   UNL A   1      33.594  23.614  22.020  1.00  0.00    -0.275 OA
ATOM     10  N   UNL A   1      32.009  24.600  23.336  1.00  0.00    -0.342 N 
ATOM     11  C   UNL A   1      31.607  25.523  22.285  1.00  0.00     0.120 C 
ATOM     12  C   UNL A   1      31.754  25.100  24.681  1.00  0.00     0.120 C 
ATOM     13  C   UNL A   1      32.357  26.842  22.385  1.00  0.00     0.035 C 
ATOM     14  C   UNL A   1      32.554  26.378  24.926  1.00  0.00     0.035 C 
BRANCH   8  15
ATOM     15  C   UNL A   1      32.719  22.219  23.748  1.00  0.00     0.139 C 
BRANCH  15  16
ATOM     16  C   UNL A   1      33.947  21.641  24.349  1.00  0.00     0.008 A 
ATOM     17  C   UNL A   1      38.915  23.507  26.431  1.00  0.00     0.044 C 
ATOM     18  C   UNL A   1      37.565  23.105  25.910  1.00  0.00    -0.047 A 
ATOM     19  C   UNL A   1      36.606  24.082  25.605  1.00  0.00     0.004 A 
ATOM     20  C   UNL A   1      37.263  21.742  25.752  1.00  0.00     0.051 A 
ATOM     21  C   UNL A   1      35.345  23.733  25.104  1.00  0.00     0.012 A 
ATOM     22  C   UNL A   1      36.000  21.427  25.251  1.00  0.00     0.134 A 
ATOM     23  C   UNL A   1      35.042  22.372  24.912  1.00  0.00     0.024 A 
ATOM     24  O   UNL A   1      35.533  20.174  25.000  1.00  0.00    -0.464 OA
ATOM     25  C   UNL A   1      34.289  20.309  24.470  1.00  0.00     0.200 A 
ENDBRANCH  15  16
ENDBRANCH   8  15
ENDBRANCH   4   7
ENDBRANCH   2   3
ENDBRANCH   1   2
BRANCH   1  26
ATOM     26  C   UNL A   1      33.589  30.596  27.248  1.00  0.00     0.118 C 
BRANCH  26  27
ATOM     27  N   UNL A   1      33.959  31.456  28.357  1.00  0.00    -0.352 N 
ATOM     28  C   UNL A   1      35.090  31.654  29.095  1.00  0.00     0.251 C 
ATOM     29  H   UNL A   1      33.216  32.034  28.646  1.00  0.00     0.163 HD
ATOM     30  O   UNL A   1      35.066  32.630  29.857  1.00  0.00    -0.269 OA
BRANCH  28  31
ATOM     31  C   UNL A   1      36.291  30.776  29.111  1.00  0.00     0.039 A 
ATOM     32  C   UNL A   1      36.291  29.404  29.354  1.00  0.00     0.014 A 
ATOM     33  C   UNL A   1      37.532  31.426  28.951  1.00  0.00     0.014 A 
ATOM     34  C   UNL A   1      37.494  28.729  29.547  1.00  0.00     0.010 A 
ATOM     35  C   UNL A   1      38.739  30.752  29.119  1.00  0.00     0.010 A 
ATOM     36  C   UNL A   1      38.718  29.410  29.473  1.00  0.00    -0.014 A 
BRANCH  36  37
ATOM     37  C   UNL A   1      39.943  28.632  29.666  1.00  0.00     0.031 A 
ATOM     38  C   UNL A   1      40.424  28.595  31.075  1.00  0.00     0.074 A 
ATOM     39  C   UNL A   1      40.590  27.935  28.708  1.00  0.00     0.049 A 
ATOM     40  N   UNL A   1      41.495  29.131  31.561  1.00  0.00    -0.248 NA
ATOM     41  C   UNL A   1      39.541  27.993  32.086  1.00  0.00     0.031 C 
ATOM     42  C   UNL A   1      40.150  27.629  27.346  1.00  0.00     0.029 A 
ATOM     43  N   UNL A   1      41.791  27.288  28.791  1.00  0.00    -0.354 N 
ATOM     44  C   UNL A   1      41.524  28.778  32.906  1.00  0.00     0.074 A 
ATOM     45  C   UNL A   1      40.239  28.199  33.204  1.00  0.00     0.031 C 
ATOM     46  C   UNL A   1      40.968  26.693  26.807  1.00  0.00     0.029 A 
ATOM     47  C   UNL A   1      42.070  26.444  27.723  1.00  0.00     0.049 A 
ATOM     48  H   UNL A   1      42.410  27.411  29.548  1.00  0.00     0.167 HD
ATOM     49  C   UNL A   1      42.687  28.781  33.613  1.00  0.00     0.037 A 
ATOM     50  C   UNL A   1      43.115  25.584  27.609  1.00  0.00     0.037 A 
ATOM     51  C   UNL A   1      43.689  29.604  32.988  1.00  0.00     0.049 A 
ATOM     52  C   UNL A   1      44.168  26.021  28.551  1.00  0.00     0.074 A 
ATOM     53  C   UNL A   1      43.780  30.937  32.634  1.00  0.00     0.029 A 
ATOM     54  N   UNL A   1      44.705  28.979  32.308  1.00  0.00    -0.354 N 
ATOM     55  N   UNL A   1      44.887  27.095  28.394  1.00  0.00    -0.248 NA
ATOM     56  C   UNL A   1      44.145  25.476  29.899  1.00  0.00     0.031 C 
ATOM     57  C   UNL A   1      44.497  30.945  31.400  1.00  0.00     0.029 A 
ATOM     58  C   UNL A   1      44.844  29.626  31.108  1.00  0.00     0.049 A 
ATOM     59  H   UNL A   1      45.232  28.210  32.623  1.00  0.00     0.167 HD
ATOM     60  C   UNL A   1      45.024  27.612  29.672  1.00  0.00     0.074 A 
ATOM     61  C   UNL A   1      44.638  26.522  30.565  1.00  0.00     0.031 C 
ATOM     62  C   UNL A   1      45.169  28.954  29.874  1.00  0.00     0.037 A 
BRANCH  49  63
ATOM     63  C   UNL A   1      43.034  27.729  34.638  1.00  0.00     0.057 A 
ATOM     64  C   UNL A   1      42.887  27.913  36.027  1.00  0.00     0.134 A 
ATOM     65  C   UNL A   1      43.209  26.395  34.227  1.00  0.00     0.134 A 
ATOM     66  F   UNL A   1      42.633  29.111  36.570  1.00  0.00    -0.206 F 
ATOM     67  C   UNL A   1      42.882  26.853  36.937  1.00  0.00     0.040 A 
ATOM     68  C   UNL A   1      43.155  25.321  35.124  1.00  0.00     0.040 A 
ATOM     69  F   UNL A   1      43.344  26.087  32.927  1.00  0.00    -0.206 F 
ATOM     70  C   UNL A   1      42.981  25.548  36.483  1.00  0.00     0.006 A 
ENDBRANCH  49  63
BRANCH  50  71
ATOM     71  C   UNL A   1      43.185  24.267  26.935  1.00  0.00     0.057 A 
ATOM     72  C   UNL A   1      43.651  24.155  25.615  1.00  0.00     0.134 A 
ATOM     73  C   UNL A   1      42.525  23.142  27.453  1.00  0.00     0.134 A 
ATOM     74  F   UNL A   1      44.230  25.194  24.996  1.00  0.00    -0.206 F 
ATOM     75  C   UNL A   1      43.451  23.003  24.845  1.00  0.00     0.040 A 
ATOM     76  C   UNL A   1      42.314  21.984  26.691  1.00  0.00     0.040 A 
ATOM     77  F   UNL A   1      42.004  23.164  28.689  1.00  0.00    -0.206 F 
ATOM     78  C   UNL A   1      42.767  21.917  25.378  1.00  0.00     0.006 A 
ENDBRANCH  50  71
BRANCH  62  79
ATOM     79  C   UNL A   1      45.453  29.809  28.671  1.00  0.00     0.057 A 
ATOM     80  C   UNL A   1      46.780  30.150  28.385  1.00  0.00     0.134 A 
ATOM     81  C   UNL A   1      44.464  30.380  27.855  1.00  0.00     0.134 A 
ATOM     82  F   UNL A   1      47.778  29.689  29.157  1.00  0.00    -0.206 F 
ATOM     83  C   UNL A   1      47.113  30.997  27.326  1.00  0.00     0.040 A 
ATOM     84  C   UNL A   1      44.787  31.201  26.769  1.00  0.00     0.040 A 
ATOM     85  F   UNL A   1      43.162  30.197  28.109  1.00  0.00    -0.206 F 
ATOM     86  C   UNL A   1      46.116  31.513  26.503  1.00  0.00     0.006 A 
ENDBRANCH  62  79
ENDBRANCH  36  37
ENDBRANCH  28  31
ENDBRANCH  26  27
ENDBRANCH   1  26
TORSDOF 12
ENDMDL
