MODEL 1
REMARK VINA RESULT:     -11.9      0.000      0.000
REMARK SMILES O=C(NCc1ccc(C(=O)NCCCNC(=O)c2ccc(-c3c4nc(c(-c5c(F)cccc5F)c5ccc([nH]5)c(-c5c(F)cccc5F)c5nc(c(-c6c(F)cccc6F)c6ccc3[nH]6)C=C5)C=C4)cc2)o1)N[C@@H]1CCS(=O)(=O)C1
REMARK SMILES IDX 12 1 11 2 9 3 10 4 8 6 5 7 6 8 72 9 7 10 4 11 3 12 1 13 2 14
REMARK SMILES IDX 73 15 74 18 75 19 80 20 76 21 77 22 78 23 79 24 13 25 14 26
REMARK SMILES IDX 15 27 16 28 17 30 18 31 19 32 71 33 20 34 70 35 21 36 22 37
REMARK SMILES IDX 23 38 64 39 24 40 69 41 63 42 65 43 25 44 68 45 62 46 61 47
REMARK SMILES IDX 26 49 52 50 35 51 51 52 36 53 39 54 50 55 66 56 37 57 38 58
REMARK SMILES IDX 49 60 67 61 40 62 27 63 28 64 33 65 29 66 30 67 32 68 34 69
REMARK SMILES IDX 31 70 53 71 54 72 59 73 55 74 56 75 58 76 60 77 57 78 41 79
REMARK SMILES IDX 42 80 47 81 43 82 44 83 46 84 48 85 45 86
REMARK H PARENT 11 5 3 16 73 17 15 29 65 48 39 59
REMARK Flexibility Score: inf
ROOT
ATOM      1  C   UNL A   1      36.072  20.307  24.981  1.00  0.00     0.118 C 
ENDROOT
BRANCH   1   2
ATOM      2  N   UNL A   1      34.888  19.481  24.877  1.00  0.00    -0.349 N 
ATOM      3  C   UNL A   1      33.599  19.685  25.313  1.00  0.00     0.286 C 
ATOM      4  O   UNL A   1      32.788  18.814  24.985  1.00  0.00    -0.266 OA
ATOM      5  H   UNL A   1      35.030  18.624  24.413  1.00  0.00     0.163 HD
BRANCH   3   6
ATOM      6  C   UNL A   1      33.230  20.854  26.092  1.00  0.00     0.191 A 
ATOM      7  C   UNL A   1      31.941  22.619  26.481  1.00  0.00     0.124 A 
ATOM      8  C   UNL A   1      32.902  22.615  27.466  1.00  0.00     0.048 A 
ATOM      9  O   UNL A   1      32.141  21.567  25.641  1.00  0.00    -0.454 OA
ATOM     10  C   UNL A   1      33.690  21.460  27.248  1.00  0.00     0.056 A 
BRANCH   7  11
ATOM     11  C   UNL A   1      30.771  23.481  26.183  1.00  0.00     0.193 C 
BRANCH  11  12
ATOM     12  N   UNL A   1      30.963  24.766  26.823  1.00  0.00    -0.331 N 
ATOM     13  O   UNL A   1      31.483  26.921  27.054  1.00  0.00    -0.249 OA
ATOM     14  C   UNL A   1      31.226  25.983  26.306  1.00  0.00     0.315 C 
ATOM     15  N   UNL A   1      31.194  26.107  24.952  1.00  0.00    -0.334 N 
ATOM     16  H   UNL A   1      30.887  24.747  27.805  1.00  0.00     0.165 HD
ATOM     17  H   UNL A   1      30.971  25.322  24.401  1.00  0.00     0.165 HD
BRANCH  15  18
ATOM     18  C   UNL A   1      31.482  27.380  24.301  1.00  0.00     0.099 C 
ATOM     19  C   UNL A   1      30.773  27.504  22.949  1.00  0.00     0.042 C 
ATOM     20  C   UNL A   1      32.973  27.549  24.020  1.00  0.00     0.161 C 
ATOM     21  C   UNL A   1      31.541  26.645  21.951  1.00  0.00     0.139 C 
ATOM     22  S   UNL A   1      33.242  26.675  22.493  1.00  0.00     0.152 S 
ATOM     23  O   UNL A   1      33.634  25.312  22.803  1.00  0.00    -0.229 OA
ATOM     24  O   UNL A   1      34.007  27.514  21.598  1.00  0.00    -0.229 OA
ENDBRANCH  15  18
ENDBRANCH  11  12
ENDBRANCH   7  11
ENDBRANCH   3   6
ENDBRANCH   1   2
BRANCH   1  25
ATOM     25  C   UNL A   1      37.348  19.469  24.927  1.00  0.00     0.042 C 
BRANCH  25  26
ATOM     26  C   UNL A   1      38.587  20.235  25.392  1.00  0.00     0.118 C 
BRANCH  26  27
ATOM     27  N   UNL A   1      39.727  19.348  25.596  1.00  0.00    -0.352 N 
ATOM     28  C   UNL A   1      41.010  19.609  25.996  1.00  0.00     0.251 C 
ATOM     29  H   UNL A   1      39.541  18.399  25.414  1.00  0.00     0.163 HD
ATOM     30  O   UNL A   1      41.866  18.739  25.853  1.00  0.00    -0.269 OA
BRANCH  28  31
ATOM     31  C   UNL A   1      41.381  20.908  26.595  1.00  0.00     0.039 A 
ATOM     32  C   UNL A   1      41.922  21.892  25.762  1.00  0.00     0.014 A 
ATOM     33  C   UNL A   1      41.274  21.142  27.968  1.00  0.00     0.014 A 
ATOM     34  C   UNL A   1      42.313  23.118  26.298  1.00  0.00     0.010 A 
ATOM     35  C   UNL A   1      41.587  22.397  28.490  1.00  0.00     0.010 A 
ATOM     36  C   UNL A   1      42.120  23.394  27.662  1.00  0.00    -0.014 A 
BRANCH  36  37
ATOM     37  C   UNL A   1      42.462  24.729  28.215  1.00  0.00     0.031 A 
ATOM     38  C   UNL A   1      43.874  25.062  28.611  1.00  0.00     0.074 A 
ATOM     39  C   UNL A   1      41.481  25.637  28.383  1.00  0.00     0.049 A 
ATOM     40  N   UNL A   1      44.355  26.186  29.083  1.00  0.00    -0.248 NA
ATOM     41  C   UNL A   1      44.874  23.991  28.483  1.00  0.00     0.031 C 
ATOM     42  C   UNL A   1      40.064  25.410  28.096  1.00  0.00     0.029 A 
ATOM     43  N   UNL A   1      41.526  26.932  28.832  1.00  0.00    -0.354 N 
ATOM     44  C   UNL A   1      45.705  25.955  29.313  1.00  0.00     0.074 A 
ATOM     45  C   UNL A   1      45.956  24.567  28.987  1.00  0.00     0.031 C 
ATOM     46  C   UNL A   1      39.380  26.539  28.333  1.00  0.00     0.029 A 
ATOM     47  C   UNL A   1      40.303  27.557  28.826  1.00  0.00     0.049 A 
ATOM     48  H   UNL A   1      42.355  27.372  29.128  1.00  0.00     0.167 HD
ATOM     49  C   UNL A   1      46.655  26.824  29.734  1.00  0.00     0.037 A 
ATOM     50  C   UNL A   1      39.962  28.811  29.175  1.00  0.00     0.037 A 
ATOM     51  C   UNL A   1      46.401  28.208  30.049  1.00  0.00     0.049 A 
ATOM     52  C   UNL A   1      41.034  29.757  29.635  1.00  0.00     0.074 A 
ATOM     53  C   UNL A   1      47.304  29.187  30.428  1.00  0.00     0.029 A 
ATOM     54  N   UNL A   1      45.150  28.806  30.029  1.00  0.00    -0.354 N 
ATOM     55  N   UNL A   1      42.322  29.548  29.769  1.00  0.00    -0.248 NA
ATOM     56  C   UNL A   1      40.607  31.119  29.981  1.00  0.00     0.031 C 
ATOM     57  C   UNL A   1      46.591  30.361  30.692  1.00  0.00     0.029 A 
ATOM     58  C   UNL A   1      45.252  30.133  30.417  1.00  0.00     0.049 A 
ATOM     59  H   UNL A   1      44.312  28.354  29.778  1.00  0.00     0.167 HD
ATOM     60  C   UNL A   1      42.862  30.756  30.192  1.00  0.00     0.074 A 
ATOM     61  C   UNL A   1      41.764  31.699  30.263  1.00  0.00     0.031 C 
ATOM     62  C   UNL A   1      44.148  31.058  30.496  1.00  0.00     0.037 A 
BRANCH  49  63
ATOM     63  C   UNL A   1      48.058  26.303  29.880  1.00  0.00     0.057 A 
ATOM     64  C   UNL A   1      48.975  26.331  28.820  1.00  0.00     0.134 A 
ATOM     65  C   UNL A   1      48.509  25.795  31.105  1.00  0.00     0.134 A 
ATOM     66  F   UNL A   1      48.607  26.795  27.615  1.00  0.00    -0.206 F 
ATOM     67  C   UNL A   1      50.276  25.844  28.963  1.00  0.00     0.040 A 
ATOM     68  C   UNL A   1      49.817  25.334  31.270  1.00  0.00     0.040 A 
ATOM     69  F   UNL A   1      47.689  25.742  32.166  1.00  0.00    -0.206 F 
ATOM     70  C   UNL A   1      50.702  25.351  30.194  1.00  0.00     0.006 A 
ENDBRANCH  49  63
BRANCH  50  71
ATOM     71  C   UNL A   1      38.547  29.252  29.074  1.00  0.00     0.057 A 
ATOM     72  C   UNL A   1      37.709  29.261  30.195  1.00  0.00     0.134 A 
ATOM     73  C   UNL A   1      37.998  29.671  27.857  1.00  0.00     0.134 A 
ATOM     74  F   UNL A   1      38.173  28.855  31.387  1.00  0.00    -0.206 F 
ATOM     75  C   UNL A   1      36.371  29.646  30.106  1.00  0.00     0.040 A 
ATOM     76  C   UNL A   1      36.670  30.087  27.758  1.00  0.00     0.040 A 
ATOM     77  F   UNL A   1      38.751  29.697  26.747  1.00  0.00    -0.206 F 
ATOM     78  C   UNL A   1      35.849  30.067  28.884  1.00  0.00     0.006 A 
ENDBRANCH  50  71
BRANCH  62  79
ATOM     79  C   UNL A   1      44.433  32.474  30.912  1.00  0.00     0.057 A 
ATOM     80  C   UNL A   1      44.407  32.872  32.256  1.00  0.00     0.134 A 
ATOM     81  C   UNL A   1      44.733  33.452  29.955  1.00  0.00     0.134 A 
ATOM     82  F   UNL A   1      44.114  31.989  33.221  1.00  0.00    -0.206 F 
ATOM     83  C   UNL A   1      44.625  34.200  32.628  1.00  0.00     0.040 A 
ATOM     84  C   UNL A   1      44.987  34.774  30.317  1.00  0.00     0.040 A 
ATOM     85  F   UNL A   1      44.787  33.137  28.652  1.00  0.00    -0.206 F 
ATOM     86  C   UNL A   1      44.920  35.155  31.657  1.00  0.00     0.006 A 
ENDBRANCH  62  79
ENDBRANCH  36  37
ENDBRANCH  28  31
ENDBRANCH  26  27
ENDBRANCH  25  26
ENDBRANCH   1  25
TORSDOF 13
ENDMDL
MODEL 2
REMARK VINA RESULT:     -11.9      2.697      7.975
REMARK SMILES O=C(NCc1ccc(C(=O)NCCCNC(=O)c2ccc(-c3c4nc(c(-c5c(F)cccc5F)c5ccc([nH]5)c(-c5c(F)cccc5F)c5nc(c(-c6c(F)cccc6F)c6ccc3[nH]6)C=C5)C=C4)cc2)o1)N[C@@H]1CCS(=O)(=O)C1
REMARK SMILES IDX 12 1 11 2 9 3 10 4 8 6 5 7 6 8 72 9 7 10 4 11 3 12 1 13 2 14
REMARK SMILES IDX 73 15 74 18 75 19 80 20 76 21 77 22 78 23 79 24 13 25 14 26
REMARK SMILES IDX 15 27 16 28 17 30 18 31 19 32 71 33 20 34 70 35 21 36 22 37
REMARK SMILES IDX 23 38 64 39 24 40 69 41 63 42 65 43 25 44 68 45 62 46 61 47
REMARK SMILES IDX 26 49 52 50 35 51 51 52 36 53 39 54 50 55 66 56 37 57 38 58
REMARK SMILES IDX 49 60 67 61 40 62 27 63 28 64 33 65 29 66 30 67 32 68 34 69
REMARK SMILES IDX 31 70 53 71 54 72 59 73 55 74 56 75 58 76 60 77 57 78 41 79
REMARK SMILES IDX 42 80 47 81 43 82 44 83 46 84 48 85 45 86
REMARK H PARENT 11 5 3 16 73 17 15 29 65 48 39 59
REMARK Flexibility Score: inf
ROOT
ATOM      1  C   UNL A   1      32.705  29.798  25.942  1.00  0.00     0.118 C 
ENDROOT
BRANCH   1   2
ATOM      2  N   UNL A   1      33.281  29.588  24.630  1.00  0.00    -0.349 N 
ATOM      3  C   UNL A   1      32.835  28.864  23.550  1.00  0.00     0.286 C 
ATOM      4  O   UNL A   1      33.525  28.959  22.531  1.00  0.00    -0.266 OA
ATOM      5  H   UNL A   1      34.142  30.044  24.487  1.00  0.00     0.163 HD
BRANCH   3   6
ATOM      6  C   UNL A   1      31.628  28.058  23.612  1.00  0.00     0.191 A 
ATOM      7  C   UNL A   1      30.585  26.108  23.794  1.00  0.00     0.124 A 
ATOM      8  C   UNL A   1      29.603  27.061  23.654  1.00  0.00     0.048 A 
ATOM      9  O   UNL A   1      31.809  26.701  23.756  1.00  0.00    -0.454 OA
ATOM     10  C   UNL A   1      30.267  28.310  23.592  1.00  0.00     0.056 A 
BRANCH   7  11
ATOM     11  C   UNL A   1      30.576  24.638  23.997  1.00  0.00     0.193 C 
BRANCH  11  12
ATOM     12  N   UNL A   1      30.368  24.363  25.405  1.00  0.00    -0.331 N 
ATOM     13  O   UNL A   1      30.602  23.382  27.392  1.00  0.00    -0.249 OA
ATOM     14  C   UNL A   1      31.039  23.566  26.261  1.00  0.00     0.315 C 
ATOM     15  N   UNL A   1      32.189  22.995  25.812  1.00  0.00    -0.334 N 
ATOM     16  H   UNL A   1      29.606  24.841  25.805  1.00  0.00     0.165 HD
ATOM     17  H   UNL A   1      32.498  23.187  24.897  1.00  0.00     0.165 HD
BRANCH  15  18
ATOM     18  C   UNL A   1      32.973  22.105  26.660  1.00  0.00     0.099 C 
ATOM     19  C   UNL A   1      34.148  22.833  27.320  1.00  0.00     0.042 C 
ATOM     20  C   UNL A   1      33.576  20.950  25.867  1.00  0.00     0.161 C 
ATOM     21  C   UNL A   1      35.224  23.019  26.258  1.00  0.00     0.139 C 
ATOM     22  S   UNL A   1      35.061  21.625  25.153  1.00  0.00     0.152 S 
ATOM     23  O   UNL A   1      34.748  22.138  23.832  1.00  0.00    -0.229 OA
ATOM     24  O   UNL A   1      36.155  20.709  25.386  1.00  0.00    -0.229 OA
ENDBRANCH  15  18
ENDBRANCH  11  12
ENDBRANCH   7  11
ENDBRANCH   3   6
ENDBRANCH   1   2
BRANCH   1  25
ATOM     25  C   UNL A   1      33.226  28.781  26.955  1.00  0.00     0.042 C 
BRANCH  25  26
ATOM     26  C   UNL A   1      34.667  29.050  27.388  1.00  0.00     0.118 C 
BRANCH  26  27
ATOM     27  N   UNL A   1      34.751  30.158  28.332  1.00  0.00    -0.352 N 
ATOM     28  C   UNL A   1      35.762  30.558  29.163  1.00  0.00     0.251 C 
ATOM     29  H   UNL A   1      33.940  30.715  28.379  1.00  0.00     0.163 HD
ATOM     30  O   UNL A   1      35.514  31.369  30.053  1.00  0.00    -0.269 OA
BRANCH  28  31
ATOM     31  C   UNL A   1      37.137  30.038  29.009  1.00  0.00     0.039 A 
ATOM     32  C   UNL A   1      37.721  30.075  27.740  1.00  0.00     0.014 A 
ATOM     33  C   UNL A   1      37.824  29.451  30.074  1.00  0.00     0.014 A 
ATOM     34  C   UNL A   1      39.005  29.564  27.550  1.00  0.00     0.010 A 
ATOM     35  C   UNL A   1      39.138  29.016  29.903  1.00  0.00     0.010 A 
ATOM     36  C   UNL A   1      39.738  29.059  28.637  1.00  0.00    -0.014 A 
BRANCH  36  37
ATOM     37  C   UNL A   1      41.134  28.590  28.448  1.00  0.00     0.031 A 
ATOM     38  C   UNL A   1      41.429  27.153  28.118  1.00  0.00     0.074 A 
ATOM     39  C   UNL A   1      42.144  29.468  28.602  1.00  0.00     0.049 A 
ATOM     40  N   UNL A   1      42.585  26.579  27.893  1.00  0.00    -0.248 NA
ATOM     41  C   UNL A   1      40.282  26.234  28.055  1.00  0.00     0.031 C 
ATOM     42  C   UNL A   1      41.989  30.873  28.984  1.00  0.00     0.029 A 
ATOM     43  N   UNL A   1      43.499  29.312  28.454  1.00  0.00    -0.354 N 
ATOM     44  C   UNL A   1      42.305  25.237  27.669  1.00  0.00     0.074 A 
ATOM     45  C   UNL A   1      40.878  25.069  27.845  1.00  0.00     0.031 C 
ATOM     46  C   UNL A   1      43.194  31.461  28.998  1.00  0.00     0.029 A 
ATOM     47  C   UNL A   1      44.210  30.468  28.664  1.00  0.00     0.049 A 
ATOM     48  H   UNL A   1      43.920  28.455  28.218  1.00  0.00     0.167 HD
ATOM     49  C   UNL A   1      43.154  24.239  27.324  1.00  0.00     0.037 A 
ATOM     50  C   UNL A   1      45.533  30.703  28.594  1.00  0.00     0.037 A 
ATOM     51  C   UNL A   1      44.573  24.414  27.140  1.00  0.00     0.049 A 
ATOM     52  C   UNL A   1      46.453  29.581  28.205  1.00  0.00     0.074 A 
ATOM     53  C   UNL A   1      45.513  23.481  26.735  1.00  0.00     0.029 A 
ATOM     54  N   UNL A   1      45.259  25.599  27.360  1.00  0.00    -0.354 N 
ATOM     55  N   UNL A   1      46.165  28.335  27.915  1.00  0.00    -0.248 NA
ATOM     56  C   UNL A   1      47.884  29.902  28.123  1.00  0.00     0.031 C 
ATOM     57  C   UNL A   1      46.773  24.087  26.764  1.00  0.00     0.029 A 
ATOM     58  C   UNL A   1      46.613  25.416  27.127  1.00  0.00     0.049 A 
ATOM     59  H   UNL A   1      44.844  26.447  27.641  1.00  0.00     0.167 HD
ATOM     60  C   UNL A   1      47.373  27.730  27.593  1.00  0.00     0.074 A 
ATOM     61  C   UNL A   1      48.392  28.755  27.696  1.00  0.00     0.031 C 
ATOM     62  C   UNL A   1      47.618  26.442  27.245  1.00  0.00     0.037 A 
BRANCH  49  63
ATOM     63  C   UNL A   1      42.571  22.868  27.122  1.00  0.00     0.057 A 
ATOM     64  C   UNL A   1      42.403  22.312  25.846  1.00  0.00     0.134 A 
ATOM     65  C   UNL A   1      42.199  22.080  28.219  1.00  0.00     0.134 A 
ATOM     66  F   UNL A   1      42.728  23.015  24.750  1.00  0.00    -0.206 F 
ATOM     67  C   UNL A   1      41.859  21.038  25.667  1.00  0.00     0.040 A 
ATOM     68  C   UNL A   1      41.683  20.792  28.055  1.00  0.00     0.040 A 
ATOM     69  F   UNL A   1      42.336  22.544  29.470  1.00  0.00    -0.206 F 
ATOM     70  C   UNL A   1      41.504  20.272  26.775  1.00  0.00     0.006 A 
ENDBRANCH  49  63
BRANCH  50  71
ATOM     71  C   UNL A   1      46.062  32.064  28.869  1.00  0.00     0.057 A 
ATOM     72  C   UNL A   1      46.396  32.462  30.169  1.00  0.00     0.134 A 
ATOM     73  C   UNL A   1      46.242  32.998  27.843  1.00  0.00     0.134 A 
ATOM     74  F   UNL A   1      46.231  31.617  31.197  1.00  0.00    -0.206 F 
ATOM     75  C   UNL A   1      46.867  33.747  30.442  1.00  0.00     0.040 A 
ATOM     76  C   UNL A   1      46.740  34.276  28.097  1.00  0.00     0.040 A 
ATOM     77  F   UNL A   1      45.952  32.675  26.574  1.00  0.00    -0.206 F 
ATOM     78  C   UNL A   1      47.046  34.657  29.402  1.00  0.00     0.006 A 
ENDBRANCH  50  71
BRANCH  62  79
ATOM     79  C   UNL A   1      49.044  26.084  26.932  1.00  0.00     0.057 A 
ATOM     80  C   UNL A   1      49.902  25.541  27.898  1.00  0.00     0.134 A 
ATOM     81  C   UNL A   1      49.565  26.288  25.648  1.00  0.00     0.134 A 
ATOM     82  F   UNL A   1      49.471  25.331  29.150  1.00  0.00    -0.206 F 
ATOM     83  C   UNL A   1      51.238  25.256  27.610  1.00  0.00     0.040 A 
ATOM     84  C   UNL A   1      50.889  25.975  25.338  1.00  0.00     0.040 A 
ATOM     85  F   UNL A   1      48.796  26.794  24.672  1.00  0.00    -0.206 F 
ATOM     86  C   UNL A   1      51.734  25.470  26.325  1.00  0.00     0.006 A 
ENDBRANCH  62  79
ENDBRANCH  36  37
ENDBRANCH  28  31
ENDBRANCH  26  27
ENDBRANCH  25  26
ENDBRANCH   1  25
TORSDOF 13
ENDMDL
MODEL 3
REMARK VINA RESULT:     -11.9      4.768     10.098
REMARK SMILES O=C(NCc1ccc(C(=O)NCCCNC(=O)c2ccc(-c3c4nc(c(-c5c(F)cccc5F)c5ccc([nH]5)c(-c5c(F)cccc5F)c5nc(c(-c6c(F)cccc6F)c6ccc3[nH]6)C=C5)C=C4)cc2)o1)N[C@@H]1CCS(=O)(=O)C1
REMARK SMILES IDX 12 1 11 2 9 3 10 4 8 6 5 7 6 8 72 9 7 10 4 11 3 12 1 13 2 14
REMARK SMILES IDX 73 15 74 18 75 19 80 20 76 21 77 22 78 23 79 24 13 25 14 26
REMARK SMILES IDX 15 27 16 28 17 30 18 31 19 32 71 33 20 34 70 35 21 36 22 37
REMARK SMILES IDX 23 38 64 39 24 40 69 41 63 42 65 43 25 44 68 45 62 46 61 47
REMARK SMILES IDX 26 49 52 50 35 51 51 52 36 53 39 54 50 55 66 56 37 57 38 58
REMARK SMILES IDX 49 60 67 61 40 62 27 63 28 64 33 65 29 66 30 67 32 68 34 69
REMARK SMILES IDX 31 70 53 71 54 72 59 73 55 74 56 75 58 76 60 77 57 78 41 79
REMARK SMILES IDX 42 80 47 81 43 82 44 83 46 84 48 85 45 86
REMARK H PARENT 11 5 3 16 73 17 15 29 65 48 39 59
REMARK Flexibility Score: inf
ROOT
ATOM      1  C   UNL A   1      33.445  34.028  28.185  1.00  0.00     0.118 C 
ENDROOT
BRANCH   1   2
ATOM      2  N   UNL A   1      33.332  35.470  28.140  1.00  0.00    -0.349 N 
ATOM      3  C   UNL A   1      33.260  36.406  29.145  1.00  0.00     0.286 C 
ATOM      4  O   UNL A   1      33.260  37.582  28.771  1.00  0.00    -0.266 OA
ATOM      5  H   UNL A   1      33.303  35.847  27.231  1.00  0.00     0.163 HD
BRANCH   3   6
ATOM      6  C   UNL A   1      33.202  36.024  30.545  1.00  0.00     0.191 A 
ATOM      7  C   UNL A   1      34.138  35.248  32.403  1.00  0.00     0.124 A 
ATOM      8  C   UNL A   1      32.816  35.485  32.703  1.00  0.00     0.048 A 
ATOM      9  O   UNL A   1      34.374  35.558  31.099  1.00  0.00    -0.454 OA
ATOM     10  C   UNL A   1      32.233  36.029  31.534  1.00  0.00     0.056 A 
BRANCH   7  11
ATOM     11  C   UNL A   1      35.306  34.773  33.185  1.00  0.00     0.193 C 
BRANCH  11  12
ATOM     12  N   UNL A   1      36.506  34.967  32.395  1.00  0.00    -0.331 N 
ATOM     13  O   UNL A   1      38.618  34.733  31.724  1.00  0.00    -0.249 OA
ATOM     14  C   UNL A   1      37.683  34.309  32.396  1.00  0.00     0.315 C 
ATOM     15  N   UNL A   1      37.771  33.187  33.159  1.00  0.00    -0.334 N 
ATOM     16  H   UNL A   1      36.451  35.705  31.746  1.00  0.00     0.165 HD
ATOM     17  H   UNL A   1      36.983  32.888  33.670  1.00  0.00     0.165 HD
BRANCH  15  18
ATOM     18  C   UNL A   1      39.008  32.419  33.236  1.00  0.00     0.099 C 
ATOM     19  C   UNL A   1      38.809  30.968  32.787  1.00  0.00     0.042 C 
ATOM     20  C   UNL A   1      39.549  32.356  34.662  1.00  0.00     0.161 C 
ATOM     21  C   UNL A   1      38.103  30.233  33.919  1.00  0.00     0.139 C 
ATOM     22  S   UNL A   1      38.643  31.027  35.425  1.00  0.00     0.152 S 
ATOM     23  O   UNL A   1      37.473  31.581  36.081  1.00  0.00    -0.229 OA
ATOM     24  O   UNL A   1      39.572  30.156  36.110  1.00  0.00    -0.229 OA
ENDBRANCH  15  18
ENDBRANCH  11  12
ENDBRANCH   7  11
ENDBRANCH   3   6
ENDBRANCH   1   2
BRANCH   1  25
ATOM     25  C   UNL A   1      34.895  33.581  28.353  1.00  0.00     0.042 C 
BRANCH  25  26
ATOM     26  C   UNL A   1      35.050  32.394  29.303  1.00  0.00     0.118 C 
BRANCH  26  27
ATOM     27  N   UNL A   1      34.426  31.188  28.771  1.00  0.00    -0.352 N 
ATOM     28  C   UNL A   1      34.972  30.052  28.239  1.00  0.00     0.251 C 
ATOM     29  H   UNL A   1      33.442  31.193  28.799  1.00  0.00     0.163 HD
ATOM     30  O   UNL A   1      34.246  29.275  27.623  1.00  0.00    -0.269 OA
BRANCH  28  31
ATOM     31  C   UNL A   1      36.410  29.743  28.393  1.00  0.00     0.039 A 
ATOM     32  C   UNL A   1      36.847  29.215  29.611  1.00  0.00     0.014 A 
ATOM     33  C   UNL A   1      37.337  30.034  27.389  1.00  0.00     0.014 A 
ATOM     34  C   UNL A   1      38.201  28.940  29.805  1.00  0.00     0.010 A 
ATOM     35  C   UNL A   1      38.676  29.682  27.552  1.00  0.00     0.010 A 
ATOM     36  C   UNL A   1      39.124  29.142  28.765  1.00  0.00    -0.014 A 
BRANCH  36  37
ATOM     37  C   UNL A   1      40.551  28.774  28.945  1.00  0.00     0.031 A 
ATOM     38  C   UNL A   1      41.059  27.421  28.526  1.00  0.00     0.074 A 
ATOM     39  C   UNL A   1      41.388  29.663  29.515  1.00  0.00     0.049 A 
ATOM     40  N   UNL A   1      42.277  26.943  28.585  1.00  0.00    -0.248 NA
ATOM     41  C   UNL A   1      40.068  26.472  27.995  1.00  0.00     0.031 C 
ATOM     42  C   UNL A   1      41.001  30.982  30.019  1.00  0.00     0.029 A 
ATOM     43  N   UNL A   1      42.735  29.594  29.763  1.00  0.00    -0.354 N 
ATOM     44  C   UNL A   1      42.198  25.642  28.106  1.00  0.00     0.074 A 
ATOM     45  C   UNL A   1      40.803  25.384  27.818  1.00  0.00     0.031 C 
ATOM     46  C   UNL A   1      42.091  31.615  30.477  1.00  0.00     0.029 A 
ATOM     47  C   UNL A   1      43.246  30.734  30.334  1.00  0.00     0.049 A 
ATOM     48  H   UNL A   1      43.283  28.805  29.551  1.00  0.00     0.167 HD
ATOM     49  C   UNL A   1      43.198  24.751  27.901  1.00  0.00     0.037 A 
ATOM     50  C   UNL A   1      44.505  31.038  30.699  1.00  0.00     0.037 A 
ATOM     51  C   UNL A   1      44.587  25.018  28.181  1.00  0.00     0.049 A 
ATOM     52  C   UNL A   1      45.596  30.034  30.458  1.00  0.00     0.074 A 
ATOM     53  C   UNL A   1      45.685  24.204  27.955  1.00  0.00     0.029 A 
ATOM     54  N   UNL A   1      45.068  26.184  28.757  1.00  0.00    -0.354 N 
ATOM     55  N   UNL A   1      45.520  28.838  29.927  1.00  0.00    -0.248 NA
ATOM     56  C   UNL A   1      46.954  30.430  30.856  1.00  0.00     0.031 C 
ATOM     57  C   UNL A   1      46.821  24.856  28.446  1.00  0.00     0.029 A 
ATOM     58  C   UNL A   1      46.442  26.102  28.921  1.00  0.00     0.049 A 
ATOM     59  H   UNL A   1      44.514  26.957  29.013  1.00  0.00     0.167 HD
ATOM     60  C   UNL A   1      46.819  28.347  29.906  1.00  0.00     0.074 A 
ATOM     61  C   UNL A   1      47.666  29.389  30.451  1.00  0.00     0.031 C 
ATOM     62  C   UNL A   1      47.271  27.142  29.477  1.00  0.00     0.037 A 
BRANCH  49  63
ATOM     63  C   UNL A   1      42.826  23.404  27.348  1.00  0.00     0.057 A 
ATOM     64  C   UNL A   1      42.911  23.113  25.979  1.00  0.00     0.134 A 
ATOM     65  C   UNL A   1      42.405  22.373  28.198  1.00  0.00     0.134 A 
ATOM     66  F   UNL A   1      43.297  24.057  25.107  1.00  0.00    -0.206 F 
ATOM     67  C   UNL A   1      42.562  21.859  25.473  1.00  0.00     0.040 A 
ATOM     68  C   UNL A   1      42.083  21.105  27.707  1.00  0.00     0.040 A 
ATOM     69  F   UNL A   1      42.305  22.576  29.520  1.00  0.00    -0.206 F 
ATOM     70  C   UNL A   1      42.154  20.848  26.340  1.00  0.00     0.006 A 
ENDBRANCH  49  63
BRANCH  50  71
ATOM     71  C   UNL A   1      44.804  32.361  31.304  1.00  0.00     0.057 A 
ATOM     72  C   UNL A   1      44.726  32.560  32.687  1.00  0.00     0.134 A 
ATOM     73  C   UNL A   1      45.171  33.458  30.516  1.00  0.00     0.134 A 
ATOM     74  F   UNL A   1      44.364  31.551  33.495  1.00  0.00    -0.206 F 
ATOM     75  C   UNL A   1      44.978  33.806  33.263  1.00  0.00     0.040 A 
ATOM     76  C   UNL A   1      45.455  34.702  31.080  1.00  0.00     0.040 A 
ATOM     77  F   UNL A   1      45.276  33.331  29.185  1.00  0.00    -0.206 F 
ATOM     78  C   UNL A   1      45.349  34.881  32.458  1.00  0.00     0.006 A 
ENDBRANCH  50  71
BRANCH  62  79
ATOM     79  C   UNL A   1      48.752  26.904  29.563  1.00  0.00     0.057 A 
ATOM     80  C   UNL A   1      49.340  26.277  30.671  1.00  0.00     0.134 A 
ATOM     81  C   UNL A   1      49.602  27.309  28.526  1.00  0.00     0.134 A 
ATOM     82  F   UNL A   1      48.586  25.876  31.705  1.00  0.00    -0.206 F 
ATOM     83  C   UNL A   1      50.722  26.103  30.763  1.00  0.00     0.040 A 
ATOM     84  C   UNL A   1      50.981  27.109  28.590  1.00  0.00     0.040 A 
ATOM     85  F   UNL A   1      49.105  27.904  27.431  1.00  0.00    -0.206 F 
ATOM     86  C   UNL A   1      51.546  26.517  29.718  1.00  0.00     0.006 A 
ENDBRANCH  62  79
ENDBRANCH  36  37
ENDBRANCH  28  31
ENDBRANCH  26  27
ENDBRANCH  25  26
ENDBRANCH   1  25
TORSDOF 13
ENDMDL
