MODEL 1
REMARK VINA RESULT:     -10.1      0.000      0.000
REMARK SMILES CC[C@@H](C(=O)NCCCNC(=O)c1ccc(-c2c3nc(c(-c4c(F)cccc4F)c4ccc([nH]4)c(-c4c(F)cccc4F)c4nc(c(-c5c(F)cccc5F)c5ccc2[nH]5)C=C4)C=C3)cc1)N(C)C(=O)N(C)CC(C)(C)O
REMARK SMILES IDX 4 1 5 2 6 3 3 5 2 6 1 7 67 8 68 9 69 10 70 11 71 12 72 13
REMARK SMILES IDX 73 14 74 15 75 16 76 17 77 18 7 20 8 21 9 22 10 23 11 24
REMARK SMILES IDX 12 26 13 27 14 28 66 29 15 30 65 31 16 32 17 33 18 34 59 35
REMARK SMILES IDX 19 36 64 37 58 38 60 39 20 40 63 41 57 42 56 43 21 45 47 46
REMARK SMILES IDX 30 47 46 48 31 49 34 50 45 51 61 52 32 53 33 54 44 56 62 57
REMARK SMILES IDX 35 58 22 59 23 60 28 61 24 62 25 63 27 64 29 65 26 66 48 67
REMARK SMILES IDX 49 68 54 69 50 70 51 71 53 72 55 73 52 74 36 75 37 76 42 77
REMARK SMILES IDX 38 78 39 79 41 80 43 81 40 82
REMARK H PARENT 6 4 77 19 10 25 60 44 34 55
REMARK Flexibility Score: inf
ROOT
ATOM      1  C   UNL A   1      35.345  22.031  25.897  1.00  0.00     0.242 C 
ATOM      2  O   UNL A   1      34.944  22.092  27.065  1.00  0.00    -0.273 OA
ATOM      3  N   UNL A   1      36.683  21.814  25.800  1.00  0.00    -0.354 N 
ATOM      4  H   UNL A   1      37.159  21.900  26.657  1.00  0.00     0.163 HD
ENDROOT
BRANCH   1   5
ATOM      5  C   UNL A   1      34.388  22.085  24.660  1.00  0.00     0.175 C 
BRANCH   5   6
ATOM      6  C   UNL A   1      33.723  23.430  24.283  1.00  0.00     0.032 C 
ATOM      7  C   UNL A   1      34.359  24.698  24.819  1.00  0.00     0.006 C 
ENDBRANCH   5   6
BRANCH   5   8
ATOM      8  N   UNL A   1      33.343  21.015  24.864  1.00  0.00    -0.316 N 
ATOM      9  C   UNL A   1      32.019  21.504  25.197  1.00  0.00     0.149 C 
BRANCH   8  10
ATOM     10  C   UNL A   1      33.707  19.712  24.553  1.00  0.00     0.320 C 
ATOM     11  O   UNL A   1      34.880  19.358  24.740  1.00  0.00    -0.248 OA
BRANCH  10  12
ATOM     12  N   UNL A   1      32.836  18.776  24.034  1.00  0.00    -0.325 N 
ATOM     13  C   UNL A   1      32.174  18.696  22.740  1.00  0.00     0.148 C 
BRANCH  12  14
ATOM     14  C   UNL A   1      32.435  17.686  24.958  1.00  0.00     0.155 C 
BRANCH  14  15
ATOM     15  C   UNL A   1      33.349  16.425  24.987  1.00  0.00     0.077 C 
ATOM     16  C   UNL A   1      32.610  15.122  25.307  1.00  0.00     0.043 C 
ATOM     17  C   UNL A   1      34.018  16.270  23.613  1.00  0.00     0.043 C 
BRANCH  15  18
ATOM     18  O   UNL A   1      34.413  16.625  25.932  1.00  0.00    -0.389 OA
ATOM     19  H   UNL A   1      34.214  17.398  26.484  1.00  0.00     0.211 HD
ENDBRANCH  15  18
ENDBRANCH  14  15
ENDBRANCH  12  14
ENDBRANCH  10  12
ENDBRANCH   8  10
ENDBRANCH   5   8
ENDBRANCH   1   5
BRANCH   3  20
ATOM     20  C   UNL A   1      37.547  21.482  24.689  1.00  0.00     0.117 C 
BRANCH  20  21
ATOM     21  C   UNL A   1      38.230  20.133  24.901  1.00  0.00     0.042 C 
BRANCH  21  22
ATOM     22  C   UNL A   1      39.147  20.076  26.118  1.00  0.00     0.118 C 
BRANCH  22  23
ATOM     23  N   UNL A   1      40.337  19.270  25.893  1.00  0.00    -0.352 N 
ATOM     24  C   UNL A   1      41.665  19.608  25.972  1.00  0.00     0.251 C 
ATOM     25  H   UNL A   1      40.162  18.334  25.643  1.00  0.00     0.163 HD
ATOM     26  O   UNL A   1      42.514  18.814  25.558  1.00  0.00    -0.269 OA
BRANCH  24  27
ATOM     27  C   UNL A   1      42.098  20.917  26.513  1.00  0.00     0.039 A 
ATOM     28  C   UNL A   1      42.580  21.885  25.625  1.00  0.00     0.014 A 
ATOM     29  C   UNL A   1      42.066  21.194  27.882  1.00  0.00     0.014 A 
ATOM     30  C   UNL A   1      42.948  23.148  26.098  1.00  0.00     0.010 A 
ATOM     31  C   UNL A   1      42.350  22.480  28.341  1.00  0.00     0.010 A 
ATOM     32  C   UNL A   1      42.791  23.472  27.455  1.00  0.00    -0.014 A 
BRANCH  32  33
ATOM     33  C   UNL A   1      43.057  24.847  27.955  1.00  0.00     0.031 A 
ATOM     34  C   UNL A   1      44.452  25.276  28.318  1.00  0.00     0.074 A 
ATOM     35  C   UNL A   1      42.027  25.694  28.146  1.00  0.00     0.049 A 
ATOM     36  N   UNL A   1      44.864  26.412  28.824  1.00  0.00    -0.248 NA
ATOM     37  C   UNL A   1      45.522  24.288  28.108  1.00  0.00     0.031 C 
ATOM     38  C   UNL A   1      40.622  25.391  27.871  1.00  0.00     0.029 A 
ATOM     39  N   UNL A   1      42.002  26.981  28.623  1.00  0.00    -0.354 N 
ATOM     40  C   UNL A   1      46.234  26.272  29.001  1.00  0.00     0.074 A 
ATOM     41  C   UNL A   1      46.575  24.923  28.603  1.00  0.00     0.031 C 
ATOM     42  C   UNL A   1      39.876  26.469  28.154  1.00  0.00     0.029 A 
ATOM     43  C   UNL A   1      40.741  27.525  28.673  1.00  0.00     0.049 A 
ATOM     44  H   UNL A   1      42.810  27.469  28.902  1.00  0.00     0.167 HD
ATOM     45  C   UNL A   1      47.132  27.190  29.438  1.00  0.00     0.037 A 
ATOM     46  C   UNL A   1      40.324  28.732  29.098  1.00  0.00     0.037 A 
ATOM     47  C   UNL A   1      46.792  28.535  29.827  1.00  0.00     0.049 A 
ATOM     48  C   UNL A   1      41.329  29.718  29.620  1.00  0.00     0.074 A 
ATOM     49  C   UNL A   1      47.637  29.558  30.218  1.00  0.00     0.029 A 
ATOM     50  N   UNL A   1      45.500  29.038  29.887  1.00  0.00    -0.354 N 
ATOM     51  N   UNL A   1      42.631  29.598  29.714  1.00  0.00    -0.248 NA
ATOM     52  C   UNL A   1      40.807  31.005  30.101  1.00  0.00     0.031 C 
ATOM     53  C   UNL A   1      46.852  30.664  30.568  1.00  0.00     0.029 A 
ATOM     54  C   UNL A   1      45.523  30.345  30.346  1.00  0.00     0.049 A 
ATOM     55  H   UNL A   1      44.688  28.540  29.640  1.00  0.00     0.167 HD
ATOM     56  C   UNL A   1      43.087  30.797  30.246  1.00  0.00     0.074 A 
ATOM     57  C   UNL A   1      41.922  31.638  30.439  1.00  0.00     0.031 C 
ATOM     58  C   UNL A   1      44.356  31.168  30.546  1.00  0.00     0.037 A 
BRANCH  45  59
ATOM     59  C   UNL A   1      48.568  26.759  29.525  1.00  0.00     0.057 A 
ATOM     60  C   UNL A   1      49.094  26.160  30.679  1.00  0.00     0.134 A 
ATOM     61  C   UNL A   1      49.436  26.934  28.439  1.00  0.00     0.134 A 
ATOM     62  F   UNL A   1      48.322  25.970  31.759  1.00  0.00    -0.206 F 
ATOM     63  C   UNL A   1      50.438  25.791  30.764  1.00  0.00     0.040 A 
ATOM     64  C   UNL A   1      50.774  26.541  28.501  1.00  0.00     0.040 A 
ATOM     65  F   UNL A   1      48.998  27.491  27.300  1.00  0.00    -0.206 F 
ATOM     66  C   UNL A   1      51.281  25.977  29.671  1.00  0.00     0.006 A 
ENDBRANCH  45  59
BRANCH  46  67
ATOM     67  C   UNL A   1      38.883  29.081  29.025  1.00  0.00     0.057 A 
ATOM     68  C   UNL A   1      38.314  29.527  27.826  1.00  0.00     0.134 A 
ATOM     69  C   UNL A   1      38.039  28.957  30.134  1.00  0.00     0.134 A 
ATOM     70  F   UNL A   1      39.077  29.684  26.735  1.00  0.00    -0.206 F 
ATOM     71  C   UNL A   1      36.958  29.844  27.734  1.00  0.00     0.040 A 
ATOM     72  C   UNL A   1      36.675  29.248  30.050  1.00  0.00     0.040 A 
ATOM     73  F   UNL A   1      38.522  28.529  31.309  1.00  0.00    -0.206 F 
ATOM     74  C   UNL A   1      36.133  29.697  28.848  1.00  0.00     0.006 A 
ENDBRANCH  46  67
BRANCH  58  75
ATOM     75  C   UNL A   1      44.553  32.546  31.108  1.00  0.00     0.057 A 
ATOM     76  C   UNL A   1      44.593  32.780  32.489  1.00  0.00     0.134 A 
ATOM     77  C   UNL A   1      44.746  33.644  30.260  1.00  0.00     0.134 A 
ATOM     78  F   UNL A   1      44.400  31.775  33.355  1.00  0.00    -0.206 F 
ATOM     79  C   UNL A   1      44.799  34.062  33.005  1.00  0.00     0.040 A 
ATOM     80  C   UNL A   1      44.979  34.925  30.765  1.00  0.00     0.040 A 
ATOM     81  F   UNL A   1      44.726  33.488  28.928  1.00  0.00    -0.206 F 
ATOM     82  C   UNL A   1      45.001  35.136  32.142  1.00  0.00     0.006 A 
ENDBRANCH  58  75
ENDBRANCH  32  33
ENDBRANCH  24  27
ENDBRANCH  22  23
ENDBRANCH  21  22
ENDBRANCH  20  21
ENDBRANCH   3  20
TORSDOF 17
ENDMDL
MODEL 2
REMARK VINA RESULT:     -10.1      1.176      6.380
REMARK SMILES CC[C@@H](C(=O)NCCCNC(=O)c1ccc(-c2c3nc(c(-c4c(F)cccc4F)c4ccc([nH]4)c(-c4c(F)cccc4F)c4nc(c(-c5c(F)cccc5F)c5ccc2[nH]5)C=C4)C=C3)cc1)N(C)C(=O)N(C)CC(C)(C)O
REMARK SMILES IDX 4 1 5 2 6 3 3 5 2 6 1 7 67 8 68 9 69 10 70 11 71 12 72 13
REMARK SMILES IDX 73 14 74 15 75 16 76 17 77 18 7 20 8 21 9 22 10 23 11 24
REMARK SMILES IDX 12 26 13 27 14 28 66 29 15 30 65 31 16 32 17 33 18 34 59 35
REMARK SMILES IDX 19 36 64 37 58 38 60 39 20 40 63 41 57 42 56 43 21 45 47 46
REMARK SMILES IDX 30 47 46 48 31 49 34 50 45 51 61 52 32 53 33 54 44 56 62 57
REMARK SMILES IDX 35 58 22 59 23 60 28 61 24 62 25 63 27 64 29 65 26 66 48 67
REMARK SMILES IDX 49 68 54 69 50 70 51 71 53 72 55 73 52 74 36 75 37 76 42 77
REMARK SMILES IDX 38 78 39 79 41 80 43 81 40 82
REMARK H PARENT 6 4 77 19 10 25 60 44 34 55
REMARK Flexibility Score: inf
ROOT
ATOM      1  C   UNL A   1      35.273  22.062  25.878  1.00  0.00     0.242 C 
ATOM      2  O   UNL A   1      34.902  22.156  27.054  1.00  0.00    -0.273 OA
ATOM      3  N   UNL A   1      36.613  21.876  25.752  1.00  0.00    -0.354 N 
ATOM      4  H   UNL A   1      37.110  22.006  26.592  1.00  0.00     0.163 HD
ENDROOT
BRANCH   1   5
ATOM      5  C   UNL A   1      34.283  22.045  24.667  1.00  0.00     0.175 C 
BRANCH   5   6
ATOM      6  C   UNL A   1      33.549  23.350  24.279  1.00  0.00     0.032 C 
ATOM      7  C   UNL A   1      34.338  24.395  23.514  1.00  0.00     0.006 C 
ENDBRANCH   5   6
BRANCH   5   8
ATOM      8  N   UNL A   1      33.292  20.935  24.922  1.00  0.00    -0.316 N 
ATOM      9  C   UNL A   1      31.972  21.372  25.333  1.00  0.00     0.149 C 
BRANCH   8  10
ATOM     10  C   UNL A   1      33.687  19.648  24.583  1.00  0.00     0.320 C 
ATOM     11  O   UNL A   1      34.869  19.320  24.760  1.00  0.00    -0.248 OA
BRANCH  10  12
ATOM     12  N   UNL A   1      32.838  18.703  24.046  1.00  0.00    -0.325 N 
ATOM     13  C   UNL A   1      32.192  18.622  22.744  1.00  0.00     0.148 C 
BRANCH  12  14
ATOM     14  C   UNL A   1      32.445  17.598  24.957  1.00  0.00     0.155 C 
BRANCH  14  15
ATOM     15  C   UNL A   1      33.389  16.359  24.998  1.00  0.00     0.077 C 
ATOM     16  C   UNL A   1      32.680  15.041  25.323  1.00  0.00     0.043 C 
ATOM     17  C   UNL A   1      34.067  16.212  23.628  1.00  0.00     0.043 C 
BRANCH  15  18
ATOM     18  O   UNL A   1      34.444  16.590  25.946  1.00  0.00    -0.389 OA
ATOM     19  H   UNL A   1      34.072  16.977  26.755  1.00  0.00     0.211 HD
ENDBRANCH  15  18
ENDBRANCH  14  15
ENDBRANCH  12  14
ENDBRANCH  10  12
ENDBRANCH   8  10
ENDBRANCH   5   8
ENDBRANCH   1   5
BRANCH   3  20
ATOM     20  C   UNL A   1      37.457  21.525  24.631  1.00  0.00     0.117 C 
BRANCH  20  21
ATOM     21  C   UNL A   1      38.163  20.192  24.863  1.00  0.00     0.042 C 
BRANCH  21  22
ATOM     22  C   UNL A   1      39.058  20.161  26.098  1.00  0.00     0.118 C 
BRANCH  22  23
ATOM     23  N   UNL A   1      40.136  19.190  25.990  1.00  0.00    -0.352 N 
ATOM     24  C   UNL A   1      41.496  19.362  26.071  1.00  0.00     0.251 C 
ATOM     25  H   UNL A   1      39.845  18.263  25.834  1.00  0.00     0.163 HD
ATOM     26  O   UNL A   1      42.240  18.426  25.765  1.00  0.00    -0.269 OA
BRANCH  24  27
ATOM     27  C   UNL A   1      42.088  20.654  26.486  1.00  0.00     0.039 A 
ATOM     28  C   UNL A   1      42.461  21.571  25.496  1.00  0.00     0.014 A 
ATOM     29  C   UNL A   1      42.308  20.965  27.830  1.00  0.00     0.014 A 
ATOM     30  C   UNL A   1      42.974  22.820  25.857  1.00  0.00     0.010 A 
ATOM     31  C   UNL A   1      42.738  22.242  28.190  1.00  0.00     0.010 A 
ATOM     32  C   UNL A   1      43.072  23.185  27.208  1.00  0.00    -0.014 A 
BRANCH  32  33
ATOM     33  C   UNL A   1      43.497  24.553  27.609  1.00  0.00     0.031 A 
ATOM     34  C   UNL A   1      42.482  25.585  28.017  1.00  0.00     0.074 A 
ATOM     35  C   UNL A   1      44.800  24.888  27.543  1.00  0.00     0.049 A 
ATOM     36  N   UNL A   1      42.663  26.840  28.342  1.00  0.00    -0.248 NA
ATOM     37  C   UNL A   1      41.076  25.154  28.041  1.00  0.00     0.031 C 
ATOM     38  C   UNL A   1      45.882  23.994  27.126  1.00  0.00     0.029 A 
ATOM     39  N   UNL A   1      45.436  26.073  27.818  1.00  0.00    -0.354 N 
ATOM     40  C   UNL A   1      41.396  27.351  28.596  1.00  0.00     0.074 A 
ATOM     41  C   UNL A   1      40.453  26.286  28.334  1.00  0.00     0.031 C 
ATOM     42  C   UNL A   1      47.049  24.652  27.201  1.00  0.00     0.029 A 
ATOM     43  C   UNL A   1      46.796  26.025  27.628  1.00  0.00     0.049 A 
ATOM     44  H   UNL A   1      44.963  26.880  28.123  1.00  0.00     0.167 HD
ATOM     45  C   UNL A   1      41.051  28.590  29.028  1.00  0.00     0.037 A 
ATOM     46  C   UNL A   1      47.734  26.979  27.770  1.00  0.00     0.037 A 
ATOM     47  C   UNL A   1      41.993  29.647  29.296  1.00  0.00     0.049 A 
ATOM     48  C   UNL A   1      47.325  28.357  28.206  1.00  0.00     0.074 A 
ATOM     49  C   UNL A   1      41.749  30.911  29.800  1.00  0.00     0.029 A 
ATOM     50  N   UNL A   1      43.359  29.565  29.067  1.00  0.00    -0.354 N 
ATOM     51  N   UNL A   1      46.133  28.805  28.514  1.00  0.00    -0.248 NA
ATOM     52  C   UNL A   1      48.392  29.364  28.310  1.00  0.00     0.031 C 
ATOM     53  C   UNL A   1      42.959  31.615  29.823  1.00  0.00     0.029 A 
ATOM     54  C   UNL A   1      43.964  30.771  29.383  1.00  0.00     0.049 A 
ATOM     55  H   UNL A   1      43.828  28.768  28.729  1.00  0.00     0.167 HD
ATOM     56  C   UNL A   1      46.305  30.138  28.865  1.00  0.00     0.074 A 
ATOM     57  C   UNL A   1      47.722  30.421  28.747  1.00  0.00     0.031 C 
ATOM     58  C   UNL A   1      45.374  31.045  29.250  1.00  0.00     0.037 A 
BRANCH  45  59
ATOM     59  C   UNL A   1      39.588  28.864  29.227  1.00  0.00     0.057 A 
ATOM     60  C   UNL A   1      38.785  29.383  28.202  1.00  0.00     0.134 A 
ATOM     61  C   UNL A   1      38.970  28.598  30.456  1.00  0.00     0.134 A 
ATOM     62  F   UNL A   1      39.313  29.670  27.003  1.00  0.00    -0.206 F 
ATOM     63  C   UNL A   1      37.432  29.666  28.404  1.00  0.00     0.040 A 
ATOM     64  C   UNL A   1      37.612  28.848  30.661  1.00  0.00     0.040 A 
ATOM     65  F   UNL A   1      39.675  28.091  31.478  1.00  0.00    -0.206 F 
ATOM     66  C   UNL A   1      36.841  29.394  29.635  1.00  0.00     0.006 A 
ENDBRANCH  45  59
BRANCH  46  67
ATOM     67  C   UNL A   1      49.160  26.654  27.517  1.00  0.00     0.057 A 
ATOM     68  C   UNL A   1      49.713  26.800  26.239  1.00  0.00     0.134 A 
ATOM     69  C   UNL A   1      50.007  26.213  28.539  1.00  0.00     0.134 A 
ATOM     70  F   UNL A   1      48.945  27.201  25.214  1.00  0.00    -0.206 F 
ATOM     71  C   UNL A   1      51.055  26.514  25.985  1.00  0.00     0.040 A 
ATOM     72  C   UNL A   1      51.358  25.946  28.306  1.00  0.00     0.040 A 
ATOM     73  F   UNL A   1      49.540  26.058  29.787  1.00  0.00    -0.206 F 
ATOM     74  C   UNL A   1      51.884  26.093  27.024  1.00  0.00     0.006 A 
ENDBRANCH  46  67
BRANCH  58  75
ATOM     75  C   UNL A   1      45.858  32.427  29.580  1.00  0.00     0.057 A 
ATOM     76  C   UNL A   1      46.307  32.763  30.864  1.00  0.00     0.134 A 
ATOM     77  C   UNL A   1      45.916  33.420  28.595  1.00  0.00     0.134 A 
ATOM     78  F   UNL A   1      46.262  31.862  31.857  1.00  0.00    -0.206 F 
ATOM     79  C   UNL A   1      46.776  34.044  31.160  1.00  0.00     0.040 A 
ATOM     80  C   UNL A   1      46.409  34.696  28.871  1.00  0.00     0.040 A 
ATOM     81  F   UNL A   1      45.509  33.162  27.343  1.00  0.00    -0.206 F 
ATOM     82  C   UNL A   1      46.837  35.012  30.160  1.00  0.00     0.006 A 
ENDBRANCH  58  75
ENDBRANCH  32  33
ENDBRANCH  24  27
ENDBRANCH  22  23
ENDBRANCH  21  22
ENDBRANCH  20  21
ENDBRANCH   3  20
TORSDOF 17
ENDMDL
MODEL 3
REMARK VINA RESULT:     -10.0      5.826     10.174
REMARK SMILES CC[C@@H](C(=O)NCCCNC(=O)c1ccc(-c2c3nc(c(-c4c(F)cccc4F)c4ccc([nH]4)c(-c4c(F)cccc4F)c4nc(c(-c5c(F)cccc5F)c5ccc2[nH]5)C=C4)C=C3)cc1)N(C)C(=O)N(C)CC(C)(C)O
REMARK SMILES IDX 4 1 5 2 6 3 3 5 2 6 1 7 67 8 68 9 69 10 70 11 71 12 72 13
REMARK SMILES IDX 73 14 74 15 75 16 76 17 77 18 7 20 8 21 9 22 10 23 11 24
REMARK SMILES IDX 12 26 13 27 14 28 66 29 15 30 65 31 16 32 17 33 18 34 59 35
REMARK SMILES IDX 19 36 64 37 58 38 60 39 20 40 63 41 57 42 56 43 21 45 47 46
REMARK SMILES IDX 30 47 46 48 31 49 34 50 45 51 61 52 32 53 33 54 44 56 62 57
REMARK SMILES IDX 35 58 22 59 23 60 28 61 24 62 25 63 27 64 29 65 26 66 48 67
REMARK SMILES IDX 49 68 54 69 50 70 51 71 53 72 55 73 52 74 36 75 37 76 42 77
REMARK SMILES IDX 38 78 39 79 41 80 43 81 40 82
REMARK H PARENT 6 4 77 19 10 25 60 44 34 55
REMARK Flexibility Score: inf
ROOT
ATOM      1  C   UNL A   1      32.501  28.730  24.779  1.00  0.00     0.242 C 
ATOM      2  O   UNL A   1      33.515  28.677  24.074  1.00  0.00    -0.273 OA
ATOM      3  N   UNL A   1      32.512  29.766  25.658  1.00  0.00    -0.354 N 
ATOM      4  H   UNL A   1      33.384  30.219  25.722  1.00  0.00     0.163 HD
ENDROOT
BRANCH   1   5
ATOM      5  C   UNL A   1      31.280  27.770  24.594  1.00  0.00     0.175 C 
BRANCH   5   6
ATOM      6  C   UNL A   1      31.300  26.388  25.290  1.00  0.00     0.032 C 
ATOM      7  C   UNL A   1      29.977  25.834  25.783  1.00  0.00     0.006 C 
ENDBRANCH   5   6
BRANCH   5   8
ATOM      8  N   UNL A   1      31.062  27.612  23.109  1.00  0.00    -0.316 N 
ATOM      9  C   UNL A   1      31.496  26.344  22.555  1.00  0.00     0.149 C 
BRANCH   8  10
ATOM     10  C   UNL A   1      30.332  28.606  22.471  1.00  0.00     0.320 C 
ATOM     11  O   UNL A   1      30.925  29.396  21.722  1.00  0.00    -0.248 OA
BRANCH  10  12
ATOM     12  N   UNL A   1      28.972  28.777  22.627  1.00  0.00    -0.325 N 
ATOM     13  C   UNL A   1      27.964  27.934  23.254  1.00  0.00     0.148 C 
BRANCH  12  14
ATOM     14  C   UNL A   1      28.399  29.993  21.997  1.00  0.00     0.155 C 
BRANCH  14  15
ATOM     15  C   UNL A   1      28.481  31.311  22.824  1.00  0.00     0.077 C 
ATOM     16  C   UNL A   1      28.439  32.586  21.977  1.00  0.00     0.043 C 
ATOM     17  C   UNL A   1      27.299  31.350  23.805  1.00  0.00     0.043 C 
BRANCH  15  18
ATOM     18  O   UNL A   1      29.671  31.300  23.628  1.00  0.00    -0.389 OA
ATOM     19  H   UNL A   1      29.643  30.546  24.238  1.00  0.00     0.211 HD
ENDBRANCH  15  18
ENDBRANCH  14  15
ENDBRANCH  12  14
ENDBRANCH  10  12
ENDBRANCH   8  10
ENDBRANCH   5   8
ENDBRANCH   1   5
BRANCH   3  20
ATOM     20  C   UNL A   1      31.500  30.336  26.520  1.00  0.00     0.117 C 
BRANCH  20  21
ATOM     21  C   UNL A   1      31.560  31.861  26.513  1.00  0.00     0.042 C 
BRANCH  21  22
ATOM     22  C   UNL A   1      32.785  32.446  27.208  1.00  0.00     0.118 C 
BRANCH  22  23
ATOM     23  N   UNL A   1      32.598  33.830  27.615  1.00  0.00    -0.352 N 
ATOM     24  C   UNL A   1      33.232  34.562  28.587  1.00  0.00     0.251 C 
ATOM     25  H   UNL A   1      31.906  34.319  27.113  1.00  0.00     0.163 HD
ATOM     26  O   UNL A   1      32.787  35.672  28.891  1.00  0.00    -0.269 OA
BRANCH  24  27
ATOM     27  C   UNL A   1      34.418  34.036  29.300  1.00  0.00     0.039 A 
ATOM     28  C   UNL A   1      34.224  33.140  30.358  1.00  0.00     0.014 A 
ATOM     29  C   UNL A   1      35.715  34.432  28.964  1.00  0.00     0.014 A 
ATOM     30  C   UNL A   1      35.324  32.585  31.017  1.00  0.00     0.010 A 
ATOM     31  C   UNL A   1      36.812  33.813  29.563  1.00  0.00     0.010 A 
ATOM     32  C   UNL A   1      36.630  32.880  30.593  1.00  0.00    -0.014 A 
BRANCH  32  33
ATOM     33  C   UNL A   1      37.808  32.205  31.198  1.00  0.00     0.031 A 
ATOM     34  C   UNL A   1      38.530  31.111  30.462  1.00  0.00     0.074 A 
ATOM     35  C   UNL A   1      38.192  32.535  32.447  1.00  0.00     0.049 A 
ATOM     36  N   UNL A   1      39.537  30.373  30.855  1.00  0.00    -0.248 NA
ATOM     37  C   UNL A   1      38.038  30.787  29.114  1.00  0.00     0.031 C 
ATOM     38  C   UNL A   1      37.554  33.551  33.286  1.00  0.00     0.029 A 
ATOM     39  N   UNL A   1      39.206  32.045  33.232  1.00  0.00    -0.354 N 
ATOM     40  C   UNL A   1      39.792  29.493  29.811  1.00  0.00     0.074 A 
ATOM     41  C   UNL A   1      38.799  29.751  28.791  1.00  0.00     0.031 C 
ATOM     42  C   UNL A   1      38.209  33.631  34.454  1.00  0.00     0.029 A 
ATOM     43  C   UNL A   1      39.284  32.642  34.467  1.00  0.00     0.049 A 
ATOM     44  H   UNL A   1      39.820  31.334  32.938  1.00  0.00     0.167 HD
ATOM     45  C   UNL A   1      40.777  28.566  29.703  1.00  0.00     0.037 A 
ATOM     46  C   UNL A   1      40.117  32.415  35.499  1.00  0.00     0.037 A 
ATOM     47  C   UNL A   1      41.770  28.316  30.716  1.00  0.00     0.049 A 
ATOM     48  C   UNL A   1      41.172  31.353  35.375  1.00  0.00     0.074 A 
ATOM     49  C   UNL A   1      42.846  27.448  30.672  1.00  0.00     0.029 A 
ATOM     50  N   UNL A   1      41.798  28.925  31.962  1.00  0.00    -0.354 N 
ATOM     51  N   UNL A   1      41.449  30.579  34.354  1.00  0.00    -0.248 NA
ATOM     52  C   UNL A   1      42.029  31.129  36.548  1.00  0.00     0.031 C 
ATOM     53  C   UNL A   1      43.494  27.490  31.912  1.00  0.00     0.029 A 
ATOM     54  C   UNL A   1      42.851  28.422  32.710  1.00  0.00     0.049 A 
ATOM     55  H   UNL A   1      41.164  29.612  32.270  1.00  0.00     0.167 HD
ATOM     56  C   UNL A   1      42.519  29.790  34.752  1.00  0.00     0.074 A 
ATOM     57  C   UNL A   1      42.853  30.191  36.104  1.00  0.00     0.031 C 
ATOM     58  C   UNL A   1      43.167  28.820  34.060  1.00  0.00     0.037 A 
BRANCH  45  59
ATOM     59  C   UNL A   1      40.816  27.751  28.442  1.00  0.00     0.057 A 
ATOM     60  C   UNL A   1      41.547  28.158  27.317  1.00  0.00     0.134 A 
ATOM     61  C   UNL A   1      40.122  26.537  28.352  1.00  0.00     0.134 A 
ATOM     62  F   UNL A   1      42.227  29.315  27.331  1.00  0.00    -0.206 F 
ATOM     63  C   UNL A   1      41.553  27.411  26.138  1.00  0.00     0.040 A 
ATOM     64  C   UNL A   1      40.145  25.765  27.189  1.00  0.00     0.040 A 
ATOM     65  F   UNL A   1      39.410  26.080  29.394  1.00  0.00    -0.206 F 
ATOM     66  C   UNL A   1      40.854  26.208  26.073  1.00  0.00     0.006 A 
ENDBRANCH  45  59
BRANCH  46  67
ATOM     67  C   UNL A   1      39.999  33.228  36.735  1.00  0.00     0.057 A 
ATOM     68  C   UNL A   1      39.094  32.874  37.742  1.00  0.00     0.134 A 
ATOM     69  C   UNL A   1      40.795  34.359  36.950  1.00  0.00     0.134 A 
ATOM     70  F   UNL A   1      38.291  31.812  37.584  1.00  0.00    -0.206 F 
ATOM     71  C   UNL A   1      38.980  33.618  38.918  1.00  0.00     0.040 A 
ATOM     72  C   UNL A   1      40.709  35.099  38.131  1.00  0.00     0.040 A 
ATOM     73  F   UNL A   1      41.686  34.746  36.026  1.00  0.00    -0.206 F 
ATOM     74  C   UNL A   1      39.796  34.730  39.118  1.00  0.00     0.006 A 
ENDBRANCH  46  67
BRANCH  58  75
ATOM     75  C   UNL A   1      44.309  28.132  34.749  1.00  0.00     0.057 A 
ATOM     76  C   UNL A   1      45.612  28.644  34.707  1.00  0.00     0.134 A 
ATOM     77  C   UNL A   1      44.096  26.968  35.499  1.00  0.00     0.134 A 
ATOM     78  F   UNL A   1      45.886  29.746  33.994  1.00  0.00    -0.206 F 
ATOM     79  C   UNL A   1      46.666  28.010  35.369  1.00  0.00     0.040 A 
ATOM     80  C   UNL A   1      45.136  26.341  36.187  1.00  0.00     0.040 A 
ATOM     81  F   UNL A   1      42.870  26.429  35.587  1.00  0.00    -0.206 F 
ATOM     82  C   UNL A   1      46.427  26.861  36.118  1.00  0.00     0.006 A 
ENDBRANCH  58  75
ENDBRANCH  32  33
ENDBRANCH  24  27
ENDBRANCH  22  23
ENDBRANCH  21  22
ENDBRANCH  20  21
ENDBRANCH   3  20
TORSDOF 17
ENDMDL
