MODEL 1
REMARK VINA RESULT:     -11.4      0.000      0.000
REMARK SMILES CC(C)[NH2+][C@@H](C(=O)NCCCNC(=O)c1ccc(-c2c3nc(c(-c4c(F)cccc4F)c4ccc([nH]4)c(-c4c(F)cccc4F)c4nc(c(-c5c(F)cccc5F)c5ccc2[nH]5)C=C4)C=C3)cc1)c1c[nH]c2ccc(Br)cc12
REMARK SMILES IDX 10 1 9 2 8 3 6 4 7 5 5 7 4 8 2 11 1 12 3 13 69 14 70 15
REMARK SMILES IDX 78 16 71 17 72 18 77 19 73 21 75 22 74 23 76 24 11 25 12 26
REMARK SMILES IDX 13 27 14 29 15 30 16 31 68 32 17 33 67 34 18 35 19 36 20 37
REMARK SMILES IDX 61 38 21 39 66 40 60 41 62 42 22 43 65 44 59 45 58 46 23 48
REMARK SMILES IDX 49 49 32 50 48 51 33 52 36 53 47 54 63 55 34 56 35 57 46 59
REMARK SMILES IDX 64 60 37 61 24 62 25 63 30 64 26 65 27 66 29 67 31 68 28 69
REMARK SMILES IDX 50 70 51 71 56 72 52 73 53 74 55 75 57 76 54 77 38 78 39 79
REMARK SMILES IDX 44 80 40 81 41 82 43 83 45 84 42 85
REMARK H PARENT 8 6 4 9 4 10 71 20 12 28 62 47 36 58
REMARK Flexibility Score: inf
ROOT
ATOM      1  C   UNL A   1      32.140  27.930  27.377  1.00  0.00     0.042 C 
ENDROOT
BRANCH   1   2
ATOM      2  C   UNL A   1      31.654  27.020  26.218  1.00  0.00     0.118 C 
BRANCH   2   3
ATOM      3  N   UNL A   1      30.973  25.789  26.614  1.00  0.00    -0.351 N 
ATOM      4  C   UNL A   1      31.258  24.445  26.600  1.00  0.00     0.283 C 
ATOM      5  O   UNL A   1      30.443  23.763  27.239  1.00  0.00    -0.268 OA
ATOM      6  H   UNL A   1      30.080  25.969  26.985  1.00  0.00     0.163 HD
BRANCH   4   7
ATOM      7  C   UNL A   1      32.522  23.807  25.970  1.00  0.00     0.306 C 
BRANCH   7   8
ATOM      8  N   UNL A   1      32.597  23.650  24.498  1.00  0.00    -0.330 N 
ATOM      9  H   UNL A   1      32.638  22.645  24.330  1.00  0.00     0.347 HD
ATOM     10  H   UNL A   1      31.789  24.200  24.206  1.00  0.00     0.347 HD
BRANCH   8  11
ATOM     11  C   UNL A   1      33.629  24.225  23.673  1.00  0.00     0.176 C 
ATOM     12  C   UNL A   1      34.477  25.197  24.502  1.00  0.00     0.075 C 
ATOM     13  C   UNL A   1      34.553  23.301  22.883  1.00  0.00     0.075 C 
ENDBRANCH   8  11
ENDBRANCH   7   8
BRANCH   7  14
ATOM     14  C   UNL A   1      33.005  22.441  26.544  1.00  0.00     0.044 A 
ATOM     15  C   UNL A   1      33.791  22.389  27.716  1.00  0.00     0.094 A 
ATOM     16  C   UNL A   1      33.575  21.294  25.874  1.00  0.00     0.010 A 
ATOM     17  N   UNL A   1      35.059  22.405  27.072  1.00  0.00    -0.361 N 
ATOM     18  C   UNL A   1      34.955  21.432  26.086  1.00  0.00     0.046 A 
ATOM     19  C   UNL A   1      33.134  20.146  25.188  1.00  0.00     0.026 A 
ATOM     20  H   UNL A   1      35.834  22.975  27.280  1.00  0.00     0.166 HD
ATOM     21  C   UNL A   1      35.928  20.696  25.414  1.00  0.00     0.028 A 
ATOM     22  C   UNL A   1      34.110  19.255  24.704  1.00  0.00     0.018 A 
ATOM     23  C   UNL A   1      35.473  19.561  24.743  1.00  0.00     0.018 A 
ATOM     24  Br  UNL A   1      33.587  17.544  24.075  1.00  0.00    -0.051 Br
ENDBRANCH   7  14
ENDBRANCH   4   7
ENDBRANCH   2   3
ENDBRANCH   1   2
BRANCH   1  25
ATOM     25  C   UNL A   1      33.556  28.499  27.280  1.00  0.00     0.118 C 
BRANCH  25  26
ATOM     26  N   UNL A   1      33.564  29.933  27.502  1.00  0.00    -0.352 N 
ATOM     27  C   UNL A   1      34.494  30.716  28.145  1.00  0.00     0.251 C 
ATOM     28  H   UNL A   1      32.788  30.417  27.138  1.00  0.00     0.163 HD
ATOM     29  O   UNL A   1      34.180  31.848  28.496  1.00  0.00    -0.269 OA
BRANCH  27  30
ATOM     30  C   UNL A   1      35.866  30.221  28.430  1.00  0.00     0.039 A 
ATOM     31  C   UNL A   1      36.808  30.227  27.395  1.00  0.00     0.014 A 
ATOM     32  C   UNL A   1      36.213  29.673  29.669  1.00  0.00     0.014 A 
ATOM     33  C   UNL A   1      38.102  29.736  27.613  1.00  0.00     0.010 A 
ATOM     34  C   UNL A   1      37.519  29.222  29.900  1.00  0.00     0.010 A 
ATOM     35  C   UNL A   1      38.481  29.256  28.877  1.00  0.00    -0.014 A 
BRANCH  35  36
ATOM     36  C   UNL A   1      39.886  28.842  29.153  1.00  0.00     0.031 A 
ATOM     37  C   UNL A   1      40.873  29.796  29.771  1.00  0.00     0.074 A 
ATOM     38  C   UNL A   1      40.293  27.610  28.781  1.00  0.00     0.049 A 
ATOM     39  N   UNL A   1      42.152  29.624  30.003  1.00  0.00    -0.248 NA
ATOM     40  C   UNL A   1      40.366  31.116  30.171  1.00  0.00     0.031 C 
ATOM     41  C   UNL A   1      39.447  26.598  28.148  1.00  0.00     0.029 A 
ATOM     42  N   UNL A   1      41.525  27.006  28.863  1.00  0.00    -0.354 N 
ATOM     43  C   UNL A   1      42.604  30.815  30.560  1.00  0.00     0.074 A 
ATOM     44  C   UNL A   1      41.469  31.711  30.609  1.00  0.00     0.031 C 
ATOM     45  C   UNL A   1      40.181  25.502  27.898  1.00  0.00     0.029 A 
ATOM     46  C   UNL A   1      41.560  25.747  28.310  1.00  0.00     0.049 A 
ATOM     47  H   UNL A   1      42.309  27.434  29.278  1.00  0.00     0.167 HD
ATOM     48  C   UNL A   1      43.848  31.126  30.996  1.00  0.00     0.037 A 
ATOM     49  C   UNL A   1      42.588  24.895  28.125  1.00  0.00     0.037 A 
ATOM     50  C   UNL A   1      44.973  30.224  30.973  1.00  0.00     0.049 A 
ATOM     51  C   UNL A   1      43.966  25.289  28.585  1.00  0.00     0.074 A 
ATOM     52  C   UNL A   1      46.246  30.426  31.479  1.00  0.00     0.029 A 
ATOM     53  N   UNL A   1      44.967  28.963  30.401  1.00  0.00    -0.354 N 
ATOM     54  N   UNL A   1      44.353  26.381  29.196  1.00  0.00    -0.248 NA
ATOM     55  C   UNL A   1      45.052  24.331  28.327  1.00  0.00     0.031 C 
ATOM     56  C   UNL A   1      47.028  29.314  31.158  1.00  0.00     0.029 A 
ATOM     57  C   UNL A   1      46.228  28.395  30.499  1.00  0.00     0.049 A 
ATOM     58  H   UNL A   1      44.184  28.533  29.987  1.00  0.00     0.167 HD
ATOM     59  C   UNL A   1      45.717  26.234  29.410  1.00  0.00     0.074 A 
ATOM     60  C   UNL A   1      46.088  24.937  28.889  1.00  0.00     0.031 C 
ATOM     61  C   UNL A   1      46.588  27.103  29.980  1.00  0.00     0.037 A 
BRANCH  48  62
ATOM     62  C   UNL A   1      44.089  32.504  31.542  1.00  0.00     0.057 A 
ATOM     63  C   UNL A   1      44.448  33.575  30.715  1.00  0.00     0.134 A 
ATOM     64  C   UNL A   1      43.844  32.786  32.893  1.00  0.00     0.134 A 
ATOM     65  F   UNL A   1      44.697  33.375  29.412  1.00  0.00    -0.206 F 
ATOM     66  C   UNL A   1      44.561  34.876  31.213  1.00  0.00     0.040 A 
ATOM     67  C   UNL A   1      43.931  34.084  33.398  1.00  0.00     0.040 A 
ATOM     68  F   UNL A   1      43.484  31.807  33.737  1.00  0.00    -0.206 F 
ATOM     69  C   UNL A   1      44.291  35.134  32.556  1.00  0.00     0.006 A 
ENDBRANCH  48  62
BRANCH  49  70
ATOM     70  C   UNL A   1      42.373  23.594  27.441  1.00  0.00     0.057 A 
ATOM     71  C   UNL A   1      42.062  22.435  28.164  1.00  0.00     0.134 A 
ATOM     72  C   UNL A   1      42.526  23.464  26.055  1.00  0.00     0.134 A 
ATOM     73  F   UNL A   1      41.925  22.488  29.497  1.00  0.00    -0.206 F 
ATOM     74  C   UNL A   1      41.944  21.192  27.539  1.00  0.00     0.040 A 
ATOM     75  C   UNL A   1      42.380  22.234  25.413  1.00  0.00     0.040 A 
ATOM     76  F   UNL A   1      42.819  24.535  25.302  1.00  0.00    -0.206 F 
ATOM     77  C   UNL A   1      42.100  21.091  26.158  1.00  0.00     0.006 A 
ENDBRANCH  49  70
BRANCH  61  78
ATOM     78  C   UNL A   1      48.023  26.675  30.083  1.00  0.00     0.057 A 
ATOM     79  C   UNL A   1      48.966  27.026  29.110  1.00  0.00     0.134 A 
ATOM     80  C   UNL A   1      48.477  25.945  31.190  1.00  0.00     0.134 A 
ATOM     81  F   UNL A   1      48.593  27.710  28.017  1.00  0.00    -0.206 F 
ATOM     82  C   UNL A   1      50.307  26.652  29.224  1.00  0.00     0.040 A 
ATOM     83  C   UNL A   1      49.820  25.590  31.329  1.00  0.00     0.040 A 
ATOM     84  F   UNL A   1      47.627  25.583  32.163  1.00  0.00    -0.206 F 
ATOM     85  C   UNL A   1      50.737  25.939  30.341  1.00  0.00     0.006 A 
ENDBRANCH  61  78
ENDBRANCH  35  36
ENDBRANCH  27  30
ENDBRANCH  25  26
ENDBRANCH   1  25
TORSDOF 13
ENDMDL
MODEL 2
REMARK VINA RESULT:     -11.4      2.584      7.319
REMARK SMILES CC(C)[NH2+][C@@H](C(=O)NCCCNC(=O)c1ccc(-c2c3nc(c(-c4c(F)cccc4F)c4ccc([nH]4)c(-c4c(F)cccc4F)c4nc(c(-c5c(F)cccc5F)c5ccc2[nH]5)C=C4)C=C3)cc1)c1c[nH]c2ccc(Br)cc12
REMARK SMILES IDX 10 1 9 2 8 3 6 4 7 5 5 7 4 8 2 11 1 12 3 13 69 14 70 15
REMARK SMILES IDX 78 16 71 17 72 18 77 19 73 21 75 22 74 23 76 24 11 25 12 26
REMARK SMILES IDX 13 27 14 29 15 30 16 31 68 32 17 33 67 34 18 35 19 36 20 37
REMARK SMILES IDX 61 38 21 39 66 40 60 41 62 42 22 43 65 44 59 45 58 46 23 48
REMARK SMILES IDX 49 49 32 50 48 51 33 52 36 53 47 54 63 55 34 56 35 57 46 59
REMARK SMILES IDX 64 60 37 61 24 62 25 63 30 64 26 65 27 66 29 67 31 68 28 69
REMARK SMILES IDX 50 70 51 71 56 72 52 73 53 74 55 75 57 76 54 77 38 78 39 79
REMARK SMILES IDX 44 80 40 81 41 82 43 83 45 84 42 85
REMARK H PARENT 8 6 4 9 4 10 71 20 12 28 62 47 36 58
REMARK Flexibility Score: inf
ROOT
ATOM      1  C   UNL A   1      37.015  19.618  24.958  1.00  0.00     0.042 C 
ENDROOT
BRANCH   1   2
ATOM      2  C   UNL A   1      35.744  20.507  24.900  1.00  0.00     0.118 C 
BRANCH   2   3
ATOM      3  N   UNL A   1      35.260  21.016  26.182  1.00  0.00    -0.351 N 
ATOM      4  C   UNL A   1      34.261  21.858  26.606  1.00  0.00     0.283 C 
ATOM      5  O   UNL A   1      34.091  21.840  27.834  1.00  0.00    -0.268 OA
ATOM      6  H   UNL A   1      35.786  20.664  26.936  1.00  0.00     0.163 HD
BRANCH   4   7
ATOM      7  C   UNL A   1      33.331  22.678  25.676  1.00  0.00     0.306 C 
BRANCH   7   8
ATOM      8  N   UNL A   1      33.924  23.468  24.571  1.00  0.00    -0.330 N 
ATOM      9  H   UNL A   1      33.717  24.442  24.787  1.00  0.00     0.347 HD
ATOM     10  H   UNL A   1      34.884  23.119  24.581  1.00  0.00     0.347 HD
BRANCH   8  11
ATOM     11  C   UNL A   1      33.588  23.296  23.180  1.00  0.00     0.176 C 
ATOM     12  C   UNL A   1      32.660  22.087  23.015  1.00  0.00     0.075 C 
ATOM     13  C   UNL A   1      33.017  24.478  22.401  1.00  0.00     0.075 C 
ENDBRANCH   8  11
ENDBRANCH   7   8
BRANCH   7  14
ATOM     14  C   UNL A   1      32.302  23.637  26.347  1.00  0.00     0.044 A 
ATOM     15  C   UNL A   1      31.011  23.183  26.691  1.00  0.00     0.094 A 
ATOM     16  C   UNL A   1      31.952  25.004  26.029  1.00  0.00     0.010 A 
ATOM     17  N   UNL A   1      30.367  23.568  25.482  1.00  0.00    -0.361 N 
ATOM     18  C   UNL A   1      30.770  24.883  25.283  1.00  0.00     0.046 A 
ATOM     19  C   UNL A   1      32.413  26.304  26.311  1.00  0.00     0.026 A 
ATOM     20  H   UNL A   1      29.770  23.027  24.916  1.00  0.00     0.166 HD
ATOM     21  C   UNL A   1      30.198  25.918  24.548  1.00  0.00     0.028 A 
ATOM     22  C   UNL A   1      31.698  27.386  25.767  1.00  0.00     0.018 A 
ATOM     23  C   UNL A   1      30.666  27.199  24.843  1.00  0.00     0.018 A 
ATOM     24  Br  UNL A   1      32.059  29.147  26.372  1.00  0.00    -0.051 Br
ENDBRANCH   7  14
ENDBRANCH   4   7
ENDBRANCH   2   3
ENDBRANCH   1   2
BRANCH   1  25
ATOM     25  C   UNL A   1      38.333  20.296  25.332  1.00  0.00     0.118 C 
BRANCH  25  26
ATOM     26  N   UNL A   1      39.379  19.320  25.571  1.00  0.00    -0.352 N 
ATOM     27  C   UNL A   1      40.684  19.510  25.962  1.00  0.00     0.251 C 
ATOM     28  H   UNL A   1      39.115  18.382  25.434  1.00  0.00     0.163 HD
ATOM     29  O   UNL A   1      41.489  18.597  25.814  1.00  0.00    -0.269 OA
BRANCH  27  30
ATOM     30  C   UNL A   1      41.142  20.795  26.550  1.00  0.00     0.039 A 
ATOM     31  C   UNL A   1      41.701  21.758  25.701  1.00  0.00     0.014 A 
ATOM     32  C   UNL A   1      41.111  21.033  27.928  1.00  0.00     0.014 A 
ATOM     33  C   UNL A   1      42.178  22.968  26.221  1.00  0.00     0.010 A 
ATOM     34  C   UNL A   1      41.547  22.261  28.442  1.00  0.00     0.010 A 
ATOM     35  C   UNL A   1      42.078  23.246  27.594  1.00  0.00    -0.014 A 
BRANCH  35  36
ATOM     36  C   UNL A   1      42.472  24.575  28.140  1.00  0.00     0.031 A 
ATOM     37  C   UNL A   1      41.451  25.658  28.371  1.00  0.00     0.074 A 
ATOM     38  C   UNL A   1      43.777  24.830  28.370  1.00  0.00     0.049 A 
ATOM     39  N   UNL A   1      41.635  26.895  28.763  1.00  0.00    -0.248 NA
ATOM     40  C   UNL A   1      40.044  25.313  28.119  1.00  0.00     0.031 C 
ATOM     41  C   UNL A   1      44.871  23.881  28.164  1.00  0.00     0.029 A 
ATOM     42  N   UNL A   1      44.408  25.970  28.809  1.00  0.00    -0.354 N 
ATOM     43  C   UNL A   1      40.374  27.480  28.790  1.00  0.00     0.074 A 
ATOM     44  C   UNL A   1      39.435  26.470  28.352  1.00  0.00     0.031 C 
ATOM     45  C   UNL A   1      46.035  24.474  28.473  1.00  0.00     0.029 A 
ATOM     46  C   UNL A   1      45.778  25.859  28.856  1.00  0.00     0.049 A 
ATOM     47  H   UNL A   1      43.925  26.789  29.066  1.00  0.00     0.167 HD
ATOM     48  C   UNL A   1      40.033  28.739  29.155  1.00  0.00     0.037 A 
ATOM     49  C   UNL A   1      46.726  26.772  29.145  1.00  0.00     0.037 A 
ATOM     50  C   UNL A   1      40.965  29.737  29.619  1.00  0.00     0.049 A 
ATOM     51  C   UNL A   1      46.315  28.175  29.507  1.00  0.00     0.074 A 
ATOM     52  C   UNL A   1      40.695  31.009  30.097  1.00  0.00     0.029 A 
ATOM     53  N   UNL A   1      42.341  29.585  29.647  1.00  0.00    -0.354 N 
ATOM     54  N   UNL A   1      45.112  28.680  29.621  1.00  0.00    -0.248 NA
ATOM     55  C   UNL A   1      47.396  29.135  29.780  1.00  0.00     0.031 C 
ATOM     56  C   UNL A   1      41.910  31.649  30.353  1.00  0.00     0.029 A 
ATOM     57  C   UNL A   1      42.936  30.758  30.087  1.00  0.00     0.049 A 
ATOM     58  H   UNL A   1      42.826  28.767  29.392  1.00  0.00     0.167 HD
ATOM     59  C   UNL A   1      45.290  30.006  29.993  1.00  0.00     0.074 A 
ATOM     60  C   UNL A   1      46.715  30.221  30.114  1.00  0.00     0.031 C 
ATOM     61  C   UNL A   1      44.355  30.963  30.207  1.00  0.00     0.037 A 
BRANCH  48  62
ATOM     62  C   UNL A   1      38.588  29.139  29.074  1.00  0.00     0.057 A 
ATOM     63  C   UNL A   1      37.751  29.118  30.195  1.00  0.00     0.134 A 
ATOM     64  C   UNL A   1      38.062  29.661  27.884  1.00  0.00     0.134 A 
ATOM     65  F   UNL A   1      38.192  28.630  31.365  1.00  0.00    -0.206 F 
ATOM     66  C   UNL A   1      36.439  29.596  30.135  1.00  0.00     0.040 A 
ATOM     67  C   UNL A   1      36.762  30.163  27.818  1.00  0.00     0.040 A 
ATOM     68  F   UNL A   1      38.816  29.723  26.776  1.00  0.00    -0.206 F 
ATOM     69  C   UNL A   1      35.946  30.131  28.947  1.00  0.00     0.006 A 
ENDBRANCH  48  62
BRANCH  49  70
ATOM     70  C   UNL A   1      48.166  26.412  29.071  1.00  0.00     0.057 A 
ATOM     71  C   UNL A   1      48.899  26.590  27.891  1.00  0.00     0.134 A 
ATOM     72  C   UNL A   1      48.829  25.831  30.158  1.00  0.00     0.134 A 
ATOM     73  F   UNL A   1      48.315  27.120  26.806  1.00  0.00    -0.206 F 
ATOM     74  C   UNL A   1      50.228  26.175  27.786  1.00  0.00     0.040 A 
ATOM     75  C   UNL A   1      50.167  25.439  30.077  1.00  0.00     0.040 A 
ATOM     76  F   UNL A   1      48.187  25.636  31.320  1.00  0.00    -0.206 F 
ATOM     77  C   UNL A   1      50.866  25.600  28.883  1.00  0.00     0.006 A 
ENDBRANCH  49  70
BRANCH  61  78
ATOM     78  C   UNL A   1      44.840  32.327  30.607  1.00  0.00     0.057 A 
ATOM     79  C   UNL A   1      45.074  33.331  29.659  1.00  0.00     0.134 A 
ATOM     80  C   UNL A   1      45.029  32.654  31.956  1.00  0.00     0.134 A 
ATOM     81  F   UNL A   1      44.926  33.077  28.350  1.00  0.00    -0.206 F 
ATOM     82  C   UNL A   1      45.496  34.607  30.037  1.00  0.00     0.040 A 
ATOM     83  C   UNL A   1      45.424  33.934  32.347  1.00  0.00     0.040 A 
ATOM     84  F   UNL A   1      44.816  31.741  32.916  1.00  0.00    -0.206 F 
ATOM     85  C   UNL A   1      45.664  34.913  31.386  1.00  0.00     0.006 A 
ENDBRANCH  61  78
ENDBRANCH  35  36
ENDBRANCH  27  30
ENDBRANCH  25  26
ENDBRANCH   1  25
TORSDOF 13
ENDMDL
MODEL 3
REMARK VINA RESULT:     -11.2      1.316      2.330
REMARK SMILES CC(C)[NH2+][C@@H](C(=O)NCCCNC(=O)c1ccc(-c2c3nc(c(-c4c(F)cccc4F)c4ccc([nH]4)c(-c4c(F)cccc4F)c4nc(c(-c5c(F)cccc5F)c5ccc2[nH]5)C=C4)C=C3)cc1)c1c[nH]c2ccc(Br)cc12
REMARK SMILES IDX 10 1 9 2 8 3 6 4 7 5 5 7 4 8 2 11 1 12 3 13 69 14 70 15
REMARK SMILES IDX 78 16 71 17 72 18 77 19 73 21 75 22 74 23 76 24 11 25 12 26
REMARK SMILES IDX 13 27 14 29 15 30 16 31 68 32 17 33 67 34 18 35 19 36 20 37
REMARK SMILES IDX 61 38 21 39 66 40 60 41 62 42 22 43 65 44 59 45 58 46 23 48
REMARK SMILES IDX 49 49 32 50 48 51 33 52 36 53 47 54 63 55 34 56 35 57 46 59
REMARK SMILES IDX 64 60 37 61 24 62 25 63 30 64 26 65 27 66 29 67 31 68 28 69
REMARK SMILES IDX 50 70 51 71 56 72 52 73 53 74 55 75 57 76 54 77 38 78 39 79
REMARK SMILES IDX 44 80 40 81 41 82 43 83 45 84 42 85
REMARK H PARENT 8 6 4 9 4 10 71 20 12 28 62 47 36 58
REMARK Flexibility Score: inf
ROOT
ATOM      1  C   UNL A   1      32.174  28.044  27.148  1.00  0.00     0.042 C 
ENDROOT
BRANCH   1   2
ATOM      2  C   UNL A   1      31.534  28.035  25.734  1.00  0.00     0.118 C 
BRANCH   2   3
ATOM      3  N   UNL A   1      32.462  27.899  24.613  1.00  0.00    -0.351 N 
ATOM      4  C   UNL A   1      33.105  26.868  23.971  1.00  0.00     0.283 C 
ATOM      5  O   UNL A   1      33.653  27.212  22.913  1.00  0.00    -0.268 OA
ATOM      6  H   UNL A   1      32.685  28.771  24.215  1.00  0.00     0.163 HD
BRANCH   4   7
ATOM      7  C   UNL A   1      33.076  25.383  24.418  1.00  0.00     0.306 C 
BRANCH   7   8
ATOM      8  N   UNL A   1      33.159  25.059  25.861  1.00  0.00    -0.330 N 
ATOM      9  H   UNL A   1      34.024  24.532  25.976  1.00  0.00     0.347 HD
ATOM     10  H   UNL A   1      33.049  25.987  26.272  1.00  0.00     0.347 HD
BRANCH   8  11
ATOM     11  C   UNL A   1      32.154  24.322  26.585  1.00  0.00     0.176 C 
ATOM     12  C   UNL A   1      30.893  24.179  25.726  1.00  0.00     0.075 C 
ATOM     13  C   UNL A   1      32.514  22.963  27.181  1.00  0.00     0.075 C 
ENDBRANCH   8  11
ENDBRANCH   7   8
BRANCH   7  14
ATOM     14  C   UNL A   1      34.072  24.403  23.728  1.00  0.00     0.044 A 
ATOM     15  C   UNL A   1      33.696  23.690  22.569  1.00  0.00     0.094 A 
ATOM     16  C   UNL A   1      34.946  23.402  24.300  1.00  0.00     0.010 A 
ATOM     17  N   UNL A   1      33.227  22.523  23.231  1.00  0.00    -0.361 N 
ATOM     18  C   UNL A   1      34.243  22.201  24.122  1.00  0.00     0.046 A 
ATOM     19  C   UNL A   1      36.230  23.326  24.871  1.00  0.00     0.026 A 
ATOM     20  H   UNL A   1      32.375  22.049  23.088  1.00  0.00     0.166 HD
ATOM     21  C   UNL A   1      34.578  20.999  24.739  1.00  0.00     0.028 A 
ATOM     22  C   UNL A   1      36.690  22.062  25.286  1.00  0.00     0.018 A 
ATOM     23  C   UNL A   1      35.855  20.941  25.297  1.00  0.00     0.018 A 
ATOM     24  Br  UNL A   1      38.514  21.834  25.749  1.00  0.00    -0.051 Br
ENDBRANCH   7  14
ENDBRANCH   4   7
ENDBRANCH   2   3
ENDBRANCH   1   2
BRANCH   1  25
ATOM     25  C   UNL A   1      33.607  28.565  27.270  1.00  0.00     0.118 C 
BRANCH  25  26
ATOM     26  N   UNL A   1      33.629  29.996  27.504  1.00  0.00    -0.352 N 
ATOM     27  C   UNL A   1      34.568  30.764  28.153  1.00  0.00     0.251 C 
ATOM     28  H   UNL A   1      32.858  30.491  27.145  1.00  0.00     0.163 HD
ATOM     29  O   UNL A   1      34.265  31.896  28.515  1.00  0.00    -0.269 OA
BRANCH  27  30
ATOM     30  C   UNL A   1      35.934  30.253  28.434  1.00  0.00     0.039 A 
ATOM     31  C   UNL A   1      36.870  30.238  27.392  1.00  0.00     0.014 A 
ATOM     32  C   UNL A   1      36.282  29.709  29.674  1.00  0.00     0.014 A 
ATOM     33  C   UNL A   1      38.158  29.732  27.606  1.00  0.00     0.010 A 
ATOM     34  C   UNL A   1      37.584  29.243  29.900  1.00  0.00     0.010 A 
ATOM     35  C   UNL A   1      38.539  29.256  28.871  1.00  0.00    -0.014 A 
BRANCH  35  36
ATOM     36  C   UNL A   1      39.940  28.825  29.140  1.00  0.00     0.031 A 
ATOM     37  C   UNL A   1      40.940  29.766  29.758  1.00  0.00     0.074 A 
ATOM     38  C   UNL A   1      40.332  27.590  28.764  1.00  0.00     0.049 A 
ATOM     39  N   UNL A   1      42.218  29.579  29.985  1.00  0.00    -0.248 NA
ATOM     40  C   UNL A   1      40.449  31.091  30.163  1.00  0.00     0.031 C 
ATOM     41  C   UNL A   1      39.472  26.589  28.130  1.00  0.00     0.029 A 
ATOM     42  N   UNL A   1      41.557  26.972  28.840  1.00  0.00    -0.354 N 
ATOM     43  C   UNL A   1      42.685  30.763  30.544  1.00  0.00     0.074 A 
ATOM     44  C   UNL A   1      41.561  31.672  30.600  1.00  0.00     0.031 C 
ATOM     45  C   UNL A   1      40.193  25.486  27.875  1.00  0.00     0.029 A 
ATOM     46  C   UNL A   1      41.575  25.714  28.283  1.00  0.00     0.049 A 
ATOM     47  H   UNL A   1      42.347  27.389  29.253  1.00  0.00     0.167 HD
ATOM     48  C   UNL A   1      43.935  31.059  30.977  1.00  0.00     0.037 A 
ATOM     49  C   UNL A   1      42.593  24.851  28.092  1.00  0.00     0.037 A 
ATOM     50  C   UNL A   1      45.048  30.144  30.947  1.00  0.00     0.049 A 
ATOM     51  C   UNL A   1      43.977  25.228  28.549  1.00  0.00     0.074 A 
ATOM     52  C   UNL A   1      46.326  30.330  31.450  1.00  0.00     0.029 A 
ATOM     53  N   UNL A   1      45.026  28.884  30.372  1.00  0.00    -0.354 N 
ATOM     54  N   UNL A   1      44.378  26.313  29.162  1.00  0.00    -0.248 NA
ATOM     55  C   UNL A   1      45.051  24.258  28.284  1.00  0.00     0.031 C 
ATOM     56  C   UNL A   1      47.094  29.209  31.123  1.00  0.00     0.029 A 
ATOM     57  C   UNL A   1      46.281  28.302  30.463  1.00  0.00     0.049 A 
ATOM     58  H   UNL A   1      44.237  28.465  29.959  1.00  0.00     0.167 HD
ATOM     59  C   UNL A   1      45.742  26.150  29.370  1.00  0.00     0.074 A 
ATOM     60  C   UNL A   1      46.096  24.850  28.844  1.00  0.00     0.031 C 
ATOM     61  C   UNL A   1      46.624  27.007  29.939  1.00  0.00     0.037 A 
BRANCH  48  62
ATOM     62  C   UNL A   1      44.193  32.432  31.525  1.00  0.00     0.057 A 
ATOM     63  C   UNL A   1      44.072  32.718  32.890  1.00  0.00     0.134 A 
ATOM     64  C   UNL A   1      44.680  33.449  30.693  1.00  0.00     0.134 A 
ATOM     65  F   UNL A   1      43.611  31.790  33.742  1.00  0.00    -0.206 F 
ATOM     66  C   UNL A   1      44.420  33.969  33.407  1.00  0.00     0.040 A 
ATOM     67  C   UNL A   1      45.053  34.695  31.200  1.00  0.00     0.040 A 
ATOM     68  F   UNL A   1      44.832  33.237  29.376  1.00  0.00    -0.206 F 
ATOM     69  C   UNL A   1      44.924  34.957  32.563  1.00  0.00     0.006 A 
ENDBRANCH  48  62
BRANCH  49  70
ATOM     70  C   UNL A   1      42.360  23.554  27.405  1.00  0.00     0.057 A 
ATOM     71  C   UNL A   1      42.035  22.398  28.125  1.00  0.00     0.134 A 
ATOM     72  C   UNL A   1      42.512  23.425  26.019  1.00  0.00     0.134 A 
ATOM     73  F   UNL A   1      41.899  22.449  29.458  1.00  0.00    -0.206 F 
ATOM     74  C   UNL A   1      41.900  21.158  27.497  1.00  0.00     0.040 A 
ATOM     75  C   UNL A   1      42.349  22.198  25.374  1.00  0.00     0.040 A 
ATOM     76  F   UNL A   1      42.818  24.494  25.268  1.00  0.00    -0.206 F 
ATOM     77  C   UNL A   1      42.055  21.057  26.116  1.00  0.00     0.006 A 
ENDBRANCH  49  70
BRANCH  61  78
ATOM     78  C   UNL A   1      48.055  26.562  30.037  1.00  0.00     0.057 A 
ATOM     79  C   UNL A   1      48.534  25.869  31.156  1.00  0.00     0.134 A 
ATOM     80  C   UNL A   1      48.950  26.786  28.983  1.00  0.00     0.134 A 
ATOM     81  F   UNL A   1      47.732  25.636  32.206  1.00  0.00    -0.206 F 
ATOM     82  C   UNL A   1      49.857  25.430  31.231  1.00  0.00     0.040 A 
ATOM     83  C   UNL A   1      50.268  26.328  29.035  1.00  0.00     0.040 A 
ATOM     84  F   UNL A   1      48.554  27.438  27.879  1.00  0.00    -0.206 F 
ATOM     85  C   UNL A   1      50.725  25.652  30.164  1.00  0.00     0.006 A 
ENDBRANCH  61  78
ENDBRANCH  35  36
ENDBRANCH  27  30
ENDBRANCH  25  26
ENDBRANCH   1  25
TORSDOF 13
ENDMDL
