MODEL 1
REMARK VINA RESULT:     -10.6      0.000      0.000
REMARK SMILES O=C(NCCCNC(=O)[C@@H]1C=C[C@H](NC(=O)[C@@H]2CCSC2)C1)c1ccc(-c2c3nc(c(-c4c(F)cccc4F)c4ccc([nH]4)c(-c4c(F)cccc4F)c4nc(c(-c5c(F)cccc5F)c5ccc2[nH]5)C=C4)C=C3)cc1
REMARK SMILES IDX 5 1 4 2 3 3 1 4 2 5 23 7 24 8 76 9 25 10 75 11 26 12 27 13
REMARK SMILES IDX 28 14 69 15 29 16 74 17 68 18 70 19 30 20 73 21 67 22 66 23
REMARK SMILES IDX 31 25 57 26 40 27 56 28 41 29 44 30 55 31 71 32 42 33 43 34
REMARK SMILES IDX 54 36 72 37 45 38 32 39 33 40 38 41 34 42 35 43 37 44 39 45
REMARK SMILES IDX 36 46 58 47 59 48 64 49 60 50 61 51 63 52 65 53 62 54 46 55
REMARK SMILES IDX 47 56 52 57 48 58 49 59 51 60 53 61 50 62 6 63 7 64 8 65
REMARK SMILES IDX 9 67 10 68 11 69 22 70 12 71 13 72 14 73 15 74 16 76 17 77
REMARK SMILES IDX 18 78 21 79 19 80 20 81
REMARK H PARENT 3 6 70 24 44 35 7 66 14 75
REMARK Flexibility Score: inf
ROOT
ATOM      1  C   UNL A   1      33.040  35.545  28.623  1.00  0.00     0.042 C 
ENDROOT
BRANCH   1   2
ATOM      2  C   UNL A   1      33.358  36.542  29.731  1.00  0.00     0.118 C 
BRANCH   2   3
ATOM      3  N   UNL A   1      32.427  36.479  30.850  1.00  0.00    -0.352 N 
ATOM      4  O   UNL A   1      31.460  35.785  32.750  1.00  0.00    -0.269 OA
ATOM      5  C   UNL A   1      32.471  35.812  32.048  1.00  0.00     0.251 C 
ATOM      6  H   UNL A   1      31.612  37.017  30.721  1.00  0.00     0.163 HD
BRANCH   5   7
ATOM      7  C   UNL A   1      33.686  35.097  32.504  1.00  0.00     0.039 A 
ATOM      8  C   UNL A   1      34.933  35.718  32.543  1.00  0.00     0.014 A 
ATOM      9  C   UNL A   1      33.561  33.783  32.973  1.00  0.00     0.014 A 
ATOM     10  C   UNL A   1      36.069  34.982  32.871  1.00  0.00     0.010 A 
ATOM     11  C   UNL A   1      34.690  33.075  33.404  1.00  0.00     0.010 A 
ATOM     12  C   UNL A   1      35.964  33.654  33.313  1.00  0.00    -0.014 A 
BRANCH  12  13
ATOM     13  C   UNL A   1      37.196  32.915  33.705  1.00  0.00     0.031 A 
ATOM     14  C   UNL A   1      37.842  31.926  32.771  1.00  0.00     0.074 A 
ATOM     15  C   UNL A   1      37.765  33.176  34.899  1.00  0.00     0.049 A 
ATOM     16  N   UNL A   1      38.955  31.252  32.923  1.00  0.00    -0.248 NA
ATOM     17  C   UNL A   1      37.147  31.649  31.505  1.00  0.00     0.031 C 
ATOM     18  C   UNL A   1      37.230  34.100  35.902  1.00  0.00     0.029 A 
ATOM     19  N   UNL A   1      38.928  32.716  35.460  1.00  0.00    -0.354 N 
ATOM     20  C   UNL A   1      39.082  30.459  31.789  1.00  0.00     0.074 A 
ATOM     21  C   UNL A   1      37.918  30.712  30.969  1.00  0.00     0.031 C 
ATOM     22  C   UNL A   1      38.092  34.186  36.925  1.00  0.00     0.029 A 
ATOM     23  C   UNL A   1      39.208  33.280  36.681  1.00  0.00     0.049 A 
ATOM     24  H   UNL A   1      39.507  32.045  35.030  1.00  0.00     0.167 HD
ATOM     25  C   UNL A   1      40.082  29.605  31.458  1.00  0.00     0.037 A 
ATOM     26  C   UNL A   1      40.246  33.090  37.517  1.00  0.00     0.037 A 
ATOM     27  C   UNL A   1      41.251  29.368  32.267  1.00  0.00     0.049 A 
ATOM     28  C   UNL A   1      41.329  32.124  37.132  1.00  0.00     0.074 A 
ATOM     29  C   UNL A   1      42.341  28.561  31.992  1.00  0.00     0.029 A 
ATOM     30  N   UNL A   1      41.477  29.929  33.516  1.00  0.00    -0.354 N 
ATOM     31  N   UNL A   1      41.460  31.424  36.032  1.00  0.00    -0.248 NA
ATOM     32  C   UNL A   1      42.408  31.922  38.108  1.00  0.00     0.031 C 
ATOM     33  C   UNL A   1      43.200  28.591  33.096  1.00  0.00     0.029 A 
ATOM     34  C   UNL A   1      42.675  29.463  34.035  1.00  0.00     0.049 A 
ATOM     35  H   UNL A   1      40.876  30.565  33.966  1.00  0.00     0.167 HD
ATOM     36  C   UNL A   1      42.648  30.718  36.171  1.00  0.00     0.074 A 
ATOM     37  C   UNL A   1      43.206  31.090  37.455  1.00  0.00     0.031 C 
ATOM     38  C   UNL A   1      43.223  29.842  35.312  1.00  0.00     0.037 A 
BRANCH  25  39
ATOM     39  C   UNL A   1      39.947  28.843  30.169  1.00  0.00     0.057 A 
ATOM     40  C   UNL A   1      40.519  29.294  28.972  1.00  0.00     0.134 A 
ATOM     41  C   UNL A   1      39.268  27.618  30.136  1.00  0.00     0.134 A 
ATOM     42  F   UNL A   1      41.176  30.464  28.929  1.00  0.00    -0.206 F 
ATOM     43  C   UNL A   1      40.398  28.568  27.785  1.00  0.00     0.040 A 
ATOM     44  C   UNL A   1      39.163  26.870  28.961  1.00  0.00     0.040 A 
ATOM     45  F   UNL A   1      38.703  27.121  31.247  1.00  0.00    -0.206 F 
ATOM     46  C   UNL A   1      39.724  27.348  27.778  1.00  0.00     0.006 A 
ENDBRANCH  25  39
BRANCH  26  47
ATOM     47  C   UNL A   1      40.314  33.839  38.797  1.00  0.00     0.057 A 
ATOM     48  C   UNL A   1      41.054  35.023  38.903  1.00  0.00     0.134 A 
ATOM     49  C   UNL A   1      39.646  33.392  39.943  1.00  0.00     0.134 A 
ATOM     50  F   UNL A   1      41.732  35.493  37.846  1.00  0.00    -0.206 F 
ATOM     51  C   UNL A   1      41.140  35.727  40.106  1.00  0.00     0.040 A 
ATOM     52  C   UNL A   1      39.699  34.100  41.144  1.00  0.00     0.040 A 
ATOM     53  F   UNL A   1      38.915  32.268  39.905  1.00  0.00    -0.206 F 
ATOM     54  C   UNL A   1      40.454  35.268  41.229  1.00  0.00     0.006 A 
ENDBRANCH  26  47
BRANCH  38  55
ATOM     55  C   UNL A   1      44.546  29.258  35.718  1.00  0.00     0.057 A 
ATOM     56  C   UNL A   1      44.639  28.060  36.437  1.00  0.00     0.134 A 
ATOM     57  C   UNL A   1      45.743  29.898  35.371  1.00  0.00     0.134 A 
ATOM     58  F   UNL A   1      43.531  27.404  36.814  1.00  0.00    -0.206 F 
ATOM     59  C   UNL A   1      45.875  27.536  36.824  1.00  0.00     0.040 A 
ATOM     60  C   UNL A   1      46.984  29.370  35.726  1.00  0.00     0.040 A 
ATOM     61  F   UNL A   1      45.724  31.045  34.675  1.00  0.00    -0.206 F 
ATOM     62  C   UNL A   1      47.052  28.190  36.463  1.00  0.00     0.006 A 
ENDBRANCH  38  55
ENDBRANCH  12  13
ENDBRANCH   5   7
ENDBRANCH   2   3
ENDBRANCH   1   2
BRANCH   1  63
ATOM     63  C   UNL A   1      33.441  34.102  28.919  1.00  0.00     0.117 C 
BRANCH  63  64
ATOM     64  N   UNL A   1      34.781  33.763  28.483  1.00  0.00    -0.356 N 
ATOM     65  C   UNL A   1      35.290  32.563  28.087  1.00  0.00     0.227 C 
ATOM     66  H   UNL A   1      35.419  34.512  28.471  1.00  0.00     0.163 HD
ATOM     67  O   UNL A   1      36.285  32.606  27.358  1.00  0.00    -0.274 OA
BRANCH  65  68
ATOM     68  C   UNL A   1      34.621  31.230  28.482  1.00  0.00     0.103 C 
ATOM     69  C   UNL A   1      35.511  30.023  28.379  1.00  0.00    -0.016 C 
ATOM     70  C   UNL A   1      33.443  30.852  27.537  1.00  0.00     0.047 C 
ATOM     71  C   UNL A   1      35.087  29.120  27.489  1.00  0.00    -0.006 C 
ATOM     72  C   UNL A   1      33.807  29.521  26.856  1.00  0.00     0.106 C 
BRANCH  72  73
ATOM     73  N   UNL A   1      33.914  29.457  25.407  1.00  0.00    -0.350 N 
ATOM     74  C   UNL A   1      33.046  29.211  24.387  1.00  0.00     0.224 C 
ATOM     75  H   UNL A   1      34.829  29.634  25.089  1.00  0.00     0.164 HD
ATOM     76  O   UNL A   1      33.463  29.331  23.233  1.00  0.00    -0.275 OA
BRANCH  74  77
ATOM     77  C   UNL A   1      31.612  28.833  24.669  1.00  0.00     0.089 C 
ATOM     78  C   UNL A   1      31.439  27.334  24.955  1.00  0.00     0.025 C 
ATOM     79  C   UNL A   1      30.693  29.277  23.537  1.00  0.00     0.083 C 
ATOM     80  C   UNL A   1      30.762  26.664  23.776  1.00  0.00     0.070 C 
ATOM     81  S   UNL A   1      29.568  27.897  23.224  1.00  0.00    -0.161 SA
ENDBRANCH  74  77
ENDBRANCH  72  73
ENDBRANCH  65  68
ENDBRANCH  63  64
ENDBRANCH   1  63
TORSDOF 12
ENDMDL
MODEL 2
REMARK VINA RESULT:     -10.6      3.208      8.312
REMARK SMILES O=C(NCCCNC(=O)[C@@H]1C=C[C@H](NC(=O)[C@@H]2CCSC2)C1)c1ccc(-c2c3nc(c(-c4c(F)cccc4F)c4ccc([nH]4)c(-c4c(F)cccc4F)c4nc(c(-c5c(F)cccc5F)c5ccc2[nH]5)C=C4)C=C3)cc1
REMARK SMILES IDX 5 1 4 2 3 3 1 4 2 5 23 7 24 8 76 9 25 10 75 11 26 12 27 13
REMARK SMILES IDX 28 14 69 15 29 16 74 17 68 18 70 19 30 20 73 21 67 22 66 23
REMARK SMILES IDX 31 25 57 26 40 27 56 28 41 29 44 30 55 31 71 32 42 33 43 34
REMARK SMILES IDX 54 36 72 37 45 38 32 39 33 40 38 41 34 42 35 43 37 44 39 45
REMARK SMILES IDX 36 46 58 47 59 48 64 49 60 50 61 51 63 52 65 53 62 54 46 55
REMARK SMILES IDX 47 56 52 57 48 58 49 59 51 60 53 61 50 62 6 63 7 64 8 65
REMARK SMILES IDX 9 67 10 68 11 69 22 70 12 71 13 72 14 73 15 74 16 76 17 77
REMARK SMILES IDX 18 78 21 79 19 80 20 81
REMARK H PARENT 3 6 70 24 44 35 7 66 14 75
REMARK Flexibility Score: inf
ROOT
ATOM      1  C   UNL A   1      37.125  23.596  25.079  1.00  0.00     0.042 C 
ENDROOT
BRANCH   1   2
ATOM      2  C   UNL A   1      37.965  23.975  26.294  1.00  0.00     0.118 C 
BRANCH   2   3
ATOM      3  N   UNL A   1      39.390  23.735  26.109  1.00  0.00    -0.352 N 
ATOM      4  O   UNL A   1      41.603  24.095  26.094  1.00  0.00    -0.269 OA
ATOM      5  C   UNL A   1      40.502  24.410  26.546  1.00  0.00     0.251 C 
ATOM      6  H   UNL A   1      39.593  22.937  25.568  1.00  0.00     0.163 HD
BRANCH   5   7
ATOM      7  C   UNL A   1      40.411  25.526  27.516  1.00  0.00     0.039 A 
ATOM      8  C   UNL A   1      41.161  26.691  27.368  1.00  0.00     0.014 A 
ATOM      9  C   UNL A   1      39.495  25.431  28.572  1.00  0.00     0.014 A 
ATOM     10  C   UNL A   1      41.132  27.670  28.358  1.00  0.00     0.010 A 
ATOM     11  C   UNL A   1      39.389  26.464  29.512  1.00  0.00     0.010 A 
ATOM     12  C   UNL A   1      40.241  27.575  29.439  1.00  0.00    -0.014 A 
BRANCH  12  13
ATOM     13  C   UNL A   1      40.203  28.667  30.451  1.00  0.00     0.031 A 
ATOM     14  C   UNL A   1      39.169  29.760  30.380  1.00  0.00     0.074 A 
ATOM     15  C   UNL A   1      41.082  28.645  31.472  1.00  0.00     0.049 A 
ATOM     16  N   UNL A   1      38.948  30.743  31.217  1.00  0.00    -0.248 NA
ATOM     17  C   UNL A   1      38.270  29.755  29.217  1.00  0.00     0.031 C 
ATOM     18  C   UNL A   1      42.145  27.651  31.647  1.00  0.00     0.029 A 
ATOM     19  N   UNL A   1      41.207  29.459  32.569  1.00  0.00    -0.354 N 
ATOM     20  C   UNL A   1      37.906  31.483  30.674  1.00  0.00     0.074 A 
ATOM     21  C   UNL A   1      37.556  30.854  29.419  1.00  0.00     0.031 C 
ATOM     22  C   UNL A   1      42.770  27.875  32.811  1.00  0.00     0.029 A 
ATOM     23  C   UNL A   1      42.197  29.062  33.436  1.00  0.00     0.049 A 
ATOM     24  H   UNL A   1      40.643  30.251  32.720  1.00  0.00     0.167 HD
ATOM     25  C   UNL A   1      37.291  32.581  31.179  1.00  0.00     0.037 A 
ATOM     26  C   UNL A   1      42.604  29.594  34.603  1.00  0.00     0.037 A 
ATOM     27  C   UNL A   1      37.627  33.196  32.438  1.00  0.00     0.049 A 
ATOM     28  C   UNL A   1      41.916  30.821  35.129  1.00  0.00     0.074 A 
ATOM     29  C   UNL A   1      37.028  34.279  33.057  1.00  0.00     0.029 A 
ATOM     30  N   UNL A   1      38.662  32.787  33.267  1.00  0.00    -0.354 N 
ATOM     31  N   UNL A   1      40.897  31.476  34.629  1.00  0.00    -0.248 NA
ATOM     32  C   UNL A   1      42.438  31.382  36.382  1.00  0.00     0.031 C 
ATOM     33  C   UNL A   1      37.733  34.560  34.233  1.00  0.00     0.029 A 
ATOM     34  C   UNL A   1      38.736  33.615  34.377  1.00  0.00     0.049 A 
ATOM     35  H   UNL A   1      39.257  32.022  33.093  1.00  0.00     0.167 HD
ATOM     36  C   UNL A   1      40.639  32.511  35.518  1.00  0.00     0.074 A 
ATOM     37  C   UNL A   1      41.597  32.384  36.596  1.00  0.00     0.031 C 
ATOM     38  C   UNL A   1      39.692  33.478  35.446  1.00  0.00     0.037 A 
BRANCH  25  39
ATOM     39  C   UNL A   1      36.199  33.207  30.357  1.00  0.00     0.057 A 
ATOM     40  C   UNL A   1      34.841  33.025  30.656  1.00  0.00     0.134 A 
ATOM     41  C   UNL A   1      36.512  34.035  29.271  1.00  0.00     0.134 A 
ATOM     42  F   UNL A   1      34.469  32.236  31.675  1.00  0.00    -0.206 F 
ATOM     43  C   UNL A   1      33.838  33.625  29.891  1.00  0.00     0.040 A 
ATOM     44  C   UNL A   1      35.519  34.662  28.516  1.00  0.00     0.040 A 
ATOM     45  F   UNL A   1      37.791  34.261  28.933  1.00  0.00    -0.206 F 
ATOM     46  C   UNL A   1      34.175  34.451  28.821  1.00  0.00     0.006 A 
ENDBRANCH  25  39
BRANCH  26  47
ATOM     47  C   UNL A   1      43.712  28.960  35.361  1.00  0.00     0.057 A 
ATOM     48  C   UNL A   1      43.458  28.011  36.357  1.00  0.00     0.134 A 
ATOM     49  C   UNL A   1      45.050  29.287  35.110  1.00  0.00     0.134 A 
ATOM     50  F   UNL A   1      42.196  27.668  36.658  1.00  0.00    -0.206 F 
ATOM     51  C   UNL A   1      44.491  27.421  37.087  1.00  0.00     0.040 A 
ATOM     52  C   UNL A   1      46.095  28.686  35.811  1.00  0.00     0.040 A 
ATOM     53  F   UNL A   1      45.361  30.186  34.163  1.00  0.00    -0.206 F 
ATOM     54  C   UNL A   1      45.816  27.754  36.809  1.00  0.00     0.006 A 
ENDBRANCH  26  47
BRANCH  38  55
ATOM     55  C   UNL A   1      39.623  34.450  36.589  1.00  0.00     0.057 A 
ATOM     56  C   UNL A   1      40.259  35.697  36.543  1.00  0.00     0.134 A 
ATOM     57  C   UNL A   1      38.896  34.138  37.745  1.00  0.00     0.134 A 
ATOM     58  F   UNL A   1      40.984  36.052  35.471  1.00  0.00    -0.206 F 
ATOM     59  C   UNL A   1      40.202  36.585  37.619  1.00  0.00     0.040 A 
ATOM     60  C   UNL A   1      38.807  35.029  38.815  1.00  0.00     0.040 A 
ATOM     61  F   UNL A   1      38.255  32.963  37.850  1.00  0.00    -0.206 F 
ATOM     62  C   UNL A   1      39.469  36.252  38.757  1.00  0.00     0.006 A 
ENDBRANCH  38  55
ENDBRANCH  12  13
ENDBRANCH   5   7
ENDBRANCH   2   3
ENDBRANCH   1   2
BRANCH   1  63
ATOM     63  C   UNL A   1      36.332  22.299  25.223  1.00  0.00     0.117 C 
BRANCH  63  64
ATOM     64  N   UNL A   1      35.329  22.107  24.194  1.00  0.00    -0.356 N 
ATOM     65  C   UNL A   1      33.980  22.278  24.252  1.00  0.00     0.227 C 
ATOM     66  H   UNL A   1      35.677  21.807  23.324  1.00  0.00     0.163 HD
ATOM     67  O   UNL A   1      33.409  22.487  23.177  1.00  0.00    -0.274 OA
BRANCH  65  68
ATOM     68  C   UNL A   1      33.219  22.269  25.593  1.00  0.00     0.103 C 
ATOM     69  C   UNL A   1      31.775  21.862  25.498  1.00  0.00    -0.016 C 
ATOM     70  C   UNL A   1      33.119  23.686  26.231  1.00  0.00     0.047 C 
ATOM     71  C   UNL A   1      30.922  22.822  25.867  1.00  0.00    -0.006 C 
ATOM     72  C   UNL A   1      31.625  24.044  26.327  1.00  0.00     0.106 C 
BRANCH  72  73
ATOM     73  N   UNL A   1      31.118  25.215  25.630  1.00  0.00    -0.350 N 
ATOM     74  C   UNL A   1      31.326  26.558  25.725  1.00  0.00     0.224 C 
ATOM     75  H   UNL A   1      30.472  24.984  24.924  1.00  0.00     0.164 HD
ATOM     76  O   UNL A   1      30.785  27.286  24.890  1.00  0.00    -0.275 OA
BRANCH  74  77
ATOM     77  C   UNL A   1      32.217  27.126  26.804  1.00  0.00     0.089 C 
ATOM     78  C   UNL A   1      31.573  28.308  27.544  1.00  0.00     0.025 C 
ATOM     79  C   UNL A   1      33.579  27.516  26.243  1.00  0.00     0.083 C 
ATOM     80  C   UNL A   1      32.251  29.599  27.130  1.00  0.00     0.070 C 
ATOM     81  S   UNL A   1      33.982  29.126  26.960  1.00  0.00    -0.161 SA
ENDBRANCH  74  77
ENDBRANCH  72  73
ENDBRANCH  65  68
ENDBRANCH  63  64
ENDBRANCH   1  63
TORSDOF 12
ENDMDL
MODEL 3
REMARK VINA RESULT:     -10.6      5.888     10.726
REMARK SMILES O=C(NCCCNC(=O)[C@@H]1C=C[C@H](NC(=O)[C@@H]2CCSC2)C1)c1ccc(-c2c3nc(c(-c4c(F)cccc4F)c4ccc([nH]4)c(-c4c(F)cccc4F)c4nc(c(-c5c(F)cccc5F)c5ccc2[nH]5)C=C4)C=C3)cc1
REMARK SMILES IDX 5 1 4 2 3 3 1 4 2 5 23 7 24 8 76 9 25 10 75 11 26 12 27 13
REMARK SMILES IDX 28 14 69 15 29 16 74 17 68 18 70 19 30 20 73 21 67 22 66 23
REMARK SMILES IDX 31 25 57 26 40 27 56 28 41 29 44 30 55 31 71 32 42 33 43 34
REMARK SMILES IDX 54 36 72 37 45 38 32 39 33 40 38 41 34 42 35 43 37 44 39 45
REMARK SMILES IDX 36 46 58 47 59 48 64 49 60 50 61 51 63 52 65 53 62 54 46 55
REMARK SMILES IDX 47 56 52 57 48 58 49 59 51 60 53 61 50 62 6 63 7 64 8 65
REMARK SMILES IDX 9 67 10 68 11 69 22 70 12 71 13 72 14 73 15 74 16 76 17 77
REMARK SMILES IDX 18 78 21 79 19 80 20 81
REMARK H PARENT 3 6 70 24 44 35 7 66 14 75
REMARK Flexibility Score: inf
ROOT
ATOM      1  C   UNL A   1      37.636  19.290  25.001  1.00  0.00     0.042 C 
ENDROOT
BRANCH   1   2
ATOM      2  C   UNL A   1      38.841  20.026  25.577  1.00  0.00     0.118 C 
BRANCH   2   3
ATOM      3  N   UNL A   1      40.009  19.173  25.752  1.00  0.00    -0.352 N 
ATOM      4  O   UNL A   1      42.149  18.560  26.022  1.00  0.00    -0.269 OA
ATOM      5  C   UNL A   1      41.301  19.446  26.126  1.00  0.00     0.251 C 
ATOM      6  H   UNL A   1      39.839  18.221  25.566  1.00  0.00     0.163 HD
BRANCH   5   7
ATOM      7  C   UNL A   1      41.709  20.782  26.618  1.00  0.00     0.039 A 
ATOM      8  C   UNL A   1      41.931  21.031  27.971  1.00  0.00     0.014 A 
ATOM      9  C   UNL A   1      41.944  21.803  25.687  1.00  0.00     0.014 A 
ATOM     10  C   UNL A   1      42.205  22.325  28.407  1.00  0.00     0.010 A 
ATOM     11  C   UNL A   1      42.324  23.081  26.118  1.00  0.00     0.010 A 
ATOM     12  C   UNL A   1      42.413  23.366  27.489  1.00  0.00    -0.014 A 
BRANCH  12  13
ATOM     13  C   UNL A   1      42.755  24.725  27.991  1.00  0.00     0.031 A 
ATOM     14  C   UNL A   1      44.188  25.161  28.149  1.00  0.00     0.074 A 
ATOM     15  C   UNL A   1      41.760  25.593  28.262  1.00  0.00     0.049 A 
ATOM     16  N   UNL A   1      44.661  26.330  28.503  1.00  0.00    -0.248 NA
ATOM     17  C   UNL A   1      45.226  24.153  27.884  1.00  0.00     0.031 C 
ATOM     18  C   UNL A   1      40.329  25.290  28.166  1.00  0.00     0.029 A 
ATOM     19  N   UNL A   1      41.794  26.910  28.644  1.00  0.00    -0.354 N 
ATOM     20  C   UNL A   1      46.044  26.193  28.525  1.00  0.00     0.074 A 
ATOM     21  C   UNL A   1      46.334  24.820  28.177  1.00  0.00     0.031 C 
ATOM     22  C   UNL A   1      39.626  26.404  28.418  1.00  0.00     0.029 A 
ATOM     23  C   UNL A   1      40.549  27.482  28.753  1.00  0.00     0.049 A 
ATOM     24  H   UNL A   1      42.630  27.399  28.822  1.00  0.00     0.167 HD
ATOM     25  C   UNL A   1      46.985  27.130  28.800  1.00  0.00     0.037 A 
ATOM     26  C   UNL A   1      40.186  28.733  29.089  1.00  0.00     0.037 A 
ATOM     27  C   UNL A   1      46.696  28.503  29.128  1.00  0.00     0.049 A 
ATOM     28  C   UNL A   1      41.250  29.745  29.407  1.00  0.00     0.074 A 
ATOM     29  C   UNL A   1      47.583  29.537  29.372  1.00  0.00     0.029 A 
ATOM     30  N   UNL A   1      45.420  29.032  29.267  1.00  0.00    -0.354 N 
ATOM     31  N   UNL A   1      42.553  29.613  29.370  1.00  0.00    -0.248 NA
ATOM     32  C   UNL A   1      40.790  31.078  29.816  1.00  0.00     0.031 C 
ATOM     33  C   UNL A   1      46.846  30.677  29.713  1.00  0.00     0.029 A 
ATOM     34  C   UNL A   1      45.498  30.369  29.623  1.00  0.00     0.049 A 
ATOM     35  H   UNL A   1      44.583  28.531  29.133  1.00  0.00     0.167 HD
ATOM     36  C   UNL A   1      43.070  30.852  29.724  1.00  0.00     0.074 A 
ATOM     37  C   UNL A   1      41.938  31.725  29.955  1.00  0.00     0.031 C 
ATOM     38  C   UNL A   1      44.365  31.231  29.847  1.00  0.00     0.037 A 
BRANCH  25  39
ATOM     39  C   UNL A   1      48.425  26.696  28.780  1.00  0.00     0.057 A 
ATOM     40  C   UNL A   1      49.055  26.147  29.906  1.00  0.00     0.134 A 
ATOM     41  C   UNL A   1      49.180  26.794  27.605  1.00  0.00     0.134 A 
ATOM     42  F   UNL A   1      48.394  26.033  31.068  1.00  0.00    -0.206 F 
ATOM     43  C   UNL A   1      50.389  25.736  29.868  1.00  0.00     0.040 A 
ATOM     44  C   UNL A   1      50.507  26.362  27.548  1.00  0.00     0.040 A 
ATOM     45  F   UNL A   1      48.639  27.302  26.487  1.00  0.00    -0.206 F 
ATOM     46  C   UNL A   1      51.118  25.837  28.685  1.00  0.00     0.006 A 
ENDBRANCH  25  39
BRANCH  26  47
ATOM     47  C   UNL A   1      38.749  29.103  29.131  1.00  0.00     0.057 A 
ATOM     48  C   UNL A   1      38.009  28.995  30.314  1.00  0.00     0.134 A 
ATOM     49  C   UNL A   1      38.080  29.571  27.993  1.00  0.00     0.134 A 
ATOM     50  F   UNL A   1      38.587  28.535  31.434  1.00  0.00    -0.206 F 
ATOM     51  C   UNL A   1      36.653  29.324  30.361  1.00  0.00     0.040 A 
ATOM     52  C   UNL A   1      36.733  29.930  28.032  1.00  0.00     0.040 A 
ATOM     53  F   UNL A   1      38.736  29.703  26.830  1.00  0.00    -0.206 F 
ATOM     54  C   UNL A   1      36.014  29.800  29.218  1.00  0.00     0.006 A 
ENDBRANCH  26  47
BRANCH  38  55
ATOM     55  C   UNL A   1      44.625  32.666  30.208  1.00  0.00     0.057 A 
ATOM     56  C   UNL A   1      44.718  33.670  29.236  1.00  0.00     0.134 A 
ATOM     57  C   UNL A   1      44.767  33.047  31.548  1.00  0.00     0.134 A 
ATOM     58  F   UNL A   1      44.605  33.369  27.933  1.00  0.00    -0.206 F 
ATOM     59  C   UNL A   1      44.977  34.998  29.582  1.00  0.00     0.040 A 
ATOM     60  C   UNL A   1      44.996  34.376  31.909  1.00  0.00     0.040 A 
ATOM     61  F   UNL A   1      44.680  32.136  32.529  1.00  0.00    -0.206 F 
ATOM     62  C   UNL A   1      45.111  35.354  30.924  1.00  0.00     0.006 A 
ENDBRANCH  38  55
ENDBRANCH  12  13
ENDBRANCH   5   7
ENDBRANCH   2   3
ENDBRANCH   1   2
BRANCH   1  63
ATOM     63  C   UNL A   1      36.461  20.184  24.611  1.00  0.00     0.117 C 
BRANCH  63  64
ATOM     64  N   UNL A   1      35.715  20.700  25.741  1.00  0.00    -0.356 N 
ATOM     65  C   UNL A   1      34.877  21.771  25.814  1.00  0.00     0.227 C 
ATOM     66  H   UNL A   1      35.831  20.201  26.581  1.00  0.00     0.163 HD
ATOM     67  O   UNL A   1      34.039  21.748  26.720  1.00  0.00    -0.274 OA
BRANCH  65  68
ATOM     68  C   UNL A   1      34.939  22.919  24.785  1.00  0.00     0.103 C 
ATOM     69  C   UNL A   1      35.576  24.184  25.289  1.00  0.00    -0.016 C 
ATOM     70  C   UNL A   1      33.526  23.412  24.356  1.00  0.00     0.047 C 
ATOM     71  C   UNL A   1      34.746  25.232  25.304  1.00  0.00    -0.006 C 
ATOM     72  C   UNL A   1      33.406  24.889  24.771  1.00  0.00     0.106 C 
BRANCH  72  73
ATOM     73  N   UNL A   1      32.368  25.294  25.705  1.00  0.00    -0.350 N 
ATOM     74  C   UNL A   1      31.853  26.486  26.115  1.00  0.00     0.224 C 
ATOM     75  H   UNL A   1      31.935  24.527  26.144  1.00  0.00     0.164 HD
ATOM     76  O   UNL A   1      30.884  26.465  26.877  1.00  0.00    -0.275 OA
BRANCH  74  77
ATOM     77  C   UNL A   1      32.439  27.789  25.625  1.00  0.00     0.089 C 
ATOM     78  C   UNL A   1      33.363  28.451  26.659  1.00  0.00     0.025 C 
ATOM     79  C   UNL A   1      31.345  28.752  25.183  1.00  0.00     0.083 C 
ATOM     80  C   UNL A   1      32.677  29.666  27.251  1.00  0.00     0.070 C 
ATOM     81  S   UNL A   1      31.794  30.372  25.848  1.00  0.00    -0.161 SA
ENDBRANCH  74  77
ENDBRANCH  72  73
ENDBRANCH  65  68
ENDBRANCH  63  64
ENDBRANCH   1  63
TORSDOF 12
ENDMDL
