MODEL 1
REMARK VINA RESULT:     -11.9      0.000      0.000
REMARK SMILES C[C@@H](CCC(=O)NCCCNC(=O)c1ccc(-c2c3nc(c(-c4c(F)cccc4F)c4ccc([nH]4)c(-c4c(F)cccc4F)c4nc(c(-c5c(F)cccc5F)c5ccc2[nH]5)C=C4)C=C3)cc1)NC(=O)Nc1ccc(Cl)c(Br)c1
REMARK SMILES IDX 8 1 7 2 5 3 6 4 4 6 3 7 2 8 1 9 68 10 69 11 70 13 71 14
REMARK SMILES IDX 72 16 73 17 79 18 74 19 77 20 75 21 78 22 76 23 9 24 10 25
REMARK SMILES IDX 11 26 12 27 13 29 14 30 15 31 67 32 16 33 66 34 17 35 18 36
REMARK SMILES IDX 19 37 60 38 20 39 65 40 59 41 61 42 21 43 64 44 58 45 57 46
REMARK SMILES IDX 22 48 48 49 31 50 47 51 32 52 35 53 46 54 62 55 33 56 34 57
REMARK SMILES IDX 45 59 63 60 36 61 23 62 24 63 29 64 25 65 26 66 28 67 30 68
REMARK SMILES IDX 27 69 49 70 50 71 55 72 51 73 52 74 54 75 56 76 53 77 37 78
REMARK SMILES IDX 38 79 43 80 39 81 40 82 42 83 44 84 41 85
REMARK H PARENT 7 5 68 12 71 15 11 28 61 47 35 58
REMARK Flexibility Score: inf
ROOT
ATOM      1  C   UNL A   1      31.655  30.816  26.009  1.00  0.00     0.117 C 
ENDROOT
BRANCH   1   2
ATOM      2  N   UNL A   1      31.703  29.806  27.053  1.00  0.00    -0.356 N 
ATOM      3  C   UNL A   1      31.623  28.451  26.995  1.00  0.00     0.220 C 
ATOM      4  O   UNL A   1      31.626  27.825  28.057  1.00  0.00    -0.275 OA
ATOM      5  H   UNL A   1      31.814  30.167  27.962  1.00  0.00     0.163 HD
BRANCH   3   6
ATOM      6  C   UNL A   1      31.482  27.724  25.677  1.00  0.00     0.102 C 
BRANCH   6   7
ATOM      7  C   UNL A   1      31.740  26.218  25.823  1.00  0.00     0.034 C 
BRANCH   7   8
ATOM      8  C   UNL A   1      30.587  25.277  25.401  1.00  0.00     0.081 C 
ATOM      9  C   UNL A   1      29.511  26.033  24.616  1.00  0.00     0.031 C 
BRANCH   8  10
ATOM     10  N   UNL A   1      30.089  24.500  26.546  1.00  0.00    -0.335 N 
ATOM     11  C   UNL A   1      30.114  23.200  26.899  1.00  0.00     0.319 C 
ATOM     12  H   UNL A   1      29.629  25.062  27.210  1.00  0.00     0.165 HD
ATOM     13  O   UNL A   1      29.328  22.829  27.775  1.00  0.00    -0.248 OA
ATOM     14  N   UNL A   1      30.841  22.265  26.253  1.00  0.00    -0.308 N 
ATOM     15  H   UNL A   1      30.455  21.360  26.296  1.00  0.00     0.171 HD
BRANCH  14  16
ATOM     16  C   UNL A   1      32.037  22.338  25.533  1.00  0.00     0.044 A 
ATOM     17  C   UNL A   1      31.986  22.056  24.166  1.00  0.00     0.028 A 
ATOM     18  C   UNL A   1      33.255  22.671  26.122  1.00  0.00     0.043 A 
ATOM     19  C   UNL A   1      33.113  22.261  23.369  1.00  0.00     0.024 A 
ATOM     20  C   UNL A   1      34.386  22.886  25.326  1.00  0.00     0.038 A 
ATOM     21  C   UNL A   1      34.309  22.706  23.943  1.00  0.00     0.055 A 
ATOM     22  Br  UNL A   1      35.966  23.471  26.201  1.00  0.00    -0.049 Br
ATOM     23  Cl  UNL A   1      35.631  23.030  22.881  1.00  0.00    -0.083 Cl
ENDBRANCH  14  16
ENDBRANCH   8  10
ENDBRANCH   7   8
ENDBRANCH   6   7
ENDBRANCH   3   6
ENDBRANCH   1   2
BRANCH   1  24
ATOM     24  C   UNL A   1      31.457  32.228  26.560  1.00  0.00     0.042 C 
BRANCH  24  25
ATOM     25  C   UNL A   1      32.678  32.829  27.250  1.00  0.00     0.118 C 
BRANCH  25  26
ATOM     26  N   UNL A   1      32.471  34.229  27.576  1.00  0.00    -0.352 N 
ATOM     27  C   UNL A   1      33.004  34.968  28.597  1.00  0.00     0.251 C 
ATOM     28  H   UNL A   1      31.860  34.716  26.977  1.00  0.00     0.163 HD
ATOM     29  O   UNL A   1      32.514  36.078  28.848  1.00  0.00    -0.269 OA
BRANCH  27  30
ATOM     30  C   UNL A   1      34.148  34.486  29.408  1.00  0.00     0.039 A 
ATOM     31  C   UNL A   1      35.428  34.526  28.841  1.00  0.00     0.014 A 
ATOM     32  C   UNL A   1      33.972  33.894  30.666  1.00  0.00     0.014 A 
ATOM     33  C   UNL A   1      36.521  33.980  29.521  1.00  0.00     0.010 A 
ATOM     34  C   UNL A   1      35.073  33.387  31.365  1.00  0.00     0.010 A 
ATOM     35  C   UNL A   1      36.352  33.399  30.787  1.00  0.00    -0.014 A 
BRANCH  35  36
ATOM     36  C   UNL A   1      37.496  32.748  31.476  1.00  0.00     0.031 A 
ATOM     37  C   UNL A   1      38.170  31.551  30.859  1.00  0.00     0.074 A 
ATOM     38  C   UNL A   1      37.934  33.222  32.657  1.00  0.00     0.049 A 
ATOM     39  N   UNL A   1      39.185  30.852  31.303  1.00  0.00    -0.248 NA
ATOM     40  C   UNL A   1      37.624  31.070  29.581  1.00  0.00     0.031 C 
ATOM     41  C   UNL A   1      37.362  34.361  33.376  1.00  0.00     0.029 A 
ATOM     42  N   UNL A   1      38.964  32.801  33.462  1.00  0.00    -0.354 N 
ATOM     43  C   UNL A   1      39.394  29.849  30.366  1.00  0.00     0.074 A 
ATOM     44  C   UNL A   1      38.377  30.005  29.348  1.00  0.00     0.031 C 
ATOM     45  C   UNL A   1      38.057  34.556  34.509  1.00  0.00     0.029 A 
ATOM     46  C   UNL A   1      39.109  33.546  34.606  1.00  0.00     0.049 A 
ATOM     47  H   UNL A   1      39.543  32.037  33.239  1.00  0.00     0.167 HD
ATOM     48  C   UNL A   1      40.354  28.893  30.343  1.00  0.00     0.037 A 
ATOM     49  C   UNL A   1      39.990  33.431  35.617  1.00  0.00     0.037 A 
ATOM     50  C   UNL A   1      41.382  28.743  31.338  1.00  0.00     0.049 A 
ATOM     51  C   UNL A   1      41.045  32.361  35.571  1.00  0.00     0.074 A 
ATOM     52  C   UNL A   1      42.428  27.834  31.368  1.00  0.00     0.029 A 
ATOM     53  N   UNL A   1      41.496  29.520  32.480  1.00  0.00    -0.354 N 
ATOM     54  N   UNL A   1      41.264  31.455  34.649  1.00  0.00    -0.248 NA
ATOM     55  C   UNL A   1      41.982  32.303  36.704  1.00  0.00     0.031 C 
ATOM     56  C   UNL A   1      43.156  28.043  32.545  1.00  0.00     0.029 A 
ATOM     57  C   UNL A   1      42.583  29.103  33.230  1.00  0.00     0.049 A 
ATOM     58  H   UNL A   1      40.892  30.259  32.721  1.00  0.00     0.167 HD
ATOM     59  C   UNL A   1      42.373  30.737  35.077  1.00  0.00     0.074 A 
ATOM     60  C   UNL A   1      42.790  31.318  36.336  1.00  0.00     0.031 C 
ATOM     61  C   UNL A   1      42.991  29.691  34.478  1.00  0.00     0.037 A 
BRANCH  48  62
ATOM     62  C   UNL A   1      40.338  27.929  29.195  1.00  0.00     0.057 A 
ATOM     63  C   UNL A   1      39.553  26.769  29.220  1.00  0.00     0.134 A 
ATOM     64  C   UNL A   1      41.087  28.181  28.038  1.00  0.00     0.134 A 
ATOM     65  F   UNL A   1      38.822  26.468  30.304  1.00  0.00    -0.206 F 
ATOM     66  C   UNL A   1      39.527  25.883  28.142  1.00  0.00     0.040 A 
ATOM     67  C   UNL A   1      41.053  27.313  26.946  1.00  0.00     0.040 A 
ATOM     68  F   UNL A   1      41.854  29.277  27.949  1.00  0.00    -0.206 F 
ATOM     69  C   UNL A   1      40.275  26.158  26.997  1.00  0.00     0.006 A 
ENDBRANCH  48  62
BRANCH  49  70
ATOM     70  C   UNL A   1      39.933  34.378  36.756  1.00  0.00     0.057 A 
ATOM     71  C   UNL A   1      40.567  35.623  36.691  1.00  0.00     0.134 A 
ATOM     72  C   UNL A   1      39.252  34.058  37.936  1.00  0.00     0.134 A 
ATOM     73  F   UNL A   1      41.251  35.975  35.592  1.00  0.00    -0.206 F 
ATOM     74  C   UNL A   1      40.538  36.514  37.765  1.00  0.00     0.040 A 
ATOM     75  C   UNL A   1      39.200  34.946  39.011  1.00  0.00     0.040 A 
ATOM     76  F   UNL A   1      38.621  32.881  38.056  1.00  0.00    -0.206 F 
ATOM     77  C   UNL A   1      39.849  36.177  38.928  1.00  0.00     0.006 A 
ENDBRANCH  49  70
BRANCH  61  78
ATOM     78  C   UNL A   1      44.198  29.125  35.162  1.00  0.00     0.057 A 
ATOM     79  C   UNL A   1      45.485  29.611  34.904  1.00  0.00     0.134 A 
ATOM     80  C   UNL A   1      44.068  28.106  36.114  1.00  0.00     0.134 A 
ATOM     81  F   UNL A   1      45.677  30.578  33.993  1.00  0.00    -0.206 F 
ATOM     82  C   UNL A   1      46.605  29.091  35.556  1.00  0.00     0.040 A 
ATOM     83  C   UNL A   1      45.178  27.590  36.787  1.00  0.00     0.040 A 
ATOM     84  F   UNL A   1      42.861  27.601  36.410  1.00  0.00    -0.206 F 
ATOM     85  C   UNL A   1      46.451  28.081  36.504  1.00  0.00     0.006 A 
ENDBRANCH  61  78
ENDBRANCH  35  36
ENDBRANCH  27  30
ENDBRANCH  25  26
ENDBRANCH  24  25
ENDBRANCH   1  24
TORSDOF 14
ENDMDL
MODEL 2
REMARK VINA RESULT:     -11.9      4.989      9.382
REMARK SMILES C[C@@H](CCC(=O)NCCCNC(=O)c1ccc(-c2c3nc(c(-c4c(F)cccc4F)c4ccc([nH]4)c(-c4c(F)cccc4F)c4nc(c(-c5c(F)cccc5F)c5ccc2[nH]5)C=C4)C=C3)cc1)NC(=O)Nc1ccc(Cl)c(Br)c1
REMARK SMILES IDX 8 1 7 2 5 3 6 4 4 6 3 7 2 8 1 9 68 10 69 11 70 13 71 14
REMARK SMILES IDX 72 16 73 17 79 18 74 19 77 20 75 21 78 22 76 23 9 24 10 25
REMARK SMILES IDX 11 26 12 27 13 29 14 30 15 31 67 32 16 33 66 34 17 35 18 36
REMARK SMILES IDX 19 37 60 38 20 39 65 40 59 41 61 42 21 43 64 44 58 45 57 46
REMARK SMILES IDX 22 48 48 49 31 50 47 51 32 52 35 53 46 54 62 55 33 56 34 57
REMARK SMILES IDX 45 59 63 60 36 61 23 62 24 63 29 64 25 65 26 66 28 67 30 68
REMARK SMILES IDX 27 69 49 70 50 71 55 72 51 73 52 74 54 75 56 76 53 77 37 78
REMARK SMILES IDX 38 79 43 80 39 81 40 82 42 83 44 84 41 85
REMARK H PARENT 7 5 68 12 71 15 11 28 61 47 35 58
REMARK Flexibility Score: inf
ROOT
ATOM      1  C   UNL A   1      36.605  20.419  24.945  1.00  0.00     0.117 C 
ENDROOT
BRANCH   1   2
ATOM      2  N   UNL A   1      36.785  21.636  24.170  1.00  0.00    -0.356 N 
ATOM      3  C   UNL A   1      35.898  22.582  23.766  1.00  0.00     0.220 C 
ATOM      4  O   UNL A   1      36.312  23.496  23.050  1.00  0.00    -0.275 OA
ATOM      5  H   UNL A   1      37.713  21.806  23.891  1.00  0.00     0.163 HD
BRANCH   3   6
ATOM      6  C   UNL A   1      34.433  22.498  24.132  1.00  0.00     0.102 C 
BRANCH   6   7
ATOM      7  C   UNL A   1      33.679  23.785  23.771  1.00  0.00     0.034 C 
BRANCH   7   8
ATOM      8  C   UNL A   1      32.569  23.658  22.702  1.00  0.00     0.081 C 
ATOM      9  C   UNL A   1      32.080  22.212  22.578  1.00  0.00     0.031 C 
BRANCH   8  10
ATOM     10  N   UNL A   1      32.975  24.286  21.436  1.00  0.00    -0.335 N 
ATOM     11  C   UNL A   1      32.652  25.422  20.788  1.00  0.00     0.319 C 
ATOM     12  H   UNL A   1      33.640  23.749  20.946  1.00  0.00     0.165 HD
ATOM     13  O   UNL A   1      32.940  25.501  19.591  1.00  0.00    -0.248 OA
ATOM     14  N   UNL A   1      31.910  26.408  21.335  1.00  0.00    -0.308 N 
ATOM     15  H   UNL A   1      31.390  26.926  20.679  1.00  0.00     0.171 HD
BRANCH  14  16
ATOM     16  C   UNL A   1      31.739  26.831  22.656  1.00  0.00     0.044 A 
ATOM     17  C   UNL A   1      30.501  26.593  23.255  1.00  0.00     0.028 A 
ATOM     18  C   UNL A   1      32.741  27.474  23.380  1.00  0.00     0.043 A 
ATOM     19  C   UNL A   1      30.322  26.853  24.615  1.00  0.00     0.024 A 
ATOM     20  C   UNL A   1      32.570  27.729  24.745  1.00  0.00     0.038 A 
ATOM     21  C   UNL A   1      31.366  27.394  25.371  1.00  0.00     0.055 A 
ATOM     22  Br  UNL A   1      34.040  28.483  25.680  1.00  0.00    -0.049 Br
ATOM     23  Cl  UNL A   1      31.103  27.598  27.065  1.00  0.00    -0.083 Cl
ENDBRANCH  14  16
ENDBRANCH   8  10
ENDBRANCH   7   8
ENDBRANCH   6   7
ENDBRANCH   3   6
ENDBRANCH   1   2
BRANCH   1  24
ATOM     24  C   UNL A   1      37.866  19.558  24.996  1.00  0.00     0.042 C 
BRANCH  24  25
ATOM     25  C   UNL A   1      39.055  20.196  25.708  1.00  0.00     0.118 C 
BRANCH  25  26
ATOM     26  N   UNL A   1      40.179  19.280  25.796  1.00  0.00    -0.352 N 
ATOM     27  C   UNL A   1      41.497  19.548  26.046  1.00  0.00     0.251 C 
ATOM     28  H   UNL A   1      39.961  18.330  25.656  1.00  0.00     0.163 HD
ATOM     29  O   UNL A   1      42.335  18.660  25.838  1.00  0.00    -0.269 OA
BRANCH  27  30
ATOM     30  C   UNL A   1      41.953  20.862  26.560  1.00  0.00     0.039 A 
ATOM     31  C   UNL A   1      41.846  21.112  27.933  1.00  0.00     0.014 A 
ATOM     32  C   UNL A   1      42.377  21.889  25.707  1.00  0.00     0.014 A 
ATOM     33  C   UNL A   1      42.156  22.373  28.451  1.00  0.00     0.010 A 
ATOM     34  C   UNL A   1      42.729  23.138  26.230  1.00  0.00     0.010 A 
ATOM     35  C   UNL A   1      42.594  23.401  27.602  1.00  0.00    -0.014 A 
BRANCH  35  36
ATOM     36  C   UNL A   1      42.848  24.763  28.136  1.00  0.00     0.031 A 
ATOM     37  C   UNL A   1      44.245  25.182  28.508  1.00  0.00     0.074 A 
ATOM     38  C   UNL A   1      41.830  25.629  28.295  1.00  0.00     0.049 A 
ATOM     39  N   UNL A   1      44.668  26.329  28.982  1.00  0.00    -0.248 NA
ATOM     40  C   UNL A   1      45.306  24.178  28.334  1.00  0.00     0.031 C 
ATOM     41  C   UNL A   1      40.426  25.349  27.993  1.00  0.00     0.029 A 
ATOM     42  N   UNL A   1      41.822  26.924  28.752  1.00  0.00    -0.354 N 
ATOM     43  C   UNL A   1      46.036  26.181  29.170  1.00  0.00     0.074 A 
ATOM     44  C   UNL A   1      46.368  24.823  28.794  1.00  0.00     0.031 C 
ATOM     45  C   UNL A   1      39.694  26.443  28.261  1.00  0.00     0.029 A 
ATOM     46  C   UNL A   1      40.573  27.494  28.770  1.00  0.00     0.049 A 
ATOM     47  H   UNL A   1      42.635  27.398  29.039  1.00  0.00     0.167 HD
ATOM     48  C   UNL A   1      46.939  27.095  29.599  1.00  0.00     0.037 A 
ATOM     49  C   UNL A   1      40.180  28.724  29.152  1.00  0.00     0.037 A 
ATOM     50  C   UNL A   1      46.623  28.453  29.954  1.00  0.00     0.049 A 
ATOM     51  C   UNL A   1      41.200  29.721  29.628  1.00  0.00     0.074 A 
ATOM     52  C   UNL A   1      47.483  29.464  30.350  1.00  0.00     0.029 A 
ATOM     53  N   UNL A   1      45.345  28.991  29.956  1.00  0.00    -0.354 N 
ATOM     54  N   UNL A   1      42.498  29.583  29.745  1.00  0.00    -0.248 NA
ATOM     55  C   UNL A   1      40.699  31.048  30.016  1.00  0.00     0.031 C 
ATOM     56  C   UNL A   1      46.720  30.606  30.621  1.00  0.00     0.029 A 
ATOM     57  C   UNL A   1      45.391  30.315  30.362  1.00  0.00     0.049 A 
ATOM     58  H   UNL A   1      44.528  28.504  29.706  1.00  0.00     0.167 HD
ATOM     59  C   UNL A   1      42.971  30.807  30.196  1.00  0.00     0.074 A 
ATOM     60  C   UNL A   1      41.823  31.681  30.322  1.00  0.00     0.031 C 
ATOM     61  C   UNL A   1      44.244  31.176  30.479  1.00  0.00     0.037 A 
BRANCH  48  62
ATOM     62  C   UNL A   1      48.367  26.653  29.707  1.00  0.00     0.057 A 
ATOM     63  C   UNL A   1      48.858  26.032  30.863  1.00  0.00     0.134 A 
ATOM     64  C   UNL A   1      49.251  26.817  28.633  1.00  0.00     0.134 A 
ATOM     65  F   UNL A   1      48.064  25.856  31.929  1.00  0.00    -0.206 F 
ATOM     66  C   UNL A   1      50.185  25.606  30.953  1.00  0.00     0.040 A 
ATOM     67  C   UNL A   1      50.573  26.376  28.704  1.00  0.00     0.040 A 
ATOM     68  F   UNL A   1      48.840  27.399  27.497  1.00  0.00    -0.206 F 
ATOM     69  C   UNL A   1      51.045  25.773  29.868  1.00  0.00     0.006 A 
ENDBRANCH  48  62
BRANCH  49  70
ATOM     70  C   UNL A   1      38.747  29.096  29.075  1.00  0.00     0.057 A 
ATOM     71  C   UNL A   1      38.184  29.551  27.877  1.00  0.00     0.134 A 
ATOM     72  C   UNL A   1      37.911  29.016  30.195  1.00  0.00     0.134 A 
ATOM     73  F   UNL A   1      38.942  29.666  26.777  1.00  0.00    -0.206 F 
ATOM     74  C   UNL A   1      36.842  29.924  27.797  1.00  0.00     0.040 A 
ATOM     75  C   UNL A   1      36.563  29.370  30.125  1.00  0.00     0.040 A 
ATOM     76  F   UNL A   1      38.393  28.584  31.369  1.00  0.00    -0.206 F 
ATOM     77  C   UNL A   1      36.027  29.831  28.924  1.00  0.00     0.006 A 
ENDBRANCH  49  70
BRANCH  61  78
ATOM     78  C   UNL A   1      44.466  32.588  30.926  1.00  0.00     0.057 A 
ATOM     79  C   UNL A   1      44.684  33.624  30.009  1.00  0.00     0.134 A 
ATOM     80  C   UNL A   1      44.427  32.922  32.285  1.00  0.00     0.134 A 
ATOM     81  F   UNL A   1      44.745  33.366  28.693  1.00  0.00    -0.206 F 
ATOM     82  C   UNL A   1      44.875  34.942  30.430  1.00  0.00     0.040 A 
ATOM     83  C   UNL A   1      44.597  34.239  32.718  1.00  0.00     0.040 A 
ATOM     84  F   UNL A   1      44.216  31.976  33.213  1.00  0.00    -0.206 F 
ATOM     85  C   UNL A   1      44.826  35.252  31.788  1.00  0.00     0.006 A 
ENDBRANCH  61  78
ENDBRANCH  35  36
ENDBRANCH  27  30
ENDBRANCH  25  26
ENDBRANCH  24  25
ENDBRANCH   1  24
TORSDOF 14
ENDMDL
MODEL 3
REMARK VINA RESULT:     -11.8      1.343      6.342
REMARK SMILES C[C@@H](CCC(=O)NCCCNC(=O)c1ccc(-c2c3nc(c(-c4c(F)cccc4F)c4ccc([nH]4)c(-c4c(F)cccc4F)c4nc(c(-c5c(F)cccc5F)c5ccc2[nH]5)C=C4)C=C3)cc1)NC(=O)Nc1ccc(Cl)c(Br)c1
REMARK SMILES IDX 8 1 7 2 5 3 6 4 4 6 3 7 2 8 1 9 68 10 69 11 70 13 71 14
REMARK SMILES IDX 72 16 73 17 79 18 74 19 77 20 75 21 78 22 76 23 9 24 10 25
REMARK SMILES IDX 11 26 12 27 13 29 14 30 15 31 67 32 16 33 66 34 17 35 18 36
REMARK SMILES IDX 19 37 60 38 20 39 65 40 59 41 61 42 21 43 64 44 58 45 57 46
REMARK SMILES IDX 22 48 48 49 31 50 47 51 32 52 35 53 46 54 62 55 33 56 34 57
REMARK SMILES IDX 45 59 63 60 36 61 23 62 24 63 29 64 25 65 26 66 28 67 30 68
REMARK SMILES IDX 27 69 49 70 50 71 55 72 51 73 52 74 54 75 56 76 53 77 37 78
REMARK SMILES IDX 38 79 43 80 39 81 40 82 42 83 44 84 41 85
REMARK H PARENT 7 5 68 12 71 15 11 28 61 47 35 58
REMARK Flexibility Score: inf
ROOT
ATOM      1  C   UNL A   1      31.563  30.841  26.116  1.00  0.00     0.117 C 
ENDROOT
BRANCH   1   2
ATOM      2  N   UNL A   1      31.696  29.780  27.101  1.00  0.00    -0.356 N 
ATOM      3  C   UNL A   1      31.633  28.428  26.977  1.00  0.00     0.220 C 
ATOM      4  O   UNL A   1      31.715  27.750  28.002  1.00  0.00    -0.275 OA
ATOM      5  H   UNL A   1      31.862  30.096  28.017  1.00  0.00     0.163 HD
BRANCH   3   6
ATOM      6  C   UNL A   1      31.414  27.768  25.635  1.00  0.00     0.102 C 
BRANCH   6   7
ATOM      7  C   UNL A   1      31.775  26.276  25.665  1.00  0.00     0.034 C 
BRANCH   7   8
ATOM      8  C   UNL A   1      30.657  25.287  25.263  1.00  0.00     0.081 C 
ATOM      9  C   UNL A   1      29.590  25.974  24.405  1.00  0.00     0.031 C 
BRANCH   8  10
ATOM     10  N   UNL A   1      30.139  24.563  26.433  1.00  0.00    -0.335 N 
ATOM     11  C   UNL A   1      30.156  23.280  26.845  1.00  0.00     0.319 C 
ATOM     12  H   UNL A   1      29.670  25.155  27.065  1.00  0.00     0.165 HD
ATOM     13  O   UNL A   1      29.356  22.951  27.724  1.00  0.00    -0.248 OA
ATOM     14  N   UNL A   1      30.891  22.316  26.252  1.00  0.00    -0.308 N 
ATOM     15  H   UNL A   1      30.502  21.414  26.330  1.00  0.00     0.171 HD
BRANCH  14  16
ATOM     16  C   UNL A   1      32.097  22.354  25.548  1.00  0.00     0.044 A 
ATOM     17  C   UNL A   1      32.075  21.969  24.207  1.00  0.00     0.028 A 
ATOM     18  C   UNL A   1      33.299  22.751  26.129  1.00  0.00     0.043 A 
ATOM     19  C   UNL A   1      33.212  22.133  23.414  1.00  0.00     0.024 A 
ATOM     20  C   UNL A   1      34.440  22.925  25.339  1.00  0.00     0.038 A 
ATOM     21  C   UNL A   1      34.390  22.640  23.972  1.00  0.00     0.055 A 
ATOM     22  Br  UNL A   1      35.996  23.601  26.192  1.00  0.00    -0.049 Br
ATOM     23  Cl  UNL A   1      35.725  22.905  22.910  1.00  0.00    -0.083 Cl
ENDBRANCH  14  16
ENDBRANCH   8  10
ENDBRANCH   7   8
ENDBRANCH   6   7
ENDBRANCH   3   6
ENDBRANCH   1   2
BRANCH   1  24
ATOM     24  C   UNL A   1      31.436  32.226  26.751  1.00  0.00     0.042 C 
BRANCH  24  25
ATOM     25  C   UNL A   1      32.750  32.847  27.212  1.00  0.00     0.118 C 
BRANCH  25  26
ATOM     26  N   UNL A   1      32.543  34.162  27.794  1.00  0.00    -0.352 N 
ATOM     27  C   UNL A   1      33.191  34.757  28.843  1.00  0.00     0.251 C 
ATOM     28  H   UNL A   1      31.835  34.703  27.376  1.00  0.00     0.163 HD
ATOM     29  O   UNL A   1      32.703  35.780  29.341  1.00  0.00    -0.269 OA
BRANCH  27  30
ATOM     30  C   UNL A   1      34.457  34.218  29.398  1.00  0.00     0.039 A 
ATOM     31  C   UNL A   1      35.635  34.404  28.665  1.00  0.00     0.014 A 
ATOM     32  C   UNL A   1      34.488  33.442  30.563  1.00  0.00     0.014 A 
ATOM     33  C   UNL A   1      36.832  33.819  29.089  1.00  0.00     0.010 A 
ATOM     34  C   UNL A   1      35.695  32.893  31.010  1.00  0.00     0.010 A 
ATOM     35  C   UNL A   1      36.872  33.052  30.262  1.00  0.00    -0.014 A 
BRANCH  35  36
ATOM     36  C   UNL A   1      38.123  32.364  30.672  1.00  0.00     0.031 A 
ATOM     37  C   UNL A   1      38.979  32.939  31.769  1.00  0.00     0.074 A 
ATOM     38  C   UNL A   1      38.501  31.226  30.062  1.00  0.00     0.049 A 
ATOM     39  N   UNL A   1      40.099  32.482  32.271  1.00  0.00    -0.248 NA
ATOM     40  C   UNL A   1      38.520  34.199  32.375  1.00  0.00     0.031 C 
ATOM     41  C   UNL A   1      37.778  30.569  28.972  1.00  0.00     0.029 A 
ATOM     42  N   UNL A   1      39.592  30.419  30.273  1.00  0.00    -0.354 N 
ATOM     43  C   UNL A   1      40.482  33.399  33.242  1.00  0.00     0.074 A 
ATOM     44  C   UNL A   1      39.494  34.457  33.234  1.00  0.00     0.031 C 
ATOM     45  C   UNL A   1      38.439  29.454  28.619  1.00  0.00     0.029 A 
ATOM     46  C   UNL A   1      39.639  29.327  29.443  1.00  0.00     0.049 A 
ATOM     47  H   UNL A   1      40.276  30.607  30.955  1.00  0.00     0.167 HD
ATOM     48  C   UNL A   1      41.548  33.358  34.077  1.00  0.00     0.037 A 
ATOM     49  C   UNL A   1      40.544  28.335  29.355  1.00  0.00     0.037 A 
ATOM     50  C   UNL A   1      42.522  32.299  34.109  1.00  0.00     0.049 A 
ATOM     51  C   UNL A   1      41.721  28.311  30.292  1.00  0.00     0.074 A 
ATOM     52  C   UNL A   1      43.606  32.149  34.958  1.00  0.00     0.029 A 
ATOM     53  N   UNL A   1      42.531  31.210  33.253  1.00  0.00    -0.354 N 
ATOM     54  N   UNL A   1      42.037  29.156  31.242  1.00  0.00    -0.248 NA
ATOM     55  C   UNL A   1      42.661  27.189  30.147  1.00  0.00     0.031 C 
ATOM     56  C   UNL A   1      44.288  30.982  34.595  1.00  0.00     0.029 A 
ATOM     57  C   UNL A   1      43.610  30.390  33.542  1.00  0.00     0.049 A 
ATOM     58  H   UNL A   1      41.868  31.043  32.545  1.00  0.00     0.167 HD
ATOM     59  C   UNL A   1      43.195  28.658  31.823  1.00  0.00     0.074 A 
ATOM     60  C   UNL A   1      43.522  27.431  31.126  1.00  0.00     0.031 C 
ATOM     61  C   UNL A   1      43.922  29.171  32.845  1.00  0.00     0.037 A 
BRANCH  48  62
ATOM     62  C   UNL A   1      41.715  34.498  35.036  1.00  0.00     0.057 A 
ATOM     63  C   UNL A   1      41.142  34.473  36.314  1.00  0.00     0.134 A 
ATOM     64  C   UNL A   1      42.488  35.615  34.693  1.00  0.00     0.134 A 
ATOM     65  F   UNL A   1      40.383  33.436  36.698  1.00  0.00    -0.206 F 
ATOM     66  C   UNL A   1      41.315  35.529  37.211  1.00  0.00     0.040 A 
ATOM     67  C   UNL A   1      42.684  36.666  35.589  1.00  0.00     0.040 A 
ATOM     68  F   UNL A   1      43.068  35.696  33.487  1.00  0.00    -0.206 F 
ATOM     69  C   UNL A   1      42.094  36.628  36.850  1.00  0.00     0.006 A 
ENDBRANCH  48  62
BRANCH  49  70
ATOM     70  C   UNL A   1      40.361  27.255  28.355  1.00  0.00     0.057 A 
ATOM     71  C   UNL A   1      40.969  27.329  27.097  1.00  0.00     0.134 A 
ATOM     72  C   UNL A   1      39.570  26.134  28.630  1.00  0.00     0.134 A 
ATOM     73  F   UNL A   1      41.722  28.390  26.772  1.00  0.00    -0.206 F 
ATOM     74  C   UNL A   1      40.787  26.330  26.140  1.00  0.00     0.040 A 
ATOM     75  C   UNL A   1      39.393  25.119  27.688  1.00  0.00     0.040 A 
ATOM     76  F   UNL A   1      38.966  26.006  29.820  1.00  0.00    -0.206 F 
ATOM     77  C   UNL A   1      39.999  25.219  26.437  1.00  0.00     0.006 A 
ENDBRANCH  49  70
BRANCH  61  78
ATOM     78  C   UNL A   1      45.126  28.395  33.288  1.00  0.00     0.057 A 
ATOM     79  C   UNL A   1      45.035  27.386  34.254  1.00  0.00     0.134 A 
ATOM     80  C   UNL A   1      46.381  28.637  32.717  1.00  0.00     0.134 A 
ATOM     81  F   UNL A   1      43.862  27.116  34.847  1.00  0.00    -0.206 F 
ATOM     82  C   UNL A   1      46.157  26.655  34.651  1.00  0.00     0.040 A 
ATOM     83  C   UNL A   1      47.507  27.900  33.092  1.00  0.00     0.040 A 
ATOM     84  F   UNL A   1      46.533  29.587  31.782  1.00  0.00    -0.206 F 
ATOM     85  C   UNL A   1      47.396  26.909  34.065  1.00  0.00     0.006 A 
ENDBRANCH  61  78
ENDBRANCH  35  36
ENDBRANCH  27  30
ENDBRANCH  25  26
ENDBRANCH  24  25
ENDBRANCH   1  24
TORSDOF 14
ENDMDL
