MODEL 1
REMARK VINA RESULT:     -12.5      0.000      0.000
REMARK SMILES Cc1cc(F)c([C@H](O)[C@H]2CCCC[C@@H]2C(=O)NCCCNC(=O)c2ccc(-c3c4nc(c(-c5c(F)cccc5F)c5ccc([nH]5)c(-c5c(F)cccc5F)c5nc(c(-c6c(F)cccc6F)c6ccc3[nH]6)C=C5)C=C4)cc2)cc1F
REMARK SMILES IDX 19 1 18 2 17 3 15 4 16 5 14 7 9 8 10 9 11 10 13 11 12 12
REMARK SMILES IDX 7 13 6 14 1 15 2 16 3 17 79 18 4 19 78 20 80 21 5 22 8 23
REMARK SMILES IDX 20 25 21 26 22 27 23 29 24 30 25 31 77 32 26 33 76 34 27 35
REMARK SMILES IDX 28 36 29 37 70 38 30 39 75 40 69 41 71 42 31 43 74 44 68 45
REMARK SMILES IDX 67 46 32 48 58 49 41 50 57 51 42 52 45 53 56 54 72 55 43 56
REMARK SMILES IDX 44 57 55 59 73 60 46 61 33 62 34 63 39 64 35 65 36 66 38 67
REMARK SMILES IDX 40 68 37 69 59 70 60 71 65 72 61 73 62 74 64 75 66 76 63 77
REMARK SMILES IDX 47 78 48 79 53 80 49 81 50 82 52 83 54 84 51 85
REMARK H PARENT 17 6 8 24 21 28 71 47 45 58
REMARK Flexibility Score: inf
ROOT
ATOM      1  C   UNL A   1      31.358  32.042  26.863  1.00  0.00     0.042 C 
ENDROOT
BRANCH   1   2
ATOM      2  C   UNL A   1      31.755  30.720  26.229  1.00  0.00     0.117 C 
BRANCH   2   3
ATOM      3  N   UNL A   1      31.688  29.630  27.185  1.00  0.00    -0.356 N 
ATOM      4  C   UNL A   1      31.675  28.286  26.979  1.00  0.00     0.223 C 
ATOM      5  O   UNL A   1      31.539  27.569  27.970  1.00  0.00    -0.275 OA
ATOM      6  H   UNL A   1      31.646  29.906  28.129  1.00  0.00     0.163 HD
BRANCH   4   7
ATOM      7  C   UNL A   1      31.860  27.733  25.562  1.00  0.00     0.084 C 
ATOM      8  C   UNL A   1      31.113  26.376  25.408  1.00  0.00     0.035 C 
ATOM      9  C   UNL A   1      31.886  25.199  26.046  1.00  0.00     0.007 C 
ATOM     10  C   UNL A   1      33.401  25.190  25.858  1.00  0.00     0.000 C 
ATOM     11  C   UNL A   1      33.365  27.628  25.259  1.00  0.00     0.014 C 
ATOM     12  C   UNL A   1      34.048  26.545  26.078  1.00  0.00     0.001 C 
BRANCH   8  13
ATOM     13  C   UNL A   1      30.572  26.090  23.971  1.00  0.00     0.151 C 
BRANCH  13  14
ATOM     14  C   UNL A   1      29.758  27.186  23.331  1.00  0.00     0.019 A 
ATOM     15  C   UNL A   1      27.693  30.793  22.165  1.00  0.00     0.047 C 
ATOM     16  C   UNL A   1      28.372  29.494  22.470  1.00  0.00    -0.012 A 
ATOM     17  C   UNL A   1      29.723  29.318  22.151  1.00  0.00     0.046 A 
ATOM     18  C   UNL A   1      27.705  28.463  23.134  1.00  0.00     0.126 A 
ATOM     19  C   UNL A   1      30.392  28.166  22.563  1.00  0.00     0.129 A 
ATOM     20  C   UNL A   1      28.379  27.318  23.553  1.00  0.00     0.049 A 
ATOM     21  F   UNL A   1      26.405  28.590  23.435  1.00  0.00    -0.207 F 
ATOM     22  F   UNL A   1      31.697  28.048  22.277  1.00  0.00    -0.207 F 
ENDBRANCH  13  14
BRANCH  13  23
ATOM     23  O   UNL A   1      29.766  24.903  24.025  1.00  0.00    -0.388 OA
ATOM     24  H   UNL A   1      29.063  25.018  24.683  1.00  0.00     0.211 HD
ENDBRANCH  13  23
ENDBRANCH   8  13
ENDBRANCH   4   7
ENDBRANCH   2   3
ENDBRANCH   1   2
BRANCH   1  25
ATOM     25  C   UNL A   1      32.361  33.163  26.623  1.00  0.00     0.118 C 
BRANCH  25  26
ATOM     26  N   UNL A   1      32.282  34.233  27.610  1.00  0.00    -0.352 N 
ATOM     27  C   UNL A   1      33.119  34.489  28.673  1.00  0.00     0.251 C 
ATOM     28  H   UNL A   1      31.528  34.857  27.502  1.00  0.00     0.163 HD
ATOM     29  O   UNL A   1      32.855  35.365  29.489  1.00  0.00    -0.269 OA
BRANCH  27  30
ATOM     30  C   UNL A   1      34.320  33.648  28.843  1.00  0.00     0.039 A 
ATOM     31  C   UNL A   1      34.184  32.305  29.203  1.00  0.00     0.014 A 
ATOM     32  C   UNL A   1      35.581  34.242  28.771  1.00  0.00     0.014 A 
ATOM     33  C   UNL A   1      35.285  31.624  29.705  1.00  0.00     0.010 A 
ATOM     34  C   UNL A   1      36.701  33.520  29.184  1.00  0.00     0.010 A 
ATOM     35  C   UNL A   1      36.551  32.232  29.724  1.00  0.00    -0.014 A 
BRANCH  35  36
ATOM     36  C   UNL A   1      37.693  31.535  30.370  1.00  0.00     0.031 A 
ATOM     37  C   UNL A   1      38.009  31.775  31.825  1.00  0.00     0.074 A 
ATOM     38  C   UNL A   1      38.411  30.640  29.667  1.00  0.00     0.049 A 
ATOM     39  N   UNL A   1      39.000  31.310  32.544  1.00  0.00    -0.248 NA
ATOM     40  C   UNL A   1      37.096  32.657  32.570  1.00  0.00     0.031 C 
ATOM     41  C   UNL A   1      38.181  30.287  28.265  1.00  0.00     0.029 A 
ATOM     42  N   UNL A   1      39.466  29.850  30.041  1.00  0.00    -0.354 N 
ATOM     43  C   UNL A   1      38.852  31.868  33.807  1.00  0.00     0.074 A 
ATOM     44  C   UNL A   1      37.682  32.718  33.758  1.00  0.00     0.031 C 
ATOM     45  C   UNL A   1      39.037  29.318  27.911  1.00  0.00     0.029 A 
ATOM     46  C   UNL A   1      39.921  29.035  29.035  1.00  0.00     0.049 A 
ATOM     47  H   UNL A   1      39.859  29.866  30.943  1.00  0.00     0.167 HD
ATOM     48  C   UNL A   1      39.616  31.685  34.911  1.00  0.00     0.037 A 
ATOM     49  C   UNL A   1      40.954  28.174  29.011  1.00  0.00     0.037 A 
ATOM     50  C   UNL A   1      40.756  30.807  34.972  1.00  0.00     0.049 A 
ATOM     51  C   UNL A   1      41.810  28.019  30.233  1.00  0.00     0.074 A 
ATOM     52  C   UNL A   1      41.591  30.548  36.046  1.00  0.00     0.029 A 
ATOM     53  N   UNL A   1      41.215  30.038  33.915  1.00  0.00    -0.354 N 
ATOM     54  N   UNL A   1      41.681  28.585  31.408  1.00  0.00    -0.248 NA
ATOM     55  C   UNL A   1      42.967  27.122  30.118  1.00  0.00     0.031 C 
ATOM     56  C   UNL A   1      42.570  29.639  35.630  1.00  0.00     0.029 A 
ATOM     57  C   UNL A   1      42.326  29.310  34.307  1.00  0.00     0.049 A 
ATOM     58  H   UNL A   1      40.811  30.012  33.018  1.00  0.00     0.167 HD
ATOM     59  C   UNL A   1      42.732  28.105  32.176  1.00  0.00     0.074 A 
ATOM     60  C   UNL A   1      43.479  27.188  31.339  1.00  0.00     0.031 C 
ATOM     61  C   UNL A   1      43.053  28.401  33.459  1.00  0.00     0.037 A 
BRANCH  48  62
ATOM     62  C   UNL A   1      39.256  32.465  36.140  1.00  0.00     0.057 A 
ATOM     63  C   UNL A   1      38.324  31.962  37.056  1.00  0.00     0.134 A 
ATOM     64  C   UNL A   1      39.804  33.727  36.403  1.00  0.00     0.134 A 
ATOM     65  F   UNL A   1      37.759  30.761  36.859  1.00  0.00    -0.206 F 
ATOM     66  C   UNL A   1      37.948  32.685  38.189  1.00  0.00     0.040 A 
ATOM     67  C   UNL A   1      39.451  34.451  37.544  1.00  0.00     0.040 A 
ATOM     68  F   UNL A   1      40.714  34.260  35.574  1.00  0.00    -0.206 F 
ATOM     69  C   UNL A   1      38.516  33.933  38.438  1.00  0.00     0.006 A 
ENDBRANCH  48  62
BRANCH  49  70
ATOM     70  C   UNL A   1      41.248  27.410  27.775  1.00  0.00     0.057 A 
ATOM     71  C   UNL A   1      42.023  27.959  26.747  1.00  0.00     0.134 A 
ATOM     72  C   UNL A   1      40.751  26.115  27.593  1.00  0.00     0.134 A 
ATOM     73  F   UNL A   1      42.522  29.198  26.863  1.00  0.00    -0.206 F 
ATOM     74  C   UNL A   1      42.283  27.252  25.573  1.00  0.00     0.040 A 
ATOM     75  C   UNL A   1      41.023  25.388  26.434  1.00  0.00     0.040 A 
ATOM     76  F   UNL A   1      40.018  25.531  28.552  1.00  0.00    -0.206 F 
ATOM     77  C   UNL A   1      41.786  25.959  25.417  1.00  0.00     0.006 A 
ENDBRANCH  49  70
BRANCH  61  78
ATOM     78  C   UNL A   1      44.248  27.705  34.033  1.00  0.00     0.057 A 
ATOM     79  C   UNL A   1      44.116  26.458  34.655  1.00  0.00     0.134 A 
ATOM     80  C   UNL A   1      45.526  28.275  33.980  1.00  0.00     0.134 A 
ATOM     81  F   UNL A   1      42.918  25.862  34.740  1.00  0.00    -0.206 F 
ATOM     82  C   UNL A   1      45.217  25.801  35.205  1.00  0.00     0.040 A 
ATOM     83  C   UNL A   1      46.637  27.619  34.510  1.00  0.00     0.040 A 
ATOM     84  F   UNL A   1      45.717  29.461  33.381  1.00  0.00    -0.206 F 
ATOM     85  C   UNL A   1      46.482  26.379  35.129  1.00  0.00     0.006 A 
ENDBRANCH  61  78
ENDBRANCH  35  36
ENDBRANCH  27  30
ENDBRANCH  25  26
ENDBRANCH   1  25
TORSDOF 13
ENDMDL
MODEL 2
REMARK VINA RESULT:     -12.3      1.098      1.908
REMARK SMILES Cc1cc(F)c([C@H](O)[C@H]2CCCC[C@@H]2C(=O)NCCCNC(=O)c2ccc(-c3c4nc(c(-c5c(F)cccc5F)c5ccc([nH]5)c(-c5c(F)cccc5F)c5nc(c(-c6c(F)cccc6F)c6ccc3[nH]6)C=C5)C=C4)cc2)cc1F
REMARK SMILES IDX 19 1 18 2 17 3 15 4 16 5 14 7 9 8 10 9 11 10 13 11 12 12
REMARK SMILES IDX 7 13 6 14 1 15 2 16 3 17 79 18 4 19 78 20 80 21 5 22 8 23
REMARK SMILES IDX 20 25 21 26 22 27 23 29 24 30 25 31 77 32 26 33 76 34 27 35
REMARK SMILES IDX 28 36 29 37 70 38 30 39 75 40 69 41 71 42 31 43 74 44 68 45
REMARK SMILES IDX 67 46 32 48 58 49 41 50 57 51 42 52 45 53 56 54 72 55 43 56
REMARK SMILES IDX 44 57 55 59 73 60 46 61 33 62 34 63 39 64 35 65 36 66 38 67
REMARK SMILES IDX 40 68 37 69 59 70 60 71 65 72 61 73 62 74 64 75 66 76 63 77
REMARK SMILES IDX 47 78 48 79 53 80 49 81 50 82 52 83 54 84 51 85
REMARK H PARENT 17 6 8 24 21 28 71 47 45 58
REMARK Flexibility Score: inf
ROOT
ATOM      1  C   UNL A   1      31.937  31.873  26.882  1.00  0.00     0.042 C 
ENDROOT
BRANCH   1   2
ATOM      2  C   UNL A   1      32.483  30.538  26.406  1.00  0.00     0.117 C 
BRANCH   2   3
ATOM      3  N   UNL A   1      32.083  29.455  27.286  1.00  0.00    -0.356 N 
ATOM      4  C   UNL A   1      31.790  28.159  26.999  1.00  0.00     0.223 C 
ATOM      5  O   UNL A   1      31.403  27.454  27.931  1.00  0.00    -0.275 OA
ATOM      6  H   UNL A   1      32.016  29.696  28.238  1.00  0.00     0.163 HD
BRANCH   4   7
ATOM      7  C   UNL A   1      31.979  27.635  25.572  1.00  0.00     0.084 C 
ATOM      8  C   UNL A   1      31.118  26.358  25.344  1.00  0.00     0.035 C 
ATOM      9  C   UNL A   1      31.755  25.096  25.969  1.00  0.00     0.007 C 
ATOM     10  C   UNL A   1      33.269  24.953  25.836  1.00  0.00     0.000 C 
ATOM     11  C   UNL A   1      33.478  27.401  25.319  1.00  0.00     0.014 C 
ATOM     12  C   UNL A   1      34.028  26.236  26.126  1.00  0.00     0.001 C 
BRANCH   8  13
ATOM     13  C   UNL A   1      30.610  26.167  23.880  1.00  0.00     0.151 C 
BRANCH  13  14
ATOM     14  C   UNL A   1      29.783  27.290  23.306  1.00  0.00     0.019 A 
ATOM     15  C   UNL A   1      27.653  30.926  22.369  1.00  0.00     0.047 C 
ATOM     16  C   UNL A   1      28.359  29.624  22.590  1.00  0.00    -0.012 A 
ATOM     17  C   UNL A   1      29.721  29.506  22.294  1.00  0.00     0.046 A 
ATOM     18  C   UNL A   1      27.703  28.529  23.155  1.00  0.00     0.126 A 
ATOM     19  C   UNL A   1      30.410  28.342  22.634  1.00  0.00     0.129 A 
ATOM     20  C   UNL A   1      28.395  27.371  23.501  1.00  0.00     0.049 A 
ATOM     21  F   UNL A   1      26.393  28.600  23.431  1.00  0.00    -0.207 F 
ATOM     22  F   UNL A   1      31.723  28.279  22.373  1.00  0.00    -0.207 F 
ENDBRANCH  13  14
BRANCH  13  23
ATOM     23  O   UNL A   1      29.830  24.962  23.831  1.00  0.00    -0.388 OA
ATOM     24  H   UNL A   1      29.041  25.064  24.386  1.00  0.00     0.211 HD
ENDBRANCH  13  23
ENDBRANCH   8  13
ENDBRANCH   4   7
ENDBRANCH   2   3
ENDBRANCH   1   2
BRANCH   1  25
ATOM     25  C   UNL A   1      32.994  32.784  27.493  1.00  0.00     0.118 C 
BRANCH  25  26
ATOM     26  N   UNL A   1      32.528  34.149  27.711  1.00  0.00    -0.352 N 
ATOM     27  C   UNL A   1      32.994  35.087  28.604  1.00  0.00     0.251 C 
ATOM     28  H   UNL A   1      31.777  34.439  27.143  1.00  0.00     0.163 HD
ATOM     29  O   UNL A   1      32.420  36.160  28.751  1.00  0.00    -0.269 OA
BRANCH  27  30
ATOM     30  C   UNL A   1      34.175  34.753  29.425  1.00  0.00     0.039 A 
ATOM     31  C   UNL A   1      35.453  34.813  28.862  1.00  0.00     0.014 A 
ATOM     32  C   UNL A   1      33.986  34.253  30.713  1.00  0.00     0.014 A 
ATOM     33  C   UNL A   1      36.504  34.170  29.502  1.00  0.00     0.010 A 
ATOM     34  C   UNL A   1      35.068  33.694  31.395  1.00  0.00     0.010 A 
ATOM     35  C   UNL A   1      36.318  33.582  30.763  1.00  0.00    -0.014 A 
BRANCH  35  36
ATOM     36  C   UNL A   1      37.419  32.797  31.380  1.00  0.00     0.031 A 
ATOM     37  C   UNL A   1      37.874  33.095  32.786  1.00  0.00     0.074 A 
ATOM     38  C   UNL A   1      37.970  31.775  30.699  1.00  0.00     0.049 A 
ATOM     39  N   UNL A   1      38.858  32.562  33.467  1.00  0.00    -0.248 NA
ATOM     40  C   UNL A   1      37.131  34.130  33.523  1.00  0.00     0.031 C 
ATOM     41  C   UNL A   1      37.591  31.358  29.348  1.00  0.00     0.029 A 
ATOM     42  N   UNL A   1      38.952  30.889  31.058  1.00  0.00    -0.354 N 
ATOM     43  C   UNL A   1      38.876  33.219  34.691  1.00  0.00     0.074 A 
ATOM     44  C   UNL A   1      37.813  34.201  34.658  1.00  0.00     0.031 C 
ATOM     45  C   UNL A   1      38.297  30.270  29.010  1.00  0.00     0.029 A 
ATOM     46  C   UNL A   1      39.228  29.958  30.088  1.00  0.00     0.049 A 
ATOM     47  H   UNL A   1      39.414  30.919  31.926  1.00  0.00     0.167 HD
ATOM     48  C   UNL A   1      39.698  33.020  35.750  1.00  0.00     0.037 A 
ATOM     49  C   UNL A   1      40.149  28.978  30.058  1.00  0.00     0.037 A 
ATOM     50  C   UNL A   1      40.730  32.016  35.798  1.00  0.00     0.049 A 
ATOM     51  C   UNL A   1      41.074  28.804  31.226  1.00  0.00     0.074 A 
ATOM     52  C   UNL A   1      41.610  31.731  36.828  1.00  0.00     0.029 A 
ATOM     53  N   UNL A   1      41.011  31.126  34.773  1.00  0.00    -0.354 N 
ATOM     54  N   UNL A   1      41.105  29.460  32.360  1.00  0.00    -0.248 NA
ATOM     55  C   UNL A   1      42.107  27.767  31.100  1.00  0.00     0.031 C 
ATOM     56  C   UNL A   1      42.441  30.683  36.415  1.00  0.00     0.029 A 
ATOM     57  C   UNL A   1      42.057  30.297  35.141  1.00  0.00     0.049 A 
ATOM     58  H   UNL A   1      40.537  31.089  33.912  1.00  0.00     0.167 HD
ATOM     59  C   UNL A   1      42.150  28.909  33.087  1.00  0.00     0.074 A 
ATOM     60  C   UNL A   1      42.717  27.853  32.273  1.00  0.00     0.031 C 
ATOM     61  C   UNL A   1      42.604  29.251  34.317  1.00  0.00     0.037 A 
BRANCH  48  62
ATOM     62  C   UNL A   1      39.530  33.921  36.937  1.00  0.00     0.057 A 
ATOM     63  C   UNL A   1      40.188  35.156  36.992  1.00  0.00     0.134 A 
ATOM     64  C   UNL A   1      38.746  33.556  38.038  1.00  0.00     0.134 A 
ATOM     65  F   UNL A   1      40.958  35.562  35.971  1.00  0.00    -0.206 F 
ATOM     66  C   UNL A   1      40.074  35.995  38.101  1.00  0.00     0.040 A 
ATOM     67  C   UNL A   1      38.607  34.397  39.145  1.00  0.00     0.040 A 
ATOM     68  F   UNL A   1      38.077  32.394  38.042  1.00  0.00    -0.206 F 
ATOM     69  C   UNL A   1      39.277  35.618  39.181  1.00  0.00     0.006 A 
ENDBRANCH  48  62
BRANCH  49  70
ATOM     70  C   UNL A   1      40.253  28.102  28.868  1.00  0.00     0.057 A 
ATOM     71  C   UNL A   1      40.993  28.486  27.744  1.00  0.00     0.134 A 
ATOM     72  C   UNL A   1      39.608  26.862  28.827  1.00  0.00     0.134 A 
ATOM     73  F   UNL A   1      41.630  29.666  27.723  1.00  0.00    -0.206 F 
ATOM     74  C   UNL A   1      41.075  27.674  26.612  1.00  0.00     0.040 A 
ATOM     75  C   UNL A   1      39.701  26.029  27.710  1.00  0.00     0.040 A 
ATOM     76  F   UNL A   1      38.900  26.433  29.882  1.00  0.00    -0.206 F 
ATOM     77  C   UNL A   1      40.432  26.439  26.597  1.00  0.00     0.006 A 
ENDBRANCH  49  70
BRANCH  61  78
ATOM     78  C   UNL A   1      43.751  28.454  34.859  1.00  0.00     0.057 A 
ATOM     79  C   UNL A   1      45.071  28.870  34.646  1.00  0.00     0.134 A 
ATOM     80  C   UNL A   1      43.548  27.271  35.579  1.00  0.00     0.134 A 
ATOM     81  F   UNL A   1      45.330  29.993  33.961  1.00  0.00    -0.206 F 
ATOM     82  C   UNL A   1      46.151  28.134  35.133  1.00  0.00     0.040 A 
ATOM     83  C   UNL A   1      44.620  26.537  36.087  1.00  0.00     0.040 A 
ATOM     84  F   UNL A   1      42.305  26.832  35.829  1.00  0.00    -0.206 F 
ATOM     85  C   UNL A   1      45.927  26.967  35.860  1.00  0.00     0.006 A 
ENDBRANCH  61  78
ENDBRANCH  35  36
ENDBRANCH  27  30
ENDBRANCH  25  26
ENDBRANCH   1  25
TORSDOF 13
ENDMDL
MODEL 3
REMARK VINA RESULT:     -12.2      5.428     10.355
REMARK SMILES Cc1cc(F)c([C@H](O)[C@H]2CCCC[C@@H]2C(=O)NCCCNC(=O)c2ccc(-c3c4nc(c(-c5c(F)cccc5F)c5ccc([nH]5)c(-c5c(F)cccc5F)c5nc(c(-c6c(F)cccc6F)c6ccc3[nH]6)C=C5)C=C4)cc2)cc1F
REMARK SMILES IDX 19 1 18 2 17 3 15 4 16 5 14 7 9 8 10 9 11 10 13 11 12 12
REMARK SMILES IDX 7 13 6 14 1 15 2 16 3 17 79 18 4 19 78 20 80 21 5 22 8 23
REMARK SMILES IDX 20 25 21 26 22 27 23 29 24 30 25 31 77 32 26 33 76 34 27 35
REMARK SMILES IDX 28 36 29 37 70 38 30 39 75 40 69 41 71 42 31 43 74 44 68 45
REMARK SMILES IDX 67 46 32 48 58 49 41 50 57 51 42 52 45 53 56 54 72 55 43 56
REMARK SMILES IDX 44 57 55 59 73 60 46 61 33 62 34 63 39 64 35 65 36 66 38 67
REMARK SMILES IDX 40 68 37 69 59 70 60 71 65 72 61 73 62 74 64 75 66 76 63 77
REMARK SMILES IDX 47 78 48 79 53 80 49 81 50 82 52 83 54 84 51 85
REMARK H PARENT 17 6 8 24 21 28 71 47 45 58
REMARK Flexibility Score: inf
ROOT
ATOM      1  C   UNL A   1      38.445  19.831  24.875  1.00  0.00     0.042 C 
ENDROOT
BRANCH   1   2
ATOM      2  C   UNL A   1      37.397  20.900  25.133  1.00  0.00     0.117 C 
BRANCH   2   3
ATOM      3  N   UNL A   1      37.331  21.855  24.042  1.00  0.00    -0.356 N 
ATOM      4  C   UNL A   1      36.283  22.589  23.585  1.00  0.00     0.223 C 
ATOM      5  O   UNL A   1      36.477  23.281  22.586  1.00  0.00    -0.275 OA
ATOM      6  H   UNL A   1      38.178  21.993  23.559  1.00  0.00     0.163 HD
BRANCH   4   7
ATOM      7  C   UNL A   1      34.946  22.552  24.334  1.00  0.00     0.084 C 
ATOM      8  C   UNL A   1      33.786  22.997  23.395  1.00  0.00     0.035 C 
ATOM      9  C   UNL A   1      33.725  24.530  23.215  1.00  0.00     0.007 C 
ATOM     10  C   UNL A   1      33.985  25.379  24.457  1.00  0.00     0.000 C 
ATOM     11  C   UNL A   1      35.058  23.419  25.601  1.00  0.00     0.014 C 
ATOM     12  C   UNL A   1      35.166  24.901  25.283  1.00  0.00     0.001 C 
BRANCH   8  13
ATOM     13  C   UNL A   1      32.408  22.327  23.700  1.00  0.00     0.151 C 
BRANCH  13  14
ATOM     14  C   UNL A   1      32.401  20.822  23.792  1.00  0.00     0.019 A 
ATOM     15  C   UNL A   1      33.228  16.590  23.987  1.00  0.00     0.047 C 
ATOM     16  C   UNL A   1      32.829  18.032  23.938  1.00  0.00    -0.012 A 
ATOM     17  C   UNL A   1      32.921  18.825  25.087  1.00  0.00     0.046 A 
ATOM     18  C   UNL A   1      32.426  18.634  22.744  1.00  0.00     0.126 A 
ATOM     19  C   UNL A   1      32.688  20.197  25.008  1.00  0.00     0.129 A 
ATOM     20  C   UNL A   1      32.203  20.007  22.666  1.00  0.00     0.049 A 
ATOM     21  F   UNL A   1      32.306  17.900  21.629  1.00  0.00    -0.207 F 
ATOM     22  F   UNL A   1      32.826  20.934  26.120  1.00  0.00    -0.207 F 
ENDBRANCH  13  14
BRANCH  13  23
ATOM     23  O   UNL A   1      31.483  22.722  22.675  1.00  0.00    -0.388 OA
ATOM     24  H   UNL A   1      31.285  21.961  22.107  1.00  0.00     0.211 HD
ENDBRANCH  13  23
ENDBRANCH   8  13
ENDBRANCH   4   7
ENDBRANCH   2   3
ENDBRANCH   1   2
BRANCH   1  25
ATOM     25  C   UNL A   1      39.143  19.340  26.137  1.00  0.00     0.118 C 
BRANCH  25  26
ATOM     26  N   UNL A   1      40.505  18.875  25.903  1.00  0.00    -0.352 N 
ATOM     27  C   UNL A   1      41.687  19.568  26.033  1.00  0.00     0.251 C 
ATOM     28  H   UNL A   1      40.591  17.938  25.612  1.00  0.00     0.163 HD
ATOM     29  O   UNL A   1      42.753  19.071  25.686  1.00  0.00    -0.269 OA
BRANCH  27  30
ATOM     30  C   UNL A   1      41.641  20.950  26.551  1.00  0.00     0.039 A 
ATOM     31  C   UNL A   1      41.064  21.962  25.781  1.00  0.00     0.014 A 
ATOM     32  C   UNL A   1      42.295  21.249  27.746  1.00  0.00     0.014 A 
ATOM     33  C   UNL A   1      41.335  23.288  26.093  1.00  0.00     0.010 A 
ATOM     34  C   UNL A   1      42.481  22.584  28.109  1.00  0.00     0.010 A 
ATOM     35  C   UNL A   1      42.067  23.613  27.247  1.00  0.00    -0.014 A 
BRANCH  35  36
ATOM     36  C   UNL A   1      42.448  25.026  27.504  1.00  0.00     0.031 A 
ATOM     37  C   UNL A   1      43.770  25.561  27.017  1.00  0.00     0.074 A 
ATOM     38  C   UNL A   1      41.580  25.847  28.124  1.00  0.00     0.049 A 
ATOM     39  N   UNL A   1      44.303  26.743  27.201  1.00  0.00    -0.248 NA
ATOM     40  C   UNL A   1      44.607  24.647  26.222  1.00  0.00     0.031 C 
ATOM     41  C   UNL A   1      40.252  25.464  28.607  1.00  0.00     0.029 A 
ATOM     42  N   UNL A   1      41.676  27.178  28.434  1.00  0.00    -0.354 N 
ATOM     43  C   UNL A   1      45.546  26.704  26.581  1.00  0.00     0.074 A 
ATOM     44  C   UNL A   1      45.697  25.376  26.024  1.00  0.00     0.031 C 
ATOM     45  C   UNL A   1      39.640  26.545  29.111  1.00  0.00     0.029 A 
ATOM     46  C   UNL A   1      40.557  27.677  29.052  1.00  0.00     0.049 A 
ATOM     47  H   UNL A   1      42.470  27.723  28.234  1.00  0.00     0.167 HD
ATOM     48  C   UNL A   1      46.475  27.685  26.478  1.00  0.00     0.037 A 
ATOM     49  C   UNL A   1      40.306  28.904  29.543  1.00  0.00     0.037 A 
ATOM     50  C   UNL A   1      46.307  29.018  26.997  1.00  0.00     0.049 A 
ATOM     51  C   UNL A   1      41.366  29.961  29.453  1.00  0.00     0.074 A 
ATOM     52  C   UNL A   1      47.187  30.085  26.937  1.00  0.00     0.029 A 
ATOM     53  N   UNL A   1      45.177  29.468  27.661  1.00  0.00    -0.354 N 
ATOM     54  N   UNL A   1      42.552  29.896  28.900  1.00  0.00    -0.248 NA
ATOM     55  C   UNL A   1      41.059  31.256  30.075  1.00  0.00     0.031 C 
ATOM     56  C   UNL A   1      46.598  31.175  27.589  1.00  0.00     0.029 A 
ATOM     57  C   UNL A   1      45.340  30.794  28.026  1.00  0.00     0.049 A 
ATOM     58  H   UNL A   1      44.377  28.926  27.847  1.00  0.00     0.167 HD
ATOM     59  C   UNL A   1      43.129  31.143  29.096  1.00  0.00     0.074 A 
ATOM     60  C   UNL A   1      42.156  31.949  29.804  1.00  0.00     0.031 C 
ATOM     61  C   UNL A   1      44.358  31.579  28.728  1.00  0.00     0.037 A 
BRANCH  48  62
ATOM     62  C   UNL A   1      47.767  27.347  25.796  1.00  0.00     0.057 A 
ATOM     63  C   UNL A   1      47.888  27.459  24.405  1.00  0.00     0.134 A 
ATOM     64  C   UNL A   1      48.880  26.881  26.506  1.00  0.00     0.134 A 
ATOM     65  F   UNL A   1      46.857  27.896  23.666  1.00  0.00    -0.206 F 
ATOM     66  C   UNL A   1      49.069  27.118  23.745  1.00  0.00     0.040 A 
ATOM     67  C   UNL A   1      50.074  26.556  25.859  1.00  0.00     0.040 A 
ATOM     68  F   UNL A   1      48.835  26.765  27.842  1.00  0.00    -0.206 F 
ATOM     69  C   UNL A   1      50.169  26.669  24.473  1.00  0.00     0.006 A 
ENDBRANCH  48  62
BRANCH  49  70
ATOM     70  C   UNL A   1      39.000  29.188  30.184  1.00  0.00     0.057 A 
ATOM     71  C   UNL A   1      38.790  28.943  31.546  1.00  0.00     0.134 A 
ATOM     72  C   UNL A   1      37.931  29.704  29.446  1.00  0.00     0.134 A 
ATOM     73  F   UNL A   1      39.777  28.443  32.305  1.00  0.00    -0.206 F 
ATOM     74  C   UNL A   1      37.556  29.187  32.150  1.00  0.00     0.040 A 
ATOM     75  C   UNL A   1      36.698  29.975  30.041  1.00  0.00     0.040 A 
ATOM     76  F   UNL A   1      38.080  29.977  28.141  1.00  0.00    -0.206 F 
ATOM     77  C   UNL A   1      36.508  29.711  31.396  1.00  0.00     0.006 A 
ENDBRANCH  49  70
BRANCH  61  78
ATOM     78  C   UNL A   1      44.700  32.998  29.065  1.00  0.00     0.057 A 
ATOM     79  C   UNL A   1      45.336  33.311  30.272  1.00  0.00     0.134 A 
ATOM     80  C   UNL A   1      44.387  34.053  28.200  1.00  0.00     0.134 A 
ATOM     81  F   UNL A   1      45.659  32.343  31.143  1.00  0.00    -0.206 F 
ATOM     82  C   UNL A   1      45.651  34.628  30.607  1.00  0.00     0.040 A 
ATOM     83  C   UNL A   1      44.714  35.372  28.516  1.00  0.00     0.040 A 
ATOM     84  F   UNL A   1      43.793  33.813  27.022  1.00  0.00    -0.206 F 
ATOM     85  C   UNL A   1      45.344  35.662  29.725  1.00  0.00     0.006 A 
ENDBRANCH  61  78
ENDBRANCH  35  36
ENDBRANCH  27  30
ENDBRANCH  25  26
ENDBRANCH   1  25
TORSDOF 13
ENDMDL
