MODEL 1
REMARK VINA RESULT:     -11.2      0.000      0.000
REMARK SMILES O=C(CCCNC(=O)N1CSC[C@@H]1C(=O)NCCCNC(=O)c1ccc(-c2c3nc(c(-c4c(F)cccc4F)c4ccc([nH]4)c(-c4c(F)cccc4F)c4nc(c(-c5c(F)cccc5F)c5ccc2[nH]5)C=C4)C=C3)cc1)NC1CC1
REMARK SMILES IDX 14 1 15 2 16 3 13 5 9 6 10 7 11 8 12 9 7 10 6 11 8 13 5 14
REMARK SMILES IDX 4 15 3 16 2 17 1 18 77 19 78 21 79 22 80 23 17 24 18 25
REMARK SMILES IDX 19 26 20 27 21 28 22 30 23 31 24 32 76 33 25 34 75 35 26 36
REMARK SMILES IDX 27 37 28 38 69 39 29 40 74 41 68 42 70 43 30 44 73 45 67 46
REMARK SMILES IDX 66 47 31 49 57 50 40 51 56 52 41 53 44 54 55 55 71 56 42 57
REMARK SMILES IDX 43 58 54 60 72 61 45 62 32 63 33 64 38 65 34 66 35 67 37 68
REMARK SMILES IDX 39 69 36 70 58 71 59 72 64 73 60 74 61 75 63 76 65 77 62 78
REMARK SMILES IDX 46 79 47 80 52 81 48 82 49 83 51 84 53 85 50 86
REMARK H PARENT 16 4 6 12 77 20 20 29 70 48 44 59
REMARK Flexibility Score: inf
ROOT
ATOM      1  C   UNL A   1      33.347  27.163  25.283  1.00  0.00     0.243 C 
ATOM      2  O   UNL A   1      34.090  26.559  26.065  1.00  0.00    -0.273 OA
ATOM      3  N   UNL A   1      33.243  28.517  25.458  1.00  0.00    -0.354 N 
ATOM      4  H   UNL A   1      33.716  28.895  26.235  1.00  0.00     0.163 HD
ENDROOT
BRANCH   1   5
ATOM      5  C   UNL A   1      32.389  26.373  24.356  1.00  0.00     0.187 C 
ATOM      6  N   UNL A   1      32.030  24.989  24.707  1.00  0.00    -0.303 N 
ATOM      7  C   UNL A   1      31.642  24.224  23.546  1.00  0.00     0.192 C 
ATOM      8  S   UNL A   1      32.721  24.753  22.212  1.00  0.00    -0.138 SA
ATOM      9  C   UNL A   1      33.067  26.362  22.975  1.00  0.00     0.106 C 
BRANCH   6  10
ATOM     10  C   UNL A   1      31.451  24.738  25.919  1.00  0.00     0.318 C 
ATOM     11  N   UNL A   1      32.056  23.864  26.768  1.00  0.00    -0.338 N 
ATOM     12  H   UNL A   1      31.497  23.572  27.523  1.00  0.00     0.165 HD
ATOM     13  O   UNL A   1      30.460  25.343  26.319  1.00  0.00    -0.249 OA
BRANCH  11  14
ATOM     14  C   UNL A   1      33.397  23.285  26.746  1.00  0.00     0.118 C 
BRANCH  14  15
ATOM     15  C   UNL A   1      33.424  21.764  26.953  1.00  0.00     0.031 C 
BRANCH  15  16
ATOM     16  C   UNL A   1      34.239  20.959  25.947  1.00  0.00     0.102 C 
BRANCH  16  17
ATOM     17  C   UNL A   1      33.358  19.935  25.276  1.00  0.00     0.220 C 
ATOM     18  O   UNL A   1      32.136  20.045  25.241  1.00  0.00    -0.275 OA
ATOM     19  N   UNL A   1      34.055  18.840  24.815  1.00  0.00    -0.353 N 
ATOM     20  H   UNL A   1      35.039  18.869  24.809  1.00  0.00     0.163 HD
BRANCH  19  21
ATOM     21  C   UNL A   1      33.398  17.667  24.346  1.00  0.00     0.082 C 
ATOM     22  C   UNL A   1      33.007  17.546  22.900  1.00  0.00     0.027 C 
ATOM     23  C   UNL A   1      34.121  16.704  23.446  1.00  0.00     0.027 C 
ENDBRANCH  19  21
ENDBRANCH  16  17
ENDBRANCH  15  16
ENDBRANCH  14  15
ENDBRANCH  11  14
ENDBRANCH   6  10
ENDBRANCH   1   5
BRANCH   3  24
ATOM     24  C   UNL A   1      32.518  29.450  24.634  1.00  0.00     0.117 C 
BRANCH  24  25
ATOM     25  C   UNL A   1      31.475  30.283  25.351  1.00  0.00     0.042 C 
BRANCH  25  26
ATOM     26  C   UNL A   1      31.858  30.699  26.761  1.00  0.00     0.118 C 
BRANCH  26  27
ATOM     27  N   UNL A   1      31.900  32.144  26.966  1.00  0.00    -0.352 N 
ATOM     28  C   UNL A   1      32.831  32.986  27.536  1.00  0.00     0.251 C 
ATOM     29  H   UNL A   1      31.102  32.611  26.630  1.00  0.00     0.163 HD
ATOM     30  O   UNL A   1      32.543  34.168  27.682  1.00  0.00    -0.269 OA
BRANCH  28  31
ATOM     31  C   UNL A   1      34.141  32.488  28.021  1.00  0.00     0.039 A 
ATOM     32  C   UNL A   1      35.215  33.383  28.123  1.00  0.00     0.014 A 
ATOM     33  C   UNL A   1      34.339  31.155  28.364  1.00  0.00     0.014 A 
ATOM     34  C   UNL A   1      36.430  32.964  28.679  1.00  0.00     0.010 A 
ATOM     35  C   UNL A   1      35.495  30.770  29.033  1.00  0.00     0.010 A 
ATOM     36  C   UNL A   1      36.557  31.669  29.205  1.00  0.00    -0.014 A 
BRANCH  36  37
ATOM     37  C   UNL A   1      37.766  31.217  29.946  1.00  0.00     0.031 A 
ATOM     38  C   UNL A   1      38.721  30.241  29.308  1.00  0.00     0.074 A 
ATOM     39  C   UNL A   1      37.938  31.575  31.236  1.00  0.00     0.049 A 
ATOM     40  N   UNL A   1      39.705  29.569  29.848  1.00  0.00    -0.248 NA
ATOM     41  C   UNL A   1      38.510  29.950  27.880  1.00  0.00     0.031 C 
ATOM     42  C   UNL A   1      37.063  32.470  31.996  1.00  0.00     0.029 A 
ATOM     43  N   UNL A   1      38.897  31.203  32.146  1.00  0.00    -0.354 N 
ATOM     44  C   UNL A   1      40.198  28.747  28.842  1.00  0.00     0.074 A 
ATOM     45  C   UNL A   1      39.376  28.969  27.673  1.00  0.00     0.031 C 
ATOM     46  C   UNL A   1      37.535  32.593  33.246  1.00  0.00     0.029 A 
ATOM     47  C   UNL A   1      38.713  31.746  33.394  1.00  0.00     0.049 A 
ATOM     48  H   UNL A   1      39.647  30.604  31.924  1.00  0.00     0.167 HD
ATOM     49  C   UNL A   1      41.256  27.901  28.879  1.00  0.00     0.037 A 
ATOM     50  C   UNL A   1      39.401  31.568  34.538  1.00  0.00     0.037 A 
ATOM     51  C   UNL A   1      42.110  27.726  30.023  1.00  0.00     0.049 A 
ATOM     52  C   UNL A   1      40.581  30.637  34.550  1.00  0.00     0.074 A 
ATOM     53  C   UNL A   1      43.258  26.962  30.132  1.00  0.00     0.029 A 
ATOM     54  N   UNL A   1      41.911  28.330  31.255  1.00  0.00    -0.354 N 
ATOM     55  N   UNL A   1      41.070  29.911  33.575  1.00  0.00    -0.248 NA
ATOM     56  C   UNL A   1      41.303  30.498  35.824  1.00  0.00     0.031 C 
ATOM     57  C   UNL A   1      43.734  27.073  31.443  1.00  0.00     0.029 A 
ATOM     58  C   UNL A   1      42.905  27.939  32.137  1.00  0.00     0.049 A 
ATOM     59  H   UNL A   1      41.173  28.945  31.472  1.00  0.00     0.167 HD
ATOM     60  C   UNL A   1      42.169  29.250  34.108  1.00  0.00     0.074 A 
ATOM     61  C   UNL A   1      42.282  29.669  35.488  1.00  0.00     0.031 C 
ATOM     62  C   UNL A   1      43.008  28.373  33.506  1.00  0.00     0.037 A 
BRANCH  49  63
ATOM     63  C   UNL A   1      41.558  27.111  27.638  1.00  0.00     0.057 A 
ATOM     64  C   UNL A   1      42.361  27.624  26.611  1.00  0.00     0.134 A 
ATOM     65  C   UNL A   1      41.068  25.809  27.484  1.00  0.00     0.134 A 
ATOM     66  F   UNL A   1      42.854  28.869  26.691  1.00  0.00    -0.206 F 
ATOM     67  C   UNL A   1      42.642  26.881  25.463  1.00  0.00     0.040 A 
ATOM     68  C   UNL A   1      41.365  25.045  26.354  1.00  0.00     0.040 A 
ATOM     69  F   UNL A   1      40.298  25.252  28.433  1.00  0.00    -0.206 F 
ATOM     70  C   UNL A   1      42.148  25.584  25.336  1.00  0.00     0.006 A 
ENDBRANCH  49  63
BRANCH  50  71
ATOM     71  C   UNL A   1      39.000  32.296  35.769  1.00  0.00     0.057 A 
ATOM     72  C   UNL A   1      38.187  31.685  36.731  1.00  0.00     0.134 A 
ATOM     73  C   UNL A   1      39.410  33.612  36.012  1.00  0.00     0.134 A 
ATOM     74  F   UNL A   1      37.746  30.433  36.544  1.00  0.00    -0.206 F 
ATOM     75  C   UNL A   1      37.782  32.361  37.883  1.00  0.00     0.040 A 
ATOM     76  C   UNL A   1      39.032  34.292  37.172  1.00  0.00     0.040 A 
ATOM     77  F   UNL A   1      40.195  34.251  35.133  1.00  0.00    -0.206 F 
ATOM     78  C   UNL A   1      38.209  33.668  38.107  1.00  0.00     0.006 A 
ENDBRANCH  50  71
BRANCH  62  79
ATOM     79  C   UNL A   1      44.141  27.830  34.326  1.00  0.00     0.057 A 
ATOM     80  C   UNL A   1      45.360  28.509  34.438  1.00  0.00     0.134 A 
ATOM     81  C   UNL A   1      43.988  26.644  35.053  1.00  0.00     0.134 A 
ATOM     82  F   UNL A   1      45.573  29.644  33.755  1.00  0.00    -0.206 F 
ATOM     83  C   UNL A   1      46.395  28.018  35.236  1.00  0.00     0.040 A 
ATOM     84  C   UNL A   1      45.006  26.155  35.872  1.00  0.00     0.040 A 
ATOM     85  F   UNL A   1      42.841  25.950  34.994  1.00  0.00    -0.206 F 
ATOM     86  C   UNL A   1      46.216  26.842  35.962  1.00  0.00     0.006 A 
ENDBRANCH  62  79
ENDBRANCH  36  37
ENDBRANCH  28  31
ENDBRANCH  26  27
ENDBRANCH  25  26
ENDBRANCH  24  25
ENDBRANCH   3  24
TORSDOF 16
ENDMDL
MODEL 2
REMARK VINA RESULT:     -11.1      4.196      9.353
REMARK SMILES O=C(CCCNC(=O)N1CSC[C@@H]1C(=O)NCCCNC(=O)c1ccc(-c2c3nc(c(-c4c(F)cccc4F)c4ccc([nH]4)c(-c4c(F)cccc4F)c4nc(c(-c5c(F)cccc5F)c5ccc2[nH]5)C=C4)C=C3)cc1)NC1CC1
REMARK SMILES IDX 14 1 15 2 16 3 13 5 9 6 10 7 11 8 12 9 7 10 6 11 8 13 5 14
REMARK SMILES IDX 4 15 3 16 2 17 1 18 77 19 78 21 79 22 80 23 17 24 18 25
REMARK SMILES IDX 19 26 20 27 21 28 22 30 23 31 24 32 76 33 25 34 75 35 26 36
REMARK SMILES IDX 27 37 28 38 69 39 29 40 74 41 68 42 70 43 30 44 73 45 67 46
REMARK SMILES IDX 66 47 31 49 57 50 40 51 56 52 41 53 44 54 55 55 71 56 42 57
REMARK SMILES IDX 43 58 54 60 72 61 45 62 32 63 33 64 38 65 34 66 35 67 37 68
REMARK SMILES IDX 39 69 36 70 58 71 59 72 64 73 60 74 61 75 63 76 65 77 62 78
REMARK SMILES IDX 46 79 47 80 52 81 48 82 49 83 51 84 53 85 50 86
REMARK H PARENT 16 4 6 12 77 20 20 29 70 48 44 59
REMARK Flexibility Score: inf
ROOT
ATOM      1  C   UNL A   1      34.942  23.298  25.449  1.00  0.00     0.243 C 
ATOM      2  O   UNL A   1      35.129  24.487  25.730  1.00  0.00    -0.273 OA
ATOM      3  N   UNL A   1      36.047  22.490  25.432  1.00  0.00    -0.354 N 
ATOM      4  H   UNL A   1      36.914  22.932  25.581  1.00  0.00     0.163 HD
ENDROOT
BRANCH   1   5
ATOM      5  C   UNL A   1      33.575  22.840  24.879  1.00  0.00     0.187 C 
ATOM      6  N   UNL A   1      32.851  23.727  23.953  1.00  0.00    -0.303 N 
ATOM      7  C   UNL A   1      31.430  23.470  23.964  1.00  0.00     0.192 C 
ATOM      8  S   UNL A   1      30.999  23.105  25.668  1.00  0.00    -0.138 SA
ATOM      9  C   UNL A   1      32.681  22.586  26.104  1.00  0.00     0.106 C 
BRANCH   6  10
ATOM     10  C   UNL A   1      33.466  24.135  22.803  1.00  0.00     0.318 C 
ATOM     11  N   UNL A   1      33.583  25.468  22.558  1.00  0.00    -0.338 N 
ATOM     12  H   UNL A   1      33.844  25.694  21.636  1.00  0.00     0.165 HD
ATOM     13  O   UNL A   1      34.007  23.352  22.027  1.00  0.00    -0.249 OA
BRANCH  11  14
ATOM     14  C   UNL A   1      33.387  26.621  23.433  1.00  0.00     0.118 C 
BRANCH  14  15
ATOM     15  C   UNL A   1      32.898  27.881  22.706  1.00  0.00     0.031 C 
BRANCH  15  16
ATOM     16  C   UNL A   1      32.061  28.855  23.527  1.00  0.00     0.102 C 
BRANCH  16  17
ATOM     17  C   UNL A   1      30.675  28.961  22.941  1.00  0.00     0.220 C 
ATOM     18  O   UNL A   1      30.301  28.250  22.013  1.00  0.00    -0.275 OA
ATOM     19  N   UNL A   1      29.937  29.991  23.479  1.00  0.00    -0.353 N 
ATOM     20  H   UNL A   1      30.281  30.459  24.274  1.00  0.00     0.163 HD
BRANCH  19  21
ATOM     21  C   UNL A   1      28.692  30.402  22.924  1.00  0.00     0.082 C 
ATOM     22  C   UNL A   1      27.982  31.608  23.470  1.00  0.00     0.027 C 
ATOM     23  C   UNL A   1      28.607  31.662  22.107  1.00  0.00     0.027 C 
ENDBRANCH  19  21
ENDBRANCH  16  17
ENDBRANCH  15  16
ENDBRANCH  14  15
ENDBRANCH  11  14
ENDBRANCH   6  10
ENDBRANCH   1   5
BRANCH   3  24
ATOM     24  C   UNL A   1      36.083  21.065  25.222  1.00  0.00     0.117 C 
BRANCH  24  25
ATOM     25  C   UNL A   1      37.408  20.509  24.739  1.00  0.00     0.042 C 
BRANCH  25  26
ATOM     26  C   UNL A   1      38.596  20.846  25.623  1.00  0.00     0.118 C 
BRANCH  26  27
ATOM     27  N   UNL A   1      39.638  19.823  25.638  1.00  0.00    -0.352 N 
ATOM     28  C   UNL A   1      40.965  19.839  26.010  1.00  0.00     0.251 C 
ATOM     29  H   UNL A   1      39.329  18.945  25.319  1.00  0.00     0.163 HD
ATOM     30  O   UNL A   1      41.646  18.841  25.802  1.00  0.00    -0.269 OA
BRANCH  28  31
ATOM     31  C   UNL A   1      41.596  21.042  26.604  1.00  0.00     0.039 A 
ATOM     32  C   UNL A   1      42.070  22.052  25.755  1.00  0.00     0.014 A 
ATOM     33  C   UNL A   1      41.745  21.190  27.979  1.00  0.00     0.014 A 
ATOM     34  C   UNL A   1      42.571  23.244  26.292  1.00  0.00     0.010 A 
ATOM     35  C   UNL A   1      42.120  22.419  28.512  1.00  0.00     0.010 A 
ATOM     36  C   UNL A   1      42.534  23.466  27.677  1.00  0.00    -0.014 A 
BRANCH  36  37
ATOM     37  C   UNL A   1      42.906  24.769  28.294  1.00  0.00     0.031 A 
ATOM     38  C   UNL A   1      41.851  25.819  28.532  1.00  0.00     0.074 A 
ATOM     39  C   UNL A   1      44.204  25.062  28.517  1.00  0.00     0.049 A 
ATOM     40  N   UNL A   1      41.992  27.079  28.858  1.00  0.00    -0.248 NA
ATOM     41  C   UNL A   1      40.452  25.406  28.331  1.00  0.00     0.031 C 
ATOM     42  C   UNL A   1      45.334  24.160  28.283  1.00  0.00     0.029 A 
ATOM     43  N   UNL A   1      44.794  26.218  28.968  1.00  0.00    -0.354 N 
ATOM     44  C   UNL A   1      40.711  27.615  28.857  1.00  0.00     0.074 A 
ATOM     45  C   UNL A   1      39.810  26.559  28.452  1.00  0.00     0.031 C 
ATOM     46  C   UNL A   1      46.475  24.787  28.608  1.00  0.00     0.029 A 
ATOM     47  C   UNL A   1      46.165  26.151  29.022  1.00  0.00     0.049 A 
ATOM     48  H   UNL A   1      44.283  27.019  29.227  1.00  0.00     0.167 HD
ATOM     49  C   UNL A   1      40.315  28.868  29.188  1.00  0.00     0.037 A 
ATOM     50  C   UNL A   1      47.076  27.088  29.350  1.00  0.00     0.037 A 
ATOM     51  C   UNL A   1      41.204  29.901  29.648  1.00  0.00     0.049 A 
ATOM     52  C   UNL A   1      46.611  28.466  29.729  1.00  0.00     0.074 A 
ATOM     53  C   UNL A   1      40.890  31.172  30.093  1.00  0.00     0.029 A 
ATOM     54  N   UNL A   1      42.582  29.775  29.730  1.00  0.00    -0.354 N 
ATOM     55  N   UNL A   1      45.391  28.941  29.779  1.00  0.00    -0.248 NA
ATOM     56  C   UNL A   1      47.651  29.440  30.093  1.00  0.00     0.031 C 
ATOM     57  C   UNL A   1      42.083  31.832  30.408  1.00  0.00     0.029 A 
ATOM     58  C   UNL A   1      43.135  30.955  30.198  1.00  0.00     0.049 A 
ATOM     59  H   UNL A   1      43.092  28.968  29.490  1.00  0.00     0.167 HD
ATOM     60  C   UNL A   1      45.514  30.258  30.204  1.00  0.00     0.074 A 
ATOM     61  C   UNL A   1      46.925  30.503  30.408  1.00  0.00     0.031 C 
ATOM     62  C   UNL A   1      44.542  31.180  30.406  1.00  0.00     0.037 A 
BRANCH  49  63
ATOM     63  C   UNL A   1      38.851  29.186  29.077  1.00  0.00     0.057 A 
ATOM     64  C   UNL A   1      38.260  29.540  27.858  1.00  0.00     0.134 A 
ATOM     65  C   UNL A   1      38.017  29.104  30.199  1.00  0.00     0.134 A 
ATOM     66  F   UNL A   1      39.005  29.648  26.747  1.00  0.00    -0.206 F 
ATOM     67  C   UNL A   1      36.898  29.829  27.763  1.00  0.00     0.040 A 
ATOM     68  C   UNL A   1      36.647  29.363  30.111  1.00  0.00     0.040 A 
ATOM     69  F   UNL A   1      38.515  28.762  31.397  1.00  0.00    -0.206 F 
ATOM     70  C   UNL A   1      36.086  29.734  28.891  1.00  0.00     0.006 A 
ENDBRANCH  49  63
BRANCH  50  71
ATOM     71  C   UNL A   1      48.523  26.752  29.345  1.00  0.00     0.057 A 
ATOM     72  C   UNL A   1      49.130  26.183  30.472  1.00  0.00     0.134 A 
ATOM     73  C   UNL A   1      49.332  26.994  28.229  1.00  0.00     0.134 A 
ATOM     74  F   UNL A   1      48.411  25.947  31.578  1.00  0.00    -0.206 F 
ATOM     75  C   UNL A   1      50.492  25.881  30.494  1.00  0.00     0.040 A 
ATOM     76  C   UNL A   1      50.691  26.674  28.229  1.00  0.00     0.040 A 
ATOM     77  F   UNL A   1      48.810  27.530  27.117  1.00  0.00    -0.206 F 
ATOM     78  C   UNL A   1      51.276  26.123  29.368  1.00  0.00     0.006 A 
ENDBRANCH  50  71
BRANCH  62  79
ATOM     79  C   UNL A   1      44.967  32.531  30.899  1.00  0.00     0.057 A 
ATOM     80  C   UNL A   1      45.113  32.804  32.265  1.00  0.00     0.134 A 
ATOM     81  C   UNL A   1      45.286  33.552  29.995  1.00  0.00     0.134 A 
ATOM     82  F   UNL A   1      44.811  31.871  33.181  1.00  0.00    -0.206 F 
ATOM     83  C   UNL A   1      45.548  34.051  32.715  1.00  0.00     0.040 A 
ATOM     84  C   UNL A   1      45.744  34.795  30.432  1.00  0.00     0.040 A 
ATOM     85  F   UNL A   1      45.173  33.352  28.674  1.00  0.00    -0.206 F 
ATOM     86  C   UNL A   1      45.873  35.048  31.797  1.00  0.00     0.006 A 
ENDBRANCH  62  79
ENDBRANCH  36  37
ENDBRANCH  28  31
ENDBRANCH  26  27
ENDBRANCH  25  26
ENDBRANCH  24  25
ENDBRANCH   3  24
TORSDOF 16
ENDMDL
MODEL 3
REMARK VINA RESULT:     -11.0      4.293      8.587
REMARK SMILES O=C(CCCNC(=O)N1CSC[C@@H]1C(=O)NCCCNC(=O)c1ccc(-c2c3nc(c(-c4c(F)cccc4F)c4ccc([nH]4)c(-c4c(F)cccc4F)c4nc(c(-c5c(F)cccc5F)c5ccc2[nH]5)C=C4)C=C3)cc1)NC1CC1
REMARK SMILES IDX 14 1 15 2 16 3 13 5 9 6 10 7 11 8 12 9 7 10 6 11 8 13 5 14
REMARK SMILES IDX 4 15 3 16 2 17 1 18 77 19 78 21 79 22 80 23 17 24 18 25
REMARK SMILES IDX 19 26 20 27 21 28 22 30 23 31 24 32 76 33 25 34 75 35 26 36
REMARK SMILES IDX 27 37 28 38 69 39 29 40 74 41 68 42 70 43 30 44 73 45 67 46
REMARK SMILES IDX 66 47 31 49 57 50 40 51 56 52 41 53 44 54 55 55 71 56 42 57
REMARK SMILES IDX 43 58 54 60 72 61 45 62 32 63 33 64 38 65 34 66 35 67 37 68
REMARK SMILES IDX 39 69 36 70 58 71 59 72 64 73 60 74 61 75 63 76 65 77 62 78
REMARK SMILES IDX 46 79 47 80 52 81 48 82 49 83 51 84 53 85 50 86
REMARK H PARENT 16 4 6 12 77 20 20 29 70 48 44 59
REMARK Flexibility Score: inf
ROOT
ATOM      1  C   UNL A   1      34.913  23.745  25.198  1.00  0.00     0.243 C 
ATOM      2  O   UNL A   1      35.328  24.908  25.142  1.00  0.00    -0.273 OA
ATOM      3  N   UNL A   1      35.858  22.755  25.172  1.00  0.00    -0.354 N 
ATOM      4  H   UNL A   1      36.791  23.044  25.044  1.00  0.00     0.163 HD
ENDROOT
BRANCH   1   5
ATOM      5  C   UNL A   1      33.402  23.449  25.022  1.00  0.00     0.187 C 
ATOM      6  N   UNL A   1      32.671  24.086  23.914  1.00  0.00    -0.303 N 
ATOM      7  C   UNL A   1      31.259  24.194  24.194  1.00  0.00     0.192 C 
ATOM      8  S   UNL A   1      31.121  24.582  25.941  1.00  0.00    -0.138 SA
ATOM      9  C   UNL A   1      32.741  23.874  26.344  1.00  0.00     0.106 C 
BRANCH   6  10
ATOM     10  C   UNL A   1      33.103  23.893  22.632  1.00  0.00     0.318 C 
ATOM     11  N   UNL A   1      32.847  22.703  22.024  1.00  0.00    -0.338 N 
ATOM     12  H   UNL A   1      33.353  22.550  21.193  1.00  0.00     0.165 HD
ATOM     13  O   UNL A   1      33.626  24.784  21.967  1.00  0.00    -0.249 OA
BRANCH  11  14
ATOM     14  C   UNL A   1      31.948  21.614  22.397  1.00  0.00     0.118 C 
BRANCH  14  15
ATOM     15  C   UNL A   1      32.490  20.712  23.515  1.00  0.00     0.031 C 
BRANCH  15  16
ATOM     16  C   UNL A   1      32.366  19.209  23.292  1.00  0.00     0.102 C 
BRANCH  16  17
ATOM     17  C   UNL A   1      32.444  18.486  24.613  1.00  0.00     0.220 C 
ATOM     18  O   UNL A   1      32.704  19.067  25.662  1.00  0.00    -0.275 OA
ATOM     19  N   UNL A   1      32.300  17.121  24.493  1.00  0.00    -0.353 N 
ATOM     20  H   UNL A   1      32.012  16.747  23.629  1.00  0.00     0.163 HD
BRANCH  19  21
ATOM     21  C   UNL A   1      32.553  16.235  25.577  1.00  0.00     0.082 C 
ATOM     22  C   UNL A   1      32.530  14.748  25.359  1.00  0.00     0.027 C 
ATOM     23  C   UNL A   1      33.832  15.444  25.625  1.00  0.00     0.027 C 
ENDBRANCH  19  21
ENDBRANCH  16  17
ENDBRANCH  15  16
ENDBRANCH  14  15
ENDBRANCH  11  14
ENDBRANCH   6  10
ENDBRANCH   1   5
BRANCH   3  24
ATOM     24  C   UNL A   1      35.641  21.337  25.311  1.00  0.00     0.117 C 
BRANCH  24  25
ATOM     25  C   UNL A   1      36.796  20.455  24.884  1.00  0.00     0.042 C 
BRANCH  25  26
ATOM     26  C   UNL A   1      38.153  20.888  25.412  1.00  0.00     0.118 C 
BRANCH  26  27
ATOM     27  N   UNL A   1      39.137  19.812  25.486  1.00  0.00    -0.352 N 
ATOM     28  C   UNL A   1      40.444  19.761  25.920  1.00  0.00     0.251 C 
ATOM     29  H   UNL A   1      38.797  18.948  25.159  1.00  0.00     0.163 HD
ATOM     30  O   UNL A   1      41.080  18.726  25.753  1.00  0.00    -0.269 OA
BRANCH  28  31
ATOM     31  C   UNL A   1      41.110  20.936  26.532  1.00  0.00     0.039 A 
ATOM     32  C   UNL A   1      41.744  21.870  25.702  1.00  0.00     0.014 A 
ATOM     33  C   UNL A   1      41.136  21.130  27.909  1.00  0.00     0.014 A 
ATOM     34  C   UNL A   1      42.286  23.041  26.245  1.00  0.00     0.010 A 
ATOM     35  C   UNL A   1      41.556  22.347  28.435  1.00  0.00     0.010 A 
ATOM     36  C   UNL A   1      42.133  23.323  27.611  1.00  0.00    -0.014 A 
BRANCH  36  37
ATOM     37  C   UNL A   1      42.548  24.618  28.217  1.00  0.00     0.031 A 
ATOM     38  C   UNL A   1      41.528  25.703  28.448  1.00  0.00     0.074 A 
ATOM     39  C   UNL A   1      43.855  24.871  28.436  1.00  0.00     0.049 A 
ATOM     40  N   UNL A   1      41.710  26.960  28.763  1.00  0.00    -0.248 NA
ATOM     41  C   UNL A   1      40.116  25.334  28.253  1.00  0.00     0.031 C 
ATOM     42  C   UNL A   1      44.955  23.932  28.206  1.00  0.00     0.029 A 
ATOM     43  N   UNL A   1      44.483  26.011  28.876  1.00  0.00    -0.354 N 
ATOM     44  C   UNL A   1      40.446  27.537  28.761  1.00  0.00     0.074 A 
ATOM     45  C   UNL A   1      39.511  26.508  28.366  1.00  0.00     0.031 C 
ATOM     46  C   UNL A   1      46.116  24.524  28.525  1.00  0.00     0.029 A 
ATOM     47  C   UNL A   1      45.851  25.901  28.929  1.00  0.00     0.049 A 
ATOM     48  H   UNL A   1      43.998  26.830  29.129  1.00  0.00     0.167 HD
ATOM     49  C   UNL A   1      40.091  28.805  29.082  1.00  0.00     0.037 A 
ATOM     50  C   UNL A   1      46.792  26.810  29.247  1.00  0.00     0.037 A 
ATOM     51  C   UNL A   1      41.014  29.812  29.533  1.00  0.00     0.049 A 
ATOM     52  C   UNL A   1      46.373  28.205  29.616  1.00  0.00     0.074 A 
ATOM     53  C   UNL A   1      40.742  31.097  29.968  1.00  0.00     0.029 A 
ATOM     54  N   UNL A   1      42.388  29.643  29.614  1.00  0.00    -0.354 N 
ATOM     55  N   UNL A   1      45.169  28.720  29.665  1.00  0.00    -0.248 NA
ATOM     56  C   UNL A   1      47.444  29.148  29.971  1.00  0.00     0.031 C 
ATOM     57  C   UNL A   1      41.956  31.720  30.276  1.00  0.00     0.029 A 
ATOM     58  C   UNL A   1      42.979  30.809  30.072  1.00  0.00     0.049 A 
ATOM     59  H   UNL A   1      42.871  28.818  29.380  1.00  0.00     0.167 HD
ATOM     60  C   UNL A   1      45.334  30.035  30.079  1.00  0.00     0.074 A 
ATOM     61  C   UNL A   1      46.753  30.236  30.280  1.00  0.00     0.031 C 
ATOM     62  C   UNL A   1      44.393  30.990  30.275  1.00  0.00     0.037 A 
BRANCH  49  63
ATOM     63  C   UNL A   1      38.638  29.169  28.972  1.00  0.00     0.057 A 
ATOM     64  C   UNL A   1      37.770  29.091  30.068  1.00  0.00     0.134 A 
ATOM     65  C   UNL A   1      38.110  29.637  27.762  1.00  0.00     0.134 A 
ATOM     66  F   UNL A   1      38.209  28.639  31.253  1.00  0.00    -0.206 F 
ATOM     67  C   UNL A   1      36.422  29.437  29.958  1.00  0.00     0.040 A 
ATOM     68  C   UNL A   1      36.770  30.014  27.647  1.00  0.00     0.040 A 
ATOM     69  F   UNL A   1      38.888  29.746  26.674  1.00  0.00    -0.206 F 
ATOM     70  C   UNL A   1      35.920  29.906  28.746  1.00  0.00     0.006 A 
ENDBRANCH  49  63
BRANCH  50  71
ATOM     71  C   UNL A   1      48.227  26.428  29.244  1.00  0.00     0.057 A 
ATOM     72  C   UNL A   1      49.008  26.584  28.092  1.00  0.00     0.134 A 
ATOM     73  C   UNL A   1      48.851  25.897  30.378  1.00  0.00     0.134 A 
ATOM     74  F   UNL A   1      48.461  27.069  26.967  1.00  0.00    -0.206 F 
ATOM     75  C   UNL A   1      50.352  26.211  28.063  1.00  0.00     0.040 A 
ATOM     76  C   UNL A   1      50.202  25.541  30.371  1.00  0.00     0.040 A 
ATOM     77  F   UNL A   1      48.161  25.729  31.515  1.00  0.00    -0.206 F 
ATOM     78  C   UNL A   1      50.954  25.691  29.207  1.00  0.00     0.006 A 
ENDBRANCH  50  71
BRANCH  62  79
ATOM     79  C   UNL A   1      44.862  32.330  30.758  1.00  0.00     0.057 A 
ATOM     80  C   UNL A   1      45.169  33.367  29.868  1.00  0.00     0.134 A 
ATOM     81  C   UNL A   1      44.955  32.601  32.129  1.00  0.00     0.134 A 
ATOM     82  F   UNL A   1      45.112  33.166  28.543  1.00  0.00    -0.206 F 
ATOM     83  C   UNL A   1      45.567  34.624  30.327  1.00  0.00     0.040 A 
ATOM     84  C   UNL A   1      45.328  33.860  32.598  1.00  0.00     0.040 A 
ATOM     85  F   UNL A   1      44.668  31.652  33.032  1.00  0.00    -0.206 F 
ATOM     86  C   UNL A   1      45.639  34.876  31.696  1.00  0.00     0.006 A 
ENDBRANCH  62  79
ENDBRANCH  36  37
ENDBRANCH  28  31
ENDBRANCH  26  27
ENDBRANCH  25  26
ENDBRANCH  24  25
ENDBRANCH   3  24
TORSDOF 16
ENDMDL
