MODEL 1
REMARK VINA RESULT:     -13.5      0.000      0.000
REMARK SMILES Cc1c[nH]c(C(=O)N2CCC3(CC2)NC(=O)C[C@@H]3C(=O)NCCCNC(=O)c2ccc(-c3c4nc(c(-c5c(F)cccc5F)c5ccc([nH]5)c(-c5c(F)cccc5F)c5nc(c(-c6c(F)cccc6F)c6ccc3[nH]6)C=C5)C=C4)cc2)c1
REMARK SMILES IDX 23 1 22 2 21 3 19 4 20 5 18 7 6 8 7 9 8 10 9 11 13 12 10 13
REMARK SMILES IDX 12 14 11 15 14 16 15 17 17 19 16 20 5 21 1 22 2 23 3 24
REMARK SMILES IDX 82 25 4 26 24 28 25 29 26 30 27 32 28 33 29 34 81 35 30 36
REMARK SMILES IDX 80 37 31 38 32 39 33 40 74 41 34 42 79 43 73 44 75 45 35 46
REMARK SMILES IDX 78 47 72 48 71 49 36 51 62 52 45 53 61 54 46 55 49 56 60 57
REMARK SMILES IDX 76 58 47 59 48 60 59 62 77 63 50 64 37 65 38 66 43 67 39 68
REMARK SMILES IDX 40 69 42 70 44 71 41 72 63 73 64 74 69 75 65 76 66 77 68 78
REMARK SMILES IDX 70 79 67 80 51 81 52 82 57 83 53 84 54 85 56 86 58 87 55 88
REMARK H PARENT 21 6 14 18 4 27 25 31 75 50 49 61
REMARK Flexibility Score: inf
ROOT
ATOM      1  C   UNL A   1      35.180  22.834  26.837  1.00  0.00     0.042 C 
ENDROOT
BRANCH   1   2
ATOM      2  C   UNL A   1      33.835  23.439  26.431  1.00  0.00     0.117 C 
BRANCH   2   3
ATOM      3  N   UNL A   1      33.757  23.663  24.998  1.00  0.00    -0.356 N 
ATOM      4  C   UNL A   1      32.714  23.783  24.138  1.00  0.00     0.226 C 
ATOM      5  O   UNL A   1      33.004  23.870  22.942  1.00  0.00    -0.275 OA
ATOM      6  H   UNL A   1      34.636  23.743  24.564  1.00  0.00     0.163 HD
BRANCH   4   7
ATOM      7  C   UNL A   1      31.264  23.809  24.612  1.00  0.00     0.113 C 
ATOM      8  C   UNL A   1      31.664  28.631  22.809  1.00  0.00     0.270 C 
ATOM      9  O   UNL A   1      32.807  28.820  22.401  1.00  0.00    -0.267 OA
ATOM     10  N   UNL A   1      31.340  27.493  23.550  1.00  0.00    -0.337 N 
ATOM     11  C   UNL A   1      32.394  26.927  24.380  1.00  0.00     0.122 C 
ATOM     12  C   UNL A   1      30.271  26.599  23.124  1.00  0.00     0.122 C 
ATOM     13  C   UNL A   1      31.805  26.194  25.581  1.00  0.00     0.051 C 
ATOM     14  C   UNL A   1      29.673  25.840  24.285  1.00  0.00     0.051 C 
ATOM     15  C   UNL A   1      30.729  25.163  25.188  1.00  0.00     0.055 C 
ATOM     16  N   UNL A   1      30.007  24.750  26.382  1.00  0.00    -0.350 N 
ATOM     17  C   UNL A   1      30.171  23.438  26.734  1.00  0.00     0.221 C 
ATOM     18  H   UNL A   1      29.442  25.368  26.898  1.00  0.00     0.164 HD
ATOM     19  C   UNL A   1      31.153  22.815  25.796  1.00  0.00     0.116 C 
ATOM     20  O   UNL A   1      29.619  22.900  27.673  1.00  0.00    -0.275 OA
BRANCH   8  21
ATOM     21  C   UNL A   1      30.602  29.607  22.674  1.00  0.00     0.104 A 
ATOM     22  C   UNL A   1      27.584  31.540  23.659  1.00  0.00     0.046 C 
ATOM     23  C   UNL A   1      28.759  30.905  23.015  1.00  0.00    -0.033 A 
ATOM     24  C   UNL A   1      29.106  30.973  21.683  1.00  0.00     0.086 A 
ATOM     25  C   UNL A   1      29.724  30.067  23.641  1.00  0.00     0.036 A 
ATOM     26  N   UNL A   1      30.184  30.160  21.484  1.00  0.00    -0.357 N 
ATOM     27  H   UNL A   1      30.605  29.993  20.609  1.00  0.00     0.166 HD
ENDBRANCH   8  21
ENDBRANCH   4   7
ENDBRANCH   2   3
ENDBRANCH   1   2
BRANCH   1  28
ATOM     28  C   UNL A   1      36.390  23.358  26.079  1.00  0.00     0.118 C 
BRANCH  28  29
ATOM     29  N   UNL A   1      37.502  22.428  26.109  1.00  0.00    -0.352 N 
ATOM     30  C   UNL A   1      38.838  22.662  26.322  1.00  0.00     0.251 C 
ATOM     31  H   UNL A   1      37.263  21.487  25.951  1.00  0.00     0.163 HD
ATOM     32  O   UNL A   1      39.645  21.769  26.075  1.00  0.00    -0.269 OA
BRANCH  30  33
ATOM     33  C   UNL A   1      39.323  23.969  26.827  1.00  0.00     0.039 A 
ATOM     34  C   UNL A   1      39.915  24.855  25.921  1.00  0.00     0.014 A 
ATOM     35  C   UNL A   1      39.258  24.313  28.181  1.00  0.00     0.014 A 
ATOM     36  C   UNL A   1      40.400  26.090  26.362  1.00  0.00     0.010 A 
ATOM     37  C   UNL A   1      39.663  25.578  28.605  1.00  0.00     0.010 A 
ATOM     38  C   UNL A   1      40.253  26.476  27.703  1.00  0.00    -0.014 A 
BRANCH  38  39
ATOM     39  C   UNL A   1      40.718  27.808  28.173  1.00  0.00     0.031 A 
ATOM     40  C   UNL A   1      42.184  28.145  28.188  1.00  0.00     0.074 A 
ATOM     41  C   UNL A   1      39.820  28.704  28.626  1.00  0.00     0.049 A 
ATOM     42  N   UNL A   1      42.779  29.242  28.588  1.00  0.00    -0.248 NA
ATOM     43  C   UNL A   1      43.108  27.106  27.707  1.00  0.00     0.031 C 
ATOM     44  C   UNL A   1      38.375  28.487  28.703  1.00  0.00     0.029 A 
ATOM     45  N   UNL A   1      39.990  29.976  29.113  1.00  0.00    -0.354 N 
ATOM     46  C   UNL A   1      44.140  29.021  28.420  1.00  0.00     0.074 A 
ATOM     47  C   UNL A   1      44.288  27.667  27.932  1.00  0.00     0.031 C 
ATOM     48  C   UNL A   1      37.788  29.596  29.178  1.00  0.00     0.029 A 
ATOM     49  C   UNL A   1      38.816  30.586  29.485  1.00  0.00     0.049 A 
ATOM     50  H   UNL A   1      40.871  30.410  29.190  1.00  0.00     0.167 HD
ATOM     51  C   UNL A   1      45.172  29.873  28.632  1.00  0.00     0.037 A 
ATOM     52  C   UNL A   1      38.593  31.800  30.020  1.00  0.00     0.037 A 
ATOM     53  C   UNL A   1      45.021  31.223  29.111  1.00  0.00     0.049 A 
ATOM     54  C   UNL A   1      39.756  32.718  30.275  1.00  0.00     0.074 A 
ATOM     55  C   UNL A   1      45.999  32.182  29.308  1.00  0.00     0.029 A 
ATOM     56  N   UNL A   1      43.815  31.800  29.482  1.00  0.00    -0.354 N 
ATOM     57  N   UNL A   1      41.032  32.521  30.044  1.00  0.00    -0.248 NA
ATOM     58  C   UNL A   1      39.449  34.030  30.863  1.00  0.00     0.031 C 
ATOM     59  C   UNL A   1      45.394  33.319  29.854  1.00  0.00     0.029 A 
ATOM     60  C   UNL A   1      44.029  33.093  29.936  1.00  0.00     0.049 A 
ATOM     61  H   UNL A   1      42.936  31.359  29.430  1.00  0.00     0.167 HD
ATOM     62  C   UNL A   1      41.674  33.692  30.427  1.00  0.00     0.074 A 
ATOM     63  C   UNL A   1      40.645  34.599  30.892  1.00  0.00     0.031 C 
ATOM     64  C   UNL A   1      42.996  33.989  30.395  1.00  0.00     0.037 A 
BRANCH  51  65
ATOM     65  C   UNL A   1      46.560  29.364  28.356  1.00  0.00     0.057 A 
ATOM     66  C   UNL A   1      47.163  29.499  27.097  1.00  0.00     0.134 A 
ATOM     67  C   UNL A   1      47.314  28.759  29.368  1.00  0.00     0.134 A 
ATOM     68  F   UNL A   1      46.495  30.062  26.078  1.00  0.00    -0.206 F 
ATOM     69  C   UNL A   1      48.450  29.018  26.847  1.00  0.00     0.040 A 
ATOM     70  C   UNL A   1      48.615  28.304  29.140  1.00  0.00     0.040 A 
ATOM     71  F   UNL A   1      46.806  28.607  30.600  1.00  0.00    -0.206 F 
ATOM     72  C   UNL A   1      49.183  28.425  27.874  1.00  0.00     0.006 A 
ENDBRANCH  51  65
BRANCH  52  73
ATOM     73  C   UNL A   1      37.205  32.227  30.336  1.00  0.00     0.057 A 
ATOM     74  C   UNL A   1      36.621  31.927  31.572  1.00  0.00     0.134 A 
ATOM     75  C   UNL A   1      36.431  32.943  29.414  1.00  0.00     0.134 A 
ATOM     76  F   UNL A   1      37.304  31.228  32.490  1.00  0.00    -0.206 F 
ATOM     77  C   UNL A   1      35.312  32.306  31.873  1.00  0.00     0.040 A 
ATOM     78  C   UNL A   1      35.131  33.354  29.714  1.00  0.00     0.040 A 
ATOM     79  F   UNL A   1      36.934  33.270  28.215  1.00  0.00    -0.206 F 
ATOM     80  C   UNL A   1      34.566  33.028  30.944  1.00  0.00     0.006 A 
ENDBRANCH  52  73
BRANCH  64  81
ATOM     81  C   UNL A   1      43.406  35.364  30.841  1.00  0.00     0.057 A 
ATOM     82  C   UNL A   1      43.733  35.649  32.172  1.00  0.00     0.134 A 
ATOM     83  C   UNL A   1      43.507  36.411  29.914  1.00  0.00     0.134 A 
ATOM     84  F   UNL A   1      43.645  34.697  33.113  1.00  0.00    -0.206 F 
ATOM     85  C   UNL A   1      44.121  36.930  32.571  1.00  0.00     0.040 A 
ATOM     86  C   UNL A   1      43.924  37.687  30.294  1.00  0.00     0.040 A 
ATOM     87  F   UNL A   1      43.217  36.207  28.619  1.00  0.00    -0.206 F 
ATOM     88  C   UNL A   1      44.224  37.952  31.629  1.00  0.00     0.006 A 
ENDBRANCH  64  81
ENDBRANCH  38  39
ENDBRANCH  30  33
ENDBRANCH  28  29
ENDBRANCH   1  28
TORSDOF 11
ENDMDL
MODEL 2
REMARK VINA RESULT:     -13.4      4.075      7.372
REMARK SMILES Cc1c[nH]c(C(=O)N2CCC3(CC2)NC(=O)C[C@@H]3C(=O)NCCCNC(=O)c2ccc(-c3c4nc(c(-c5c(F)cccc5F)c5ccc([nH]5)c(-c5c(F)cccc5F)c5nc(c(-c6c(F)cccc6F)c6ccc3[nH]6)C=C5)C=C4)cc2)c1
REMARK SMILES IDX 23 1 22 2 21 3 19 4 20 5 18 7 6 8 7 9 8 10 9 11 13 12 10 13
REMARK SMILES IDX 12 14 11 15 14 16 15 17 17 19 16 20 5 21 1 22 2 23 3 24
REMARK SMILES IDX 82 25 4 26 24 28 25 29 26 30 27 32 28 33 29 34 81 35 30 36
REMARK SMILES IDX 80 37 31 38 32 39 33 40 74 41 34 42 79 43 73 44 75 45 35 46
REMARK SMILES IDX 78 47 72 48 71 49 36 51 62 52 45 53 61 54 46 55 49 56 60 57
REMARK SMILES IDX 76 58 47 59 48 60 59 62 77 63 50 64 37 65 38 66 43 67 39 68
REMARK SMILES IDX 40 69 42 70 44 71 41 72 63 73 64 74 69 75 65 76 66 77 68 78
REMARK SMILES IDX 70 79 67 80 51 81 52 82 57 83 53 84 54 85 56 86 58 87 55 88
REMARK H PARENT 21 6 14 18 4 27 25 31 75 50 49 61
REMARK Flexibility Score: inf
ROOT
ATOM      1  C   UNL A   1      37.372  23.656  25.415  1.00  0.00     0.042 C 
ENDROOT
BRANCH   1   2
ATOM      2  C   UNL A   1      35.886  23.888  25.697  1.00  0.00     0.117 C 
BRANCH   2   3
ATOM      3  N   UNL A   1      35.344  22.876  26.588  1.00  0.00    -0.356 N 
ATOM      4  C   UNL A   1      34.499  21.832  26.393  1.00  0.00     0.226 C 
ATOM      5  O   UNL A   1      34.156  21.215  27.404  1.00  0.00    -0.275 OA
ATOM      6  H   UNL A   1      35.650  22.966  27.519  1.00  0.00     0.163 HD
BRANCH   4   7
ATOM      7  C   UNL A   1      33.996  21.436  25.007  1.00  0.00     0.113 C 
ATOM      8  C   UNL A   1      31.171  25.691  25.767  1.00  0.00     0.270 C 
ATOM      9  O   UNL A   1      31.418  26.152  26.879  1.00  0.00    -0.267 OA
ATOM     10  N   UNL A   1      31.624  24.426  25.392  1.00  0.00    -0.337 N 
ATOM     11  C   UNL A   1      31.768  23.438  26.452  1.00  0.00     0.122 C 
ATOM     12  C   UNL A   1      32.433  24.244  24.193  1.00  0.00     0.122 C 
ATOM     13  C   UNL A   1      31.593  22.024  25.904  1.00  0.00     0.051 C 
ATOM     14  C   UNL A   1      32.301  22.848  23.629  1.00  0.00     0.051 C 
ATOM     15  C   UNL A   1      32.492  21.736  24.686  1.00  0.00     0.055 C 
ATOM     16  N   UNL A   1      32.044  20.511  24.043  1.00  0.00    -0.350 N 
ATOM     17  C   UNL A   1      32.930  19.471  24.093  1.00  0.00     0.221 C 
ATOM     18  H   UNL A   1      31.167  20.436  23.604  1.00  0.00     0.164 HD
ATOM     19  C   UNL A   1      34.112  19.895  24.902  1.00  0.00     0.116 C 
ATOM     20  O   UNL A   1      32.753  18.385  23.578  1.00  0.00    -0.275 OA
BRANCH   8  21
ATOM     21  C   UNL A   1      30.301  26.348  24.813  1.00  0.00     0.104 A 
ATOM     22  C   UNL A   1      29.118  29.056  22.559  1.00  0.00     0.046 C 
ATOM     23  C   UNL A   1      29.341  27.848  23.390  1.00  0.00    -0.033 A 
ATOM     24  C   UNL A   1      28.420  26.867  23.682  1.00  0.00     0.086 A 
ATOM     25  C   UNL A   1      30.536  27.499  24.080  1.00  0.00     0.036 A 
ATOM     26  N   UNL A   1      28.992  25.998  24.566  1.00  0.00    -0.357 N 
ATOM     27  H   UNL A   1      28.532  25.228  24.972  1.00  0.00     0.166 HD
ENDBRANCH   8  21
ENDBRANCH   4   7
ENDBRANCH   2   3
ENDBRANCH   1   2
BRANCH   1  28
ATOM     28  C   UNL A   1      38.322  24.059  26.532  1.00  0.00     0.118 C 
BRANCH  28  29
ATOM     29  N   UNL A   1      39.710  24.003  26.120  1.00  0.00    -0.352 N 
ATOM     30  C   UNL A   1      40.750  24.849  26.417  1.00  0.00     0.251 C 
ATOM     31  H   UNL A   1      39.943  23.245  25.538  1.00  0.00     0.163 HD
ATOM     32  O   UNL A   1      41.795  24.754  25.778  1.00  0.00    -0.269 OA
BRANCH  30  33
ATOM     33  C   UNL A   1      40.630  25.879  27.477  1.00  0.00     0.039 A 
ATOM     34  C   UNL A   1      39.704  25.674  28.503  1.00  0.00     0.014 A 
ATOM     35  C   UNL A   1      41.370  27.067  27.445  1.00  0.00     0.014 A 
ATOM     36  C   UNL A   1      39.550  26.629  29.512  1.00  0.00     0.010 A 
ATOM     37  C   UNL A   1      41.278  27.978  28.496  1.00  0.00     0.010 A 
ATOM     38  C   UNL A   1      40.356  27.778  29.534  1.00  0.00    -0.014 A 
BRANCH  38  39
ATOM     39  C   UNL A   1      40.238  28.777  30.629  1.00  0.00     0.031 A 
ATOM     40  C   UNL A   1      39.216  29.879  30.553  1.00  0.00     0.074 A 
ATOM     41  C   UNL A   1      41.080  28.716  31.679  1.00  0.00     0.049 A 
ATOM     42  N   UNL A   1      38.985  30.855  31.396  1.00  0.00    -0.248 NA
ATOM     43  C   UNL A   1      38.352  29.901  29.363  1.00  0.00     0.031 C 
ATOM     44  C   UNL A   1      42.140  27.723  31.854  1.00  0.00     0.029 A 
ATOM     45  N   UNL A   1      41.180  29.509  32.795  1.00  0.00    -0.354 N 
ATOM     46  C   UNL A   1      37.962  31.609  30.835  1.00  0.00     0.074 A 
ATOM     47  C   UNL A   1      37.654  31.011  29.554  1.00  0.00     0.031 C 
ATOM     48  C   UNL A   1      42.765  27.948  33.021  1.00  0.00     0.029 A 
ATOM     49  C   UNL A   1      42.182  29.126  33.655  1.00  0.00     0.049 A 
ATOM     50  H   UNL A   1      40.591  30.279  32.964  1.00  0.00     0.167 HD
ATOM     51  C   UNL A   1      37.323  32.689  31.347  1.00  0.00     0.037 A 
ATOM     52  C   UNL A   1      42.591  29.668  34.817  1.00  0.00     0.037 A 
ATOM     53  C   UNL A   1      37.628  33.279  32.625  1.00  0.00     0.049 A 
ATOM     54  C   UNL A   1      41.887  30.884  35.351  1.00  0.00     0.074 A 
ATOM     55  C   UNL A   1      37.003  34.341  33.256  1.00  0.00     0.029 A 
ATOM     56  N   UNL A   1      38.654  32.865  33.463  1.00  0.00    -0.354 N 
ATOM     57  N   UNL A   1      40.874  31.543  34.843  1.00  0.00    -0.248 NA
ATOM     58  C   UNL A   1      42.381  31.430  36.623  1.00  0.00     0.031 C 
ATOM     59  C   UNL A   1      37.688  34.608  34.445  1.00  0.00     0.029 A 
ATOM     60  C   UNL A   1      38.698  33.671  34.590  1.00  0.00     0.049 A 
ATOM     61  H   UNL A   1      39.261  32.110  33.284  1.00  0.00     0.167 HD
ATOM     62  C   UNL A   1      40.590  32.561  35.746  1.00  0.00     0.074 A 
ATOM     63  C   UNL A   1      41.528  32.421  36.841  1.00  0.00     0.031 C 
ATOM     64  C   UNL A   1      39.636  33.521  35.675  1.00  0.00     0.037 A 
BRANCH  51  65
ATOM     65  C   UNL A   1      36.235  33.310  30.515  1.00  0.00     0.057 A 
ATOM     66  C   UNL A   1      34.877  33.117  30.806  1.00  0.00     0.134 A 
ATOM     67  C   UNL A   1      36.549  34.136  29.429  1.00  0.00     0.134 A 
ATOM     68  F   UNL A   1      34.504  32.331  31.828  1.00  0.00    -0.206 F 
ATOM     69  C   UNL A   1      33.872  33.692  30.025  1.00  0.00     0.040 A 
ATOM     70  C   UNL A   1      35.553  34.743  28.659  1.00  0.00     0.040 A 
ATOM     71  F   UNL A   1      37.827  34.374  29.098  1.00  0.00    -0.206 F 
ATOM     72  C   UNL A   1      34.211  34.515  28.952  1.00  0.00     0.006 A 
ENDBRANCH  51  65
BRANCH  52  73
ATOM     73  C   UNL A   1      43.717  29.051  35.566  1.00  0.00     0.057 A 
ATOM     74  C   UNL A   1      43.492  28.024  36.490  1.00  0.00     0.134 A 
ATOM     75  C   UNL A   1      45.039  29.470  35.378  1.00  0.00     0.134 A 
ATOM     76  F   UNL A   1      42.246  27.590  36.728  1.00  0.00    -0.206 F 
ATOM     77  C   UNL A   1      44.538  27.449  37.213  1.00  0.00     0.040 A 
ATOM     78  C   UNL A   1      46.098  28.884  36.073  1.00  0.00     0.040 A 
ATOM     79  F   UNL A   1      45.324  30.444  34.502  1.00  0.00    -0.206 F 
ATOM     80  C   UNL A   1      45.847  27.875  37.000  1.00  0.00     0.006 A 
ENDBRANCH  52  73
BRANCH  64  81
ATOM     81  C   UNL A   1      39.533  34.478  36.830  1.00  0.00     0.057 A 
ATOM     82  C   UNL A   1      38.839  34.156  38.003  1.00  0.00     0.134 A 
ATOM     83  C   UNL A   1      40.169  35.726  36.779  1.00  0.00     0.134 A 
ATOM     84  F   UNL A   1      38.197  32.984  38.115  1.00  0.00    -0.206 F 
ATOM     85  C   UNL A   1      38.760  35.050  39.073  1.00  0.00     0.040 A 
ATOM     86  C   UNL A   1      40.123  36.615  37.853  1.00  0.00     0.040 A 
ATOM     87  F   UNL A   1      40.859  36.095  35.689  1.00  0.00    -0.206 F 
ATOM     88  C   UNL A   1      39.409  36.282  39.002  1.00  0.00     0.006 A 
ENDBRANCH  64  81
ENDBRANCH  38  39
ENDBRANCH  30  33
ENDBRANCH  28  29
ENDBRANCH   1  28
TORSDOF 11
ENDMDL
MODEL 3
REMARK VINA RESULT:     -13.4      2.931      8.220
REMARK SMILES Cc1c[nH]c(C(=O)N2CCC3(CC2)NC(=O)C[C@@H]3C(=O)NCCCNC(=O)c2ccc(-c3c4nc(c(-c5c(F)cccc5F)c5ccc([nH]5)c(-c5c(F)cccc5F)c5nc(c(-c6c(F)cccc6F)c6ccc3[nH]6)C=C5)C=C4)cc2)c1
REMARK SMILES IDX 23 1 22 2 21 3 19 4 20 5 18 7 6 8 7 9 8 10 9 11 13 12 10 13
REMARK SMILES IDX 12 14 11 15 14 16 15 17 17 19 16 20 5 21 1 22 2 23 3 24
REMARK SMILES IDX 82 25 4 26 24 28 25 29 26 30 27 32 28 33 29 34 81 35 30 36
REMARK SMILES IDX 80 37 31 38 32 39 33 40 74 41 34 42 79 43 73 44 75 45 35 46
REMARK SMILES IDX 78 47 72 48 71 49 36 51 62 52 45 53 61 54 46 55 49 56 60 57
REMARK SMILES IDX 76 58 47 59 48 60 59 62 77 63 50 64 37 65 38 66 43 67 39 68
REMARK SMILES IDX 40 69 42 70 44 71 41 72 63 73 64 74 69 75 65 76 66 77 68 78
REMARK SMILES IDX 70 79 67 80 51 81 52 82 57 83 53 84 54 85 56 86 58 87 55 88
REMARK H PARENT 21 6 14 18 4 27 25 31 75 50 49 61
REMARK Flexibility Score: inf
ROOT
ATOM      1  C   UNL A   1      33.239  28.173  25.395  1.00  0.00     0.042 C 
ENDROOT
BRANCH   1   2
ATOM      2  C   UNL A   1      33.647  26.959  24.558  1.00  0.00     0.117 C 
BRANCH   2   3
ATOM      3  N   UNL A   1      32.496  26.317  23.946  1.00  0.00    -0.356 N 
ATOM      4  C   UNL A   1      31.666  25.325  24.357  1.00  0.00     0.226 C 
ATOM      5  O   UNL A   1      30.831  24.940  23.535  1.00  0.00    -0.275 OA
ATOM      6  H   UNL A   1      32.274  26.673  23.056  1.00  0.00     0.163 HD
BRANCH   4   7
ATOM      7  C   UNL A   1      31.754  24.711  25.751  1.00  0.00     0.113 C 
ATOM      8  C   UNL A   1      36.161  22.920  23.742  1.00  0.00     0.270 C 
ATOM      9  O   UNL A   1      36.258  23.291  22.575  1.00  0.00    -0.267 OA
ATOM     10  N   UNL A   1      34.969  23.072  24.452  1.00  0.00    -0.337 N 
ATOM     11  C   UNL A   1      33.734  23.020  23.683  1.00  0.00     0.122 C 
ATOM     12  C   UNL A   1      34.938  23.789  25.721  1.00  0.00     0.122 C 
ATOM     13  C   UNL A   1      32.578  22.522  24.545  1.00  0.00     0.051 C 
ATOM     14  C   UNL A   1      33.794  23.336  26.597  1.00  0.00     0.051 C 
ATOM     15  C   UNL A   1      32.432  23.303  25.865  1.00  0.00     0.055 C 
ATOM     16  N   UNL A   1      31.535  22.578  26.752  1.00  0.00    -0.350 N 
ATOM     17  C   UNL A   1      30.357  23.213  27.031  1.00  0.00     0.221 C 
ATOM     18  H   UNL A   1      31.760  21.695  27.123  1.00  0.00     0.164 HD
ATOM     19  C   UNL A   1      30.303  24.480  26.241  1.00  0.00     0.116 C 
ATOM     20  O   UNL A   1      29.501  22.786  27.780  1.00  0.00    -0.275 OA
BRANCH   8  21
ATOM     21  C   UNL A   1      37.207  22.193  24.432  1.00  0.00     0.104 A 
ATOM     22  C   UNL A   1      39.005  19.225  25.763  1.00  0.00     0.046 C 
ATOM     23  C   UNL A   1      38.488  20.559  25.374  1.00  0.00    -0.033 A 
ATOM     24  C   UNL A   1      38.886  21.777  25.879  1.00  0.00     0.086 A 
ATOM     25  C   UNL A   1      37.450  20.829  24.438  1.00  0.00     0.036 A 
ATOM     26  N   UNL A   1      38.085  22.742  25.339  1.00  0.00    -0.357 N 
ATOM     27  H   UNL A   1      38.129  23.698  25.568  1.00  0.00     0.166 HD
ENDBRANCH   8  21
ENDBRANCH   4   7
ENDBRANCH   2   3
ENDBRANCH   1   2
BRANCH   1  28
ATOM     28  C   UNL A   1      34.005  28.361  26.695  1.00  0.00     0.118 C 
BRANCH  28  29
ATOM     29  N   UNL A   1      33.845  29.694  27.240  1.00  0.00    -0.352 N 
ATOM     30  C   UNL A   1      34.679  30.417  28.057  1.00  0.00     0.251 C 
ATOM     31  H   UNL A   1      33.011  30.152  26.986  1.00  0.00     0.163 HD
ATOM     32  O   UNL A   1      34.251  31.436  28.592  1.00  0.00    -0.269 OA
BRANCH  30  33
ATOM     33  C   UNL A   1      36.074  29.983  28.315  1.00  0.00     0.039 A 
ATOM     34  C   UNL A   1      37.023  30.153  27.302  1.00  0.00     0.014 A 
ATOM     35  C   UNL A   1      36.448  29.361  29.511  1.00  0.00     0.014 A 
ATOM     36  C   UNL A   1      38.344  29.742  27.502  1.00  0.00     0.010 A 
ATOM     37  C   UNL A   1      37.784  29.030  29.741  1.00  0.00     0.010 A 
ATOM     38  C   UNL A   1      38.744  29.203  28.734  1.00  0.00    -0.014 A 
BRANCH  38  39
ATOM     39  C   UNL A   1      40.157  28.809  28.976  1.00  0.00     0.031 A 
ATOM     40  C   UNL A   1      41.116  29.763  29.635  1.00  0.00     0.074 A 
ATOM     41  C   UNL A   1      40.591  27.600  28.565  1.00  0.00     0.049 A 
ATOM     42  N   UNL A   1      42.390  29.606  29.902  1.00  0.00    -0.248 NA
ATOM     43  C   UNL A   1      40.580  31.075  30.028  1.00  0.00     0.031 C 
ATOM     44  C   UNL A   1      39.773  26.599  27.879  1.00  0.00     0.029 A 
ATOM     45  N   UNL A   1      41.826  27.012  28.661  1.00  0.00    -0.354 N 
ATOM     46  C   UNL A   1      42.806  30.798  30.481  1.00  0.00     0.074 A 
ATOM     47  C   UNL A   1      41.666  31.688  30.477  1.00  0.00     0.031 C 
ATOM     48  C   UNL A   1      40.521  25.510  27.641  1.00  0.00     0.029 A 
ATOM     49  C   UNL A   1      41.880  25.751  28.115  1.00  0.00     0.049 A 
ATOM     50  H   UNL A   1      42.602  27.450  29.080  1.00  0.00     0.167 HD
ATOM     51  C   UNL A   1      44.022  31.116  30.988  1.00  0.00     0.037 A 
ATOM     52  C   UNL A   1      42.909  24.891  28.000  1.00  0.00     0.037 A 
ATOM     53  C   UNL A   1      45.154  30.226  30.996  1.00  0.00     0.049 A 
ATOM     54  C   UNL A   1      44.256  25.278  28.544  1.00  0.00     0.074 A 
ATOM     55  C   UNL A   1      46.412  30.436  31.534  1.00  0.00     0.029 A 
ATOM     56  N   UNL A   1      45.168  28.960  30.428  1.00  0.00    -0.354 N 
ATOM     57  N   UNL A   1      44.617  26.381  29.153  1.00  0.00    -0.248 NA
ATOM     58  C   UNL A   1      45.340  24.297  28.387  1.00  0.00     0.031 C 
ATOM     59  C   UNL A   1      47.205  29.323  31.239  1.00  0.00     0.029 A 
ATOM     60  C   UNL A   1      46.424  28.390  30.575  1.00  0.00     0.049 A 
ATOM     61  H   UNL A   1      44.401  28.529  29.986  1.00  0.00     0.167 HD
ATOM     62  C   UNL A   1      45.958  26.216  29.478  1.00  0.00     0.074 A 
ATOM     63  C   UNL A   1      46.341  24.899  29.013  1.00  0.00     0.031 C 
ATOM     64  C   UNL A   1      46.794  27.077  30.109  1.00  0.00     0.037 A 
BRANCH  51  65
ATOM     65  C   UNL A   1      44.193  32.494  31.568  1.00  0.00     0.057 A 
ATOM     66  C   UNL A   1      43.973  32.759  32.928  1.00  0.00     0.134 A 
ATOM     67  C   UNL A   1      44.610  33.561  30.764  1.00  0.00     0.134 A 
ATOM     68  F   UNL A   1      43.565  31.784  33.754  1.00  0.00    -0.206 F 
ATOM     69  C   UNL A   1      44.128  34.042  33.457  1.00  0.00     0.040 A 
ATOM     70  C   UNL A   1      44.799  34.842  31.288  1.00  0.00     0.040 A 
ATOM     71  F   UNL A   1      44.848  33.380  29.457  1.00  0.00    -0.206 F 
ATOM     72  C   UNL A   1      44.550  35.087  32.637  1.00  0.00     0.006 A 
ENDBRANCH  51  65
BRANCH  52  73
ATOM     73  C   UNL A   1      42.700  23.568  27.358  1.00  0.00     0.057 A 
ATOM     74  C   UNL A   1      42.320  22.451  28.112  1.00  0.00     0.134 A 
ATOM     75  C   UNL A   1      42.873  23.386  25.980  1.00  0.00     0.134 A 
ATOM     76  F   UNL A   1      42.157  22.556  29.438  1.00  0.00    -0.206 F 
ATOM     77  C   UNL A   1      42.139  21.199  27.523  1.00  0.00     0.040 A 
ATOM     78  C   UNL A   1      42.665  22.146  25.375  1.00  0.00     0.040 A 
ATOM     79  F   UNL A   1      43.228  24.417  25.199  1.00  0.00    -0.206 F 
ATOM     80  C   UNL A   1      42.306  21.046  26.149  1.00  0.00     0.006 A 
ENDBRANCH  52  73
BRANCH  64  81
ATOM     81  C   UNL A   1      48.199  26.610  30.366  1.00  0.00     0.057 A 
ATOM     82  C   UNL A   1      49.248  26.879  29.478  1.00  0.00     0.134 A 
ATOM     83  C   UNL A   1      48.512  25.909  31.539  1.00  0.00     0.134 A 
ATOM     84  F   UNL A   1      49.017  27.534  28.330  1.00  0.00    -0.206 F 
ATOM     85  C   UNL A   1      50.551  26.447  29.734  1.00  0.00     0.040 A 
ATOM     86  C   UNL A   1      49.816  25.499  31.821  1.00  0.00     0.040 A 
ATOM     87  F   UNL A   1      47.558  25.624  32.438  1.00  0.00    -0.206 F 
ATOM     88  C   UNL A   1      50.839  25.761  30.912  1.00  0.00     0.006 A 
ENDBRANCH  64  81
ENDBRANCH  38  39
ENDBRANCH  30  33
ENDBRANCH  28  29
ENDBRANCH   1  28
TORSDOF 11
ENDMDL
