MODEL 1
REMARK VINA RESULT:     -10.7      0.000      0.000
REMARK SMILES COc1ccc(OCC(C)(C)C(=O)NCCCNC(=O)c2ccc(-c3c4nc(c(-c5c(F)cccc5F)c5ccc([nH]5)c(-c5c(F)cccc5F)c5nc(c(-c6c(F)cccc6F)c6ccc3[nH]6)C=C5)C=C4)cc2)c(CC[NH3+])c1
REMARK SMILES IDX 12 1 13 2 14 3 9 5 10 6 11 7 8 8 7 9 6 10 3 11 4 12 79 13
REMARK SMILES IDX 5 14 75 15 2 16 1 17 76 18 77 19 78 20 15 24 16 25 17 26
REMARK SMILES IDX 18 27 19 28 20 30 21 31 22 32 74 33 23 34 73 35 24 36 25 37
REMARK SMILES IDX 26 38 67 39 27 40 72 41 66 42 68 43 28 44 71 45 65 46 64 47
REMARK SMILES IDX 29 49 55 50 38 51 54 52 39 53 42 54 53 55 69 56 40 57 41 58
REMARK SMILES IDX 52 60 70 61 43 62 30 63 31 64 36 65 32 66 33 67 35 68 37 69
REMARK SMILES IDX 34 70 56 71 57 72 62 73 58 74 59 75 61 76 63 77 60 78 44 79
REMARK SMILES IDX 45 80 50 81 46 82 47 83 49 84 51 85 48 86
REMARK H PARENT 14 4 78 21 78 22 78 23 18 29 68 48 42 59
REMARK Flexibility Score: inf
ROOT
ATOM      1  C   UNL A   1      37.155  23.080  25.535  1.00  0.00     0.229 C 
ATOM      2  O   UNL A   1      37.800  23.975  26.084  1.00  0.00    -0.274 OA
ATOM      3  N   UNL A   1      37.835  21.931  25.247  1.00  0.00    -0.355 N 
ATOM      4  H   UNL A   1      38.785  21.950  25.501  1.00  0.00     0.163 HD
ENDROOT
BRANCH   1   5
ATOM      5  C   UNL A   1      35.672  23.226  25.173  1.00  0.00     0.077 C 
ATOM      6  C   UNL A   1      35.537  23.035  23.651  1.00  0.00     0.025 C 
ATOM      7  C   UNL A   1      35.193  24.623  25.642  1.00  0.00     0.025 C 
BRANCH   5   8
ATOM      8  C   UNL A   1      34.805  22.229  26.028  1.00  0.00     0.245 C 
BRANCH   8   9
ATOM      9  O   UNL A   1      33.432  21.994  25.729  1.00  0.00    -0.492 OA
BRANCH   9  10
ATOM     10  C   UNL A   1      33.015  20.958  24.949  1.00  0.00     0.123 A 
ATOM     11  C   UNL A   1      32.759  18.552  23.565  1.00  0.00     0.119 A 
ATOM     12  C   UNL A   1      33.139  18.522  24.895  1.00  0.00     0.050 A 
ATOM     13  C   UNL A   1      32.371  19.751  22.966  1.00  0.00     0.054 A 
ATOM     14  C   UNL A   1      33.263  19.725  25.582  1.00  0.00     0.050 A 
ATOM     15  C   UNL A   1      32.476  20.984  23.649  1.00  0.00     0.003 A 
BRANCH  11  16
ATOM     16  O   UNL A   1      32.749  17.382  22.856  1.00  0.00    -0.497 OA
ATOM     17  C   UNL A   1      33.900  16.602  23.199  1.00  0.00     0.278 C 
ENDBRANCH  11  16
BRANCH  15  18
ATOM     18  C   UNL A   1      32.049  22.218  22.879  1.00  0.00     0.101 C 
BRANCH  18  19
ATOM     19  C   UNL A   1      31.156  23.204  23.637  1.00  0.00     0.263 C 
BRANCH  19  20
ATOM     20  N   UNL A   1      30.691  24.339  22.848  1.00  0.00    -0.357 N 
ATOM     21  H   UNL A   1      30.046  24.013  22.129  1.00  0.00     0.344 HD
ATOM     22  H   UNL A   1      31.488  24.796  22.406  1.00  0.00     0.344 HD
ATOM     23  H   UNL A   1      30.213  25.004  23.456  1.00  0.00     0.344 HD
ENDBRANCH  19  20
ENDBRANCH  18  19
ENDBRANCH  15  18
ENDBRANCH   9  10
ENDBRANCH   8   9
ENDBRANCH   5   8
ENDBRANCH   1   5
BRANCH   3  24
ATOM     24  C   UNL A   1      37.408  20.682  24.631  1.00  0.00     0.117 C 
BRANCH  24  25
ATOM     25  C   UNL A   1      38.310  19.526  24.992  1.00  0.00     0.042 C 
BRANCH  25  26
ATOM     26  C   UNL A   1      39.381  19.931  25.978  1.00  0.00     0.118 C 
BRANCH  26  27
ATOM     27  N   UNL A   1      40.449  18.938  26.068  1.00  0.00    -0.352 N 
ATOM     28  C   UNL A   1      41.807  19.134  26.137  1.00  0.00     0.251 C 
ATOM     29  H   UNL A   1      40.155  17.999  26.082  1.00  0.00     0.163 HD
ATOM     30  O   UNL A   1      42.587  18.203  25.970  1.00  0.00    -0.269 OA
BRANCH  28  31
ATOM     31  C   UNL A   1      42.302  20.495  26.398  1.00  0.00     0.039 A 
ATOM     32  C   UNL A   1      42.674  21.318  25.335  1.00  0.00     0.014 A 
ATOM     33  C   UNL A   1      42.322  20.968  27.710  1.00  0.00     0.014 A 
ATOM     34  C   UNL A   1      42.995  22.651  25.589  1.00  0.00     0.010 A 
ATOM     35  C   UNL A   1      42.508  22.317  27.942  1.00  0.00     0.010 A 
ATOM     36  C   UNL A   1      42.873  23.168  26.888  1.00  0.00    -0.014 A 
BRANCH  36  37
ATOM     37  C   UNL A   1      43.185  24.577  27.218  1.00  0.00     0.031 A 
ATOM     38  C   UNL A   1      44.623  25.021  27.198  1.00  0.00     0.074 A 
ATOM     39  C   UNL A   1      42.213  25.409  27.637  1.00  0.00     0.049 A 
ATOM     40  N   UNL A   1      45.154  26.130  27.639  1.00  0.00    -0.248 NA
ATOM     41  C   UNL A   1      45.601  24.058  26.662  1.00  0.00     0.031 C 
ATOM     42  C   UNL A   1      40.792  25.076  27.747  1.00  0.00     0.029 A 
ATOM     43  N   UNL A   1      42.284  26.708  28.070  1.00  0.00    -0.354 N 
ATOM     44  C   UNL A   1      46.525  25.975  27.476  1.00  0.00     0.074 A 
ATOM     45  C   UNL A   1      46.749  24.645  26.958  1.00  0.00     0.031 C 
ATOM     46  C   UNL A   1      40.121  26.152  28.192  1.00  0.00     0.029 A 
ATOM     47  C   UNL A   1      41.070  27.232  28.442  1.00  0.00     0.049 A 
ATOM     48  H   UNL A   1      43.125  27.217  28.111  1.00  0.00     0.167 HD
ATOM     49  C   UNL A   1      47.509  26.874  27.708  1.00  0.00     0.037 A 
ATOM     50  C   UNL A   1      40.765  28.446  28.935  1.00  0.00     0.037 A 
ATOM     51  C   UNL A   1      47.270  28.216  28.157  1.00  0.00     0.049 A 
ATOM     52  C   UNL A   1      41.871  29.445  29.146  1.00  0.00     0.074 A 
ATOM     53  C   UNL A   1      48.182  29.236  28.356  1.00  0.00     0.029 A 
ATOM     54  N   UNL A   1      46.017  28.730  28.459  1.00  0.00    -0.354 N 
ATOM     55  N   UNL A   1      43.159  29.305  28.943  1.00  0.00    -0.248 NA
ATOM     56  C   UNL A   1      41.482  30.770  29.647  1.00  0.00     0.031 C 
ATOM     57  C   UNL A   1      47.483  30.361  28.802  1.00  0.00     0.029 A 
ATOM     58  C   UNL A   1      46.132  30.052  28.845  1.00  0.00     0.049 A 
ATOM     59  H   UNL A   1      45.171  28.227  28.407  1.00  0.00     0.167 HD
ATOM     60  C   UNL A   1      43.729  30.531  29.255  1.00  0.00     0.074 A 
ATOM     61  C   UNL A   1      42.646  31.404  29.660  1.00  0.00     0.031 C 
ATOM     62  C   UNL A   1      45.032  30.905  29.212  1.00  0.00     0.037 A 
BRANCH  49  63
ATOM     63  C   UNL A   1      48.920  26.432  27.458  1.00  0.00     0.057 A 
ATOM     64  C   UNL A   1      49.522  26.556  26.198  1.00  0.00     0.134 A 
ATOM     65  C   UNL A   1      49.692  25.883  28.490  1.00  0.00     0.134 A 
ATOM     66  F   UNL A   1      48.832  27.056  25.161  1.00  0.00    -0.206 F 
ATOM     67  C   UNL A   1      50.827  26.120  25.964  1.00  0.00     0.040 A 
ATOM     68  C   UNL A   1      51.009  25.472  28.276  1.00  0.00     0.040 A 
ATOM     69  F   UNL A   1      49.179  25.738  29.721  1.00  0.00    -0.206 F 
ATOM     70  C   UNL A   1      51.577  25.582  27.009  1.00  0.00     0.006 A 
ENDBRANCH  49  63
BRANCH  50  71
ATOM     71  C   UNL A   1      39.355  28.801  29.227  1.00  0.00     0.057 A 
ATOM     72  C   UNL A   1      38.811  28.592  30.499  1.00  0.00     0.134 A 
ATOM     73  C   UNL A   1      38.516  29.352  28.251  1.00  0.00     0.134 A 
ATOM     74  F   UNL A   1      39.562  28.053  31.472  1.00  0.00    -0.206 F 
ATOM     75  C   UNL A   1      37.480  28.897  30.788  1.00  0.00     0.040 A 
ATOM     76  C   UNL A   1      37.189  29.684  28.531  1.00  0.00     0.040 A 
ATOM     77  F   UNL A   1      38.979  29.588  27.015  1.00  0.00    -0.206 F 
ATOM     78  C   UNL A   1      36.666  29.449  29.801  1.00  0.00     0.006 A 
ENDBRANCH  50  71
BRANCH  62  79
ATOM     79  C   UNL A   1      45.352  32.328  29.550  1.00  0.00     0.057 A 
ATOM     80  C   UNL A   1      45.304  33.344  28.589  1.00  0.00     0.134 A 
ATOM     81  C   UNL A   1      45.639  32.693  30.871  1.00  0.00     0.134 A 
ATOM     82  F   UNL A   1      45.045  33.054  27.304  1.00  0.00    -0.206 F 
ATOM     83  C   UNL A   1      45.542  34.676  28.929  1.00  0.00     0.040 A 
ATOM     84  C   UNL A   1      45.855  34.023  31.228  1.00  0.00     0.040 A 
ATOM     85  F   UNL A   1      45.689  31.765  31.838  1.00  0.00    -0.206 F 
ATOM     86  C   UNL A   1      45.809  35.019  30.254  1.00  0.00     0.006 A 
ENDBRANCH  62  79
ENDBRANCH  36  37
ENDBRANCH  28  31
ENDBRANCH  26  27
ENDBRANCH  25  26
ENDBRANCH  24  25
ENDBRANCH   3  24
TORSDOF 17
ENDMDL
MODEL 2
REMARK VINA RESULT:     -10.7      5.533     10.430
REMARK SMILES COc1ccc(OCC(C)(C)C(=O)NCCCNC(=O)c2ccc(-c3c4nc(c(-c5c(F)cccc5F)c5ccc([nH]5)c(-c5c(F)cccc5F)c5nc(c(-c6c(F)cccc6F)c6ccc3[nH]6)C=C5)C=C4)cc2)c(CC[NH3+])c1
REMARK SMILES IDX 12 1 13 2 14 3 9 5 10 6 11 7 8 8 7 9 6 10 3 11 4 12 79 13
REMARK SMILES IDX 5 14 75 15 2 16 1 17 76 18 77 19 78 20 15 24 16 25 17 26
REMARK SMILES IDX 18 27 19 28 20 30 21 31 22 32 74 33 23 34 73 35 24 36 25 37
REMARK SMILES IDX 26 38 67 39 27 40 72 41 66 42 68 43 28 44 71 45 65 46 64 47
REMARK SMILES IDX 29 49 55 50 38 51 54 52 39 53 42 54 53 55 69 56 40 57 41 58
REMARK SMILES IDX 52 60 70 61 43 62 30 63 31 64 36 65 32 66 33 67 35 68 37 69
REMARK SMILES IDX 34 70 56 71 57 72 62 73 58 74 59 75 61 76 63 77 60 78 44 79
REMARK SMILES IDX 45 80 50 81 46 82 47 83 49 84 51 85 48 86
REMARK H PARENT 14 4 78 21 78 22 78 23 18 29 68 48 42 59
REMARK Flexibility Score: inf
ROOT
ATOM      1  C   UNL A   1      33.701  29.226  26.889  1.00  0.00     0.229 C 
ATOM      2  O   UNL A   1      34.816  29.145  27.407  1.00  0.00    -0.274 OA
ATOM      3  N   UNL A   1      32.997  30.370  27.135  1.00  0.00    -0.355 N 
ATOM      4  H   UNL A   1      33.461  31.010  27.722  1.00  0.00     0.163 HD
ENDROOT
BRANCH   1   5
ATOM      5  C   UNL A   1      33.106  28.110  26.020  1.00  0.00     0.077 C 
ATOM      6  C   UNL A   1      31.769  27.683  26.652  1.00  0.00     0.025 C 
ATOM      7  C   UNL A   1      34.130  26.950  25.952  1.00  0.00     0.025 C 
BRANCH   5   8
ATOM      8  C   UNL A   1      32.990  28.592  24.527  1.00  0.00     0.245 C 
BRANCH   8   9
ATOM      9  O   UNL A   1      32.250  27.849  23.562  1.00  0.00    -0.492 OA
BRANCH   9  10
ATOM     10  C   UNL A   1      30.958  28.138  23.241  1.00  0.00     0.123 A 
ATOM     11  C   UNL A   1      28.479  29.353  22.854  1.00  0.00     0.119 A 
ATOM     12  C   UNL A   1      29.626  30.040  22.493  1.00  0.00     0.050 A 
ATOM     13  C   UNL A   1      28.552  28.023  23.268  1.00  0.00     0.054 A 
ATOM     14  C   UNL A   1      30.859  29.429  22.687  1.00  0.00     0.050 A 
ATOM     15  C   UNL A   1      29.795  27.377  23.459  1.00  0.00     0.003 A 
BRANCH  11  16
ATOM     16  O   UNL A   1      27.274  29.995  22.774  1.00  0.00    -0.497 OA
ATOM     17  C   UNL A   1      27.306  31.181  23.575  1.00  0.00     0.278 C 
ENDBRANCH  11  16
BRANCH  15  18
ATOM     18  C   UNL A   1      29.739  25.941  23.939  1.00  0.00     0.101 C 
BRANCH  18  19
ATOM     19  C   UNL A   1      30.770  24.989  23.325  1.00  0.00     0.263 C 
BRANCH  19  20
ATOM     20  N   UNL A   1      30.292  23.629  23.103  1.00  0.00    -0.357 N 
ATOM     21  H   UNL A   1      29.274  23.611  23.166  1.00  0.00     0.344 HD
ATOM     22  H   UNL A   1      30.687  23.010  23.811  1.00  0.00     0.344 HD
ATOM     23  H   UNL A   1      30.581  23.313  22.177  1.00  0.00     0.344 HD
ENDBRANCH  19  20
ENDBRANCH  18  19
ENDBRANCH  15  18
ENDBRANCH   9  10
ENDBRANCH   8   9
ENDBRANCH   5   8
ENDBRANCH   1   5
BRANCH   3  24
ATOM     24  C   UNL A   1      31.684  30.814  26.688  1.00  0.00     0.117 C 
BRANCH  24  25
ATOM     25  C   UNL A   1      31.504  32.307  26.832  1.00  0.00     0.042 C 
BRANCH  25  26
ATOM     26  C   UNL A   1      32.789  32.996  27.228  1.00  0.00     0.118 C 
BRANCH  26  27
ATOM     27  N   UNL A   1      32.561  34.367  27.679  1.00  0.00    -0.352 N 
ATOM     28  C   UNL A   1      33.106  35.024  28.756  1.00  0.00     0.251 C 
ATOM     29  H   UNL A   1      31.931  34.893  27.137  1.00  0.00     0.163 HD
ATOM     30  O   UNL A   1      32.641  36.089  29.145  1.00  0.00    -0.269 OA
BRANCH  28  31
ATOM     31  C   UNL A   1      34.251  34.404  29.443  1.00  0.00     0.039 A 
ATOM     32  C   UNL A   1      34.043  33.622  30.579  1.00  0.00     0.014 A 
ATOM     33  C   UNL A   1      35.527  34.552  28.899  1.00  0.00     0.014 A 
ATOM     34  C   UNL A   1      35.117  32.921  31.126  1.00  0.00     0.010 A 
ATOM     35  C   UNL A   1      36.557  33.754  29.359  1.00  0.00     0.010 A 
ATOM     36  C   UNL A   1      36.370  32.951  30.494  1.00  0.00    -0.014 A 
BRANCH  36  37
ATOM     37  C   UNL A   1      37.545  32.217  31.018  1.00  0.00     0.031 A 
ATOM     38  C   UNL A   1      38.220  32.730  32.261  1.00  0.00     0.074 A 
ATOM     39  C   UNL A   1      38.063  31.182  30.330  1.00  0.00     0.049 A 
ATOM     40  N   UNL A   1      39.365  32.384  32.785  1.00  0.00    -0.248 NA
ATOM     41  C   UNL A   1      37.538  33.824  32.976  1.00  0.00     0.031 C 
ATOM     42  C   UNL A   1      37.526  30.629  29.085  1.00  0.00     0.029 A 
ATOM     43  N   UNL A   1      39.178  30.423  30.577  1.00  0.00    -0.354 N 
ATOM     44  C   UNL A   1      39.559  33.246  33.858  1.00  0.00     0.074 A 
ATOM     45  C   UNL A   1      38.449  34.172  33.870  1.00  0.00     0.031 C 
ATOM     46  C   UNL A   1      38.297  29.602  28.692  1.00  0.00     0.029 A 
ATOM     47  C   UNL A   1      39.406  29.456  29.629  1.00  0.00     0.049 A 
ATOM     48  H   UNL A   1      39.760  30.559  31.359  1.00  0.00     0.167 HD
ATOM     49  C   UNL A   1      40.556  33.247  34.771  1.00  0.00     0.037 A 
ATOM     50  C   UNL A   1      40.405  28.558  29.531  1.00  0.00     0.037 A 
ATOM     51  C   UNL A   1      41.617  32.279  34.790  1.00  0.00     0.049 A 
ATOM     52  C   UNL A   1      41.482  28.550  30.581  1.00  0.00     0.074 A 
ATOM     53  C   UNL A   1      42.641  32.138  35.708  1.00  0.00     0.029 A 
ATOM     54  N   UNL A   1      41.775  31.272  33.849  1.00  0.00    -0.354 N 
ATOM     55  N   UNL A   1      41.630  29.339  31.618  1.00  0.00    -0.248 NA
ATOM     56  C   UNL A   1      42.527  27.525  30.452  1.00  0.00     0.031 C 
ATOM     57  C   UNL A   1      43.434  31.059  35.309  1.00  0.00     0.029 A 
ATOM     58  C   UNL A   1      42.882  30.506  34.164  1.00  0.00     0.049 A 
ATOM     59  H   UNL A   1      41.187  31.125  33.073  1.00  0.00     0.167 HD
ATOM     60  C   UNL A   1      42.759  28.885  32.284  1.00  0.00     0.074 A 
ATOM     61  C   UNL A   1      43.258  27.750  31.535  1.00  0.00     0.031 C 
ATOM     62  C   UNL A   1      43.335  29.362  33.416  1.00  0.00     0.037 A 
BRANCH  49  63
ATOM     63  C   UNL A   1      40.527  34.312  35.825  1.00  0.00     0.057 A 
ATOM     64  C   UNL A   1      41.202  35.531  35.665  1.00  0.00     0.134 A 
ATOM     65  C   UNL A   1      39.810  34.124  37.013  1.00  0.00     0.134 A 
ATOM     66  F   UNL A   1      41.924  35.767  34.558  1.00  0.00    -0.206 F 
ATOM     67  C   UNL A   1      41.193  36.509  36.660  1.00  0.00     0.040 A 
ATOM     68  C   UNL A   1      39.767  35.108  38.003  1.00  0.00     0.040 A 
ATOM     69  F   UNL A   1      39.139  32.983  37.231  1.00  0.00    -0.206 F 
ATOM     70  C   UNL A   1      40.468  36.301  37.832  1.00  0.00     0.006 A 
ENDBRANCH  49  63
BRANCH  50  71
ATOM     71  C   UNL A   1      40.414  27.571  28.424  1.00  0.00     0.057 A 
ATOM     72  C   UNL A   1      41.071  27.850  27.220  1.00  0.00     0.134 A 
ATOM     73  C   UNL A   1      39.772  26.332  28.535  1.00  0.00     0.134 A 
ATOM     74  F   UNL A   1      41.693  29.026  27.049  1.00  0.00    -0.206 F 
ATOM     75  C   UNL A   1      41.073  26.944  26.158  1.00  0.00     0.040 A 
ATOM     76  C   UNL A   1      39.784  25.407  27.489  1.00  0.00     0.040 A 
ATOM     77  F   UNL A   1      39.134  25.999  29.667  1.00  0.00    -0.206 F 
ATOM     78  C   UNL A   1      40.429  25.715  26.294  1.00  0.00     0.006 A 
ENDBRANCH  50  71
BRANCH  62  79
ATOM     79  C   UNL A   1      44.526  28.625  33.946  1.00  0.00     0.057 A 
ATOM     80  C   UNL A   1      45.834  29.012  33.630  1.00  0.00     0.134 A 
ATOM     81  C   UNL A   1      44.358  27.562  34.842  1.00  0.00     0.134 A 
ATOM     82  F   UNL A   1      46.058  30.016  32.769  1.00  0.00    -0.206 F 
ATOM     83  C   UNL A   1      46.936  28.357  34.181  1.00  0.00     0.040 A 
ATOM     84  C   UNL A   1      45.451  26.916  35.417  1.00  0.00     0.040 A 
ATOM     85  F   UNL A   1      43.129  27.153  35.190  1.00  0.00    -0.206 F 
ATOM     86  C   UNL A   1      46.745  27.312  35.084  1.00  0.00     0.006 A 
ENDBRANCH  62  79
ENDBRANCH  36  37
ENDBRANCH  28  31
ENDBRANCH  26  27
ENDBRANCH  25  26
ENDBRANCH  24  25
ENDBRANCH   3  24
TORSDOF 17
ENDMDL
MODEL 3
REMARK VINA RESULT:     -10.6      2.149      7.106
REMARK SMILES COc1ccc(OCC(C)(C)C(=O)NCCCNC(=O)c2ccc(-c3c4nc(c(-c5c(F)cccc5F)c5ccc([nH]5)c(-c5c(F)cccc5F)c5nc(c(-c6c(F)cccc6F)c6ccc3[nH]6)C=C5)C=C4)cc2)c(CC[NH3+])c1
REMARK SMILES IDX 12 1 13 2 14 3 9 5 10 6 11 7 8 8 7 9 6 10 3 11 4 12 79 13
REMARK SMILES IDX 5 14 75 15 2 16 1 17 76 18 77 19 78 20 15 24 16 25 17 26
REMARK SMILES IDX 18 27 19 28 20 30 21 31 22 32 74 33 23 34 73 35 24 36 25 37
REMARK SMILES IDX 26 38 67 39 27 40 72 41 66 42 68 43 28 44 71 45 65 46 64 47
REMARK SMILES IDX 29 49 55 50 38 51 54 52 39 53 42 54 53 55 69 56 40 57 41 58
REMARK SMILES IDX 52 60 70 61 43 62 30 63 31 64 36 65 32 66 33 67 35 68 37 69
REMARK SMILES IDX 34 70 56 71 57 72 62 73 58 74 59 75 61 76 63 77 60 78 44 79
REMARK SMILES IDX 45 80 50 81 46 82 47 83 49 84 51 85 48 86
REMARK H PARENT 14 4 78 21 78 22 78 23 18 29 68 48 42 59
REMARK Flexibility Score: inf
ROOT
ATOM      1  C   UNL A   1      33.717  21.685  24.760  1.00  0.00     0.229 C 
ATOM      2  O   UNL A   1      32.882  21.330  23.927  1.00  0.00    -0.274 OA
ATOM      3  N   UNL A   1      35.021  21.393  24.476  1.00  0.00    -0.355 N 
ATOM      4  H   UNL A   1      35.150  20.910  23.628  1.00  0.00     0.163 HD
ENDROOT
BRANCH   1   5
ATOM      5  C   UNL A   1      33.340  22.407  26.060  1.00  0.00     0.077 C 
ATOM      6  C   UNL A   1      33.880  21.572  27.236  1.00  0.00     0.025 C 
ATOM      7  C   UNL A   1      31.800  22.564  26.098  1.00  0.00     0.025 C 
BRANCH   5   8
ATOM      8  C   UNL A   1      33.865  23.890  26.027  1.00  0.00     0.245 C 
BRANCH   8   9
ATOM      9  O   UNL A   1      34.052  24.585  24.797  1.00  0.00    -0.492 OA
BRANCH   9  10
ATOM     10  C   UNL A   1      33.878  25.930  24.676  1.00  0.00     0.123 A 
ATOM     11  C   UNL A   1      33.157  28.601  25.017  1.00  0.00     0.119 A 
ATOM     12  C   UNL A   1      33.646  27.895  26.103  1.00  0.00     0.050 A 
ATOM     13  C   UNL A   1      33.160  28.032  23.743  1.00  0.00     0.054 A 
ATOM     14  C   UNL A   1      34.006  26.564  25.927  1.00  0.00     0.050 A 
ATOM     15  C   UNL A   1      33.535  26.685  23.539  1.00  0.00     0.003 A 
BRANCH  11  16
ATOM     16  O   UNL A   1      32.693  29.873  25.213  1.00  0.00    -0.497 OA
ATOM     17  C   UNL A   1      32.704  30.180  26.611  1.00  0.00     0.278 C 
ENDBRANCH  11  16
BRANCH  15  18
ATOM     18  C   UNL A   1      33.468  26.177  22.112  1.00  0.00     0.101 C 
BRANCH  18  19
ATOM     19  C   UNL A   1      32.067  26.065  21.506  1.00  0.00     0.263 C 
BRANCH  19  20
ATOM     20  N   UNL A   1      32.035  25.631  20.114  1.00  0.00    -0.357 N 
ATOM     21  H   UNL A   1      32.468  24.711  20.033  1.00  0.00     0.344 HD
ATOM     22  H   UNL A   1      32.547  26.299  19.537  1.00  0.00     0.344 HD
ATOM     23  H   UNL A   1      31.067  25.580  19.795  1.00  0.00     0.344 HD
ENDBRANCH  19  20
ENDBRANCH  18  19
ENDBRANCH  15  18
ENDBRANCH   9  10
ENDBRANCH   8   9
ENDBRANCH   5   8
ENDBRANCH   1   5
BRANCH   3  24
ATOM     24  C   UNL A   1      36.255  21.667  25.200  1.00  0.00     0.117 C 
BRANCH  24  25
ATOM     25  C   UNL A   1      37.320  20.630  24.931  1.00  0.00     0.042 C 
BRANCH  25  26
ATOM     26  C   UNL A   1      38.640  20.998  25.569  1.00  0.00     0.118 C 
BRANCH  26  27
ATOM     27  N   UNL A   1      39.545  19.854  25.656  1.00  0.00    -0.352 N 
ATOM     28  C   UNL A   1      40.879  19.832  25.983  1.00  0.00     0.251 C 
ATOM     29  H   UNL A   1      39.143  18.979  25.454  1.00  0.00     0.163 HD
ATOM     30  O   UNL A   1      41.559  18.832  25.785  1.00  0.00    -0.269 OA
BRANCH  28  31
ATOM     31  C   UNL A   1      41.475  21.047  26.561  1.00  0.00     0.039 A 
ATOM     32  C   UNL A   1      42.031  22.017  25.726  1.00  0.00     0.014 A 
ATOM     33  C   UNL A   1      41.408  21.244  27.941  1.00  0.00     0.014 A 
ATOM     34  C   UNL A   1      42.452  23.227  26.277  1.00  0.00     0.010 A 
ATOM     35  C   UNL A   1      41.700  22.489  28.463  1.00  0.00     0.010 A 
ATOM     36  C   UNL A   1      42.250  23.485  27.642  1.00  0.00    -0.014 A 
BRANCH  36  37
ATOM     37  C   UNL A   1      42.662  24.754  28.282  1.00  0.00     0.031 A 
ATOM     38  C   UNL A   1      41.622  25.818  28.507  1.00  0.00     0.074 A 
ATOM     39  C   UNL A   1      43.959  24.992  28.551  1.00  0.00     0.049 A 
ATOM     40  N   UNL A   1      41.777  27.068  28.857  1.00  0.00    -0.248 NA
ATOM     41  C   UNL A   1      40.223  25.438  28.243  1.00  0.00     0.031 C 
ATOM     42  C   UNL A   1      45.064  24.056  28.327  1.00  0.00     0.029 A 
ATOM     43  N   UNL A   1      44.570  26.112  29.054  1.00  0.00    -0.354 N 
ATOM     44  C   UNL A   1      40.506  27.627  28.809  1.00  0.00     0.074 A 
ATOM     45  C   UNL A   1      39.604  26.603  28.334  1.00  0.00     0.031 C 
ATOM     46  C   UNL A   1      46.213  24.632  28.717  1.00  0.00     0.029 A 
ATOM     47  C   UNL A   1      45.933  25.990  29.172  1.00  0.00     0.049 A 
ATOM     48  H   UNL A   1      44.079  26.926  29.306  1.00  0.00     0.167 HD
ATOM     49  C   UNL A   1      40.119  28.875  29.159  1.00  0.00     0.037 A 
ATOM     50  C   UNL A   1      46.849  26.881  29.595  1.00  0.00     0.037 A 
ATOM     51  C   UNL A   1      41.012  29.862  29.695  1.00  0.00     0.049 A 
ATOM     52  C   UNL A   1      46.391  28.249  30.020  1.00  0.00     0.074 A 
ATOM     53  C   UNL A   1      40.720  31.134  30.152  1.00  0.00     0.029 A 
ATOM     54  N   UNL A   1      42.377  29.676  29.862  1.00  0.00    -0.354 N 
ATOM     55  N   UNL A   1      45.180  28.753  30.016  1.00  0.00    -0.248 NA
ATOM     56  C   UNL A   1      47.423  29.172  30.512  1.00  0.00     0.031 C 
ATOM     57  C   UNL A   1      41.913  31.727  30.574  1.00  0.00     0.029 A 
ATOM     58  C   UNL A   1      42.941  30.811  30.414  1.00  0.00     0.049 A 
ATOM     59  H   UNL A   1      42.870  28.858  29.623  1.00  0.00     0.167 HD
ATOM     60  C   UNL A   1      45.298  30.033  30.538  1.00  0.00     0.074 A 
ATOM     61  C   UNL A   1      46.699  30.230  30.849  1.00  0.00     0.031 C 
ATOM     62  C   UNL A   1      44.335  30.965  30.743  1.00  0.00     0.037 A 
BRANCH  49  63
ATOM     63  C   UNL A   1      38.670  29.222  28.990  1.00  0.00     0.057 A 
ATOM     64  C   UNL A   1      38.141  29.603  27.749  1.00  0.00     0.134 A 
ATOM     65  C   UNL A   1      37.790  29.169  30.078  1.00  0.00     0.134 A 
ATOM     66  F   UNL A   1      38.934  29.693  26.671  1.00  0.00    -0.206 F 
ATOM     67  C   UNL A   1      36.797  29.949  27.603  1.00  0.00     0.040 A 
ATOM     68  C   UNL A   1      36.437  29.483  29.937  1.00  0.00     0.040 A 
ATOM     69  F   UNL A   1      38.229  28.810  31.294  1.00  0.00    -0.206 F 
ATOM     70  C   UNL A   1      35.939  29.883  28.699  1.00  0.00     0.006 A 
ENDBRANCH  49  63
BRANCH  50  71
ATOM     71  C   UNL A   1      48.280  26.498  29.676  1.00  0.00     0.057 A 
ATOM     72  C   UNL A   1      48.782  25.835  30.801  1.00  0.00     0.134 A 
ATOM     73  C   UNL A   1      49.179  26.783  28.642  1.00  0.00     0.134 A 
ATOM     74  F   UNL A   1      47.972  25.547  31.831  1.00  0.00    -0.206 F 
ATOM     75  C   UNL A   1      50.130  25.487  30.907  1.00  0.00     0.040 A 
ATOM     76  C   UNL A   1      50.525  26.421  28.724  1.00  0.00     0.040 A 
ATOM     77  F   UNL A   1      48.759  27.407  27.531  1.00  0.00    -0.206 F 
ATOM     78  C   UNL A   1      51.005  25.778  29.862  1.00  0.00     0.006 A 
ENDBRANCH  50  71
BRANCH  62  79
ATOM     79  C   UNL A   1      44.748  32.253  31.386  1.00  0.00     0.057 A 
ATOM     80  C   UNL A   1      45.125  33.368  30.629  1.00  0.00     0.134 A 
ATOM     81  C   UNL A   1      44.696  32.396  32.778  1.00  0.00     0.134 A 
ATOM     82  F   UNL A   1      45.205  33.289  29.292  1.00  0.00    -0.206 F 
ATOM     83  C   UNL A   1      45.448  34.582  31.238  1.00  0.00     0.040 A 
ATOM     84  C   UNL A   1      44.992  33.610  33.396  1.00  0.00     0.040 A 
ATOM     85  F   UNL A   1      44.331  31.365  33.555  1.00  0.00    -0.206 F 
ATOM     86  C   UNL A   1      45.371  34.707  32.625  1.00  0.00     0.006 A 
ENDBRANCH  62  79
ENDBRANCH  36  37
ENDBRANCH  28  31
ENDBRANCH  26  27
ENDBRANCH  25  26
ENDBRANCH  24  25
ENDBRANCH   3  24
TORSDOF 17
ENDMDL
