MODEL 1
REMARK VINA RESULT:     -10.4      0.000      0.000
REMARK SMILES C[C@@H](C(=O)NCCCNC(=O)c1ccc(-c2c3nc(c(-c4c(F)cccc4F)c4ccc([nH]4)c(-c4c(F)cccc4F)c4nc(c(-c5c(F)cccc5F)c5ccc2[nH]5)C=C4)C=C3)cc1)c1ccc(-c2ccccc2)c(F)c1
REMARK SMILES IDX 7 1 6 2 5 3 3 4 4 5 2 7 1 8 66 9 67 10 78 11 68 12 76 13
REMARK SMILES IDX 69 14 77 15 70 16 71 17 75 18 72 19 74 20 73 21 8 22 9 23
REMARK SMILES IDX 10 24 11 26 12 27 13 28 65 29 14 30 64 31 15 32 16 33 17 34
REMARK SMILES IDX 58 35 18 36 63 37 57 38 59 39 19 40 62 41 56 42 55 43 20 45
REMARK SMILES IDX 46 46 29 47 45 48 30 49 33 50 44 51 60 52 31 53 32 54 43 56
REMARK SMILES IDX 61 57 34 58 21 59 22 60 27 61 23 62 24 63 26 64 28 65 25 66
REMARK SMILES IDX 47 67 48 68 53 69 49 70 50 71 52 72 54 73 51 74 35 75 36 76
REMARK SMILES IDX 41 77 37 78 38 79 40 80 42 81 39 82
REMARK H PARENT 5 6 9 25 59 44 33 55
REMARK Flexibility Score: inf
ROOT
ATOM      1  C   UNL A   1      32.578  36.742  31.479  1.00  0.00     0.042 C 
ENDROOT
BRANCH   1   2
ATOM      2  C   UNL A   1      32.924  36.182  32.860  1.00  0.00     0.117 C 
BRANCH   2   3
ATOM      3  N   UNL A   1      32.823  34.733  32.883  1.00  0.00    -0.356 N 
ATOM      4  C   UNL A   1      33.752  33.786  33.210  1.00  0.00     0.227 C 
ATOM      5  O   UNL A   1      33.483  32.626  32.891  1.00  0.00    -0.274 OA
ATOM      6  H   UNL A   1      31.944  34.376  32.621  1.00  0.00     0.163 HD
BRANCH   4   7
ATOM      7  C   UNL A   1      35.045  34.192  33.944  1.00  0.00     0.105 C 
ATOM      8  C   UNL A   1      35.489  35.558  33.401  1.00  0.00     0.023 C 
BRANCH   7   9
ATOM      9  C   UNL A   1      36.171  33.148  33.885  1.00  0.00    -0.033 A 
ATOM     10  C   UNL A   1      37.333  33.270  34.665  1.00  0.00     0.005 A 
ATOM     11  C   UNL A   1      36.108  32.054  33.006  1.00  0.00     0.044 A 
ATOM     12  C   UNL A   1      38.332  32.285  34.647  1.00  0.00     0.012 A 
ATOM     13  C   UNL A   1      37.110  31.084  32.983  1.00  0.00     0.131 A 
ATOM     14  C   UNL A   1      38.229  31.160  33.817  1.00  0.00     0.017 A 
ATOM     15  F   UNL A   1      36.961  30.050  32.140  1.00  0.00    -0.206 F 
BRANCH  14  16
ATOM     16  C   UNL A   1      39.250  30.104  33.837  1.00  0.00    -0.015 A 
ATOM     17  C   UNL A   1      40.276  30.117  34.797  1.00  0.00     0.009 A 
ATOM     18  C   UNL A   1      39.223  29.050  32.911  1.00  0.00     0.009 A 
ATOM     19  C   UNL A   1      41.243  29.110  34.829  1.00  0.00     0.001 A 
ATOM     20  C   UNL A   1      40.192  28.044  32.939  1.00  0.00     0.001 A 
ATOM     21  C   UNL A   1      41.202  28.075  33.898  1.00  0.00     0.000 A 
ENDBRANCH  14  16
ENDBRANCH   7   9
ENDBRANCH   4   7
ENDBRANCH   2   3
ENDBRANCH   1   2
BRANCH   1  22
ATOM     22  C   UNL A   1      33.449  36.205  30.346  1.00  0.00     0.118 C 
BRANCH  22  23
ATOM     23  N   UNL A   1      32.679  35.483  29.344  1.00  0.00    -0.352 N 
ATOM     24  C   UNL A   1      33.050  34.439  28.535  1.00  0.00     0.251 C 
ATOM     25  H   UNL A   1      31.751  35.790  29.229  1.00  0.00     0.163 HD
ATOM     26  O   UNL A   1      32.316  34.092  27.612  1.00  0.00    -0.269 OA
BRANCH  24  27
ATOM     27  C   UNL A   1      34.342  33.749  28.744  1.00  0.00     0.039 A 
ATOM     28  C   UNL A   1      35.465  34.193  28.040  1.00  0.00     0.014 A 
ATOM     29  C   UNL A   1      34.451  32.668  29.623  1.00  0.00     0.014 A 
ATOM     30  C   UNL A   1      36.712  33.614  28.285  1.00  0.00     0.010 A 
ATOM     31  C   UNL A   1      35.706  32.137  29.916  1.00  0.00     0.010 A 
ATOM     32  C   UNL A   1      36.852  32.616  29.263  1.00  0.00    -0.014 A 
BRANCH  32  33
ATOM     33  C   UNL A   1      38.188  32.104  29.661  1.00  0.00     0.031 A 
ATOM     34  C   UNL A   1      38.669  30.764  29.175  1.00  0.00     0.074 A 
ATOM     35  C   UNL A   1      38.930  32.809  30.539  1.00  0.00     0.049 A 
ATOM     36  N   UNL A   1      39.750  30.105  29.509  1.00  0.00    -0.248 NA
ATOM     37  C   UNL A   1      37.815  30.062  28.205  1.00  0.00     0.031 C 
ATOM     38  C   UNL A   1      38.554  34.103  31.115  1.00  0.00     0.029 A 
ATOM     39  N   UNL A   1      40.140  32.528  31.125  1.00  0.00    -0.354 N 
ATOM     40  C   UNL A   1      39.695  28.906  28.810  1.00  0.00     0.074 A 
ATOM     41  C   UNL A   1      38.462  28.913  28.054  1.00  0.00     0.031 C 
ATOM     42  C   UNL A   1      39.515  34.503  31.965  1.00  0.00     0.029 A 
ATOM     43  C   UNL A   1      40.547  33.475  32.035  1.00  0.00     0.049 A 
ATOM     44  H   UNL A   1      40.667  31.724  30.912  1.00  0.00     0.167 HD
ATOM     45  C   UNL A   1      40.599  27.899  28.795  1.00  0.00     0.037 A 
ATOM     46  C   UNL A   1      41.613  33.500  32.857  1.00  0.00     0.037 A 
ATOM     47  C   UNL A   1      41.841  27.912  29.524  1.00  0.00     0.049 A 
ATOM     48  C   UNL A   1      42.582  32.349  32.838  1.00  0.00     0.074 A 
ATOM     49  C   UNL A   1      42.865  26.981  29.491  1.00  0.00     0.029 A 
ATOM     50  N   UNL A   1      42.220  28.892  30.426  1.00  0.00    -0.354 N 
ATOM     51  N   UNL A   1      42.568  31.269  32.094  1.00  0.00    -0.248 NA
ATOM     52  C   UNL A   1      43.714  32.415  33.774  1.00  0.00     0.031 C 
ATOM     53  C   UNL A   1      43.833  27.364  30.421  1.00  0.00     0.029 A 
ATOM     54  C   UNL A   1      43.440  28.563  30.993  1.00  0.00     0.049 A 
ATOM     55  H   UNL A   1      41.701  29.702  30.633  1.00  0.00     0.167 HD
ATOM     56  C   UNL A   1      43.695  30.542  32.456  1.00  0.00     0.074 A 
ATOM     57  C   UNL A   1      44.384  31.313  33.469  1.00  0.00     0.031 C 
ATOM     58  C   UNL A   1      44.119  29.342  31.995  1.00  0.00     0.037 A 
BRANCH  45  59
ATOM     59  C   UNL A   1      40.291  26.682  27.972  1.00  0.00     0.057 A 
ATOM     60  C   UNL A   1      40.853  26.481  26.707  1.00  0.00     0.134 A 
ATOM     61  C   UNL A   1      39.496  25.654  28.498  1.00  0.00     0.134 A 
ATOM     62  F   UNL A   1      41.619  27.428  26.144  1.00  0.00    -0.206 F 
ATOM     63  C   UNL A   1      40.629  25.305  25.988  1.00  0.00     0.040 A 
ATOM     64  C   UNL A   1      39.286  24.464  27.801  1.00  0.00     0.040 A 
ATOM     65  F   UNL A   1      38.935  25.780  29.710  1.00  0.00    -0.206 F 
ATOM     66  C   UNL A   1      39.853  24.288  26.540  1.00  0.00     0.006 A 
ENDBRANCH  45  59
BRANCH  46  67
ATOM     67  C   UNL A   1      41.815  34.634  33.797  1.00  0.00     0.057 A 
ATOM     68  C   UNL A   1      42.488  35.795  33.397  1.00  0.00     0.134 A 
ATOM     69  C   UNL A   1      41.384  34.568  35.127  1.00  0.00     0.134 A 
ATOM     70  F   UNL A   1      42.944  35.911  32.141  1.00  0.00    -0.206 F 
ATOM     71  C   UNL A   1      42.753  36.833  34.293  1.00  0.00     0.040 A 
ATOM     72  C   UNL A   1      41.615  35.610  36.026  1.00  0.00     0.040 A 
ATOM     73  F   UNL A   1      40.727  33.487  35.574  1.00  0.00    -0.206 F 
ATOM     74  C   UNL A   1      42.314  36.742  35.612  1.00  0.00     0.006 A 
ENDBRANCH  46  67
BRANCH  58  75
ATOM     75  C   UNL A   1      45.395  28.792  32.561  1.00  0.00     0.057 A 
ATOM     76  C   UNL A   1      45.404  27.983  33.704  1.00  0.00     0.134 A 
ATOM     77  C   UNL A   1      46.620  29.026  31.923  1.00  0.00     0.134 A 
ATOM     78  F   UNL A   1      44.267  27.734  34.371  1.00  0.00    -0.206 F 
ATOM     79  C   UNL A   1      46.589  27.436  34.200  1.00  0.00     0.040 A 
ATOM     80  C   UNL A   1      47.807  28.461  32.392  1.00  0.00     0.040 A 
ATOM     81  F   UNL A   1      46.680  29.786  30.819  1.00  0.00    -0.206 F 
ATOM     82  C   UNL A   1      47.792  27.666  33.536  1.00  0.00     0.006 A 
ENDBRANCH  58  75
ENDBRANCH  32  33
ENDBRANCH  24  27
ENDBRANCH  22  23
ENDBRANCH   1  22
TORSDOF 12
ENDMDL
MODEL 2
REMARK VINA RESULT:     -10.2      4.265      9.406
REMARK SMILES C[C@@H](C(=O)NCCCNC(=O)c1ccc(-c2c3nc(c(-c4c(F)cccc4F)c4ccc([nH]4)c(-c4c(F)cccc4F)c4nc(c(-c5c(F)cccc5F)c5ccc2[nH]5)C=C4)C=C3)cc1)c1ccc(-c2ccccc2)c(F)c1
REMARK SMILES IDX 7 1 6 2 5 3 3 4 4 5 2 7 1 8 66 9 67 10 78 11 68 12 76 13
REMARK SMILES IDX 69 14 77 15 70 16 71 17 75 18 72 19 74 20 73 21 8 22 9 23
REMARK SMILES IDX 10 24 11 26 12 27 13 28 65 29 14 30 64 31 15 32 16 33 17 34
REMARK SMILES IDX 58 35 18 36 63 37 57 38 59 39 19 40 62 41 56 42 55 43 20 45
REMARK SMILES IDX 46 46 29 47 45 48 30 49 33 50 44 51 60 52 31 53 32 54 43 56
REMARK SMILES IDX 61 57 34 58 21 59 22 60 27 61 23 62 24 63 26 64 28 65 25 66
REMARK SMILES IDX 47 67 48 68 53 69 49 70 50 71 52 72 54 73 51 74 35 75 36 76
REMARK SMILES IDX 41 77 37 78 38 79 40 80 42 81 39 82
REMARK H PARENT 5 6 9 25 59 44 33 55
REMARK Flexibility Score: inf
ROOT
ATOM      1  C   UNL A   1      33.200  28.203  27.239  1.00  0.00     0.042 C 
ENDROOT
BRANCH   1   2
ATOM      2  C   UNL A   1      31.768  28.405  26.742  1.00  0.00     0.117 C 
BRANCH   2   3
ATOM      3  N   UNL A   1      30.957  27.222  26.971  1.00  0.00    -0.356 N 
ATOM      4  C   UNL A   1      30.643  26.188  26.135  1.00  0.00     0.227 C 
ATOM      5  O   UNL A   1      29.725  25.451  26.501  1.00  0.00    -0.274 OA
ATOM      6  H   UNL A   1      30.571  27.155  27.874  1.00  0.00     0.163 HD
BRANCH   4   7
ATOM      7  C   UNL A   1      31.426  25.990  24.823  1.00  0.00     0.105 C 
ATOM      8  C   UNL A   1      30.463  25.403  23.780  1.00  0.00     0.023 C 
BRANCH   7   9
ATOM      9  C   UNL A   1      32.711  25.159  24.961  1.00  0.00    -0.033 A 
ATOM     10  C   UNL A   1      33.640  25.055  23.912  1.00  0.00     0.005 A 
ATOM     11  C   UNL A   1      32.983  24.424  26.126  1.00  0.00     0.044 A 
ATOM     12  C   UNL A   1      34.837  24.340  24.065  1.00  0.00     0.012 A 
ATOM     13  C   UNL A   1      34.169  23.703  26.268  1.00  0.00     0.131 A 
ATOM     14  C   UNL A   1      35.134  23.665  25.257  1.00  0.00     0.017 A 
ATOM     15  F   UNL A   1      34.373  23.054  27.426  1.00  0.00    -0.206 F 
BRANCH  14  16
ATOM     16  C   UNL A   1      36.410  22.959  25.435  1.00  0.00    -0.015 A 
ATOM     17  C   UNL A   1      36.552  21.622  25.025  1.00  0.00     0.009 A 
ATOM     18  C   UNL A   1      37.522  23.600  26.003  1.00  0.00     0.009 A 
ATOM     19  C   UNL A   1      37.767  20.949  25.180  1.00  0.00     0.001 A 
ATOM     20  C   UNL A   1      38.735  22.926  26.163  1.00  0.00     0.001 A 
ATOM     21  C   UNL A   1      38.856  21.601  25.751  1.00  0.00     0.000 A 
ENDBRANCH  14  16
ENDBRANCH   7   9
ENDBRANCH   4   7
ENDBRANCH   2   3
ENDBRANCH   1   2
BRANCH   1  22
ATOM     22  C   UNL A   1      34.172  29.305  26.826  1.00  0.00     0.118 C 
BRANCH  22  23
ATOM     23  N   UNL A   1      34.149  30.440  27.736  1.00  0.00    -0.352 N 
ATOM     24  C   UNL A   1      35.069  30.831  28.676  1.00  0.00     0.251 C 
ATOM     25  H   UNL A   1      33.354  31.016  27.667  1.00  0.00     0.163 HD
ATOM     26  O   UNL A   1      34.779  31.710  29.484  1.00  0.00    -0.269 OA
BRANCH  24  27
ATOM     27  C   UNL A   1      36.397  30.182  28.744  1.00  0.00     0.039 A 
ATOM     28  C   UNL A   1      37.232  30.237  27.625  1.00  0.00     0.014 A 
ATOM     29  C   UNL A   1      36.819  29.518  29.899  1.00  0.00     0.014 A 
ATOM     30  C   UNL A   1      38.523  29.707  27.694  1.00  0.00     0.010 A 
ATOM     31  C   UNL A   1      38.129  29.050  29.990  1.00  0.00     0.010 A 
ATOM     32  C   UNL A   1      38.999  29.155  28.894  1.00  0.00    -0.014 A 
BRANCH  32  33
ATOM     33  C   UNL A   1      40.418  28.738  29.045  1.00  0.00     0.031 A 
ATOM     34  C   UNL A   1      41.462  29.725  29.490  1.00  0.00     0.074 A 
ATOM     35  C   UNL A   1      40.779  27.489  28.686  1.00  0.00     0.049 A 
ATOM     36  N   UNL A   1      42.760  29.574  29.566  1.00  0.00    -0.248 NA
ATOM     37  C   UNL A   1      40.989  31.062  29.882  1.00  0.00     0.031 C 
ATOM     38  C   UNL A   1      39.866  26.452  28.199  1.00  0.00     0.029 A 
ATOM     39  N   UNL A   1      42.012  26.885  28.649  1.00  0.00    -0.354 N 
ATOM     40  C   UNL A   1      43.260  30.798  29.990  1.00  0.00     0.074 A 
ATOM     41  C   UNL A   1      42.131  31.692  30.130  1.00  0.00     0.031 C 
ATOM     42  C   UNL A   1      40.569  25.342  27.917  1.00  0.00     0.029 A 
ATOM     43  C   UNL A   1      41.984  25.603  28.153  1.00  0.00     0.049 A 
ATOM     44  H   UNL A   1      42.838  27.329  28.950  1.00  0.00     0.167 HD
ATOM     45  C   UNL A   1      44.544  31.138  30.249  1.00  0.00     0.037 A 
ATOM     46  C   UNL A   1      42.987  24.744  27.887  1.00  0.00     0.037 A 
ATOM     47  C   UNL A   1      45.661  30.236  30.140  1.00  0.00     0.049 A 
ATOM     48  C   UNL A   1      44.406  25.165  28.157  1.00  0.00     0.074 A 
ATOM     49  C   UNL A   1      46.984  30.463  30.478  1.00  0.00     0.029 A 
ATOM     50  N   UNL A   1      45.590  28.944  29.644  1.00  0.00    -0.354 N 
ATOM     51  N   UNL A   1      44.852  26.292  28.656  1.00  0.00    -0.248 NA
ATOM     52  C   UNL A   1      45.463  24.199  27.823  1.00  0.00     0.031 C 
ATOM     53  C   UNL A   1      47.725  29.332  30.126  1.00  0.00     0.029 A 
ATOM     54  C   UNL A   1      46.855  28.380  29.621  1.00  0.00     0.049 A 
ATOM     55  H   UNL A   1      44.765  28.494  29.353  1.00  0.00     0.167 HD
ATOM     56  C   UNL A   1      46.234  26.161  28.717  1.00  0.00     0.074 A 
ATOM     57  C   UNL A   1      46.551  24.837  28.226  1.00  0.00     0.031 C 
ATOM     58  C   UNL A   1      47.157  27.059  29.136  1.00  0.00     0.037 A 
BRANCH  45  59
ATOM     59  C   UNL A   1      44.833  32.550  30.671  1.00  0.00     0.057 A 
ATOM     60  C   UNL A   1      45.090  33.564  29.743  1.00  0.00     0.134 A 
ATOM     61  C   UNL A   1      44.753  32.914  32.023  1.00  0.00     0.134 A 
ATOM     62  F   UNL A   1      45.185  33.281  28.435  1.00  0.00    -0.206 F 
ATOM     63  C   UNL A   1      45.269  34.890  30.143  1.00  0.00     0.040 A 
ATOM     64  C   UNL A   1      44.904  34.240  32.432  1.00  0.00     0.040 A 
ATOM     65  F   UNL A   1      44.499  31.991  32.963  1.00  0.00    -0.206 F 
ATOM     66  C   UNL A   1      45.165  35.232  31.489  1.00  0.00     0.006 A 
ENDBRANCH  45  59
BRANCH  46  67
ATOM     67  C   UNL A   1      42.699  23.407  27.303  1.00  0.00     0.057 A 
ATOM     68  C   UNL A   1      42.385  22.313  28.118  1.00  0.00     0.134 A 
ATOM     69  C   UNL A   1      42.779  23.179  25.924  1.00  0.00     0.134 A 
ATOM     70  F   UNL A   1      42.314  22.462  29.449  1.00  0.00    -0.206 F 
ATOM     71  C   UNL A   1      42.192  21.036  27.587  1.00  0.00     0.040 A 
ATOM     72  C   UNL A   1      42.559  21.914  25.376  1.00  0.00     0.040 A 
ATOM     73  F   UNL A   1      43.070  24.184  25.085  1.00  0.00    -0.206 F 
ATOM     74  C   UNL A   1      42.278  20.835  26.211  1.00  0.00     0.006 A 
ENDBRANCH  46  67
BRANCH  58  75
ATOM     75  C   UNL A   1      48.597  26.638  29.105  1.00  0.00     0.057 A 
ATOM     76  C   UNL A   1      49.432  26.951  28.026  1.00  0.00     0.134 A 
ATOM     77  C   UNL A   1      49.170  25.966  30.193  1.00  0.00     0.134 A 
ATOM     78  F   UNL A   1      48.941  27.581  26.946  1.00  0.00    -0.206 F 
ATOM     79  C   UNL A   1      50.782  26.599  28.023  1.00  0.00     0.040 A 
ATOM     80  C   UNL A   1      50.525  25.634  30.214  1.00  0.00     0.040 A 
ATOM     81  F   UNL A   1      48.427  25.643  31.262  1.00  0.00    -0.206 F 
ATOM     82  C   UNL A   1      51.334  25.949  29.124  1.00  0.00     0.006 A 
ENDBRANCH  58  75
ENDBRANCH  32  33
ENDBRANCH  24  27
ENDBRANCH  22  23
ENDBRANCH   1  22
TORSDOF 12
ENDMDL
MODEL 3
REMARK VINA RESULT:      -9.9      3.705      6.506
REMARK SMILES C[C@@H](C(=O)NCCCNC(=O)c1ccc(-c2c3nc(c(-c4c(F)cccc4F)c4ccc([nH]4)c(-c4c(F)cccc4F)c4nc(c(-c5c(F)cccc5F)c5ccc2[nH]5)C=C4)C=C3)cc1)c1ccc(-c2ccccc2)c(F)c1
REMARK SMILES IDX 7 1 6 2 5 3 3 4 4 5 2 7 1 8 66 9 67 10 78 11 68 12 76 13
REMARK SMILES IDX 69 14 77 15 70 16 71 17 75 18 72 19 74 20 73 21 8 22 9 23
REMARK SMILES IDX 10 24 11 26 12 27 13 28 65 29 14 30 64 31 15 32 16 33 17 34
REMARK SMILES IDX 58 35 18 36 63 37 57 38 59 39 19 40 62 41 56 42 55 43 20 45
REMARK SMILES IDX 46 46 29 47 45 48 30 49 33 50 44 51 60 52 31 53 32 54 43 56
REMARK SMILES IDX 61 57 34 58 21 59 22 60 27 61 23 62 24 63 26 64 28 65 25 66
REMARK SMILES IDX 47 67 48 68 53 69 49 70 50 71 52 72 54 73 51 74 35 75 36 76
REMARK SMILES IDX 41 77 37 78 38 79 40 80 42 81 39 82
REMARK H PARENT 5 6 9 25 59 44 33 55
REMARK Flexibility Score: inf
ROOT
ATOM      1  C   UNL A   1      31.674  31.363  26.560  1.00  0.00     0.042 C 
ENDROOT
BRANCH   1   2
ATOM      2  C   UNL A   1      31.951  29.872  26.359  1.00  0.00     0.117 C 
BRANCH   2   3
ATOM      3  N   UNL A   1      31.326  29.377  25.145  1.00  0.00    -0.356 N 
ATOM      4  C   UNL A   1      31.879  28.799  24.037  1.00  0.00     0.227 C 
ATOM      5  O   UNL A   1      31.150  28.715  23.045  1.00  0.00    -0.274 OA
ATOM      6  H   UNL A   1      30.347  29.475  25.114  1.00  0.00     0.163 HD
BRANCH   4   7
ATOM      7  C   UNL A   1      33.332  28.289  24.074  1.00  0.00     0.105 C 
ATOM      8  C   UNL A   1      34.064  28.850  22.846  1.00  0.00     0.023 C 
BRANCH   7   9
ATOM      9  C   UNL A   1      33.474  26.763  24.190  1.00  0.00    -0.033 A 
ATOM     10  C   UNL A   1      33.598  26.125  25.435  1.00  0.00     0.005 A 
ATOM     11  C   UNL A   1      33.540  25.948  23.049  1.00  0.00     0.044 A 
ATOM     12  C   UNL A   1      33.672  24.728  25.536  1.00  0.00     0.012 A 
ATOM     13  C   UNL A   1      33.627  24.559  23.154  1.00  0.00     0.131 A 
ATOM     14  C   UNL A   1      33.667  23.915  24.394  1.00  0.00     0.017 A 
ATOM     15  F   UNL A   1      33.650  23.845  22.017  1.00  0.00    -0.206 F 
BRANCH  14  16
ATOM     16  C   UNL A   1      33.693  22.451  24.502  1.00  0.00    -0.015 A 
ATOM     17  C   UNL A   1      32.552  21.690  24.191  1.00  0.00     0.009 A 
ATOM     18  C   UNL A   1      34.853  21.771  24.903  1.00  0.00     0.009 A 
ATOM     19  C   UNL A   1      32.573  20.296  24.281  1.00  0.00     0.001 A 
ATOM     20  C   UNL A   1      34.874  20.378  24.997  1.00  0.00     0.001 A 
ATOM     21  C   UNL A   1      33.733  19.641  24.686  1.00  0.00     0.000 A 
ENDBRANCH  14  16
ENDBRANCH   7   9
ENDBRANCH   4   7
ENDBRANCH   2   3
ENDBRANCH   1   2
BRANCH   1  22
ATOM     22  C   UNL A   1      32.885  32.172  27.018  1.00  0.00     0.118 C 
BRANCH  22  23
ATOM     23  N   UNL A   1      32.527  33.510  27.463  1.00  0.00    -0.352 N 
ATOM     24  C   UNL A   1      33.100  34.297  28.430  1.00  0.00     0.251 C 
ATOM     25  H   UNL A   1      31.758  33.913  26.999  1.00  0.00     0.163 HD
ATOM     26  O   UNL A   1      32.531  35.324  28.796  1.00  0.00    -0.269 OA
BRANCH  24  27
ATOM     27  C   UNL A   1      34.379  33.904  29.059  1.00  0.00     0.039 A 
ATOM     28  C   UNL A   1      34.349  33.128  30.221  1.00  0.00     0.014 A 
ATOM     29  C   UNL A   1      35.604  34.296  28.513  1.00  0.00     0.014 A 
ATOM     30  C   UNL A   1      35.543  32.671  30.784  1.00  0.00     0.010 A 
ATOM     31  C   UNL A   1      36.792  33.785  29.036  1.00  0.00     0.010 A 
ATOM     32  C   UNL A   1      36.772  32.953  30.166  1.00  0.00    -0.014 A 
BRANCH  32  33
ATOM     33  C   UNL A   1      38.038  32.342  30.647  1.00  0.00     0.031 A 
ATOM     34  C   UNL A   1      38.571  31.087  30.012  1.00  0.00     0.074 A 
ATOM     35  C   UNL A   1      38.658  32.870  31.722  1.00  0.00     0.049 A 
ATOM     36  N   UNL A   1      39.592  30.351  30.371  1.00  0.00    -0.248 NA
ATOM     37  C   UNL A   1      37.852  30.581  28.832  1.00  0.00     0.031 C 
ATOM     38  C   UNL A   1      38.216  34.062  32.452  1.00  0.00     0.029 A 
ATOM     39  N   UNL A   1      39.775  32.460  32.408  1.00  0.00    -0.354 N 
ATOM     40  C   UNL A   1      39.625  29.286  29.480  1.00  0.00     0.074 A 
ATOM     41  C   UNL A   1      38.506  29.455  28.578  1.00  0.00     0.031 C 
ATOM     42  C   UNL A   1      39.054  34.287  33.477  1.00  0.00     0.029 A 
ATOM     43  C   UNL A   1      40.060  33.232  33.510  1.00  0.00     0.049 A 
ATOM     44  H   UNL A   1      40.320  31.687  32.135  1.00  0.00     0.167 HD
ATOM     45  C   UNL A   1      40.515  28.269  29.417  1.00  0.00     0.037 A 
ATOM     46  C   UNL A   1      41.005  33.088  34.460  1.00  0.00     0.037 A 
ATOM     47  C   UNL A   1      41.646  28.124  30.296  1.00  0.00     0.049 A 
ATOM     48  C   UNL A   1      41.959  31.928  34.376  1.00  0.00     0.074 A 
ATOM     49  C   UNL A   1      42.658  27.182  30.243  1.00  0.00     0.029 A 
ATOM     50  N   UNL A   1      41.905  28.930  31.392  1.00  0.00    -0.354 N 
ATOM     51  N   UNL A   1      42.039  30.987  33.467  1.00  0.00    -0.248 NA
ATOM     52  C   UNL A   1      42.953  31.805  35.453  1.00  0.00     0.031 C 
ATOM     53  C   UNL A   1      43.494  27.377  31.346  1.00  0.00     0.029 A 
ATOM     54  C   UNL A   1      43.035  28.476  32.053  1.00  0.00     0.049 A 
ATOM     55  H   UNL A   1      41.368  29.710  31.661  1.00  0.00     0.167 HD
ATOM     56  C   UNL A   1      43.102  30.178  33.848  1.00  0.00     0.074 A 
ATOM     57  C   UNL A   1      43.651  30.750  35.059  1.00  0.00     0.031 C 
ATOM     58  C   UNL A   1      43.576  29.058  33.253  1.00  0.00     0.037 A 
BRANCH  45  59
ATOM     59  C   UNL A   1      40.313  27.215  28.367  1.00  0.00     0.057 A 
ATOM     60  C   UNL A   1      40.955  27.273  27.125  1.00  0.00     0.134 A 
ATOM     61  C   UNL A   1      39.543  26.078  28.645  1.00  0.00     0.134 A 
ATOM     62  F   UNL A   1      41.703  28.337  26.794  1.00  0.00    -0.206 F 
ATOM     63  C   UNL A   1      40.830  26.243  26.191  1.00  0.00     0.040 A 
ATOM     64  C   UNL A   1      39.431  25.030  27.730  1.00  0.00     0.040 A 
ATOM     65  F   UNL A   1      38.909  25.956  29.821  1.00  0.00    -0.206 F 
ATOM     66  C   UNL A   1      40.075  25.112  26.497  1.00  0.00     0.006 A 
ENDBRANCH  45  59
BRANCH  46  67
ATOM     67  C   UNL A   1      41.084  34.045  35.595  1.00  0.00     0.057 A 
ATOM     68  C   UNL A   1      40.378  33.821  36.782  1.00  0.00     0.134 A 
ATOM     69  C   UNL A   1      41.826  35.229  35.502  1.00  0.00     0.134 A 
ATOM     70  F   UNL A   1      39.632  32.716  36.925  1.00  0.00    -0.206 F 
ATOM     71  C   UNL A   1      40.381  34.752  37.823  1.00  0.00     0.040 A 
ATOM     72  C   UNL A   1      41.863  36.155  36.546  1.00  0.00     0.040 A 
ATOM     73  F   UNL A   1      42.531  35.503  34.394  1.00  0.00    -0.206 F 
ATOM     74  C   UNL A   1      41.128  35.923  37.706  1.00  0.00     0.006 A 
ENDBRANCH  46  67
BRANCH  58  75
ATOM     75  C   UNL A   1      44.759  28.385  33.884  1.00  0.00     0.057 A 
ATOM     76  C   UNL A   1      46.071  28.775  33.590  1.00  0.00     0.134 A 
ATOM     77  C   UNL A   1      44.582  27.377  34.842  1.00  0.00     0.134 A 
ATOM     78  F   UNL A   1      46.309  29.723  32.670  1.00  0.00    -0.206 F 
ATOM     79  C   UNL A   1      47.167  28.178  34.215  1.00  0.00     0.040 A 
ATOM     80  C   UNL A   1      45.668  26.793  35.495  1.00  0.00     0.040 A 
ATOM     81  F   UNL A   1      43.351  26.963  35.176  1.00  0.00    -0.206 F 
ATOM     82  C   UNL A   1      46.965  27.192  35.179  1.00  0.00     0.006 A 
ENDBRANCH  58  75
ENDBRANCH  32  33
ENDBRANCH  24  27
ENDBRANCH  22  23
ENDBRANCH   1  22
TORSDOF 12
ENDMDL
