MODEL 1
REMARK VINA RESULT:     -13.8      0.000      0.000
REMARK SMILES CC(C)CCn1nc(C(=O)NCCCNC(=O)c2ccc(-c3c4nc(c(-c5c(F)cccc5F)c5ccc([nH]5)c(-c5c(F)cccc5F)c5nc(c(-c6c(F)cccc6F)c6ccc3[nH]6)C=C5)C=C4)cc2)c2c1CCN(C(=O)[C@@H]1CCc3nn(C)c(=O)n3C1)C2
REMARK SMILES IDX 12 1 11 2 9 3 10 4 8 6 6 7 7 8 73 9 72 10 74 11 90 12 75 13
REMARK SMILES IDX 76 14 5 15 4 16 2 17 1 18 3 19 77 20 78 21 79 22 80 23 89 24
REMARK SMILES IDX 81 25 88 26 82 27 86 28 83 29 84 30 87 31 85 32 13 33 14 34
REMARK SMILES IDX 15 35 16 36 17 38 18 39 19 40 71 41 20 42 70 43 21 44 22 45
REMARK SMILES IDX 23 46 64 47 24 48 69 49 63 50 65 51 25 52 68 53 62 54 61 55
REMARK SMILES IDX 26 57 52 58 35 59 51 60 36 61 39 62 50 63 66 64 37 65 38 66
REMARK SMILES IDX 49 68 67 69 40 70 27 71 28 72 33 73 29 74 30 75 32 76 34 77
REMARK SMILES IDX 31 78 53 79 54 80 59 81 55 82 56 83 58 84 60 85 57 86 41 87
REMARK SMILES IDX 42 88 47 89 43 90 44 91 46 92 48 93 45 94
REMARK H PARENT 11 5 15 37 65 56 39 67
REMARK Flexibility Score: inf
ROOT
ATOM      1  C   UNL A   1      33.172  29.942  26.076  1.00  0.00     0.118 C 
ENDROOT
BRANCH   1   2
ATOM      2  N   UNL A   1      33.669  29.474  24.780  1.00  0.00    -0.351 N 
ATOM      3  C   UNL A   1      33.085  29.009  23.609  1.00  0.00     0.272 C 
ATOM      4  O   UNL A   1      33.858  28.950  22.648  1.00  0.00    -0.267 OA
ATOM      5  H   UNL A   1      34.651  29.494  24.727  1.00  0.00     0.163 HD
BRANCH   3   6
ATOM      6  C   UNL A   1      31.656  28.611  23.477  1.00  0.00     0.155 A 
ATOM      7  N   UNL A   1      29.549  28.837  23.005  1.00  0.00    -0.268 N 
ATOM      8  N   UNL A   1      30.726  29.510  23.074  1.00  0.00    -0.167 NA
ATOM      9  C   UNL A   1      29.664  27.596  23.547  1.00  0.00     0.046 A 
ATOM     10  C   UNL A   1      31.016  27.356  23.623  1.00  0.00     0.026 A 
ATOM     11  C   UNL A   1      28.669  26.583  23.973  1.00  0.00     0.078 C 
ATOM     12  C   UNL A   1      31.555  26.029  23.943  1.00  0.00     0.159 C 
ATOM     13  C   UNL A   1      29.389  25.584  24.890  1.00  0.00     0.126 C 
ATOM     14  N   UNL A   1      30.559  25.014  24.239  1.00  0.00    -0.338 N 
BRANCH   7  15
ATOM     15  C   UNL A   1      28.472  29.458  22.245  1.00  0.00     0.145 C 
BRANCH  15  16
ATOM     16  C   UNL A   1      27.958  30.836  22.684  1.00  0.00     0.027 C 
BRANCH  16  17
ATOM     17  C   UNL A   1      28.639  32.018  21.971  1.00  0.00    -0.016 C 
ATOM     18  C   UNL A   1      27.924  32.447  20.696  1.00  0.00     0.007 C 
ATOM     19  C   UNL A   1      28.796  33.200  22.932  1.00  0.00     0.007 C 
ENDBRANCH  16  17
ENDBRANCH  15  16
ENDBRANCH   7  15
BRANCH  14  20
ATOM     20  C   UNL A   1      31.018  23.710  24.245  1.00  0.00     0.227 C 
ATOM     21  O   UNL A   1      31.360  23.188  23.172  1.00  0.00    -0.274 OA
BRANCH  20  22
ATOM     22  C   UNL A   1      31.091  22.815  25.490  1.00  0.00     0.099 C 
ATOM     23  C   UNL A   1      31.563  23.533  26.756  1.00  0.00     0.023 C 
ATOM     24  C   UNL A   1      31.716  21.438  25.321  1.00  0.00     0.142 C 
ATOM     25  C   UNL A   1      33.073  23.568  26.933  1.00  0.00     0.078 C 
ATOM     26  N   UNL A   1      33.094  21.387  25.750  1.00  0.00    -0.278 N 
ATOM     27  C   UNL A   1      33.770  22.341  26.423  1.00  0.00     0.133 A 
ATOM     28  C   UNL A   1      34.042  20.556  25.204  1.00  0.00     0.345 A 
ATOM     29  N   UNL A   1      35.066  22.212  26.397  1.00  0.00    -0.155 NA
ATOM     30  N   UNL A   1      35.266  21.086  25.623  1.00  0.00    -0.216 N 
ATOM     31  O   UNL A   1      33.855  19.657  24.400  1.00  0.00    -0.246 OA
ATOM     32  C   UNL A   1      36.538  20.774  25.027  1.00  0.00     0.179 C 
ENDBRANCH  20  22
ENDBRANCH  14  20
ENDBRANCH   3   6
ENDBRANCH   1   2
BRANCH   1  33
ATOM     33  C   UNL A   1      33.732  29.135  27.264  1.00  0.00     0.042 C 
BRANCH  33  34
ATOM     34  C   UNL A   1      35.193  29.251  27.566  1.00  0.00     0.118 C 
BRANCH  34  35
ATOM     35  N   UNL A   1      35.445  29.959  28.823  1.00  0.00    -0.352 N 
ATOM     36  C   UNL A   1      36.500  29.738  29.692  1.00  0.00     0.251 C 
ATOM     37  H   UNL A   1      34.802  30.660  29.073  1.00  0.00     0.163 HD
ATOM     38  O   UNL A   1      36.430  30.031  30.869  1.00  0.00    -0.269 OA
BRANCH  36  39
ATOM     39  C   UNL A   1      37.704  29.103  29.128  1.00  0.00     0.039 A 
ATOM     40  C   UNL A   1      38.347  29.626  28.008  1.00  0.00     0.014 A 
ATOM     41  C   UNL A   1      38.255  28.052  29.850  1.00  0.00     0.014 A 
ATOM     42  C   UNL A   1      39.612  29.141  27.692  1.00  0.00     0.010 A 
ATOM     43  C   UNL A   1      39.581  27.765  29.690  1.00  0.00     0.010 A 
ATOM     44  C   UNL A   1      40.244  28.239  28.568  1.00  0.00    -0.014 A 
BRANCH  44  45
ATOM     45  C   UNL A   1      41.644  27.872  28.393  1.00  0.00     0.031 A 
ATOM     46  C   UNL A   1      41.837  26.602  27.649  1.00  0.00     0.074 A 
ATOM     47  C   UNL A   1      42.672  28.690  28.707  1.00  0.00     0.049 A 
ATOM     48  N   UNL A   1      42.185  25.460  28.139  1.00  0.00    -0.248 NA
ATOM     49  C   UNL A   1      41.414  26.536  26.240  1.00  0.00     0.031 C 
ATOM     50  C   UNL A   1      42.614  30.093  29.146  1.00  0.00     0.029 A 
ATOM     51  N   UNL A   1      44.015  28.469  28.612  1.00  0.00    -0.354 N 
ATOM     52  C   UNL A   1      42.276  24.593  27.054  1.00  0.00     0.074 A 
ATOM     53  C   UNL A   1      41.578  25.237  25.975  1.00  0.00     0.031 C 
ATOM     54  C   UNL A   1      43.836  30.656  29.048  1.00  0.00     0.029 A 
ATOM     55  C   UNL A   1      44.794  29.615  28.737  1.00  0.00     0.049 A 
ATOM     56  H   UNL A   1      44.399  27.575  28.466  1.00  0.00     0.167 HD
ATOM     57  C   UNL A   1      43.184  23.578  27.070  1.00  0.00     0.037 A 
ATOM     58  C   UNL A   1      46.140  29.706  28.609  1.00  0.00     0.037 A 
ATOM     59  C   UNL A   1      43.697  23.397  28.410  1.00  0.00     0.049 A 
ATOM     60  C   UNL A   1      46.684  28.347  28.810  1.00  0.00     0.074 A 
ATOM     61  C   UNL A   1      43.195  22.976  29.622  1.00  0.00     0.029 A 
ATOM     62  N   UNL A   1      44.848  24.097  28.666  1.00  0.00    -0.354 N 
ATOM     63  N   UNL A   1      46.665  27.722  29.953  1.00  0.00    -0.248 NA
ATOM     64  C   UNL A   1      46.929  27.509  27.644  1.00  0.00     0.031 C 
ATOM     65  C   UNL A   1      43.937  23.688  30.613  1.00  0.00     0.029 A 
ATOM     66  C   UNL A   1      44.903  24.471  29.980  1.00  0.00     0.049 A 
ATOM     67  H   UNL A   1      45.540  24.302  27.997  1.00  0.00     0.167 HD
ATOM     68  C   UNL A   1      46.442  26.400  29.618  1.00  0.00     0.074 A 
ATOM     69  C   UNL A   1      46.797  26.305  28.206  1.00  0.00     0.031 C 
ATOM     70  C   UNL A   1      45.691  25.599  30.430  1.00  0.00     0.037 A 
BRANCH  57  71
ATOM     71  C   UNL A   1      43.994  23.112  25.869  1.00  0.00     0.057 A 
ATOM     72  C   UNL A   1      44.088  21.725  25.623  1.00  0.00     0.134 A 
ATOM     73  C   UNL A   1      44.924  23.896  25.157  1.00  0.00     0.134 A 
ATOM     74  F   UNL A   1      43.259  20.859  26.225  1.00  0.00    -0.206 F 
ATOM     75  C   UNL A   1      45.093  21.162  24.825  1.00  0.00     0.040 A 
ATOM     76  C   UNL A   1      45.904  23.346  24.322  1.00  0.00     0.040 A 
ATOM     77  F   UNL A   1      45.011  25.222  25.291  1.00  0.00    -0.206 F 
ATOM     78  C   UNL A   1      46.017  21.974  24.182  1.00  0.00     0.006 A 
ENDBRANCH  57  71
BRANCH  58  79
ATOM     79  C   UNL A   1      46.983  30.832  28.154  1.00  0.00     0.057 A 
ATOM     80  C   UNL A   1      46.734  31.476  26.934  1.00  0.00     0.134 A 
ATOM     81  C   UNL A   1      47.860  31.490  29.033  1.00  0.00     0.134 A 
ATOM     82  F   UNL A   1      45.892  30.938  26.039  1.00  0.00    -0.206 F 
ATOM     83  C   UNL A   1      47.283  32.727  26.623  1.00  0.00     0.040 A 
ATOM     84  C   UNL A   1      48.419  32.737  28.734  1.00  0.00     0.040 A 
ATOM     85  F   UNL A   1      48.126  30.989  30.248  1.00  0.00    -0.206 F 
ATOM     86  C   UNL A   1      48.116  33.369  27.533  1.00  0.00     0.006 A 
ENDBRANCH  58  79
BRANCH  70  87
ATOM     87  C   UNL A   1      45.532  26.022  31.861  1.00  0.00     0.057 A 
ATOM     88  C   UNL A   1      46.504  25.865  32.860  1.00  0.00     0.134 A 
ATOM     89  C   UNL A   1      44.369  26.717  32.213  1.00  0.00     0.134 A 
ATOM     90  F   UNL A   1      47.682  25.283  32.601  1.00  0.00    -0.206 F 
ATOM     91  C   UNL A   1      46.307  26.347  34.158  1.00  0.00     0.040 A 
ATOM     92  C   UNL A   1      44.176  27.236  33.494  1.00  0.00     0.040 A 
ATOM     93  F   UNL A   1      43.413  26.941  31.297  1.00  0.00    -0.206 F 
ATOM     94  C   UNL A   1      45.143  27.042  34.476  1.00  0.00     0.006 A 
ENDBRANCH  70  87
ENDBRANCH  44  45
ENDBRANCH  36  39
ENDBRANCH  34  35
ENDBRANCH  33  34
ENDBRANCH   1  33
TORSDOF 15
ENDMDL
MODEL 2
REMARK VINA RESULT:     -13.7      2.525      8.373
REMARK SMILES CC(C)CCn1nc(C(=O)NCCCNC(=O)c2ccc(-c3c4nc(c(-c5c(F)cccc5F)c5ccc([nH]5)c(-c5c(F)cccc5F)c5nc(c(-c6c(F)cccc6F)c6ccc3[nH]6)C=C5)C=C4)cc2)c2c1CCN(C(=O)[C@@H]1CCc3nn(C)c(=O)n3C1)C2
REMARK SMILES IDX 12 1 11 2 9 3 10 4 8 6 6 7 7 8 73 9 72 10 74 11 90 12 75 13
REMARK SMILES IDX 76 14 5 15 4 16 2 17 1 18 3 19 77 20 78 21 79 22 80 23 89 24
REMARK SMILES IDX 81 25 88 26 82 27 86 28 83 29 84 30 87 31 85 32 13 33 14 34
REMARK SMILES IDX 15 35 16 36 17 38 18 39 19 40 71 41 20 42 70 43 21 44 22 45
REMARK SMILES IDX 23 46 64 47 24 48 69 49 63 50 65 51 25 52 68 53 62 54 61 55
REMARK SMILES IDX 26 57 52 58 35 59 51 60 36 61 39 62 50 63 66 64 37 65 38 66
REMARK SMILES IDX 49 68 67 69 40 70 27 71 28 72 33 73 29 74 30 75 32 76 34 77
REMARK SMILES IDX 31 78 53 79 54 80 59 81 55 82 56 83 58 84 60 85 57 86 41 87
REMARK SMILES IDX 42 88 47 89 43 90 44 91 46 92 48 93 45 94
REMARK H PARENT 11 5 15 37 65 56 39 67
REMARK Flexibility Score: inf
ROOT
ATOM      1  C   UNL A   1      37.322  21.752  24.929  1.00  0.00     0.118 C 
ENDROOT
BRANCH   1   2
ATOM      2  N   UNL A   1      36.373  21.919  26.032  1.00  0.00    -0.351 N 
ATOM      3  C   UNL A   1      35.058  21.540  26.269  1.00  0.00     0.272 C 
ATOM      4  O   UNL A   1      34.700  21.665  27.444  1.00  0.00    -0.267 OA
ATOM      5  H   UNL A   1      36.760  22.419  26.786  1.00  0.00     0.163 HD
BRANCH   3   6
ATOM      6  C   UNL A   1      34.128  21.019  25.229  1.00  0.00     0.155 A 
ATOM      7  N   UNL A   1      33.054  19.533  24.065  1.00  0.00    -0.268 N 
ATOM      8  N   UNL A   1      34.000  19.684  25.028  1.00  0.00    -0.167 NA
ATOM      9  C   UNL A   1      32.731  20.729  23.507  1.00  0.00     0.046 A 
ATOM     10  C   UNL A   1      33.208  21.680  24.379  1.00  0.00     0.026 A 
ATOM     11  C   UNL A   1      31.996  21.104  22.274  1.00  0.00     0.078 C 
ATOM     12  C   UNL A   1      32.860  23.099  24.252  1.00  0.00     0.159 C 
ATOM     13  C   UNL A   1      32.328  22.570  21.966  1.00  0.00     0.126 C 
ATOM     14  N   UNL A   1      32.036  23.431  23.102  1.00  0.00    -0.338 N 
BRANCH   7  15
ATOM     15  C   UNL A   1      32.455  18.213  23.925  1.00  0.00     0.145 C 
BRANCH  15  16
ATOM     16  C   UNL A   1      33.339  17.045  23.467  1.00  0.00     0.027 C 
BRANCH  16  17
ATOM     17  C   UNL A   1      33.600  15.989  24.556  1.00  0.00    -0.016 C 
ATOM     18  C   UNL A   1      35.006  16.055  25.138  1.00  0.00     0.007 C 
ATOM     19  C   UNL A   1      32.546  16.093  25.661  1.00  0.00     0.007 C 
ENDBRANCH  16  17
ENDBRANCH  15  16
ENDBRANCH   7  15
BRANCH  14  20
ATOM     20  C   UNL A   1      31.453  24.684  23.126  1.00  0.00     0.227 C 
ATOM     21  O   UNL A   1      30.539  24.908  23.937  1.00  0.00    -0.274 OA
BRANCH  20  22
ATOM     22  C   UNL A   1      31.815  25.834  22.176  1.00  0.00     0.099 C 
ATOM     23  C   UNL A   1      33.316  26.093  22.042  1.00  0.00     0.023 C 
ATOM     24  C   UNL A   1      31.000  27.114  22.292  1.00  0.00     0.142 C 
ATOM     25  C   UNL A   1      33.887  27.038  23.087  1.00  0.00     0.078 C 
ATOM     26  N   UNL A   1      31.663  28.137  23.067  1.00  0.00    -0.278 N 
ATOM     27  C   UNL A   1      32.940  28.126  23.502  1.00  0.00     0.133 A 
ATOM     28  C   UNL A   1      31.008  29.082  23.819  1.00  0.00     0.345 A 
ATOM     29  N   UNL A   1      33.201  28.981  24.449  1.00  0.00    -0.155 NA
ATOM     30  N   UNL A   1      31.987  29.599  24.674  1.00  0.00    -0.216 N 
ATOM     31  O   UNL A   1      29.807  29.297  23.845  1.00  0.00    -0.246 OA
ATOM     32  C   UNL A   1      31.712  30.351  25.869  1.00  0.00     0.179 C 
ENDBRANCH  20  22
ENDBRANCH  14  20
ENDBRANCH   3   6
ENDBRANCH   1   2
BRANCH   1  33
ATOM     33  C   UNL A   1      38.214  20.506  25.084  1.00  0.00     0.042 C 
BRANCH  33  34
ATOM     34  C   UNL A   1      39.274  20.527  26.141  1.00  0.00     0.118 C 
BRANCH  34  35
ATOM     35  N   UNL A   1      40.312  19.521  25.905  1.00  0.00    -0.352 N 
ATOM     36  C   UNL A   1      41.675  19.752  25.813  1.00  0.00     0.251 C 
ATOM     37  H   UNL A   1      40.011  18.589  25.802  1.00  0.00     0.163 HD
ATOM     38  O   UNL A   1      42.412  18.994  25.216  1.00  0.00    -0.269 OA
BRANCH  36  39
ATOM     39  C   UNL A   1      42.184  20.978  26.452  1.00  0.00     0.039 A 
ATOM     40  C   UNL A   1      42.455  22.127  25.711  1.00  0.00     0.014 A 
ATOM     41  C   UNL A   1      42.239  20.987  27.839  1.00  0.00     0.014 A 
ATOM     42  C   UNL A   1      42.675  23.315  26.401  1.00  0.00     0.010 A 
ATOM     43  C   UNL A   1      42.203  22.185  28.494  1.00  0.00     0.010 A 
ATOM     44  C   UNL A   1      42.502  23.345  27.796  1.00  0.00    -0.014 A 
BRANCH  44  45
ATOM     45  C   UNL A   1      42.510  24.604  28.531  1.00  0.00     0.031 A 
ATOM     46  C   UNL A   1      41.325  25.457  28.264  1.00  0.00     0.074 A 
ATOM     47  C   UNL A   1      43.406  24.893  29.501  1.00  0.00     0.049 A 
ATOM     48  N   UNL A   1      41.286  26.528  27.546  1.00  0.00    -0.248 NA
ATOM     49  C   UNL A   1      39.997  24.971  28.675  1.00  0.00     0.031 C 
ATOM     50  C   UNL A   1      44.427  24.010  30.086  1.00  0.00     0.029 A 
ATOM     51  N   UNL A   1      43.538  26.027  30.247  1.00  0.00    -0.354 N 
ATOM     52  C   UNL A   1      39.976  26.993  27.629  1.00  0.00     0.074 A 
ATOM     53  C   UNL A   1      39.198  25.894  28.130  1.00  0.00     0.031 C 
ATOM     54  C   UNL A   1      44.898  24.547  31.230  1.00  0.00     0.029 A 
ATOM     55  C   UNL A   1      44.369  25.889  31.355  1.00  0.00     0.049 A 
ATOM     56  H   UNL A   1      43.084  26.870  30.022  1.00  0.00     0.167 HD
ATOM     57  C   UNL A   1      39.726  28.331  27.574  1.00  0.00     0.037 A 
ATOM     58  C   UNL A   1      44.622  26.819  32.307  1.00  0.00     0.037 A 
ATOM     59  C   UNL A   1      40.900  29.032  27.105  1.00  0.00     0.049 A 
ATOM     60  C   UNL A   1      44.280  28.134  31.726  1.00  0.00     0.074 A 
ATOM     61  C   UNL A   1      41.613  29.110  25.929  1.00  0.00     0.029 A 
ATOM     62  N   UNL A   1      41.720  29.481  28.108  1.00  0.00    -0.354 N 
ATOM     63  N   UNL A   1      44.952  28.695  30.760  1.00  0.00    -0.248 NA
ATOM     64  C   UNL A   1      42.953  28.684  31.964  1.00  0.00     0.031 C 
ATOM     65  C   UNL A   1      42.966  29.354  26.314  1.00  0.00     0.029 A 
ATOM     66  C   UNL A   1      43.025  29.478  27.702  1.00  0.00     0.049 A 
ATOM     67  H   UNL A   1      41.412  29.767  28.998  1.00  0.00     0.167 HD
ATOM     68  C   UNL A   1      43.991  29.331  29.998  1.00  0.00     0.074 A 
ATOM     69  C   UNL A   1      42.831  29.447  30.874  1.00  0.00     0.031 C 
ATOM     70  C   UNL A   1      44.126  29.408  28.641  1.00  0.00     0.037 A 
BRANCH  57  71
ATOM     71  C   UNL A   1      38.677  29.058  28.403  1.00  0.00     0.057 A 
ATOM     72  C   UNL A   1      38.668  28.853  29.800  1.00  0.00     0.134 A 
ATOM     73  C   UNL A   1      37.512  29.666  27.895  1.00  0.00     0.134 A 
ATOM     74  F   UNL A   1      39.716  28.292  30.421  1.00  0.00    -0.206 F 
ATOM     75  C   UNL A   1      37.551  29.128  30.600  1.00  0.00     0.040 A 
ATOM     76  C   UNL A   1      36.408  29.986  28.693  1.00  0.00     0.040 A 
ATOM     77  F   UNL A   1      37.323  29.904  26.593  1.00  0.00    -0.206 F 
ATOM     78  C   UNL A   1      36.408  29.683  30.043  1.00  0.00     0.006 A 
ENDBRANCH  57  71
BRANCH  58  79
ATOM     79  C   UNL A   1      44.965  26.656  33.736  1.00  0.00     0.057 A 
ATOM     80  C   UNL A   1      43.994  26.281  34.675  1.00  0.00     0.134 A 
ATOM     81  C   UNL A   1      46.302  26.574  34.162  1.00  0.00     0.134 A 
ATOM     82  F   UNL A   1      42.692  26.302  34.355  1.00  0.00    -0.206 F 
ATOM     83  C   UNL A   1      44.332  25.803  35.948  1.00  0.00     0.040 A 
ATOM     84  C   UNL A   1      46.653  26.104  35.431  1.00  0.00     0.040 A 
ATOM     85  F   UNL A   1      47.312  26.858  33.326  1.00  0.00    -0.206 F 
ATOM     86  C   UNL A   1      45.667  25.698  36.323  1.00  0.00     0.006 A 
ENDBRANCH  58  79
BRANCH  70  87
ATOM     87  C   UNL A   1      45.504  29.230  28.073  1.00  0.00     0.057 A 
ATOM     88  C   UNL A   1      46.048  28.010  27.646  1.00  0.00     0.134 A 
ATOM     89  C   UNL A   1      46.276  30.378  27.855  1.00  0.00     0.134 A 
ATOM     90  F   UNL A   1      45.356  26.868  27.739  1.00  0.00    -0.206 F 
ATOM     91  C   UNL A   1      47.317  27.936  27.063  1.00  0.00     0.040 A 
ATOM     92  C   UNL A   1      47.527  30.323  27.241  1.00  0.00     0.040 A 
ATOM     93  F   UNL A   1      45.801  31.586  28.201  1.00  0.00    -0.206 F 
ATOM     94  C   UNL A   1      48.057  29.096  26.851  1.00  0.00     0.006 A 
ENDBRANCH  70  87
ENDBRANCH  44  45
ENDBRANCH  36  39
ENDBRANCH  34  35
ENDBRANCH  33  34
ENDBRANCH   1  33
TORSDOF 15
ENDMDL
MODEL 3
REMARK VINA RESULT:     -13.4      2.221      6.061
REMARK SMILES CC(C)CCn1nc(C(=O)NCCCNC(=O)c2ccc(-c3c4nc(c(-c5c(F)cccc5F)c5ccc([nH]5)c(-c5c(F)cccc5F)c5nc(c(-c6c(F)cccc6F)c6ccc3[nH]6)C=C5)C=C4)cc2)c2c1CCN(C(=O)[C@@H]1CCc3nn(C)c(=O)n3C1)C2
REMARK SMILES IDX 12 1 11 2 9 3 10 4 8 6 6 7 7 8 73 9 72 10 74 11 90 12 75 13
REMARK SMILES IDX 76 14 5 15 4 16 2 17 1 18 3 19 77 20 78 21 79 22 80 23 89 24
REMARK SMILES IDX 81 25 88 26 82 27 86 28 83 29 84 30 87 31 85 32 13 33 14 34
REMARK SMILES IDX 15 35 16 36 17 38 18 39 19 40 71 41 20 42 70 43 21 44 22 45
REMARK SMILES IDX 23 46 64 47 24 48 69 49 63 50 65 51 25 52 68 53 62 54 61 55
REMARK SMILES IDX 26 57 52 58 35 59 51 60 36 61 39 62 50 63 66 64 37 65 38 66
REMARK SMILES IDX 49 68 67 69 40 70 27 71 28 72 33 73 29 74 30 75 32 76 34 77
REMARK SMILES IDX 31 78 53 79 54 80 59 81 55 82 56 83 58 84 60 85 57 86 41 87
REMARK SMILES IDX 42 88 47 89 43 90 44 91 46 92 48 93 45 94
REMARK H PARENT 11 5 15 37 65 56 39 67
REMARK Flexibility Score: inf
ROOT
ATOM      1  C   UNL A   1      33.715  30.333  26.926  1.00  0.00     0.118 C 
ENDROOT
BRANCH   1   2
ATOM      2  N   UNL A   1      32.698  29.542  27.623  1.00  0.00    -0.351 N 
ATOM      3  C   UNL A   1      31.800  28.548  27.258  1.00  0.00     0.272 C 
ATOM      4  O   UNL A   1      31.281  27.959  28.212  1.00  0.00    -0.267 OA
ATOM      5  H   UNL A   1      32.637  29.769  28.579  1.00  0.00     0.163 HD
BRANCH   3   6
ATOM      6  C   UNL A   1      31.465  28.185  25.853  1.00  0.00     0.155 A 
ATOM      7  N   UNL A   1      30.916  28.508  23.777  1.00  0.00    -0.268 N 
ATOM      8  N   UNL A   1      31.104  29.142  24.964  1.00  0.00    -0.167 NA
ATOM      9  C   UNL A   1      30.946  27.159  23.934  1.00  0.00     0.046 A 
ATOM     10  C   UNL A   1      31.522  26.949  25.166  1.00  0.00     0.026 A 
ATOM     11  C   UNL A   1      30.537  26.030  23.064  1.00  0.00     0.078 C 
ATOM     12  C   UNL A   1      31.943  25.616  25.611  1.00  0.00     0.159 C 
ATOM     13  C   UNL A   1      30.414  24.783  23.951  1.00  0.00     0.126 C 
ATOM     14  N   UNL A   1      31.643  24.534  24.689  1.00  0.00    -0.338 N 
BRANCH   7  15
ATOM     15  C   UNL A   1      30.892  29.337  22.579  1.00  0.00     0.145 C 
BRANCH  15  16
ATOM     16  C   UNL A   1      29.542  29.852  22.063  1.00  0.00     0.027 C 
BRANCH  16  17
ATOM     17  C   UNL A   1      28.472  30.016  23.158  1.00  0.00    -0.016 C 
ATOM     18  C   UNL A   1      27.851  31.406  23.193  1.00  0.00     0.007 C 
ATOM     19  C   UNL A   1      27.393  28.940  23.013  1.00  0.00     0.007 C 
ENDBRANCH  16  17
ENDBRANCH  15  16
ENDBRANCH   7  15
BRANCH  14  20
ATOM     20  C   UNL A   1      32.287  23.337  24.941  1.00  0.00     0.227 C 
ATOM     21  O   UNL A   1      32.449  22.977  26.119  1.00  0.00    -0.274 OA
BRANCH  20  22
ATOM     22  C   UNL A   1      32.882  22.420  23.863  1.00  0.00     0.099 C 
ATOM     23  C   UNL A   1      32.746  20.927  24.161  1.00  0.00     0.023 C 
ATOM     24  C   UNL A   1      34.251  22.793  23.312  1.00  0.00     0.142 C 
ATOM     25  C   UNL A   1      33.874  20.346  24.999  1.00  0.00     0.078 C 
ATOM     26  N   UNL A   1      35.326  22.041  23.914  1.00  0.00    -0.278 N 
ATOM     27  C   UNL A   1      35.212  20.971  24.728  1.00  0.00     0.133 A 
ATOM     28  C   UNL A   1      36.602  22.521  24.086  1.00  0.00     0.345 A 
ATOM     29  N   UNL A   1      36.287  20.682  25.403  1.00  0.00    -0.155 NA
ATOM     30  N   UNL A   1      37.186  21.656  25.018  1.00  0.00    -0.216 N 
ATOM     31  O   UNL A   1      37.060  23.563  23.648  1.00  0.00    -0.246 OA
ATOM     32  C   UNL A   1      38.377  21.949  25.768  1.00  0.00     0.179 C 
ENDBRANCH  20  22
ENDBRANCH  14  20
ENDBRANCH   3   6
ENDBRANCH   1   2
BRANCH   1  33
ATOM     33  C   UNL A   1      35.122  30.175  27.534  1.00  0.00     0.042 C 
BRANCH  33  34
ATOM     34  C   UNL A   1      35.903  31.417  27.833  1.00  0.00     0.118 C 
BRANCH  34  35
ATOM     35  N   UNL A   1      35.339  32.170  28.955  1.00  0.00    -0.352 N 
ATOM     36  C   UNL A   1      35.512  31.891  30.301  1.00  0.00     0.251 C 
ATOM     37  H   UNL A   1      34.783  32.950  28.730  1.00  0.00     0.163 HD
ATOM     38  O   UNL A   1      34.714  32.262  31.137  1.00  0.00    -0.269 OA
BRANCH  36  39
ATOM     39  C   UNL A   1      36.698  31.097  30.667  1.00  0.00     0.039 A 
ATOM     40  C   UNL A   1      36.617  29.723  30.882  1.00  0.00     0.014 A 
ATOM     41  C   UNL A   1      37.923  31.751  30.641  1.00  0.00     0.014 A 
ATOM     42  C   UNL A   1      37.804  29.001  30.960  1.00  0.00     0.010 A 
ATOM     43  C   UNL A   1      39.060  31.015  30.465  1.00  0.00     0.010 A 
ATOM     44  C   UNL A   1      39.025  29.650  30.704  1.00  0.00    -0.014 A 
BRANCH  44  45
ATOM     45  C   UNL A   1      40.266  28.897  30.564  1.00  0.00     0.031 A 
ATOM     46  C   UNL A   1      41.005  28.727  31.840  1.00  0.00     0.074 A 
ATOM     47  C   UNL A   1      40.621  28.254  29.430  1.00  0.00     0.049 A 
ATOM     48  N   UNL A   1      42.081  29.342  32.201  1.00  0.00    -0.248 NA
ATOM     49  C   UNL A   1      40.387  27.935  32.916  1.00  0.00     0.031 C 
ATOM     50  C   UNL A   1      39.829  28.073  28.204  1.00  0.00     0.029 A 
ATOM     51  N   UNL A   1      41.748  27.536  29.159  1.00  0.00    -0.354 N 
ATOM     52  C   UNL A   1      42.417  28.819  33.447  1.00  0.00     0.074 A 
ATOM     53  C   UNL A   1      41.239  28.149  33.924  1.00  0.00     0.031 C 
ATOM     54  C   UNL A   1      40.387  27.116  27.433  1.00  0.00     0.029 A 
ATOM     55  C   UNL A   1      41.671  26.762  28.005  1.00  0.00     0.049 A 
ATOM     56  H   UNL A   1      42.548  27.562  29.732  1.00  0.00     0.167 HD
ATOM     57  C   UNL A   1      43.726  28.725  33.814  1.00  0.00     0.037 A 
ATOM     58  C   UNL A   1      42.603  25.898  27.537  1.00  0.00     0.037 A 
ATOM     59  C   UNL A   1      44.545  29.512  32.919  1.00  0.00     0.049 A 
ATOM     60  C   UNL A   1      43.889  26.274  28.158  1.00  0.00     0.074 A 
ATOM     61  C   UNL A   1      44.712  30.850  32.636  1.00  0.00     0.029 A 
ATOM     62  N   UNL A   1      45.051  28.806  31.859  1.00  0.00    -0.354 N 
ATOM     63  N   UNL A   1      44.530  27.376  27.886  1.00  0.00    -0.248 NA
ATOM     64  C   UNL A   1      44.305  25.595  29.378  1.00  0.00     0.031 C 
ATOM     65  C   UNL A   1      45.078  30.910  31.258  1.00  0.00     0.029 A 
ATOM     66  C   UNL A   1      45.181  29.610  30.761  1.00  0.00     0.049 A 
ATOM     67  H   UNL A   1      45.290  27.851  31.885  1.00  0.00     0.167 HD
ATOM     68  C   UNL A   1      45.085  27.757  29.093  1.00  0.00     0.074 A 
ATOM     69  C   UNL A   1      45.072  26.549  29.911  1.00  0.00     0.031 C 
ATOM     70  C   UNL A   1      45.199  29.080  29.413  1.00  0.00     0.037 A 
BRANCH  57  71
ATOM     71  C   UNL A   1      44.333  27.569  34.594  1.00  0.00     0.057 A 
ATOM     72  C   UNL A   1      44.149  26.259  34.100  1.00  0.00     0.134 A 
ATOM     73  C   UNL A   1      44.789  27.632  35.926  1.00  0.00     0.134 A 
ATOM     74  F   UNL A   1      43.728  26.048  32.845  1.00  0.00    -0.206 F 
ATOM     75  C   UNL A   1      44.299  25.119  34.901  1.00  0.00     0.040 A 
ATOM     76  C   UNL A   1      44.986  26.497  36.720  1.00  0.00     0.040 A 
ATOM     77  F   UNL A   1      44.983  28.784  36.575  1.00  0.00    -0.206 F 
ATOM     78  C   UNL A   1      44.705  25.236  36.222  1.00  0.00     0.006 A 
ENDBRANCH  57  71
BRANCH  58  79
ATOM     79  C   UNL A   1      42.447  24.665  26.735  1.00  0.00     0.057 A 
ATOM     80  C   UNL A   1      43.096  24.518  25.501  1.00  0.00     0.134 A 
ATOM     81  C   UNL A   1      41.903  23.496  27.291  1.00  0.00     0.134 A 
ATOM     82  F   UNL A   1      43.669  25.572  24.902  1.00  0.00    -0.206 F 
ATOM     83  C   UNL A   1      43.242  23.271  24.879  1.00  0.00     0.040 A 
ATOM     84  C   UNL A   1      42.036  22.245  26.679  1.00  0.00     0.040 A 
ATOM     85  F   UNL A   1      41.307  23.514  28.493  1.00  0.00    -0.206 F 
ATOM     86  C   UNL A   1      42.725  22.127  25.477  1.00  0.00     0.006 A 
ENDBRANCH  58  79
BRANCH  70  87
ATOM     87  C   UNL A   1      45.165  30.069  28.285  1.00  0.00     0.057 A 
ATOM     88  C   UNL A   1      44.012  30.714  27.814  1.00  0.00     0.134 A 
ATOM     89  C   UNL A   1      46.385  30.459  27.719  1.00  0.00     0.134 A 
ATOM     90  F   UNL A   1      42.809  30.467  28.346  1.00  0.00    -0.206 F 
ATOM     91  C   UNL A   1      44.072  31.676  26.802  1.00  0.00     0.040 A 
ATOM     92  C   UNL A   1      46.462  31.444  26.735  1.00  0.00     0.040 A 
ATOM     93  F   UNL A   1      47.534  29.914  28.149  1.00  0.00    -0.206 F 
ATOM     94  C   UNL A   1      45.301  32.051  26.264  1.00  0.00     0.006 A 
ENDBRANCH  70  87
ENDBRANCH  44  45
ENDBRANCH  36  39
ENDBRANCH  34  35
ENDBRANCH  33  34
ENDBRANCH   1  33
TORSDOF 15
ENDMDL
