MODEL 1
REMARK VINA RESULT:     -10.3      0.000      0.000
REMARK SMILES CCOc1cc(C(=O)NCCCNC(=O)c2ccc(-c3c4nc(c(-c5c(F)cccc5F)c5ccc([nH]5)c(-c5c(F)cccc5F)c5nc(c(-c6c(F)cccc6F)c6ccc3[nH]6)C=C5)C=C4)cc2)cc(I)c1OCC
REMARK SMILES IDX 11 1 10 2 9 3 7 4 8 5 6 7 4 8 5 9 73 10 71 11 70 12 72 13
REMARK SMILES IDX 3 14 2 15 1 16 74 17 75 18 76 19 12 20 13 21 14 22 15 24
REMARK SMILES IDX 16 25 17 26 69 27 18 28 68 29 19 30 20 31 21 32 62 33 22 34
REMARK SMILES IDX 67 35 61 36 63 37 23 38 66 39 60 40 59 41 24 43 50 44 33 45
REMARK SMILES IDX 49 46 34 47 37 48 48 49 64 50 35 51 36 52 47 54 65 55 38 56
REMARK SMILES IDX 25 57 26 58 31 59 27 60 28 61 30 62 32 63 29 64 51 65 52 66
REMARK SMILES IDX 57 67 53 68 54 69 56 70 58 71 55 72 39 73 40 74 45 75 41 76
REMARK SMILES IDX 42 77 44 78 46 79 43 80
REMARK H PARENT 9 6 13 23 63 42 37 53
REMARK Flexibility Score: inf
ROOT
ATOM      1  C   UNL A   1      34.003  28.719  24.351  1.00  0.00     0.042 C 
ENDROOT
BRANCH   1   2
ATOM      2  C   UNL A   1      32.699  28.178  23.761  1.00  0.00     0.118 C 
BRANCH   2   3
ATOM      3  N   UNL A   1      32.973  27.250  22.683  1.00  0.00    -0.352 N 
ATOM      4  C   UNL A   1      33.423  25.958  22.666  1.00  0.00     0.251 C 
ATOM      5  O   UNL A   1      33.567  25.429  21.563  1.00  0.00    -0.269 OA
ATOM      6  H   UNL A   1      32.802  27.622  21.788  1.00  0.00     0.163 HD
BRANCH   4   7
ATOM      7  C   UNL A   1      33.708  25.158  23.891  1.00  0.00     0.044 A 
ATOM      8  C   UNL A   1      32.861  24.369  26.021  1.00  0.00     0.163 A 
ATOM      9  C   UNL A   1      32.713  25.134  24.861  1.00  0.00     0.064 A 
ATOM     10  C   UNL A   1      34.067  23.690  26.315  1.00  0.00     0.174 A 
ATOM     11  C   UNL A   1      35.105  23.809  25.382  1.00  0.00     0.060 A 
ATOM     12  C   UNL A   1      34.879  24.453  24.147  1.00  0.00     0.032 A 
ATOM     13  I   UNL A   1      37.157  23.329  25.644  1.00  0.00    -0.040 I 
BRANCH   8  14
ATOM     14  O   UNL A   1      31.843  24.393  26.950  1.00  0.00    -0.490 OA
BRANCH  14  15
ATOM     15  C   UNL A   1      30.558  24.067  26.400  1.00  0.00     0.226 C 
ATOM     16  C   UNL A   1      30.247  22.578  26.501  1.00  0.00     0.049 C 
ENDBRANCH  14  15
ENDBRANCH   8  14
BRANCH  10  17
ATOM     17  O   UNL A   1      34.023  23.011  27.499  1.00  0.00    -0.489 OA
BRANCH  17  18
ATOM     18  C   UNL A   1      34.028  21.592  27.593  1.00  0.00     0.226 C 
ATOM     19  C   UNL A   1      33.595  20.870  26.325  1.00  0.00     0.049 C 
ENDBRANCH  17  18
ENDBRANCH  10  17
ENDBRANCH   4   7
ENDBRANCH   2   3
ENDBRANCH   1   2
BRANCH   1  20
ATOM     20  C   UNL A   1      33.999  28.730  25.877  1.00  0.00     0.118 C 
BRANCH  20  21
ATOM     21  N   UNL A   1      33.801  30.075  26.395  1.00  0.00    -0.352 N 
ATOM     22  C   UNL A   1      34.432  30.727  27.420  1.00  0.00     0.251 C 
ATOM     23  H   UNL A   1      33.104  30.598  25.936  1.00  0.00     0.163 HD
ATOM     24  O   UNL A   1      33.936  31.752  27.878  1.00  0.00    -0.269 OA
BRANCH  22  25
ATOM     25  C   UNL A   1      35.700  30.212  27.975  1.00  0.00     0.039 A 
ATOM     26  C   UNL A   1      35.701  29.703  29.277  1.00  0.00     0.014 A 
ATOM     27  C   UNL A   1      36.894  30.288  27.251  1.00  0.00     0.014 A 
ATOM     28  C   UNL A   1      36.891  29.236  29.837  1.00  0.00     0.010 A 
ATOM     29  C   UNL A   1      38.066  29.759  27.785  1.00  0.00     0.010 A 
ATOM     30  C   UNL A   1      38.078  29.238  29.086  1.00  0.00    -0.014 A 
BRANCH  30  31
ATOM     31  C   UNL A   1      39.335  28.696  29.652  1.00  0.00     0.031 A 
ATOM     32  C   UNL A   1      39.964  29.334  30.859  1.00  0.00     0.074 A 
ATOM     33  C   UNL A   1      39.937  27.657  29.043  1.00  0.00     0.049 A 
ATOM     34  N   UNL A   1      41.082  29.028  31.467  1.00  0.00    -0.248 NA
ATOM     35  C   UNL A   1      39.258  30.484  31.445  1.00  0.00     0.031 C 
ATOM     36  C   UNL A   1      39.447  26.987  27.836  1.00  0.00     0.029 A 
ATOM     37  N   UNL A   1      41.094  26.987  29.348  1.00  0.00    -0.354 N 
ATOM     38  C   UNL A   1      41.218  29.951  32.496  1.00  0.00     0.074 A 
ATOM     39  C   UNL A   1      40.097  30.860  32.400  1.00  0.00     0.031 C 
ATOM     40  C   UNL A   1      40.284  25.987  27.519  1.00  0.00     0.029 A 
ATOM     41  C   UNL A   1      41.385  25.967  28.476  1.00  0.00     0.049 A 
ATOM     42  H   UNL A   1      41.661  27.216  30.120  1.00  0.00     0.167 HD
ATOM     43  C   UNL A   1      42.181  30.021  33.447  1.00  0.00     0.037 A 
ATOM     44  C   UNL A   1      42.426  25.115  28.450  1.00  0.00     0.037 A 
ATOM     45  C   UNL A   1      43.282  29.100  33.551  1.00  0.00     0.049 A 
ATOM     46  C   UNL A   1      43.478  25.212  29.519  1.00  0.00     0.074 A 
ATOM     47  C   UNL A   1      44.276  29.047  34.513  1.00  0.00     0.029 A 
ATOM     48  N   UNL A   1      43.536  28.071  32.657  1.00  0.00    -0.354 N 
ATOM     49  N   UNL A   1      43.558  26.048  30.526  1.00  0.00    -0.248 NA
ATOM     50  C   UNL A   1      44.580  24.243  29.450  1.00  0.00     0.031 C 
ATOM     51  C   UNL A   1      45.155  28.011  34.178  1.00  0.00     0.029 A 
ATOM     52  C   UNL A   1      44.683  27.390  33.033  1.00  0.00     0.049 A 
ATOM     53  H   UNL A   1      42.984  27.854  31.871  1.00  0.00     0.167 HD
ATOM     54  C   UNL A   1      44.705  25.693  31.224  1.00  0.00     0.074 A 
ATOM     55  C   UNL A   1      45.276  24.554  30.534  1.00  0.00     0.031 C 
ATOM     56  C   UNL A   1      45.238  26.260  32.333  1.00  0.00     0.037 A 
BRANCH  43  57
ATOM     57  C   UNL A   1      42.080  31.131  34.453  1.00  0.00     0.057 A 
ATOM     58  C   UNL A   1      42.702  32.370  34.251  1.00  0.00     0.134 A 
ATOM     59  C   UNL A   1      41.326  30.971  35.623  1.00  0.00     0.134 A 
ATOM     60  F   UNL A   1      43.449  32.585  33.157  1.00  0.00    -0.206 F 
ATOM     61  C   UNL A   1      42.599  33.402  35.185  1.00  0.00     0.040 A 
ATOM     62  C   UNL A   1      41.193  32.005  36.553  1.00  0.00     0.040 A 
ATOM     63  F   UNL A   1      40.699  29.813  35.878  1.00  0.00    -0.206 F 
ATOM     64  C   UNL A   1      41.836  33.222  36.338  1.00  0.00     0.006 A 
ENDBRANCH  43  57
BRANCH  44  65
ATOM     65  C   UNL A   1      42.510  24.079  27.390  1.00  0.00     0.057 A 
ATOM     66  C   UNL A   1      43.104  24.359  26.155  1.00  0.00     0.134 A 
ATOM     67  C   UNL A   1      41.999  22.791  27.585  1.00  0.00     0.134 A 
ATOM     68  F   UNL A   1      43.595  25.582  25.904  1.00  0.00    -0.206 F 
ATOM     69  C   UNL A   1      43.171  23.401  25.143  1.00  0.00     0.040 A 
ATOM     70  C   UNL A   1      42.082  21.814  26.591  1.00  0.00     0.040 A 
ATOM     71  F   UNL A   1      41.427  22.458  28.751  1.00  0.00    -0.206 F 
ATOM     72  C   UNL A   1      42.664  22.121  25.363  1.00  0.00     0.006 A 
ENDBRANCH  44  65
BRANCH  56  73
ATOM     73  C   UNL A   1      46.490  25.639  32.879  1.00  0.00     0.057 A 
ATOM     74  C   UNL A   1      47.761  26.038  32.443  1.00  0.00     0.134 A 
ATOM     75  C   UNL A   1      46.425  24.650  33.867  1.00  0.00     0.134 A 
ATOM     76  F   UNL A   1      47.890  26.970  31.487  1.00  0.00    -0.206 F 
ATOM     77  C   UNL A   1      48.921  25.454  32.954  1.00  0.00     0.040 A 
ATOM     78  C   UNL A   1      47.579  24.079  34.404  1.00  0.00     0.040 A 
ATOM     79  F   UNL A   1      45.239  24.229  34.334  1.00  0.00    -0.206 F 
ATOM     80  C   UNL A   1      48.831  24.475  33.942  1.00  0.00     0.006 A 
ENDBRANCH  56  73
ENDBRANCH  30  31
ENDBRANCH  22  25
ENDBRANCH  20  21
ENDBRANCH   1  20
TORSDOF 14
ENDMDL
MODEL 2
REMARK VINA RESULT:     -10.2      3.513      8.257
REMARK SMILES CCOc1cc(C(=O)NCCCNC(=O)c2ccc(-c3c4nc(c(-c5c(F)cccc5F)c5ccc([nH]5)c(-c5c(F)cccc5F)c5nc(c(-c6c(F)cccc6F)c6ccc3[nH]6)C=C5)C=C4)cc2)cc(I)c1OCC
REMARK SMILES IDX 11 1 10 2 9 3 7 4 8 5 6 7 4 8 5 9 73 10 71 11 70 12 72 13
REMARK SMILES IDX 3 14 2 15 1 16 74 17 75 18 76 19 12 20 13 21 14 22 15 24
REMARK SMILES IDX 16 25 17 26 69 27 18 28 68 29 19 30 20 31 21 32 62 33 22 34
REMARK SMILES IDX 67 35 61 36 63 37 23 38 66 39 60 40 59 41 24 43 50 44 33 45
REMARK SMILES IDX 49 46 34 47 37 48 48 49 64 50 35 51 36 52 47 54 65 55 38 56
REMARK SMILES IDX 25 57 26 58 31 59 27 60 28 61 30 62 32 63 29 64 51 65 52 66
REMARK SMILES IDX 57 67 53 68 54 69 56 70 58 71 55 72 39 73 40 74 45 75 41 76
REMARK SMILES IDX 42 77 44 78 46 79 43 80
REMARK H PARENT 9 6 13 23 63 42 37 53
REMARK Flexibility Score: inf
ROOT
ATOM      1  C   UNL A   1      38.598  23.406  26.446  1.00  0.00     0.042 C 
ENDROOT
BRANCH   1   2
ATOM      2  C   UNL A   1      38.165  22.135  25.712  1.00  0.00     0.118 C 
BRANCH   2   3
ATOM      3  N   UNL A   1      37.735  22.446  24.364  1.00  0.00    -0.352 N 
ATOM      4  C   UNL A   1      36.548  22.894  23.852  1.00  0.00     0.251 C 
ATOM      5  O   UNL A   1      36.491  23.058  22.632  1.00  0.00    -0.269 OA
ATOM      6  H   UNL A   1      38.433  22.306  23.684  1.00  0.00     0.163 HD
BRANCH   4   7
ATOM      7  C   UNL A   1      35.355  23.226  24.680  1.00  0.00     0.044 A 
ATOM      8  C   UNL A   1      33.395  22.366  25.820  1.00  0.00     0.163 A 
ATOM      9  C   UNL A   1      34.511  22.169  25.002  1.00  0.00     0.064 A 
ATOM     10  C   UNL A   1      33.009  23.657  26.252  1.00  0.00     0.174 A 
ATOM     11  C   UNL A   1      33.805  24.731  25.831  1.00  0.00     0.060 A 
ATOM     12  C   UNL A   1      35.012  24.492  25.141  1.00  0.00     0.032 A 
ATOM     13  I   UNL A   1      33.338  26.802  25.887  1.00  0.00    -0.040 I 
BRANCH   8  14
ATOM     14  O   UNL A   1      32.592  21.281  26.097  1.00  0.00    -0.490 OA
BRANCH  14  15
ATOM     15  C   UNL A   1      32.525  20.330  25.025  1.00  0.00     0.226 C 
ATOM     16  C   UNL A   1      32.810  18.908  25.494  1.00  0.00     0.049 C 
ENDBRANCH  14  15
ENDBRANCH   8  14
BRANCH  10  17
ATOM     17  O   UNL A   1      31.886  23.647  27.029  1.00  0.00    -0.489 OA
BRANCH  17  18
ATOM     18  C   UNL A   1      30.571  23.809  26.513  1.00  0.00     0.226 C 
ATOM     19  C   UNL A   1      29.587  22.725  26.930  1.00  0.00     0.049 C 
ENDBRANCH  17  18
ENDBRANCH  10  17
ENDBRANCH   4   7
ENDBRANCH   2   3
ENDBRANCH   1   2
BRANCH   1  20
ATOM     20  C   UNL A   1      40.026  23.322  26.977  1.00  0.00     0.118 C 
BRANCH  20  21
ATOM     21  N   UNL A   1      40.967  23.959  26.068  1.00  0.00    -0.352 N 
ATOM     22  C   UNL A   1      41.411  25.253  26.023  1.00  0.00     0.251 C 
ATOM     23  H   UNL A   1      41.343  23.366  25.378  1.00  0.00     0.163 HD
ATOM     24  O   UNL A   1      41.989  25.656  25.019  1.00  0.00    -0.269 OA
BRANCH  22  25
ATOM     25  C   UNL A   1      41.203  26.163  27.169  1.00  0.00     0.039 A 
ATOM     26  C   UNL A   1      41.988  27.316  27.255  1.00  0.00     0.014 A 
ATOM     27  C   UNL A   1      40.295  25.855  28.186  1.00  0.00     0.014 A 
ATOM     28  C   UNL A   1      41.833  28.179  28.341  1.00  0.00     0.010 A 
ATOM     29  C   UNL A   1      40.093  26.751  29.232  1.00  0.00     0.010 A 
ATOM     30  C   UNL A   1      40.867  27.915  29.325  1.00  0.00    -0.014 A 
BRANCH  30  31
ATOM     31  C   UNL A   1      40.658  28.851  30.454  1.00  0.00     0.031 A 
ATOM     32  C   UNL A   1      39.575  29.892  30.389  1.00  0.00     0.074 A 
ATOM     33  C   UNL A   1      41.482  28.795  31.518  1.00  0.00     0.049 A 
ATOM     34  N   UNL A   1      39.271  30.823  31.257  1.00  0.00    -0.248 NA
ATOM     35  C   UNL A   1      38.740  29.905  29.179  1.00  0.00     0.031 C 
ATOM     36  C   UNL A   1      42.599  27.861  31.671  1.00  0.00     0.029 A 
ATOM     37  N   UNL A   1      41.513  29.542  32.667  1.00  0.00    -0.354 N 
ATOM     38  C   UNL A   1      38.221  31.537  30.694  1.00  0.00     0.074 A 
ATOM     39  C   UNL A   1      37.973  30.965  29.389  1.00  0.00     0.031 C 
ATOM     40  C   UNL A   1      43.191  28.075  32.857  1.00  0.00     0.029 A 
ATOM     41  C   UNL A   1      42.518  29.181  33.530  1.00  0.00     0.049 A 
ATOM     42  H   UNL A   1      40.875  30.268  32.855  1.00  0.00     0.167 HD
ATOM     43  C   UNL A   1      37.515  32.563  31.228  1.00  0.00     0.037 A 
ATOM     44  C   UNL A   1      42.862  29.689  34.728  1.00  0.00     0.037 A 
ATOM     45  C   UNL A   1      37.752  33.113  32.537  1.00  0.00     0.049 A 
ATOM     46  C   UNL A   1      42.059  30.824  35.298  1.00  0.00     0.074 A 
ATOM     47  C   UNL A   1      37.053  34.111  33.194  1.00  0.00     0.029 A 
ATOM     48  N   UNL A   1      38.770  32.711  33.388  1.00  0.00    -0.354 N 
ATOM     49  N   UNL A   1      41.025  31.445  34.784  1.00  0.00    -0.248 NA
ATOM     50  C   UNL A   1      42.468  31.325  36.617  1.00  0.00     0.031 C 
ATOM     51  C   UNL A   1      37.674  34.341  34.426  1.00  0.00     0.029 A 
ATOM     52  C   UNL A   1      38.733  33.456  34.556  1.00  0.00     0.049 A 
ATOM     53  H   UNL A   1      39.424  32.002  33.193  1.00  0.00     0.167 HD
ATOM     54  C   UNL A   1      40.646  32.394  35.724  1.00  0.00     0.074 A 
ATOM     55  C   UNL A   1      41.549  32.252  36.847  1.00  0.00     0.031 C 
ATOM     56  C   UNL A   1      39.641  33.302  35.662  1.00  0.00     0.037 A 
BRANCH  43  57
ATOM     57  C   UNL A   1      36.415  33.154  30.393  1.00  0.00     0.057 A 
ATOM     58  C   UNL A   1      36.681  34.040  29.341  1.00  0.00     0.134 A 
ATOM     59  C   UNL A   1      35.077  32.806  30.622  1.00  0.00     0.134 A 
ATOM     60  F   UNL A   1      37.939  34.423  29.076  1.00  0.00    -0.206 F 
ATOM     61  C   UNL A   1      35.656  34.580  28.563  1.00  0.00     0.040 A 
ATOM     62  C   UNL A   1      34.045  33.319  29.833  1.00  0.00     0.040 A 
ATOM     63  F   UNL A   1      34.752  31.959  31.609  1.00  0.00    -0.206 F 
ATOM     64  C   UNL A   1      34.333  34.214  28.804  1.00  0.00     0.006 A 
ENDBRANCH  43  57
BRANCH  44  65
ATOM     65  C   UNL A   1      44.002  29.109  35.480  1.00  0.00     0.057 A 
ATOM     66  C   UNL A   1      43.806  28.082  36.409  1.00  0.00     0.134 A 
ATOM     67  C   UNL A   1      45.312  29.565  35.287  1.00  0.00     0.134 A 
ATOM     68  F   UNL A   1      42.571  27.616  36.648  1.00  0.00    -0.206 F 
ATOM     69  C   UNL A   1      44.866  27.541  37.136  1.00  0.00     0.040 A 
ATOM     70  C   UNL A   1      46.386  29.016  35.989  1.00  0.00     0.040 A 
ATOM     71  F   UNL A   1      45.567  30.540  34.403  1.00  0.00    -0.206 F 
ATOM     72  C   UNL A   1      46.163  28.006  36.922  1.00  0.00     0.006 A 
ENDBRANCH  44  65
BRANCH  56  73
ATOM     73  C   UNL A   1      39.457  34.195  36.854  1.00  0.00     0.057 A 
ATOM     74  C   UNL A   1      38.774  33.764  37.998  1.00  0.00     0.134 A 
ATOM     75  C   UNL A   1      39.990  35.489  36.865  1.00  0.00     0.134 A 
ATOM     76  F   UNL A   1      38.227  32.541  38.045  1.00  0.00    -0.206 F 
ATOM     77  C   UNL A   1      38.605  34.602  39.103  1.00  0.00     0.040 A 
ATOM     78  C   UNL A   1      39.851  36.325  37.974  1.00  0.00     0.040 A 
ATOM     79  F   UNL A   1      40.663  35.959  35.803  1.00  0.00    -0.206 F 
ATOM     80  C   UNL A   1      39.149  35.885  39.093  1.00  0.00     0.006 A 
ENDBRANCH  56  73
ENDBRANCH  30  31
ENDBRANCH  22  25
ENDBRANCH  20  21
ENDBRANCH   1  20
TORSDOF 14
ENDMDL
MODEL 3
REMARK VINA RESULT:     -10.2      3.428      7.312
REMARK SMILES CCOc1cc(C(=O)NCCCNC(=O)c2ccc(-c3c4nc(c(-c5c(F)cccc5F)c5ccc([nH]5)c(-c5c(F)cccc5F)c5nc(c(-c6c(F)cccc6F)c6ccc3[nH]6)C=C5)C=C4)cc2)cc(I)c1OCC
REMARK SMILES IDX 11 1 10 2 9 3 7 4 8 5 6 7 4 8 5 9 73 10 71 11 70 12 72 13
REMARK SMILES IDX 3 14 2 15 1 16 74 17 75 18 76 19 12 20 13 21 14 22 15 24
REMARK SMILES IDX 16 25 17 26 69 27 18 28 68 29 19 30 20 31 21 32 62 33 22 34
REMARK SMILES IDX 67 35 61 36 63 37 23 38 66 39 60 40 59 41 24 43 50 44 33 45
REMARK SMILES IDX 49 46 34 47 37 48 48 49 64 50 35 51 36 52 47 54 65 55 38 56
REMARK SMILES IDX 25 57 26 58 31 59 27 60 28 61 30 62 32 63 29 64 51 65 52 66
REMARK SMILES IDX 57 67 53 68 54 69 56 70 58 71 55 72 39 73 40 74 45 75 41 76
REMARK SMILES IDX 42 77 44 78 46 79 43 80
REMARK H PARENT 9 6 13 23 63 42 37 53
REMARK Flexibility Score: inf
ROOT
ATOM      1  C   UNL A   1      38.350  19.678  24.890  1.00  0.00     0.042 C 
ENDROOT
BRANCH   1   2
ATOM      2  C   UNL A   1      37.497  20.894  24.524  1.00  0.00     0.118 C 
BRANCH   2   3
ATOM      3  N   UNL A   1      37.941  22.066  25.249  1.00  0.00    -0.352 N 
ATOM      4  C   UNL A   1      37.280  23.165  25.727  1.00  0.00     0.251 C 
ATOM      5  O   UNL A   1      37.954  24.016  26.308  1.00  0.00    -0.269 OA
ATOM      6  H   UNL A   1      38.908  22.075  25.435  1.00  0.00     0.163 HD
BRANCH   4   7
ATOM      7  C   UNL A   1      35.807  23.365  25.615  1.00  0.00     0.044 A 
ATOM      8  C   UNL A   1      33.616  22.349  25.838  1.00  0.00     0.163 A 
ATOM      9  C   UNL A   1      35.010  22.253  25.863  1.00  0.00     0.064 A 
ATOM     10  C   UNL A   1      32.961  23.540  25.444  1.00  0.00     0.174 A 
ATOM     11  C   UNL A   1      33.775  24.625  25.091  1.00  0.00     0.060 A 
ATOM     12  C   UNL A   1      35.172  24.554  25.276  1.00  0.00     0.032 A 
ATOM     13  I   UNL A   1      33.216  26.392  24.053  1.00  0.00    -0.040 I 
BRANCH   8  14
ATOM     14  O   UNL A   1      32.881  21.210  26.082  1.00  0.00    -0.490 OA
BRANCH  14  15
ATOM     15  C   UNL A   1      33.166  20.138  25.173  1.00  0.00     0.226 C 
ATOM     16  C   UNL A   1      32.478  20.324  23.826  1.00  0.00     0.049 C 
ENDBRANCH  14  15
ENDBRANCH   8  14
BRANCH  10  17
ATOM     17  O   UNL A   1      31.600  23.434  25.468  1.00  0.00    -0.489 OA
BRANCH  17  18
ATOM     18  C   UNL A   1      30.787  23.974  26.503  1.00  0.00     0.226 C 
ATOM     19  C   UNL A   1      29.767  23.004  27.081  1.00  0.00     0.049 C 
ENDBRANCH  17  18
ENDBRANCH  10  17
ENDBRANCH   4   7
ENDBRANCH   2   3
ENDBRANCH   1   2
BRANCH   1  20
ATOM     20  C   UNL A   1      39.289  19.948  26.062  1.00  0.00     0.118 C 
BRANCH  20  21
ATOM     21  N   UNL A   1      40.530  19.201  25.929  1.00  0.00    -0.352 N 
ATOM     22  C   UNL A   1      41.828  19.635  25.960  1.00  0.00     0.251 C 
ATOM     23  H   UNL A   1      40.419  18.232  25.796  1.00  0.00     0.163 HD
ATOM     24  O   UNL A   1      42.720  18.895  25.557  1.00  0.00    -0.269 OA
BRANCH  22  25
ATOM     25  C   UNL A   1      42.163  20.978  26.475  1.00  0.00     0.039 A 
ATOM     26  C   UNL A   1      42.185  21.176  27.859  1.00  0.00     0.014 A 
ATOM     27  C   UNL A   1      42.388  22.053  25.609  1.00  0.00     0.014 A 
ATOM     28  C   UNL A   1      42.471  22.442  28.373  1.00  0.00     0.010 A 
ATOM     29  C   UNL A   1      42.741  23.298  26.124  1.00  0.00     0.010 A 
ATOM     30  C   UNL A   1      42.774  23.507  27.509  1.00  0.00    -0.014 A 
BRANCH  30  31
ATOM     31  C   UNL A   1      43.131  24.842  28.045  1.00  0.00     0.031 A 
ATOM     32  C   UNL A   1      42.062  25.864  28.314  1.00  0.00     0.074 A 
ATOM     33  C   UNL A   1      44.427  25.147  28.241  1.00  0.00     0.049 A 
ATOM     34  N   UNL A   1      42.185  27.095  28.740  1.00  0.00    -0.248 NA
ATOM     35  C   UNL A   1      40.674  25.459  28.044  1.00  0.00     0.031 C 
ATOM     36  C   UNL A   1      45.555  24.254  27.969  1.00  0.00     0.029 A 
ATOM     37  N   UNL A   1      45.016  26.295  28.705  1.00  0.00    -0.354 N 
ATOM     38  C   UNL A   1      40.897  27.614  28.777  1.00  0.00     0.074 A 
ATOM     39  C   UNL A   1      40.012  26.582  28.284  1.00  0.00     0.031 C 
ATOM     40  C   UNL A   1      46.698  24.879  28.295  1.00  0.00     0.029 A 
ATOM     41  C   UNL A   1      46.386  26.225  28.764  1.00  0.00     0.049 A 
ATOM     42  H   UNL A   1      44.505  27.094  28.972  1.00  0.00     0.167 HD
ATOM     43  C   UNL A   1      40.489  28.832  29.205  1.00  0.00     0.037 A 
ATOM     44  C   UNL A   1      47.290  27.146  29.149  1.00  0.00     0.037 A 
ATOM     45  C   UNL A   1      41.373  29.847  29.717  1.00  0.00     0.049 A 
ATOM     46  C   UNL A   1      46.809  28.488  29.623  1.00  0.00     0.074 A 
ATOM     47  C   UNL A   1      41.052  31.091  30.233  1.00  0.00     0.029 A 
ATOM     48  N   UNL A   1      42.753  29.734  29.774  1.00  0.00    -0.354 N 
ATOM     49  N   UNL A   1      45.582  28.940  29.717  1.00  0.00    -0.248 NA
ATOM     50  C   UNL A   1      47.839  29.445  30.048  1.00  0.00     0.031 C 
ATOM     51  C   UNL A   1      42.243  31.747  30.564  1.00  0.00     0.029 A 
ATOM     52  C   UNL A   1      43.302  30.894  30.297  1.00  0.00     0.049 A 
ATOM     53  H   UNL A   1      43.269  28.946  29.486  1.00  0.00     0.167 HD
ATOM     54  C   UNL A   1      45.690  30.225  30.233  1.00  0.00     0.074 A 
ATOM     55  C   UNL A   1      47.101  30.471  30.449  1.00  0.00     0.031 C 
ATOM     56  C   UNL A   1      44.709  31.121  30.503  1.00  0.00     0.037 A 
BRANCH  43  57
ATOM     57  C   UNL A   1      39.018  29.132  29.141  1.00  0.00     0.057 A 
ATOM     58  C   UNL A   1      38.392  29.502  27.944  1.00  0.00     0.134 A 
ATOM     59  C   UNL A   1      38.213  29.016  30.281  1.00  0.00     0.134 A 
ATOM     60  F   UNL A   1      39.107  29.643  26.817  1.00  0.00    -0.206 F 
ATOM     61  C   UNL A   1      37.023  29.771  27.887  1.00  0.00     0.040 A 
ATOM     62  C   UNL A   1      36.838  29.256  30.232  1.00  0.00     0.040 A 
ATOM     63  F   UNL A   1      38.746  28.660  31.459  1.00  0.00    -0.206 F 
ATOM     64  C   UNL A   1      36.242  29.642  29.033  1.00  0.00     0.006 A 
ENDBRANCH  43  57
BRANCH  44  65
ATOM     65  C   UNL A   1      48.737  26.817  29.128  1.00  0.00     0.057 A 
ATOM     66  C   UNL A   1      49.530  27.128  28.018  1.00  0.00     0.134 A 
ATOM     67  C   UNL A   1      49.360  26.188  30.212  1.00  0.00     0.134 A 
ATOM     68  F   UNL A   1      48.984  27.715  26.942  1.00  0.00    -0.206 F 
ATOM     69  C   UNL A   1      50.887  26.808  27.976  1.00  0.00     0.040 A 
ATOM     70  C   UNL A   1      50.722  25.885  30.195  1.00  0.00     0.040 A 
ATOM     71  F   UNL A   1      48.656  25.874  31.309  1.00  0.00    -0.206 F 
ATOM     72  C   UNL A   1      51.488  26.189  29.071  1.00  0.00     0.006 A 
ENDBRANCH  44  65
BRANCH  56  73
ATOM     73  C   UNL A   1      45.133  32.439  31.080  1.00  0.00     0.057 A 
ATOM     74  C   UNL A   1      45.417  33.543  30.266  1.00  0.00     0.134 A 
ATOM     75  C   UNL A   1      45.234  32.612  32.466  1.00  0.00     0.134 A 
ATOM     76  F   UNL A   1      45.353  33.439  28.931  1.00  0.00    -0.206 F 
ATOM     77  C   UNL A   1      45.813  34.766  30.811  1.00  0.00     0.040 A 
ATOM     78  C   UNL A   1      45.603  33.837  33.023  1.00  0.00     0.040 A 
ATOM     79  F   UNL A   1      44.967  31.596  33.301  1.00  0.00    -0.206 F 
ATOM     80  C   UNL A   1      45.901  34.916  32.194  1.00  0.00     0.006 A 
ENDBRANCH  56  73
ENDBRANCH  30  31
ENDBRANCH  22  25
ENDBRANCH  20  21
ENDBRANCH   1  20
TORSDOF 14
ENDMDL
