MODEL 1
REMARK VINA RESULT:     -11.3      0.000      0.000
REMARK SMILES CC(=O)N[C@@H](Cc1cc(Br)c(O)c(Br)c1)C(=O)NCCCNC(=O)c1ccc(-c2c3nc(c(-c4c(F)cccc4F)c4ccc([nH]4)c(-c4c(F)cccc4F)c4nc(c(-c5c(F)cccc5F)c5ccc2[nH]5)C=C4)C=C3)cc1
REMARK SMILES IDX 19 1 18 2 16 3 17 4 5 6 4 7 1 8 2 9 3 10 6 12 7 13 8 14
REMARK SMILES IDX 15 15 9 16 13 17 10 18 11 19 14 20 12 21 20 23 21 24 22 25
REMARK SMILES IDX 23 26 24 28 25 29 26 30 78 31 27 32 77 33 28 34 29 35 30 36
REMARK SMILES IDX 71 37 31 38 76 39 70 40 72 41 32 42 75 43 69 44 68 45 33 47
REMARK SMILES IDX 59 48 42 49 58 50 43 51 46 52 57 53 73 54 44 55 45 56 56 58
REMARK SMILES IDX 74 59 47 60 34 61 35 62 40 63 36 64 37 65 39 66 41 67 38 68
REMARK SMILES IDX 60 69 61 70 66 71 62 72 63 73 65 74 67 75 64 76 48 77 49 78
REMARK SMILES IDX 54 79 50 80 51 81 53 82 55 83 52 84
REMARK H PARENT 18 5 4 11 12 22 22 27 72 46 46 57
REMARK Flexibility Score: inf
ROOT
ATOM      1  C   UNL A   1      32.004  29.094  25.373  1.00  0.00     0.117 C 
ENDROOT
BRANCH   1   2
ATOM      2  N   UNL A   1      33.214  29.172  24.584  1.00  0.00    -0.354 N 
ATOM      3  C   UNL A   1      33.793  28.215  23.800  1.00  0.00     0.242 C 
ATOM      4  O   UNL A   1      34.533  28.614  22.894  1.00  0.00    -0.273 OA
ATOM      5  H   UNL A   1      33.687  30.035  24.618  1.00  0.00     0.163 HD
BRANCH   3   6
ATOM      6  C   UNL A   1      33.483  26.702  23.933  1.00  0.00     0.175 C 
BRANCH   6   7
ATOM      7  N   UNL A   1      33.715  25.956  22.691  1.00  0.00    -0.344 N 
ATOM      8  C   UNL A   1      31.437  26.225  21.773  1.00  0.00     0.114 C 
ATOM      9  C   UNL A   1      32.874  25.809  21.628  1.00  0.00     0.217 C 
ATOM     10  O   UNL A   1      33.311  25.319  20.590  1.00  0.00    -0.275 OA
ATOM     11  H   UNL A   1      34.588  25.507  22.616  1.00  0.00     0.164 HD
ENDBRANCH   6   7
BRANCH   6  12
ATOM     12  C   UNL A   1      34.073  26.029  25.196  1.00  0.00     0.070 C 
BRANCH  12  13
ATOM     13  C   UNL A   1      34.413  24.559  25.120  1.00  0.00    -0.043 A 
ATOM     14  C   UNL A   1      33.391  23.598  25.045  1.00  0.00     0.023 A 
ATOM     15  C   UNL A   1      35.746  24.122  25.191  1.00  0.00     0.023 A 
ATOM     16  C   UNL A   1      33.692  22.234  25.143  1.00  0.00     0.061 A 
ATOM     17  C   UNL A   1      36.041  22.757  25.303  1.00  0.00     0.061 A 
ATOM     18  Br  UNL A   1      32.265  20.987  25.155  1.00  0.00    -0.047 Br
ATOM     19  C   UNL A   1      35.013  21.811  25.309  1.00  0.00     0.143 A 
ATOM     20  Br  UNL A   1      37.853  22.251  25.550  1.00  0.00    -0.047 Br
BRANCH  19  21
ATOM     21  O   UNL A   1      35.312  20.492  25.521  1.00  0.00    -0.506 OA
ATOM     22  H   UNL A   1      34.664  19.834  25.367  1.00  0.00     0.293 HD
ENDBRANCH  19  21
ENDBRANCH  12  13
ENDBRANCH   6  12
ENDBRANCH   3   6
ENDBRANCH   1   2
BRANCH   1  23
ATOM     23  C   UNL A   1      32.204  28.792  26.840  1.00  0.00     0.042 C 
BRANCH  23  24
ATOM     24  C   UNL A   1      33.617  29.071  27.325  1.00  0.00     0.118 C 
BRANCH  24  25
ATOM     25  N   UNL A   1      33.766  30.386  27.952  1.00  0.00    -0.352 N 
ATOM     26  C   UNL A   1      34.802  30.939  28.667  1.00  0.00     0.251 C 
ATOM     27  H   UNL A   1      32.987  30.978  27.841  1.00  0.00     0.163 HD
ATOM     28  O   UNL A   1      34.617  31.991  29.275  1.00  0.00    -0.269 OA
BRANCH  26  29
ATOM     29  C   UNL A   1      36.118  30.265  28.731  1.00  0.00     0.039 A 
ATOM     30  C   UNL A   1      36.952  30.272  27.610  1.00  0.00     0.014 A 
ATOM     31  C   UNL A   1      36.540  29.630  29.898  1.00  0.00     0.014 A 
ATOM     32  C   UNL A   1      38.244  29.742  27.700  1.00  0.00     0.010 A 
ATOM     33  C   UNL A   1      37.862  29.224  30.028  1.00  0.00     0.010 A 
ATOM     34  C   UNL A   1      38.732  29.271  28.929  1.00  0.00    -0.014 A 
BRANCH  34  35
ATOM     35  C   UNL A   1      40.139  28.823  29.103  1.00  0.00     0.031 A 
ATOM     36  C   UNL A   1      41.178  29.785  29.622  1.00  0.00     0.074 A 
ATOM     37  C   UNL A   1      40.508  27.594  28.689  1.00  0.00     0.049 A 
ATOM     38  N   UNL A   1      42.475  29.632  29.715  1.00  0.00    -0.248 NA
ATOM     39  C   UNL A   1      40.703  31.112  30.049  1.00  0.00     0.031 C 
ATOM     40  C   UNL A   1      39.618  26.596  28.090  1.00  0.00     0.029 A 
ATOM     41  N   UNL A   1      41.736  26.981  28.688  1.00  0.00    -0.354 N 
ATOM     42  C   UNL A   1      42.968  30.850  30.165  1.00  0.00     0.074 A 
ATOM     43  C   UNL A   1      41.842  31.748  30.282  1.00  0.00     0.031 C 
ATOM     44  C   UNL A   1      40.324  25.490  27.800  1.00  0.00     0.029 A 
ATOM     45  C   UNL A   1      41.721  25.714  28.156  1.00  0.00     0.049 A 
ATOM     46  H   UNL A   1      42.551  27.409  29.037  1.00  0.00     0.167 HD
ATOM     47  C   UNL A   1      44.242  31.184  30.479  1.00  0.00     0.037 A 
ATOM     48  C   UNL A   1      42.722  24.833  27.964  1.00  0.00     0.037 A 
ATOM     49  C   UNL A   1      45.350  30.266  30.433  1.00  0.00     0.049 A 
ATOM     50  C   UNL A   1      44.117  25.208  28.384  1.00  0.00     0.074 A 
ATOM     51  C   UNL A   1      46.656  30.474  30.842  1.00  0.00     0.029 A 
ATOM     52  N   UNL A   1      45.279  28.967  29.956  1.00  0.00    -0.354 N 
ATOM     53  N   UNL A   1      44.551  26.332  28.900  1.00  0.00    -0.248 NA
ATOM     54  C   UNL A   1      45.160  24.187  28.204  1.00  0.00     0.031 C 
ATOM     55  C   UNL A   1      47.384  29.310  30.577  1.00  0.00     0.029 A 
ATOM     56  C   UNL A   1      46.522  28.366  30.043  1.00  0.00     0.049 A 
ATOM     57  H   UNL A   1      44.465  28.536  29.607  1.00  0.00     0.167 HD
ATOM     58  C   UNL A   1      45.907  26.146  29.131  1.00  0.00     0.074 A 
ATOM     59  C   UNL A   1      46.222  24.796  28.714  1.00  0.00     0.031 C 
ATOM     60  C   UNL A   1      46.813  27.016  29.637  1.00  0.00     0.037 A 
BRANCH  47  61
ATOM     61  C   UNL A   1      44.509  32.593  30.921  1.00  0.00     0.057 A 
ATOM     62  C   UNL A   1      44.779  33.617  30.006  1.00  0.00     0.134 A 
ATOM     63  C   UNL A   1      44.440  32.938  32.277  1.00  0.00     0.134 A 
ATOM     64  F   UNL A   1      44.870  33.351  28.694  1.00  0.00    -0.206 F 
ATOM     65  C   UNL A   1      44.992  34.932  30.424  1.00  0.00     0.040 A 
ATOM     66  C   UNL A   1      44.626  34.254  32.705  1.00  0.00     0.040 A 
ATOM     67  F   UNL A   1      44.180  32.007  33.206  1.00  0.00    -0.206 F 
ATOM     68  C   UNL A   1      44.907  35.255  31.777  1.00  0.00     0.006 A 
ENDBRANCH  47  61
BRANCH  48  69
ATOM     69  C   UNL A   1      42.446  23.503  27.364  1.00  0.00     0.057 A 
ATOM     70  C   UNL A   1      42.041  22.423  28.157  1.00  0.00     0.134 A 
ATOM     71  C   UNL A   1      42.602  23.273  25.992  1.00  0.00     0.134 A 
ATOM     72  F   UNL A   1      41.892  22.577  29.481  1.00  0.00    -0.206 F 
ATOM     73  C   UNL A   1      41.829  21.154  27.613  1.00  0.00     0.040 A 
ATOM     74  C   UNL A   1      42.368  22.016  25.431  1.00  0.00     0.040 A 
ATOM     75  F   UNL A   1      42.979  24.268  25.177  1.00  0.00    -0.206 F 
ATOM     76  C   UNL A   1      41.990  20.950  26.245  1.00  0.00     0.006 A 
ENDBRANCH  48  69
BRANCH  60  77
ATOM     77  C   UNL A   1      48.218  26.523  29.805  1.00  0.00     0.057 A 
ATOM     78  C   UNL A   1      49.187  26.702  28.810  1.00  0.00     0.134 A 
ATOM     79  C   UNL A   1      48.617  25.901  30.995  1.00  0.00     0.134 A 
ATOM     80  F   UNL A   1      48.864  27.280  27.642  1.00  0.00    -0.206 F 
ATOM     81  C   UNL A   1      50.499  26.260  28.983  1.00  0.00     0.040 A 
ATOM     82  C   UNL A   1      49.932  25.478  31.190  1.00  0.00     0.040 A 
ATOM     83  F   UNL A   1      47.740  25.710  31.990  1.00  0.00    -0.206 F 
ATOM     84  C   UNL A   1      50.875  25.652  30.180  1.00  0.00     0.006 A 
ENDBRANCH  60  77
ENDBRANCH  34  35
ENDBRANCH  26  29
ENDBRANCH  24  25
ENDBRANCH  23  24
ENDBRANCH   1  23
TORSDOF 14
ENDMDL
MODEL 2
REMARK VINA RESULT:     -11.2      2.493      7.533
REMARK SMILES CC(=O)N[C@@H](Cc1cc(Br)c(O)c(Br)c1)C(=O)NCCCNC(=O)c1ccc(-c2c3nc(c(-c4c(F)cccc4F)c4ccc([nH]4)c(-c4c(F)cccc4F)c4nc(c(-c5c(F)cccc5F)c5ccc2[nH]5)C=C4)C=C3)cc1
REMARK SMILES IDX 19 1 18 2 16 3 17 4 5 6 4 7 1 8 2 9 3 10 6 12 7 13 8 14
REMARK SMILES IDX 15 15 9 16 13 17 10 18 11 19 14 20 12 21 20 23 21 24 22 25
REMARK SMILES IDX 23 26 24 28 25 29 26 30 78 31 27 32 77 33 28 34 29 35 30 36
REMARK SMILES IDX 71 37 31 38 76 39 70 40 72 41 32 42 75 43 69 44 68 45 33 47
REMARK SMILES IDX 59 48 42 49 58 50 43 51 46 52 57 53 73 54 44 55 45 56 56 58
REMARK SMILES IDX 74 59 47 60 34 61 35 62 40 63 36 64 37 65 39 66 41 67 38 68
REMARK SMILES IDX 60 69 61 70 66 71 62 72 63 73 65 74 67 75 64 76 48 77 49 78
REMARK SMILES IDX 54 79 50 80 51 81 53 82 55 83 52 84
REMARK H PARENT 18 5 4 11 12 22 22 27 72 46 46 57
REMARK Flexibility Score: inf
ROOT
ATOM      1  C   UNL A   1      36.063  21.470  24.994  1.00  0.00     0.117 C 
ENDROOT
BRANCH   1   2
ATOM      2  N   UNL A   1      35.583  21.516  26.357  1.00  0.00    -0.354 N 
ATOM      3  C   UNL A   1      34.488  22.157  26.863  1.00  0.00     0.242 C 
ATOM      4  O   UNL A   1      34.022  21.711  27.917  1.00  0.00    -0.273 OA
ATOM      5  H   UNL A   1      36.121  21.014  27.013  1.00  0.00     0.163 HD
BRANCH   3   6
ATOM      6  C   UNL A   1      33.769  23.320  26.132  1.00  0.00     0.175 C 
BRANCH   6   7
ATOM      7  N   UNL A   1      32.536  23.745  26.803  1.00  0.00    -0.344 N 
ATOM      8  C   UNL A   1      31.013  23.272  24.916  1.00  0.00     0.114 C 
ATOM      9  C   UNL A   1      31.253  23.636  26.354  1.00  0.00     0.217 C 
ATOM     10  O   UNL A   1      30.331  23.861  27.134  1.00  0.00    -0.275 OA
ATOM     11  H   UNL A   1      32.649  24.160  27.688  1.00  0.00     0.164 HD
ENDBRANCH   6   7
BRANCH   6  12
ATOM     12  C   UNL A   1      34.693  24.486  25.706  1.00  0.00     0.070 C 
BRANCH  12  13
ATOM     13  C   UNL A   1      34.127  25.533  24.774  1.00  0.00    -0.043 A 
ATOM     14  C   UNL A   1      33.833  26.821  25.251  1.00  0.00     0.023 A 
ATOM     15  C   UNL A   1      33.823  25.221  23.439  1.00  0.00     0.023 A 
ATOM     16  C   UNL A   1      33.156  27.739  24.439  1.00  0.00     0.061 A 
ATOM     17  C   UNL A   1      33.133  26.137  22.636  1.00  0.00     0.061 A 
ATOM     18  Br  UNL A   1      32.679  29.421  25.171  1.00  0.00    -0.047 Br
ATOM     19  C   UNL A   1      32.772  27.388  23.142  1.00  0.00     0.143 A 
ATOM     20  Br  UNL A   1      32.620  25.590  20.893  1.00  0.00    -0.047 Br
BRANCH  19  21
ATOM     21  O   UNL A   1      32.010  28.231  22.378  1.00  0.00    -0.506 OA
ATOM     22  H   UNL A   1      32.111  29.158  22.461  1.00  0.00     0.293 HD
ENDBRANCH  19  21
ENDBRANCH  12  13
ENDBRANCH   6  12
ENDBRANCH   3   6
ENDBRANCH   1   2
BRANCH   1  23
ATOM     23  C   UNL A   1      37.237  20.551  24.749  1.00  0.00     0.042 C 
BRANCH  23  24
ATOM     24  C   UNL A   1      38.442  20.869  25.620  1.00  0.00     0.118 C 
BRANCH  24  25
ATOM     25  N   UNL A   1      39.435  19.793  25.650  1.00  0.00    -0.352 N 
ATOM     26  C   UNL A   1      40.774  19.802  25.965  1.00  0.00     0.251 C 
ATOM     27  H   UNL A   1      39.082  18.908  25.403  1.00  0.00     0.163 HD
ATOM     28  O   UNL A   1      41.454  18.808  25.719  1.00  0.00    -0.269 OA
BRANCH  26  29
ATOM     29  C   UNL A   1      41.399  21.001  26.566  1.00  0.00     0.039 A 
ATOM     30  C   UNL A   1      41.985  21.962  25.737  1.00  0.00     0.014 A 
ATOM     31  C   UNL A   1      41.405  21.188  27.947  1.00  0.00     0.014 A 
ATOM     32  C   UNL A   1      42.471  23.153  26.288  1.00  0.00     0.010 A 
ATOM     33  C   UNL A   1      41.766  22.420  28.479  1.00  0.00     0.010 A 
ATOM     34  C   UNL A   1      42.308  23.418  27.657  1.00  0.00    -0.014 A 
BRANCH  34  35
ATOM     35  C   UNL A   1      42.688  24.723  28.261  1.00  0.00     0.031 A 
ATOM     36  C   UNL A   1      41.641  25.785  28.483  1.00  0.00     0.074 A 
ATOM     37  C   UNL A   1      43.985  24.997  28.504  1.00  0.00     0.049 A 
ATOM     38  N   UNL A   1      41.790  27.028  28.867  1.00  0.00    -0.248 NA
ATOM     39  C   UNL A   1      40.245  25.417  28.190  1.00  0.00     0.031 C 
ATOM     40  C   UNL A   1      45.108  24.089  28.254  1.00  0.00     0.029 A 
ATOM     41  N   UNL A   1      44.584  26.131  28.995  1.00  0.00    -0.354 N 
ATOM     42  C   UNL A   1      40.522  27.594  28.817  1.00  0.00     0.074 A 
ATOM     43  C   UNL A   1      39.622  26.578  28.321  1.00  0.00     0.031 C 
ATOM     44  C   UNL A   1      46.253  24.692  28.613  1.00  0.00     0.029 A 
ATOM     45  C   UNL A   1      45.953  26.040  29.080  1.00  0.00     0.049 A 
ATOM     46  H   UNL A   1      44.080  26.934  29.261  1.00  0.00     0.167 HD
ATOM     47  C   UNL A   1      40.137  28.841  29.177  1.00  0.00     0.037 A 
ATOM     48  C   UNL A   1      46.866  26.946  29.480  1.00  0.00     0.037 A 
ATOM     49  C   UNL A   1      41.022  29.826  29.740  1.00  0.00     0.049 A 
ATOM     50  C   UNL A   1      46.402  28.302  29.937  1.00  0.00     0.074 A 
ATOM     51  C   UNL A   1      40.707  31.076  30.244  1.00  0.00     0.029 A 
ATOM     52  N   UNL A   1      42.392  29.669  29.878  1.00  0.00    -0.354 N 
ATOM     53  N   UNL A   1      45.186  28.789  29.975  1.00  0.00    -0.248 NA
ATOM     54  C   UNL A   1      47.437  29.230  30.415  1.00  0.00     0.031 C 
ATOM     55  C   UNL A   1      41.895  31.691  30.654  1.00  0.00     0.029 A 
ATOM     56  C   UNL A   1      42.941  30.807  30.443  1.00  0.00     0.049 A 
ATOM     57  H   UNL A   1      42.899  28.868  29.613  1.00  0.00     0.167 HD
ATOM     58  C   UNL A   1      45.305  30.067  30.505  1.00  0.00     0.074 A 
ATOM     59  C   UNL A   1      46.709  30.274  30.789  1.00  0.00     0.031 C 
ATOM     60  C   UNL A   1      44.339  30.989  30.732  1.00  0.00     0.037 A 
BRANCH  47  61
ATOM     61  C   UNL A   1      38.694  29.209  28.995  1.00  0.00     0.057 A 
ATOM     62  C   UNL A   1      38.175  29.579  27.748  1.00  0.00     0.134 A 
ATOM     63  C   UNL A   1      37.800  29.138  30.071  1.00  0.00     0.134 A 
ATOM     64  F   UNL A   1      38.980  29.677  26.678  1.00  0.00    -0.206 F 
ATOM     65  C   UNL A   1      36.824  29.886  27.581  1.00  0.00     0.040 A 
ATOM     66  C   UNL A   1      36.442  29.418  29.912  1.00  0.00     0.040 A 
ATOM     67  F   UNL A   1      38.230  28.786  31.292  1.00  0.00    -0.206 F 
ATOM     68  C   UNL A   1      35.951  29.797  28.664  1.00  0.00     0.006 A 
ENDBRANCH  47  61
BRANCH  48  69
ATOM     69  C   UNL A   1      48.311  26.601  29.486  1.00  0.00     0.057 A 
ATOM     70  C   UNL A   1      49.135  26.923  28.401  1.00  0.00     0.134 A 
ATOM     71  C   UNL A   1      48.896  25.924  30.561  1.00  0.00     0.134 A 
ATOM     72  F   UNL A   1      48.627  27.556  27.332  1.00  0.00    -0.206 F 
ATOM     73  C   UNL A   1      50.482  26.559  28.371  1.00  0.00     0.040 A 
ATOM     74  C   UNL A   1      50.249  25.577  30.557  1.00  0.00     0.040 A 
ATOM     75  F   UNL A   1      48.164  25.594  31.635  1.00  0.00    -0.206 F 
ATOM     76  C   UNL A   1      51.043  25.886  29.453  1.00  0.00     0.006 A 
ENDBRANCH  48  69
BRANCH  60  77
ATOM     77  C   UNL A   1      44.762  32.287  31.350  1.00  0.00     0.057 A 
ATOM     78  C   UNL A   1      44.836  32.454  32.739  1.00  0.00     0.134 A 
ATOM     79  C   UNL A   1      45.141  33.368  30.545  1.00  0.00     0.134 A 
ATOM     80  F   UNL A   1      44.474  31.460  33.564  1.00  0.00    -0.206 F 
ATOM     81  C   UNL A   1      45.252  33.659  33.305  1.00  0.00     0.040 A 
ATOM     82  C   UNL A   1      45.583  34.569  31.100  1.00  0.00     0.040 A 
ATOM     83  F   UNL A   1      45.102  33.269  29.208  1.00  0.00    -0.206 F 
ATOM     84  C   UNL A   1      45.634  34.719  32.484  1.00  0.00     0.006 A 
ENDBRANCH  60  77
ENDBRANCH  34  35
ENDBRANCH  26  29
ENDBRANCH  24  25
ENDBRANCH  23  24
ENDBRANCH   1  23
TORSDOF 14
ENDMDL
MODEL 3
REMARK VINA RESULT:     -11.2      3.708      7.252
REMARK SMILES CC(=O)N[C@@H](Cc1cc(Br)c(O)c(Br)c1)C(=O)NCCCNC(=O)c1ccc(-c2c3nc(c(-c4c(F)cccc4F)c4ccc([nH]4)c(-c4c(F)cccc4F)c4nc(c(-c5c(F)cccc5F)c5ccc2[nH]5)C=C4)C=C3)cc1
REMARK SMILES IDX 19 1 18 2 16 3 17 4 5 6 4 7 1 8 2 9 3 10 6 12 7 13 8 14
REMARK SMILES IDX 15 15 9 16 13 17 10 18 11 19 14 20 12 21 20 23 21 24 22 25
REMARK SMILES IDX 23 26 24 28 25 29 26 30 78 31 27 32 77 33 28 34 29 35 30 36
REMARK SMILES IDX 71 37 31 38 76 39 70 40 72 41 32 42 75 43 69 44 68 45 33 47
REMARK SMILES IDX 59 48 42 49 58 50 43 51 46 52 57 53 73 54 44 55 45 56 56 58
REMARK SMILES IDX 74 59 47 60 34 61 35 62 40 63 36 64 37 65 39 66 41 67 38 68
REMARK SMILES IDX 60 69 61 70 66 71 62 72 63 73 65 74 67 75 64 76 48 77 49 78
REMARK SMILES IDX 54 79 50 80 51 81 53 82 55 83 52 84
REMARK H PARENT 18 5 4 11 12 22 22 27 72 46 46 57
REMARK Flexibility Score: inf
ROOT
ATOM      1  C   UNL A   1      31.561  29.470  24.796  1.00  0.00     0.117 C 
ENDROOT
BRANCH   1   2
ATOM      2  N   UNL A   1      32.876  29.532  24.197  1.00  0.00    -0.354 N 
ATOM      3  C   UNL A   1      33.626  28.523  23.662  1.00  0.00     0.242 C 
ATOM      4  O   UNL A   1      34.480  28.849  22.829  1.00  0.00    -0.273 OA
ATOM      5  H   UNL A   1      33.288  30.426  24.171  1.00  0.00     0.163 HD
BRANCH   3   6
ATOM      6  C   UNL A   1      33.384  27.024  23.973  1.00  0.00     0.175 C 
BRANCH   6   7
ATOM      7  N   UNL A   1      33.700  26.144  22.843  1.00  0.00    -0.344 N 
ATOM      8  C   UNL A   1      31.486  25.057  22.706  1.00  0.00     0.114 C 
ATOM      9  C   UNL A   1      32.857  25.326  22.152  1.00  0.00     0.217 C 
ATOM     10  O   UNL A   1      33.251  24.814  21.107  1.00  0.00    -0.275 OA
ATOM     11  H   UNL A   1      34.639  26.145  22.546  1.00  0.00     0.164 HD
ENDBRANCH   6   7
BRANCH   6  12
ATOM     12  C   UNL A   1      33.956  26.544  25.329  1.00  0.00     0.070 C 
BRANCH  12  13
ATOM     13  C   UNL A   1      33.639  25.134  25.771  1.00  0.00    -0.043 A 
ATOM     14  C   UNL A   1      34.623  24.134  25.706  1.00  0.00     0.023 A 
ATOM     15  C   UNL A   1      32.345  24.782  26.188  1.00  0.00     0.023 A 
ATOM     16  C   UNL A   1      34.291  22.796  25.953  1.00  0.00     0.061 A 
ATOM     17  C   UNL A   1      32.014  23.441  26.420  1.00  0.00     0.061 A 
ATOM     18  Br  UNL A   1      35.629  21.472  25.736  1.00  0.00    -0.047 Br
ATOM     19  C   UNL A   1      32.978  22.441  26.275  1.00  0.00     0.143 A 
ATOM     20  Br  UNL A   1      30.209  23.024  26.830  1.00  0.00    -0.047 Br
BRANCH  19  21
ATOM     21  O   UNL A   1      32.613  21.128  26.407  1.00  0.00    -0.506 OA
ATOM     22  H   UNL A   1      32.835  20.510  25.739  1.00  0.00     0.293 HD
ENDBRANCH  19  21
ENDBRANCH  12  13
ENDBRANCH   6  12
ENDBRANCH   3   6
ENDBRANCH   1   2
BRANCH   1  23
ATOM     23  C   UNL A   1      31.085  30.746  25.449  1.00  0.00     0.042 C 
BRANCH  23  24
ATOM     24  C   UNL A   1      31.910  31.145  26.663  1.00  0.00     0.118 C 
BRANCH  24  25
ATOM     25  N   UNL A   1      31.917  32.589  26.909  1.00  0.00    -0.352 N 
ATOM     26  C   UNL A   1      32.789  33.385  27.613  1.00  0.00     0.251 C 
ATOM     27  H   UNL A   1      31.166  33.074  26.497  1.00  0.00     0.163 HD
ATOM     28  O   UNL A   1      32.476  34.549  27.856  1.00  0.00    -0.269 OA
BRANCH  26  29
ATOM     29  C   UNL A   1      34.077  32.845  28.102  1.00  0.00     0.039 A 
ATOM     30  C   UNL A   1      35.175  33.698  28.242  1.00  0.00     0.014 A 
ATOM     31  C   UNL A   1      34.208  31.497  28.433  1.00  0.00     0.014 A 
ATOM     32  C   UNL A   1      36.359  33.221  28.815  1.00  0.00     0.010 A 
ATOM     33  C   UNL A   1      35.332  31.056  29.119  1.00  0.00     0.010 A 
ATOM     34  C   UNL A   1      36.426  31.912  29.316  1.00  0.00    -0.014 A 
BRANCH  34  35
ATOM     35  C   UNL A   1      37.614  31.405  30.051  1.00  0.00     0.031 A 
ATOM     36  C   UNL A   1      38.564  30.445  29.381  1.00  0.00     0.074 A 
ATOM     37  C   UNL A   1      37.779  31.713  31.354  1.00  0.00     0.049 A 
ATOM     38  N   UNL A   1      39.574  29.786  29.891  1.00  0.00    -0.248 NA
ATOM     39  C   UNL A   1      38.318  30.149  27.959  1.00  0.00     0.031 C 
ATOM     40  C   UNL A   1      36.886  32.563  32.146  1.00  0.00     0.029 A 
ATOM     41  N   UNL A   1      38.746  31.328  32.249  1.00  0.00    -0.354 N 
ATOM     42  C   UNL A   1      40.049  28.972  28.870  1.00  0.00     0.074 A 
ATOM     43  C   UNL A   1      39.192  29.180  27.725  1.00  0.00     0.031 C 
ATOM     44  C   UNL A   1      37.358  32.651  33.401  1.00  0.00     0.029 A 
ATOM     45  C   UNL A   1      38.562  31.836  33.514  1.00  0.00     0.049 A 
ATOM     46  H   UNL A   1      39.501  30.743  32.009  1.00  0.00     0.167 HD
ATOM     47  C   UNL A   1      41.120  28.144  28.877  1.00  0.00     0.037 A 
ATOM     48  C   UNL A   1      39.276  31.656  34.641  1.00  0.00     0.037 A 
ATOM     49  C   UNL A   1      42.016  27.995  29.992  1.00  0.00     0.049 A 
ATOM     50  C   UNL A   1      40.500  30.783  34.601  1.00  0.00     0.074 A 
ATOM     51  C   UNL A   1      43.194  27.272  30.059  1.00  0.00     0.029 A 
ATOM     52  N   UNL A   1      41.835  28.585  31.234  1.00  0.00    -0.354 N 
ATOM     53  N   UNL A   1      40.992  30.095  33.599  1.00  0.00    -0.248 NA
ATOM     54  C   UNL A   1      41.273  30.668  35.846  1.00  0.00     0.031 C 
ATOM     55  C   UNL A   1      43.707  27.394  31.354  1.00  0.00     0.029 A 
ATOM     56  C   UNL A   1      42.871  28.227  32.080  1.00  0.00     0.049 A 
ATOM     57  H   UNL A   1      41.082  29.170  31.477  1.00  0.00     0.167 HD
ATOM     58  C   UNL A   1      42.144  29.490  34.083  1.00  0.00     0.074 A 
ATOM     59  C   UNL A   1      42.287  29.903  35.463  1.00  0.00     0.031 C 
ATOM     60  C   UNL A   1      43.004  28.661  33.445  1.00  0.00     0.037 A 
BRANCH  47  61
ATOM     61  C   UNL A   1      41.400  27.350  27.634  1.00  0.00     0.057 A 
ATOM     62  C   UNL A   1      42.192  27.854  26.596  1.00  0.00     0.134 A 
ATOM     63  C   UNL A   1      40.915  26.042  27.502  1.00  0.00     0.134 A 
ATOM     64  F   UNL A   1      42.678  29.103  26.656  1.00  0.00    -0.206 F 
ATOM     65  C   UNL A   1      42.476  27.094  25.459  1.00  0.00     0.040 A 
ATOM     66  C   UNL A   1      41.212  25.264  26.382  1.00  0.00     0.040 A 
ATOM     67  F   UNL A   1      40.154  25.496  28.462  1.00  0.00    -0.206 F 
ATOM     68  C   UNL A   1      41.992  25.792  25.354  1.00  0.00     0.006 A 
ENDBRANCH  47  61
BRANCH  48  69
ATOM     69  C   UNL A   1      38.869  32.329  35.901  1.00  0.00     0.057 A 
ATOM     70  C   UNL A   1      39.224  33.659  36.157  1.00  0.00     0.134 A 
ATOM     71  C   UNL A   1      38.140  31.655  36.887  1.00  0.00     0.134 A 
ATOM     72  F   UNL A   1      39.939  34.352  35.258  1.00  0.00    -0.206 F 
ATOM     73  C   UNL A   1      38.893  34.286  37.360  1.00  0.00     0.040 A 
ATOM     74  C   UNL A   1      37.780  32.278  38.084  1.00  0.00     0.040 A 
ATOM     75  F   UNL A   1      37.762  30.382  36.700  1.00  0.00    -0.206 F 
ATOM     76  C   UNL A   1      38.166  33.595  38.326  1.00  0.00     0.006 A 
ENDBRANCH  48  69
BRANCH  60  77
ATOM     77  C   UNL A   1      44.194  28.179  34.218  1.00  0.00     0.057 A 
ATOM     78  C   UNL A   1      45.384  28.914  34.276  1.00  0.00     0.134 A 
ATOM     79  C   UNL A   1      44.131  26.986  34.950  1.00  0.00     0.134 A 
ATOM     80  F   UNL A   1      45.510  30.059  33.588  1.00  0.00    -0.206 F 
ATOM     81  C   UNL A   1      46.479  28.469  35.017  1.00  0.00     0.040 A 
ATOM     82  C   UNL A   1      45.211  26.543  35.714  1.00  0.00     0.040 A 
ATOM     83  F   UNL A   1      43.017  26.241  34.944  1.00  0.00    -0.206 F 
ATOM     84  C   UNL A   1      46.391  27.283  35.745  1.00  0.00     0.006 A 
ENDBRANCH  60  77
ENDBRANCH  34  35
ENDBRANCH  26  29
ENDBRANCH  24  25
ENDBRANCH  23  24
ENDBRANCH   1  23
TORSDOF 14
ENDMDL
