MODEL 1
REMARK VINA RESULT:     -11.3      0.000      0.000
REMARK SMILES CCOc1cc(NC(=O)c2c(C(=O)NCCCNC(=O)c3ccc(-c4c5nc(c(-c6c(F)cccc6F)c6ccc([nH]6)c(-c6c(F)cccc6F)c6nc(c(-c7c(F)cccc7F)c7ccc4[nH]7)C=C6)C=C5)cc3)cnn2C)ccc1OC(F)F
REMARK SMILES IDX 15 1 14 2 12 3 13 4 11 6 10 7 77 8 75 9 76 10 78 11 8 12
REMARK SMILES IDX 7 13 9 15 6 16 4 17 5 18 81 19 80 20 79 21 3 22 2 23 1 24
REMARK SMILES IDX 82 25 83 26 84 27 85 28 16 29 17 30 18 31 19 32 20 34 21 35
REMARK SMILES IDX 22 36 74 37 23 38 73 39 24 40 25 41 26 42 67 43 27 44 72 45
REMARK SMILES IDX 66 46 68 47 28 48 71 49 65 50 64 51 29 53 55 54 38 55 54 56
REMARK SMILES IDX 39 57 42 58 53 59 69 60 40 61 41 62 52 64 70 65 43 66 30 67
REMARK SMILES IDX 31 68 36 69 32 70 33 71 35 72 37 73 34 74 56 75 57 76 62 77
REMARK SMILES IDX 58 78 59 79 61 80 63 81 60 82 44 83 45 84 50 85 46 86 47 87
REMARK SMILES IDX 49 88 51 89 48 90
REMARK H PARENT 14 5 7 14 18 33 68 52 42 63
REMARK Flexibility Score: inf
ROOT
ATOM      1  C   UNL A   1      32.159  26.311  26.100  1.00  0.00     0.118 C 
ENDROOT
BRANCH   1   2
ATOM      2  N   UNL A   1      31.322  25.287  26.689  1.00  0.00    -0.352 N 
ATOM      3  C   UNL A   1      31.454  23.939  26.871  1.00  0.00     0.255 C 
ATOM      4  O   UNL A   1      30.454  23.378  27.327  1.00  0.00    -0.269 OA
ATOM      5  H   UNL A   1      30.471  25.640  27.036  1.00  0.00     0.163 HD
BRANCH   3   6
ATOM      6  C   UNL A   1      32.635  23.153  26.549  1.00  0.00     0.090 A 
ATOM      7  C   UNL A   1      32.955  22.221  25.564  1.00  0.00     0.138 A 
ATOM      8  N   UNL A   1      34.311  22.011  25.680  1.00  0.00    -0.262 N 
ATOM      9  C   UNL A   1      33.857  23.306  27.262  1.00  0.00     0.149 A 
ATOM     10  N   UNL A   1      34.851  22.564  26.778  1.00  0.00    -0.180 NA
ATOM     11  C   UNL A   1      35.180  21.265  24.796  1.00  0.00     0.174 C 
BRANCH   7  12
ATOM     12  C   UNL A   1      32.181  21.665  24.500  1.00  0.00     0.274 C 
ATOM     13  N   UNL A   1      31.834  22.427  23.405  1.00  0.00    -0.321 N 
ATOM     14  H   UNL A   1      31.233  21.951  22.788  1.00  0.00     0.170 HD
ATOM     15  O   UNL A   1      31.798  20.494  24.518  1.00  0.00    -0.267 OA
BRANCH  13  16
ATOM     16  C   UNL A   1      32.141  23.734  22.965  1.00  0.00     0.045 A 
ATOM     17  C   UNL A   1      31.641  26.028  22.279  1.00  0.00     0.163 A 
ATOM     18  C   UNL A   1      31.230  24.771  22.763  1.00  0.00     0.076 A 
ATOM     19  C   UNL A   1      32.999  26.286  22.080  1.00  0.00     0.168 A 
ATOM     20  C   UNL A   1      33.922  25.270  22.334  1.00  0.00     0.053 A 
ATOM     21  C   UNL A   1      33.497  24.002  22.742  1.00  0.00     0.030 A 
BRANCH  17  22
ATOM     22  O   UNL A   1      30.734  27.036  22.082  1.00  0.00    -0.490 OA
BRANCH  22  23
ATOM     23  C   UNL A   1      29.981  27.388  23.252  1.00  0.00     0.226 C 
ATOM     24  C   UNL A   1      30.465  28.739  23.748  1.00  0.00     0.049 C 
ENDBRANCH  22  23
ENDBRANCH  17  22
BRANCH  19  25
ATOM     25  O   UNL A   1      33.560  27.477  21.714  1.00  0.00    -0.431 OA
BRANCH  25  26
ATOM     26  C   UNL A   1      34.092  28.300  22.747  1.00  0.00     0.542 C 
ATOM     27  F   UNL A   1      33.486  29.511  22.781  1.00  0.00    -0.167 F 
ATOM     28  F   UNL A   1      33.948  27.695  23.947  1.00  0.00    -0.167 F 
ENDBRANCH  25  26
ENDBRANCH  19  25
ENDBRANCH  13  16
ENDBRANCH   7  12
ENDBRANCH   3   6
ENDBRANCH   1   2
BRANCH   1  29
ATOM     29  C   UNL A   1      32.182  27.621  26.891  1.00  0.00     0.042 C 
BRANCH  29  30
ATOM     30  C   UNL A   1      33.560  28.219  27.158  1.00  0.00     0.118 C 
BRANCH  30  31
ATOM     31  N   UNL A   1      33.536  29.606  27.589  1.00  0.00    -0.352 N 
ATOM     32  C   UNL A   1      34.494  30.448  28.098  1.00  0.00     0.251 C 
ATOM     33  H   UNL A   1      32.651  30.029  27.500  1.00  0.00     0.163 HD
ATOM     34  O   UNL A   1      34.145  31.576  28.445  1.00  0.00    -0.269 OA
BRANCH  32  35
ATOM     35  C   UNL A   1      35.914  30.054  28.292  1.00  0.00     0.039 A 
ATOM     36  C   UNL A   1      36.288  29.595  29.564  1.00  0.00     0.014 A 
ATOM     37  C   UNL A   1      36.902  30.197  27.317  1.00  0.00     0.014 A 
ATOM     38  C   UNL A   1      37.611  29.226  29.833  1.00  0.00     0.010 A 
ATOM     39  C   UNL A   1      38.208  29.759  27.560  1.00  0.00     0.010 A 
ATOM     40  C   UNL A   1      38.579  29.269  28.821  1.00  0.00    -0.014 A 
BRANCH  40  41
ATOM     41  C   UNL A   1      39.979  28.826  29.062  1.00  0.00     0.031 A 
ATOM     42  C   UNL A   1      40.971  29.753  29.711  1.00  0.00     0.074 A 
ATOM     43  C   UNL A   1      40.388  27.612  28.643  1.00  0.00     0.049 A 
ATOM     44  N   UNL A   1      42.270  29.626  29.823  1.00  0.00    -0.248 NA
ATOM     45  C   UNL A   1      40.437  30.997  30.285  1.00  0.00     0.031 C 
ATOM     46  C   UNL A   1      39.550  26.612  27.980  1.00  0.00     0.029 A 
ATOM     47  N   UNL A   1      41.624  27.020  28.707  1.00  0.00    -0.354 N 
ATOM     48  C   UNL A   1      42.716  30.803  30.407  1.00  0.00     0.074 A 
ATOM     49  C   UNL A   1      41.548  31.622  30.654  1.00  0.00     0.031 C 
ATOM     50  C   UNL A   1      40.289  25.522  27.722  1.00  0.00     0.029 A 
ATOM     51  C   UNL A   1      41.660  25.760  28.164  1.00  0.00     0.049 A 
ATOM     52  H   UNL A   1      42.412  27.457  29.105  1.00  0.00     0.167 HD
ATOM     53  C   UNL A   1      43.985  31.175  30.700  1.00  0.00     0.037 A 
ATOM     54  C   UNL A   1      42.682  24.896  28.024  1.00  0.00     0.037 A 
ATOM     55  C   UNL A   1      45.145  30.342  30.535  1.00  0.00     0.049 A 
ATOM     56  C   UNL A   1      44.058  25.281  28.478  1.00  0.00     0.074 A 
ATOM     57  C   UNL A   1      46.469  30.635  30.818  1.00  0.00     0.029 A 
ATOM     58  N   UNL A   1      45.115  29.038  30.073  1.00  0.00    -0.354 N 
ATOM     59  N   UNL A   1      44.470  26.416  28.980  1.00  0.00    -0.248 NA
ATOM     60  C   UNL A   1      45.112  24.265  28.335  1.00  0.00     0.031 C 
ATOM     61  C   UNL A   1      47.240  29.500  30.537  1.00  0.00     0.029 A 
ATOM     62  C   UNL A   1      46.392  28.503  30.084  1.00  0.00     0.049 A 
ATOM     63  H   UNL A   1      44.306  28.560  29.779  1.00  0.00     0.167 HD
ATOM     64  C   UNL A   1      45.829  26.257  29.211  1.00  0.00     0.074 A 
ATOM     65  C   UNL A   1      46.171  24.908  28.810  1.00  0.00     0.031 C 
ATOM     66  C   UNL A   1      46.715  27.156  29.700  1.00  0.00     0.037 A 
BRANCH  53  67
ATOM     67  C   UNL A   1      44.185  32.566  31.212  1.00  0.00     0.057 A 
ATOM     68  C   UNL A   1      44.192  32.857  32.578  1.00  0.00     0.134 A 
ATOM     69  C   UNL A   1      44.399  33.622  30.317  1.00  0.00     0.134 A 
ATOM     70  F   UNL A   1      43.977  31.888  33.480  1.00  0.00    -0.206 F 
ATOM     71  C   UNL A   1      44.396  34.157  33.042  1.00  0.00     0.040 A 
ATOM     72  C   UNL A   1      44.615  34.924  30.768  1.00  0.00     0.040 A 
ATOM     73  F   UNL A   1      44.402  33.403  28.993  1.00  0.00    -0.206 F 
ATOM     74  C   UNL A   1      44.611  35.195  32.136  1.00  0.00     0.006 A 
ENDBRANCH  53  67
BRANCH  54  75
ATOM     75  C   UNL A   1      42.437  23.565  27.427  1.00  0.00     0.057 A 
ATOM     76  C   UNL A   1      42.550  23.370  26.047  1.00  0.00     0.134 A 
ATOM     77  C   UNL A   1      42.092  22.464  28.217  1.00  0.00     0.134 A 
ATOM     78  F   UNL A   1      42.861  24.397  25.243  1.00  0.00    -0.206 F 
ATOM     79  C   UNL A   1      42.325  22.121  25.469  1.00  0.00     0.040 A 
ATOM     80  C   UNL A   1      41.873  21.207  27.653  1.00  0.00     0.040 A 
ATOM     81  F   UNL A   1      41.971  22.596  29.546  1.00  0.00    -0.206 F 
ATOM     82  C   UNL A   1      41.987  21.035  26.274  1.00  0.00     0.006 A 
ENDBRANCH  54  75
BRANCH  66  83
ATOM     83  C   UNL A   1      48.132  26.702  29.843  1.00  0.00     0.057 A 
ATOM     84  C   UNL A   1      49.075  26.936  28.837  1.00  0.00     0.134 A 
ATOM     85  C   UNL A   1      48.559  26.049  31.004  1.00  0.00     0.134 A 
ATOM     86  F   UNL A   1      48.716  27.549  27.698  1.00  0.00    -0.206 F 
ATOM     87  C   UNL A   1      50.401  26.530  28.978  1.00  0.00     0.040 A 
ATOM     88  C   UNL A   1      49.885  25.641  31.159  1.00  0.00     0.040 A 
ATOM     89  F   UNL A   1      47.697  25.793  31.998  1.00  0.00    -0.206 F 
ATOM     90  C   UNL A   1      50.810  25.882  30.143  1.00  0.00     0.006 A 
ENDBRANCH  66  83
ENDBRANCH  40  41
ENDBRANCH  32  35
ENDBRANCH  30  31
ENDBRANCH  29  30
ENDBRANCH   1  29
TORSDOF 16
ENDMDL
MODEL 2
REMARK VINA RESULT:     -11.3      1.213      2.218
REMARK SMILES CCOc1cc(NC(=O)c2c(C(=O)NCCCNC(=O)c3ccc(-c4c5nc(c(-c6c(F)cccc6F)c6ccc([nH]6)c(-c6c(F)cccc6F)c6nc(c(-c7c(F)cccc7F)c7ccc4[nH]7)C=C6)C=C5)cc3)cnn2C)ccc1OC(F)F
REMARK SMILES IDX 15 1 14 2 12 3 13 4 11 6 10 7 77 8 75 9 76 10 78 11 8 12
REMARK SMILES IDX 7 13 9 15 6 16 4 17 5 18 81 19 80 20 79 21 3 22 2 23 1 24
REMARK SMILES IDX 82 25 83 26 84 27 85 28 16 29 17 30 18 31 19 32 20 34 21 35
REMARK SMILES IDX 22 36 74 37 23 38 73 39 24 40 25 41 26 42 67 43 27 44 72 45
REMARK SMILES IDX 66 46 68 47 28 48 71 49 65 50 64 51 29 53 55 54 38 55 54 56
REMARK SMILES IDX 39 57 42 58 53 59 69 60 40 61 41 62 52 64 70 65 43 66 30 67
REMARK SMILES IDX 31 68 36 69 32 70 33 71 35 72 37 73 34 74 56 75 57 76 62 77
REMARK SMILES IDX 58 78 59 79 61 80 63 81 60 82 44 83 45 84 50 85 46 86 47 87
REMARK SMILES IDX 49 88 51 89 48 90
REMARK H PARENT 14 5 7 14 18 33 68 52 42 63
REMARK Flexibility Score: inf
ROOT
ATOM      1  C   UNL A   1      31.739  26.997  26.375  1.00  0.00     0.118 C 
ENDROOT
BRANCH   1   2
ATOM      2  N   UNL A   1      31.323  25.712  26.894  1.00  0.00    -0.352 N 
ATOM      3  C   UNL A   1      31.728  24.425  26.682  1.00  0.00     0.255 C 
ATOM      4  O   UNL A   1      31.040  23.566  27.241  1.00  0.00    -0.269 OA
ATOM      5  H   UNL A   1      30.586  25.780  27.543  1.00  0.00     0.163 HD
BRANCH   3   6
ATOM      6  C   UNL A   1      32.852  24.017  25.855  1.00  0.00     0.090 A 
ATOM      7  C   UNL A   1      32.985  23.370  24.627  1.00  0.00     0.138 A 
ATOM      8  N   UNL A   1      34.316  23.481  24.292  1.00  0.00    -0.262 N 
ATOM      9  C   UNL A   1      34.196  24.341  26.198  1.00  0.00     0.149 A 
ATOM     10  N   UNL A   1      35.085  23.956  25.284  1.00  0.00    -0.180 NA
ATOM     11  C   UNL A   1      34.956  23.129  23.043  1.00  0.00     0.174 C 
BRANCH   7  12
ATOM     12  C   UNL A   1      32.011  22.829  23.734  1.00  0.00     0.274 C 
ATOM     13  N   UNL A   1      31.053  23.637  23.158  1.00  0.00    -0.321 N 
ATOM     14  H   UNL A   1      30.396  23.128  22.632  1.00  0.00     0.170 HD
ATOM     15  O   UNL A   1      31.989  21.632  23.443  1.00  0.00    -0.267 OA
BRANCH  13  16
ATOM     16  C   UNL A   1      30.796  25.026  23.152  1.00  0.00     0.045 A 
ATOM     17  C   UNL A   1      31.298  27.382  22.725  1.00  0.00     0.163 A 
ATOM     18  C   UNL A   1      31.634  26.017  22.640  1.00  0.00     0.076 A 
ATOM     19  C   UNL A   1      30.059  27.761  23.245  1.00  0.00     0.168 A 
ATOM     20  C   UNL A   1      29.191  26.770  23.708  1.00  0.00     0.053 A 
ATOM     21  C   UNL A   1      29.566  25.424  23.689  1.00  0.00     0.030 A 
BRANCH  17  22
ATOM     22  O   UNL A   1      32.133  28.344  22.221  1.00  0.00    -0.490 OA
BRANCH  22  23
ATOM     23  C   UNL A   1      32.929  29.011  23.212  1.00  0.00     0.226 C 
ATOM     24  C   UNL A   1      33.999  28.048  23.697  1.00  0.00     0.049 C 
ENDBRANCH  22  23
ENDBRANCH  17  22
BRANCH  19  25
ATOM     25  O   UNL A   1      29.548  29.027  23.301  1.00  0.00    -0.431 OA
BRANCH  25  26
ATOM     26  C   UNL A   1      28.216  29.221  22.839  1.00  0.00     0.542 C 
ATOM     27  F   UNL A   1      27.555  30.132  23.594  1.00  0.00    -0.167 F 
ATOM     28  F   UNL A   1      28.223  29.631  21.550  1.00  0.00    -0.167 F 
ENDBRANCH  25  26
ENDBRANCH  19  25
ENDBRANCH  13  16
ENDBRANCH   7  12
ENDBRANCH   3   6
ENDBRANCH   1   2
BRANCH   1  29
ATOM     29  C   UNL A   1      32.138  28.002  27.459  1.00  0.00     0.042 C 
BRANCH  29  30
ATOM     30  C   UNL A   1      33.517  28.638  27.311  1.00  0.00     0.118 C 
BRANCH  30  31
ATOM     31  N   UNL A   1      33.587  30.020  27.750  1.00  0.00    -0.352 N 
ATOM     32  C   UNL A   1      34.586  30.777  28.312  1.00  0.00     0.251 C 
ATOM     33  H   UNL A   1      32.747  30.516  27.620  1.00  0.00     0.163 HD
ATOM     34  O   UNL A   1      34.316  31.929  28.649  1.00  0.00    -0.269 OA
BRANCH  32  35
ATOM     35  C   UNL A   1      35.957  30.264  28.572  1.00  0.00     0.039 A 
ATOM     36  C   UNL A   1      36.866  30.284  27.504  1.00  0.00     0.014 A 
ATOM     37  C   UNL A   1      36.357  29.690  29.779  1.00  0.00     0.014 A 
ATOM     38  C   UNL A   1      38.169  29.797  27.663  1.00  0.00     0.010 A 
ATOM     39  C   UNL A   1      37.679  29.273  29.963  1.00  0.00     0.010 A 
ATOM     40  C   UNL A   1      38.602  29.320  28.908  1.00  0.00    -0.014 A 
BRANCH  40  41
ATOM     41  C   UNL A   1      39.998  28.854  29.121  1.00  0.00     0.031 A 
ATOM     42  C   UNL A   1      41.018  29.765  29.751  1.00  0.00     0.074 A 
ATOM     43  C   UNL A   1      40.379  27.634  28.694  1.00  0.00     0.049 A 
ATOM     44  N   UNL A   1      42.317  29.616  29.836  1.00  0.00    -0.248 NA
ATOM     45  C   UNL A   1      40.517  31.017  30.335  1.00  0.00     0.031 C 
ATOM     46  C   UNL A   1      39.512  26.648  28.048  1.00  0.00     0.029 A 
ATOM     47  N   UNL A   1      41.607  27.022  28.733  1.00  0.00    -0.354 N 
ATOM     48  C   UNL A   1      42.794  30.785  30.412  1.00  0.00     0.074 A 
ATOM     49  C   UNL A   1      41.644  31.623  30.682  1.00  0.00     0.031 C 
ATOM     50  C   UNL A   1      40.228  25.546  27.775  1.00  0.00     0.029 A 
ATOM     51  C   UNL A   1      41.611  25.762  28.190  1.00  0.00     0.049 A 
ATOM     52  H   UNL A   1      42.409  27.446  29.115  1.00  0.00     0.167 HD
ATOM     53  C   UNL A   1      44.075  31.136  30.679  1.00  0.00     0.037 A 
ATOM     54  C   UNL A   1      42.615  24.881  28.029  1.00  0.00     0.037 A 
ATOM     55  C   UNL A   1      45.218  30.284  30.491  1.00  0.00     0.049 A 
ATOM     56  C   UNL A   1      44.006  25.243  28.456  1.00  0.00     0.074 A 
ATOM     57  C   UNL A   1      46.551  30.556  30.748  1.00  0.00     0.029 A 
ATOM     58  N   UNL A   1      45.156  28.981  30.029  1.00  0.00    -0.354 N 
ATOM     59  N   UNL A   1      44.447  26.371  28.949  1.00  0.00    -0.248 NA
ATOM     60  C   UNL A   1      45.040  24.210  28.292  1.00  0.00     0.031 C 
ATOM     61  C   UNL A   1      47.298  29.408  30.450  1.00  0.00     0.029 A 
ATOM     62  C   UNL A   1      46.425  28.425  30.015  1.00  0.00     0.049 A 
ATOM     63  H   UNL A   1      44.334  28.517  29.751  1.00  0.00     0.167 HD
ATOM     64  C   UNL A   1      45.807  26.189  29.153  1.00  0.00     0.074 A 
ATOM     65  C   UNL A   1      46.119  24.835  28.745  1.00  0.00     0.031 C 
ATOM     66  C   UNL A   1      46.718  27.074  29.624  1.00  0.00     0.037 A 
BRANCH  53  67
ATOM     67  C   UNL A   1      44.308  32.524  31.186  1.00  0.00     0.057 A 
ATOM     68  C   UNL A   1      44.480  33.607  30.321  1.00  0.00     0.134 A 
ATOM     69  C   UNL A   1      44.334  32.776  32.564  1.00  0.00     0.134 A 
ATOM     70  F   UNL A   1      44.480  33.423  28.993  1.00  0.00    -0.206 F 
ATOM     71  C   UNL A   1      44.681  34.900  30.808  1.00  0.00     0.040 A 
ATOM     72  C   UNL A   1      44.523  34.064  33.063  1.00  0.00     0.040 A 
ATOM     73  F   UNL A   1      44.176  31.775  33.443  1.00  0.00    -0.206 F 
ATOM     74  C   UNL A   1      44.700  35.132  32.183  1.00  0.00     0.006 A 
ENDBRANCH  53  67
BRANCH  54  75
ATOM     75  C   UNL A   1      42.336  23.555  27.437  1.00  0.00     0.057 A 
ATOM     76  C   UNL A   1      42.003  22.466  28.249  1.00  0.00     0.134 A 
ATOM     77  C   UNL A   1      42.389  23.347  26.055  1.00  0.00     0.134 A 
ATOM     78  F   UNL A   1      41.956  22.608  29.581  1.00  0.00    -0.206 F 
ATOM     79  C   UNL A   1      41.735  21.210  27.706  1.00  0.00     0.040 A 
ATOM     80  C   UNL A   1      42.114  22.098  25.497  1.00  0.00     0.040 A 
ATOM     81  F   UNL A   1      42.701  24.358  25.231  1.00  0.00    -0.206 F 
ATOM     82  C   UNL A   1      41.788  21.025  26.326  1.00  0.00     0.006 A 
ENDBRANCH  54  75
BRANCH  66  83
ATOM     83  C   UNL A   1      48.129  26.596  29.739  1.00  0.00     0.057 A 
ATOM     84  C   UNL A   1      49.040  26.762  28.690  1.00  0.00     0.134 A 
ATOM     85  C   UNL A   1      48.585  25.989  30.914  1.00  0.00     0.134 A 
ATOM     86  F   UNL A   1      48.652  27.328  27.537  1.00  0.00    -0.206 F 
ATOM     87  C   UNL A   1      50.362  26.334  28.804  1.00  0.00     0.040 A 
ATOM     88  C   UNL A   1      49.907  25.561  31.042  1.00  0.00     0.040 A 
ATOM     89  F   UNL A   1      47.755  25.800  31.949  1.00  0.00    -0.206 F 
ATOM     90  C   UNL A   1      50.800  25.733  29.983  1.00  0.00     0.006 A 
ENDBRANCH  66  83
ENDBRANCH  40  41
ENDBRANCH  32  35
ENDBRANCH  30  31
ENDBRANCH  29  30
ENDBRANCH   1  29
TORSDOF 16
ENDMDL
MODEL 3
REMARK VINA RESULT:     -11.1      2.215      6.743
REMARK SMILES CCOc1cc(NC(=O)c2c(C(=O)NCCCNC(=O)c3ccc(-c4c5nc(c(-c6c(F)cccc6F)c6ccc([nH]6)c(-c6c(F)cccc6F)c6nc(c(-c7c(F)cccc7F)c7ccc4[nH]7)C=C6)C=C5)cc3)cnn2C)ccc1OC(F)F
REMARK SMILES IDX 15 1 14 2 12 3 13 4 11 6 10 7 77 8 75 9 76 10 78 11 8 12
REMARK SMILES IDX 7 13 9 15 6 16 4 17 5 18 81 19 80 20 79 21 3 22 2 23 1 24
REMARK SMILES IDX 82 25 83 26 84 27 85 28 16 29 17 30 18 31 19 32 20 34 21 35
REMARK SMILES IDX 22 36 74 37 23 38 73 39 24 40 25 41 26 42 67 43 27 44 72 45
REMARK SMILES IDX 66 46 68 47 28 48 71 49 65 50 64 51 29 53 55 54 38 55 54 56
REMARK SMILES IDX 39 57 42 58 53 59 69 60 40 61 41 62 52 64 70 65 43 66 30 67
REMARK SMILES IDX 31 68 36 69 32 70 33 71 35 72 37 73 34 74 56 75 57 76 62 77
REMARK SMILES IDX 58 78 59 79 61 80 63 81 60 82 44 83 45 84 50 85 46 86 47 87
REMARK SMILES IDX 49 88 51 89 48 90
REMARK H PARENT 14 5 7 14 18 33 68 52 42 63
REMARK Flexibility Score: inf
ROOT
ATOM      1  C   UNL A   1      35.637  20.697  25.007  1.00  0.00     0.118 C 
ENDROOT
BRANCH   1   2
ATOM      2  N   UNL A   1      35.889  22.023  25.531  1.00  0.00    -0.352 N 
ATOM      3  C   UNL A   1      35.147  23.167  25.618  1.00  0.00     0.255 C 
ATOM      4  O   UNL A   1      35.759  24.150  26.042  1.00  0.00    -0.269 OA
ATOM      5  H   UNL A   1      36.792  22.122  25.906  1.00  0.00     0.163 HD
BRANCH   3   6
ATOM      6  C   UNL A   1      33.750  23.301  25.235  1.00  0.00     0.090 A 
ATOM      7  C   UNL A   1      33.083  23.724  24.087  1.00  0.00     0.138 A 
ATOM      8  N   UNL A   1      31.758  23.403  24.290  1.00  0.00    -0.262 N 
ATOM      9  C   UNL A   1      32.692  22.878  26.089  1.00  0.00     0.149 A 
ATOM     10  N   UNL A   1      31.485  23.003  25.541  1.00  0.00    -0.180 NA
ATOM     11  C   UNL A   1      30.667  23.473  23.343  1.00  0.00     0.174 C 
BRANCH   7  12
ATOM     12  C   UNL A   1      33.569  24.228  22.843  1.00  0.00     0.274 C 
ATOM     13  N   UNL A   1      33.445  25.563  22.524  1.00  0.00    -0.321 N 
ATOM     14  H   UNL A   1      33.744  25.762  21.607  1.00  0.00     0.170 HD
ATOM     15  O   UNL A   1      34.114  23.497  22.014  1.00  0.00    -0.267 OA
BRANCH  13  16
ATOM     16  C   UNL A   1      32.987  26.711  23.208  1.00  0.00     0.045 A 
ATOM     17  C   UNL A   1      31.342  28.386  23.895  1.00  0.00     0.163 A 
ATOM     18  C   UNL A   1      31.681  27.204  23.210  1.00  0.00     0.076 A 
ATOM     19  C   UNL A   1      32.302  29.040  24.671  1.00  0.00     0.168 A 
ATOM     20  C   UNL A   1      33.597  28.521  24.718  1.00  0.00     0.053 A 
ATOM     21  C   UNL A   1      33.942  27.390  23.974  1.00  0.00     0.030 A 
BRANCH  17  22
ATOM     22  O   UNL A   1      30.057  28.860  23.885  1.00  0.00    -0.490 OA
BRANCH  22  23
ATOM     23  C   UNL A   1      29.410  28.784  22.606  1.00  0.00     0.226 C 
ATOM     24  C   UNL A   1      29.601  30.109  21.890  1.00  0.00     0.049 C 
ENDBRANCH  22  23
ENDBRANCH  17  22
BRANCH  19  25
ATOM     25  O   UNL A   1      32.103  30.132  25.468  1.00  0.00    -0.431 OA
BRANCH  25  26
ATOM     26  C   UNL A   1      31.850  29.901  26.850  1.00  0.00     0.542 C 
ATOM     27  F   UNL A   1      31.344  28.662  27.063  1.00  0.00    -0.167 F 
ATOM     28  F   UNL A   1      32.989  30.046  27.564  1.00  0.00    -0.167 F 
ENDBRANCH  25  26
ENDBRANCH  19  25
ENDBRANCH  13  16
ENDBRANCH   7  12
ENDBRANCH   3   6
ENDBRANCH   1   2
BRANCH   1  29
ATOM     29  C   UNL A   1      36.893  19.830  24.892  1.00  0.00     0.042 C 
BRANCH  29  30
ATOM     30  C   UNL A   1      38.215  20.515  25.230  1.00  0.00     0.118 C 
BRANCH  30  31
ATOM     31  N   UNL A   1      39.338  19.605  25.378  1.00  0.00    -0.352 N 
ATOM     32  C   UNL A   1      40.587  19.739  25.931  1.00  0.00     0.251 C 
ATOM     33  H   UNL A   1      39.169  18.710  25.006  1.00  0.00     0.163 HD
ATOM     34  O   UNL A   1      41.363  18.788  25.841  1.00  0.00    -0.269 OA
BRANCH  32  35
ATOM     35  C   UNL A   1      41.064  20.984  26.590  1.00  0.00     0.039 A 
ATOM     36  C   UNL A   1      41.471  22.039  25.758  1.00  0.00     0.014 A 
ATOM     37  C   UNL A   1      41.213  21.127  27.970  1.00  0.00     0.014 A 
ATOM     38  C   UNL A   1      41.954  23.235  26.302  1.00  0.00     0.010 A 
ATOM     39  C   UNL A   1      41.624  22.347  28.517  1.00  0.00     0.010 A 
ATOM     40  C   UNL A   1      42.000  23.416  27.691  1.00  0.00    -0.014 A 
BRANCH  40  41
ATOM     41  C   UNL A   1      42.451  24.698  28.295  1.00  0.00     0.031 A 
ATOM     42  C   UNL A   1      41.460  25.790  28.596  1.00  0.00     0.074 A 
ATOM     43  C   UNL A   1      43.762  24.918  28.519  1.00  0.00     0.049 A 
ATOM     44  N   UNL A   1      41.681  27.037  28.931  1.00  0.00    -0.248 NA
ATOM     45  C   UNL A   1      40.036  25.442  28.478  1.00  0.00     0.031 C 
ATOM     46  C   UNL A   1      44.842  23.967  28.259  1.00  0.00     0.029 A 
ATOM     47  N   UNL A   1      44.405  26.027  29.010  1.00  0.00    -0.354 N 
ATOM     48  C   UNL A   1      40.431  27.640  28.988  1.00  0.00     0.074 A 
ATOM     49  C   UNL A   1      39.454  26.616  28.681  1.00  0.00     0.031 C 
ATOM     50  C   UNL A   1      46.011  24.522  28.618  1.00  0.00     0.029 A 
ATOM     51  C   UNL A   1      45.767  25.880  29.093  1.00  0.00     0.049 A 
ATOM     52  H   UNL A   1      43.935  26.850  29.277  1.00  0.00     0.167 HD
ATOM     53  C   UNL A   1      40.126  28.931  29.258  1.00  0.00     0.037 A 
ATOM     54  C   UNL A   1      46.717  26.744  29.493  1.00  0.00     0.037 A 
ATOM     55  C   UNL A   1      41.078  29.938  29.642  1.00  0.00     0.049 A 
ATOM     56  C   UNL A   1      46.340  28.133  29.916  1.00  0.00     0.074 A 
ATOM     57  C   UNL A   1      40.853  31.271  29.946  1.00  0.00     0.029 A 
ATOM     58  N   UNL A   1      42.433  29.714  29.807  1.00  0.00    -0.354 N 
ATOM     59  N   UNL A   1      45.161  28.700  29.913  1.00  0.00    -0.248 NA
ATOM     60  C   UNL A   1      47.429  29.003  30.386  1.00  0.00     0.031 C 
ATOM     61  C   UNL A   1      42.076  31.851  30.307  1.00  0.00     0.029 A 
ATOM     62  C   UNL A   1      43.056  30.876  30.231  1.00  0.00     0.049 A 
ATOM     63  H   UNL A   1      42.889  28.856  29.646  1.00  0.00     0.167 HD
ATOM     64  C   UNL A   1      45.363  29.993  30.376  1.00  0.00     0.074 A 
ATOM     65  C   UNL A   1      46.776  30.122  30.667  1.00  0.00     0.031 C 
ATOM     66  C   UNL A   1      44.457  30.986  30.533  1.00  0.00     0.037 A 
BRANCH  53  67
ATOM     67  C   UNL A   1      38.693  29.334  29.121  1.00  0.00     0.057 A 
ATOM     68  C   UNL A   1      38.132  29.660  27.883  1.00  0.00     0.134 A 
ATOM     69  C   UNL A   1      37.859  29.370  30.247  1.00  0.00     0.134 A 
ATOM     70  F   UNL A   1      38.886  29.658  26.774  1.00  0.00    -0.206 F 
ATOM     71  C   UNL A   1      36.788  30.019  27.768  1.00  0.00     0.040 A 
ATOM     72  C   UNL A   1      36.512  29.716  30.142  1.00  0.00     0.040 A 
ATOM     73  F   UNL A   1      38.342  29.069  31.461  1.00  0.00    -0.206 F 
ATOM     74  C   UNL A   1      35.973  30.045  28.899  1.00  0.00     0.006 A 
ENDBRANCH  53  67
BRANCH  54  75
ATOM     75  C   UNL A   1      48.132  26.313  29.522  1.00  0.00     0.057 A 
ATOM     76  C   UNL A   1      48.677  25.724  30.667  1.00  0.00     0.134 A 
ATOM     77  C   UNL A   1      48.965  26.473  28.410  1.00  0.00     0.134 A 
ATOM     78  F   UNL A   1      47.924  25.563  31.765  1.00  0.00    -0.206 F 
ATOM     79  C   UNL A   1      50.008  25.310  30.709  1.00  0.00     0.040 A 
ATOM     80  C   UNL A   1      50.296  26.055  28.434  1.00  0.00     0.040 A 
ATOM     81  F   UNL A   1      48.493  27.032  27.285  1.00  0.00    -0.206 F 
ATOM     82  C   UNL A   1      50.820  25.473  29.588  1.00  0.00     0.006 A 
ENDBRANCH  54  75
BRANCH  66  83
ATOM     83  C   UNL A   1      44.965  32.290  31.057  1.00  0.00     0.057 A 
ATOM     84  C   UNL A   1      45.421  33.292  30.194  1.00  0.00     0.134 A 
ATOM     85  C   UNL A   1      44.975  32.553  32.431  1.00  0.00     0.134 A 
ATOM     86  F   UNL A   1      45.444  33.088  28.868  1.00  0.00    -0.206 F 
ATOM     87  C   UNL A   1      45.878  34.516  30.682  1.00  0.00     0.040 A 
ATOM     88  C   UNL A   1      45.425  33.776  32.932  1.00  0.00     0.040 A 
ATOM     89  F   UNL A   1      44.554  31.628  33.305  1.00  0.00    -0.206 F 
ATOM     90  C   UNL A   1      45.878  34.761  32.054  1.00  0.00     0.006 A 
ENDBRANCH  66  83
ENDBRANCH  40  41
ENDBRANCH  32  35
ENDBRANCH  30  31
ENDBRANCH  29  30
ENDBRANCH   1  29
TORSDOF 16
ENDMDL
