MODEL 1
REMARK VINA RESULT:     -11.3      0.000      0.000
REMARK SMILES Cc1cc(Br)cnc1Sc1nc(CC(=O)NCCCNC(=O)c2ccc(-c3c4nc(c(-c5c(F)cccc5F)c5ccc([nH]5)c(-c5c(F)cccc5F)c5nc(c(-c6c(F)cccc6F)c6ccc3[nH]6)C=C5)C=C4)cc2)cs1
REMARK SMILES IDX 17 1 16 2 14 3 15 4 13 6 12 7 10 8 11 9 78 10 77 11 9 12
REMARK SMILES IDX 8 13 1 14 2 15 3 16 4 17 7 18 5 19 6 20 18 21 19 22 20 23
REMARK SMILES IDX 21 24 22 26 23 27 24 28 76 29 25 30 75 31 26 32 27 33 28 34
REMARK SMILES IDX 69 35 29 36 74 37 68 38 70 39 30 40 73 41 67 42 66 43 31 45
REMARK SMILES IDX 57 46 40 47 56 48 41 49 44 50 55 51 71 52 42 53 43 54 54 56
REMARK SMILES IDX 72 57 45 58 32 59 33 60 38 61 34 62 35 63 37 64 39 65 36 66
REMARK SMILES IDX 58 67 59 68 64 69 60 70 61 71 63 72 65 73 62 74 46 75 47 76
REMARK SMILES IDX 52 77 48 78 49 79 51 80 53 81 50 82
REMARK H PARENT 16 5 20 25 70 44 44 55
REMARK Flexibility Score: inf
ROOT
ATOM      1  C   UNL A   1      31.368  30.801  25.926  1.00  0.00     0.117 C 
ENDROOT
BRANCH   1   2
ATOM      2  N   UNL A   1      32.609  30.119  26.250  1.00  0.00    -0.356 N 
ATOM      3  C   UNL A   1      32.781  28.952  26.939  1.00  0.00     0.226 C 
ATOM      4  O   UNL A   1      33.927  28.590  27.209  1.00  0.00    -0.275 OA
ATOM      5  H   UNL A   1      33.433  30.555  25.934  1.00  0.00     0.163 HD
BRANCH   3   6
ATOM      6  C   UNL A   1      31.578  28.124  27.336  1.00  0.00     0.157 C 
BRANCH   6   7
ATOM      7  C   UNL A   1      31.341  26.991  26.396  1.00  0.00     0.062 A 
ATOM      8  C   UNL A   1      31.092  24.831  25.947  1.00  0.00     0.156 A 
ATOM      9  N   UNL A   1      31.410  25.691  26.889  1.00  0.00    -0.234 NA
ATOM     10  S   UNL A   1      30.813  25.516  24.394  1.00  0.00    -0.116 S 
ATOM     11  C   UNL A   1      31.029  27.081  25.052  1.00  0.00     0.092 A 
BRANCH   8  12
ATOM     12  S   UNL A   1      31.050  23.119  26.194  1.00  0.00    -0.039 SA
BRANCH  12  13
ATOM     13  C   UNL A   1      32.611  22.463  25.647  1.00  0.00     0.106 A 
ATOM     14  C   UNL A   1      32.189  21.952  23.142  1.00  0.00     0.047 C 
ATOM     15  C   UNL A   1      33.034  22.035  24.378  1.00  0.00    -0.017 A 
ATOM     16  C   UNL A   1      34.375  21.611  24.230  1.00  0.00     0.023 A 
ATOM     17  C   UNL A   1      35.258  21.665  25.295  1.00  0.00     0.036 A 
ATOM     18  N   UNL A   1      33.495  22.502  26.689  1.00  0.00    -0.248 NA
ATOM     19  Br  UNL A   1      37.056  21.149  25.089  1.00  0.00    -0.049 Br
ATOM     20  C   UNL A   1      34.778  22.118  26.499  1.00  0.00     0.128 A 
ENDBRANCH  12  13
ENDBRANCH   8  12
ENDBRANCH   6   7
ENDBRANCH   3   6
ENDBRANCH   1   2
BRANCH   1  21
ATOM     21  C   UNL A   1      31.311  32.208  26.517  1.00  0.00     0.042 C 
BRANCH  21  22
ATOM     22  C   UNL A   1      32.642  32.721  27.054  1.00  0.00     0.118 C 
BRANCH  22  23
ATOM     23  N   UNL A   1      32.530  34.036  27.665  1.00  0.00    -0.352 N 
ATOM     24  C   UNL A   1      33.212  34.581  28.718  1.00  0.00     0.251 C 
ATOM     25  H   UNL A   1      31.857  34.627  27.256  1.00  0.00     0.163 HD
ATOM     26  O   UNL A   1      32.833  35.661  29.181  1.00  0.00    -0.269 OA
BRANCH  24  27
ATOM     27  C   UNL A   1      34.385  33.907  29.316  1.00  0.00     0.039 A 
ATOM     28  C   UNL A   1      35.660  34.254  28.854  1.00  0.00     0.014 A 
ATOM     29  C   UNL A   1      34.247  32.888  30.263  1.00  0.00     0.014 A 
ATOM     30  C   UNL A   1      36.790  33.603  29.354  1.00  0.00     0.010 A 
ATOM     31  C   UNL A   1      35.379  32.287  30.814  1.00  0.00     0.010 A 
ATOM     32  C   UNL A   1      36.660  32.619  30.348  1.00  0.00    -0.014 A 
BRANCH  32  33
ATOM     33  C   UNL A   1      37.847  31.892  30.864  1.00  0.00     0.031 A 
ATOM     34  C   UNL A   1      38.400  32.227  32.224  1.00  0.00     0.074 A 
ATOM     35  C   UNL A   1      38.448  30.958  30.104  1.00  0.00     0.049 A 
ATOM     36  N   UNL A   1      39.459  31.751  32.828  1.00  0.00    -0.248 NA
ATOM     37  C   UNL A   1      37.680  33.253  32.996  1.00  0.00     0.031 C 
ATOM     38  C   UNL A   1      38.032  30.562  28.758  1.00  0.00     0.029 A 
ATOM     39  N   UNL A   1      39.547  30.174  30.357  1.00  0.00    -0.354 N 
ATOM     40  C   UNL A   1      39.542  32.429  34.037  1.00  0.00     0.074 A 
ATOM     41  C   UNL A   1      38.457  33.385  34.060  1.00  0.00     0.031 C 
ATOM     42  C   UNL A   1      38.850  29.594  28.313  1.00  0.00     0.029 A 
ATOM     43  C   UNL A   1      39.865  29.323  29.327  1.00  0.00     0.049 A 
ATOM     44  H   UNL A   1      40.058  30.217  31.197  1.00  0.00     0.167 HD
ATOM     45  C   UNL A   1      40.427  32.259  35.048  1.00  0.00     0.037 A 
ATOM     46  C   UNL A   1      40.862  28.426  29.214  1.00  0.00     0.037 A 
ATOM     47  C   UNL A   1      41.486  31.285  35.042  1.00  0.00     0.049 A 
ATOM     48  C   UNL A   1      41.824  28.245  30.355  1.00  0.00     0.074 A 
ATOM     49  C   UNL A   1      42.412  31.008  36.034  1.00  0.00     0.029 A 
ATOM     50  N   UNL A   1      41.754  30.421  33.992  1.00  0.00    -0.354 N 
ATOM     51  N   UNL A   1      41.864  28.865  31.510  1.00  0.00    -0.248 NA
ATOM     52  C   UNL A   1      42.873  27.229  30.182  1.00  0.00     0.031 C 
ATOM     53  C   UNL A   1      43.257  29.992  35.571  1.00  0.00     0.029 A 
ATOM     54  C   UNL A   1      42.832  29.612  34.310  1.00  0.00     0.049 A 
ATOM     55  H   UNL A   1      41.252  30.386  33.145  1.00  0.00     0.167 HD
ATOM     56  C   UNL A   1      42.916  28.291  32.213  1.00  0.00     0.074 A 
ATOM     57  C   UNL A   1      43.482  27.269  31.358  1.00  0.00     0.031 C 
ATOM     58  C   UNL A   1      43.369  28.583  33.457  1.00  0.00     0.037 A 
BRANCH  45  59
ATOM     59  C   UNL A   1      40.278  33.142  36.252  1.00  0.00     0.057 A 
ATOM     60  C   UNL A   1      41.028  34.316  36.404  1.00  0.00     0.134 A 
ATOM     61  C   UNL A   1      39.355  32.831  37.260  1.00  0.00     0.134 A 
ATOM     62  F   UNL A   1      41.938  34.664  35.482  1.00  0.00    -0.206 F 
ATOM     63  C   UNL A   1      40.887  35.134  37.527  1.00  0.00     0.040 A 
ATOM     64  C   UNL A   1      39.186  33.655  38.374  1.00  0.00     0.040 A 
ATOM     65  F   UNL A   1      38.600  31.726  37.175  1.00  0.00    -0.206 F 
ATOM     66  C   UNL A   1      39.959  34.807  38.512  1.00  0.00     0.006 A 
ENDBRANCH  45  59
BRANCH  46  67
ATOM     67  C   UNL A   1      40.984  27.600  27.987  1.00  0.00     0.057 A 
ATOM     68  C   UNL A   1      40.351  26.356  27.892  1.00  0.00     0.134 A 
ATOM     69  C   UNL A   1      41.744  28.025  26.890  1.00  0.00     0.134 A 
ATOM     70  F   UNL A   1      39.626  25.888  28.919  1.00  0.00    -0.206 F 
ATOM     71  C   UNL A   1      40.485  25.551  26.759  1.00  0.00     0.040 A 
ATOM     72  C   UNL A   1      41.867  27.241  25.742  1.00  0.00     0.040 A 
ATOM     73  F   UNL A   1      42.370  29.210  26.918  1.00  0.00    -0.206 F 
ATOM     74  C   UNL A   1      41.242  25.997  25.678  1.00  0.00     0.006 A 
ENDBRANCH  46  67
BRANCH  58  75
ATOM     75  C   UNL A   1      44.498  27.752  33.987  1.00  0.00     0.057 A 
ATOM     76  C   UNL A   1      45.834  28.155  33.873  1.00  0.00     0.134 A 
ATOM     77  C   UNL A   1      44.238  26.546  34.652  1.00  0.00     0.134 A 
ATOM     78  F   UNL A   1      46.148  29.293  33.236  1.00  0.00    -0.206 F 
ATOM     79  C   UNL A   1      46.874  27.376  34.382  1.00  0.00     0.040 A 
ATOM     80  C   UNL A   1      45.268  25.772  35.186  1.00  0.00     0.040 A 
ATOM     81  F   UNL A   1      42.979  26.108  34.802  1.00  0.00    -0.206 F 
ATOM     82  C   UNL A   1      46.592  26.183  35.046  1.00  0.00     0.006 A 
ENDBRANCH  58  75
ENDBRANCH  32  33
ENDBRANCH  24  27
ENDBRANCH  22  23
ENDBRANCH  21  22
ENDBRANCH   1  21
TORSDOF 13
ENDMDL
MODEL 2
REMARK VINA RESULT:     -11.2      0.957      6.275
REMARK SMILES Cc1cc(Br)cnc1Sc1nc(CC(=O)NCCCNC(=O)c2ccc(-c3c4nc(c(-c5c(F)cccc5F)c5ccc([nH]5)c(-c5c(F)cccc5F)c5nc(c(-c6c(F)cccc6F)c6ccc3[nH]6)C=C5)C=C4)cc2)cs1
REMARK SMILES IDX 17 1 16 2 14 3 15 4 13 6 12 7 10 8 11 9 78 10 77 11 9 12
REMARK SMILES IDX 8 13 1 14 2 15 3 16 4 17 7 18 5 19 6 20 18 21 19 22 20 23
REMARK SMILES IDX 21 24 22 26 23 27 24 28 76 29 25 30 75 31 26 32 27 33 28 34
REMARK SMILES IDX 69 35 29 36 74 37 68 38 70 39 30 40 73 41 67 42 66 43 31 45
REMARK SMILES IDX 57 46 40 47 56 48 41 49 44 50 55 51 71 52 42 53 43 54 54 56
REMARK SMILES IDX 72 57 45 58 32 59 33 60 38 61 34 62 35 63 37 64 39 65 36 66
REMARK SMILES IDX 58 67 59 68 64 69 60 70 61 71 63 72 65 73 62 74 46 75 47 76
REMARK SMILES IDX 52 77 48 78 49 79 51 80 53 81 50 82
REMARK H PARENT 16 5 20 25 70 44 44 55
REMARK Flexibility Score: inf
ROOT
ATOM      1  C   UNL A   1      31.463  30.641  25.806  1.00  0.00     0.117 C 
ENDROOT
BRANCH   1   2
ATOM      2  N   UNL A   1      32.668  29.939  26.213  1.00  0.00    -0.356 N 
ATOM      3  C   UNL A   1      32.774  28.796  26.953  1.00  0.00     0.226 C 
ATOM      4  O   UNL A   1      33.896  28.413  27.290  1.00  0.00    -0.275 OA
ATOM      5  H   UNL A   1      33.517  30.338  25.918  1.00  0.00     0.163 HD
BRANCH   3   6
ATOM      6  C   UNL A   1      31.531  28.018  27.327  1.00  0.00     0.157 C 
BRANCH   6   7
ATOM      7  C   UNL A   1      31.267  26.893  26.384  1.00  0.00     0.062 A 
ATOM      8  C   UNL A   1      30.963  24.742  25.929  1.00  0.00     0.156 A 
ATOM      9  N   UNL A   1      31.300  25.591  26.875  1.00  0.00    -0.234 NA
ATOM     10  S   UNL A   1      30.707  25.436  24.378  1.00  0.00    -0.116 S 
ATOM     11  C   UNL A   1      30.962  26.994  25.040  1.00  0.00     0.092 A 
BRANCH   8  12
ATOM     12  S   UNL A   1      30.876  23.031  26.173  1.00  0.00    -0.039 SA
BRANCH  12  13
ATOM     13  C   UNL A   1      32.415  22.334  25.615  1.00  0.00     0.106 A 
ATOM     14  C   UNL A   1      32.054  22.077  23.063  1.00  0.00     0.047 C 
ATOM     15  C   UNL A   1      32.857  21.997  24.326  1.00  0.00    -0.017 A 
ATOM     16  C   UNL A   1      34.176  21.508  24.180  1.00  0.00     0.023 A 
ATOM     17  C   UNL A   1      35.022  21.412  25.272  1.00  0.00     0.036 A 
ATOM     18  N   UNL A   1      33.262  22.225  26.683  1.00  0.00    -0.248 NA
ATOM     19  Br  UNL A   1      36.794  20.808  25.074  1.00  0.00    -0.049 Br
ATOM     20  C   UNL A   1      34.526  21.782  26.498  1.00  0.00     0.128 A 
ENDBRANCH  12  13
ENDBRANCH   8  12
ENDBRANCH   6   7
ENDBRANCH   3   6
ENDBRANCH   1   2
BRANCH   1  21
ATOM     21  C   UNL A   1      31.272  31.950  26.568  1.00  0.00     0.042 C 
BRANCH  21  22
ATOM     22  C   UNL A   1      32.544  32.502  27.202  1.00  0.00     0.118 C 
BRANCH  22  23
ATOM     23  N   UNL A   1      32.409  33.890  27.614  1.00  0.00    -0.352 N 
ATOM     24  C   UNL A   1      33.125  34.614  28.528  1.00  0.00     0.251 C 
ATOM     25  H   UNL A   1      31.688  34.387  27.164  1.00  0.00     0.163 HD
ATOM     26  O   UNL A   1      32.725  35.738  28.846  1.00  0.00    -0.269 OA
BRANCH  24  27
ATOM     27  C   UNL A   1      34.360  34.082  29.144  1.00  0.00     0.039 A 
ATOM     28  C   UNL A   1      35.583  34.338  28.514  1.00  0.00     0.014 A 
ATOM     29  C   UNL A   1      34.325  33.271  30.283  1.00  0.00     0.014 A 
ATOM     30  C   UNL A   1      36.766  33.809  29.035  1.00  0.00     0.010 A 
ATOM     31  C   UNL A   1      35.513  32.800  30.843  1.00  0.00     0.010 A 
ATOM     32  C   UNL A   1      36.743  33.043  30.212  1.00  0.00    -0.014 A 
BRANCH  32  33
ATOM     33  C   UNL A   1      37.986  32.441  30.758  1.00  0.00     0.031 A 
ATOM     34  C   UNL A   1      38.544  31.185  30.144  1.00  0.00     0.074 A 
ATOM     35  C   UNL A   1      38.594  32.998  31.821  1.00  0.00     0.049 A 
ATOM     36  N   UNL A   1      39.580  30.473  30.509  1.00  0.00    -0.248 NA
ATOM     37  C   UNL A   1      37.826  30.643  28.979  1.00  0.00     0.031 C 
ATOM     38  C   UNL A   1      38.138  34.196  32.528  1.00  0.00     0.029 A 
ATOM     39  N   UNL A   1      39.728  32.623  32.498  1.00  0.00    -0.354 N 
ATOM     40  C   UNL A   1      39.626  29.395  29.635  1.00  0.00     0.074 A 
ATOM     41  C   UNL A   1      38.486  29.517  28.753  1.00  0.00     0.031 C 
ATOM     42  C   UNL A   1      38.997  34.471  33.524  1.00  0.00     0.029 A 
ATOM     43  C   UNL A   1      40.044  33.454  33.545  1.00  0.00     0.049 A 
ATOM     44  H   UNL A   1      40.264  31.835  32.256  1.00  0.00     0.167 HD
ATOM     45  C   UNL A   1      40.545  28.403  29.557  1.00  0.00     0.037 A 
ATOM     46  C   UNL A   1      41.063  33.400  34.423  1.00  0.00     0.037 A 
ATOM     47  C   UNL A   1      41.698  28.299  30.411  1.00  0.00     0.049 A 
ATOM     48  C   UNL A   1      42.079  32.298  34.307  1.00  0.00     0.074 A 
ATOM     49  C   UNL A   1      42.709  27.352  30.387  1.00  0.00     0.029 A 
ATOM     50  N   UNL A   1      41.999  29.179  31.439  1.00  0.00    -0.354 N 
ATOM     51  N   UNL A   1      42.132  31.309  33.448  1.00  0.00    -0.248 NA
ATOM     52  C   UNL A   1      43.184  32.311  35.277  1.00  0.00     0.031 C 
ATOM     53  C   UNL A   1      43.608  27.646  31.419  1.00  0.00     0.029 A 
ATOM     54  C   UNL A   1      43.176  28.796  32.059  1.00  0.00     0.049 A 
ATOM     55  H   UNL A   1      41.455  29.961  31.691  1.00  0.00     0.167 HD
ATOM     56  C   UNL A   1      43.292  30.606  33.750  1.00  0.00     0.074 A 
ATOM     57  C   UNL A   1      43.915  31.285  34.866  1.00  0.00     0.031 C 
ATOM     58  C   UNL A   1      43.796  29.498  33.153  1.00  0.00     0.037 A 
BRANCH  45  59
ATOM     59  C   UNL A   1      40.343  27.356  28.501  1.00  0.00     0.057 A 
ATOM     60  C   UNL A   1      39.538  26.231  28.722  1.00  0.00     0.134 A 
ATOM     61  C   UNL A   1      40.937  27.487  27.238  1.00  0.00     0.134 A 
ATOM     62  F   UNL A   1      38.952  26.039  29.913  1.00  0.00    -0.206 F 
ATOM     63  C   UNL A   1      39.354  25.259  27.737  1.00  0.00     0.040 A 
ATOM     64  C   UNL A   1      40.739  26.536  26.237  1.00  0.00     0.040 A 
ATOM     65  F   UNL A   1      41.714  28.543  26.957  1.00  0.00    -0.206 F 
ATOM     66  C   UNL A   1      39.950  25.414  26.488  1.00  0.00     0.006 A 
ENDBRANCH  45  59
BRANCH  46  67
ATOM     67  C   UNL A   1      41.198  34.443  35.470  1.00  0.00     0.057 A 
ATOM     68  C   UNL A   1      40.629  34.268  36.736  1.00  0.00     0.134 A 
ATOM     69  C   UNL A   1      41.883  35.640  35.228  1.00  0.00     0.134 A 
ATOM     70  F   UNL A   1      39.944  33.151  37.020  1.00  0.00    -0.206 F 
ATOM     71  C   UNL A   1      40.717  35.255  37.720  1.00  0.00     0.040 A 
ATOM     72  C   UNL A   1      41.999  36.625  36.210  1.00  0.00     0.040 A 
ATOM     73  F   UNL A   1      42.455  35.864  34.036  1.00  0.00    -0.206 F 
ATOM     74  C   UNL A   1      41.407  36.437  37.457  1.00  0.00     0.006 A 
ENDBRANCH  46  67
BRANCH  58  75
ATOM     75  C   UNL A   1      45.110  28.984  33.661  1.00  0.00     0.057 A 
ATOM     76  C   UNL A   1      46.331  29.433  33.145  1.00  0.00     0.134 A 
ATOM     77  C   UNL A   1      45.149  28.050  34.705  1.00  0.00     0.134 A 
ATOM     78  F   UNL A   1      46.359  30.316  32.136  1.00  0.00    -0.206 F 
ATOM     79  C   UNL A   1      47.547  28.954  33.635  1.00  0.00     0.040 A 
ATOM     80  C   UNL A   1      46.358  27.583  35.218  1.00  0.00     0.040 A 
ATOM     81  F   UNL A   1      44.014  27.587  35.249  1.00  0.00    -0.206 F 
ATOM     82  C   UNL A   1      47.563  28.030  34.679  1.00  0.00     0.006 A 
ENDBRANCH  58  75
ENDBRANCH  32  33
ENDBRANCH  24  27
ENDBRANCH  22  23
ENDBRANCH  21  22
ENDBRANCH   1  21
TORSDOF 13
ENDMDL
MODEL 3
REMARK VINA RESULT:     -11.2      2.345      7.047
REMARK SMILES Cc1cc(Br)cnc1Sc1nc(CC(=O)NCCCNC(=O)c2ccc(-c3c4nc(c(-c5c(F)cccc5F)c5ccc([nH]5)c(-c5c(F)cccc5F)c5nc(c(-c6c(F)cccc6F)c6ccc3[nH]6)C=C5)C=C4)cc2)cs1
REMARK SMILES IDX 17 1 16 2 14 3 15 4 13 6 12 7 10 8 11 9 78 10 77 11 9 12
REMARK SMILES IDX 8 13 1 14 2 15 3 16 4 17 7 18 5 19 6 20 18 21 19 22 20 23
REMARK SMILES IDX 21 24 22 26 23 27 24 28 76 29 25 30 75 31 26 32 27 33 28 34
REMARK SMILES IDX 69 35 29 36 74 37 68 38 70 39 30 40 73 41 67 42 66 43 31 45
REMARK SMILES IDX 57 46 40 47 56 48 41 49 44 50 55 51 71 52 42 53 43 54 54 56
REMARK SMILES IDX 72 57 45 58 32 59 33 60 38 61 34 62 35 63 37 64 39 65 36 66
REMARK SMILES IDX 58 67 59 68 64 69 60 70 61 71 63 72 65 73 62 74 46 75 47 76
REMARK SMILES IDX 52 77 48 78 49 79 51 80 53 81 50 82
REMARK H PARENT 16 5 20 25 70 44 44 55
REMARK Flexibility Score: inf
ROOT
ATOM      1  C   UNL A   1      31.485  30.817  26.122  1.00  0.00     0.117 C 
ENDROOT
BRANCH   1   2
ATOM      2  N   UNL A   1      32.827  30.281  26.270  1.00  0.00    -0.356 N 
ATOM      3  C   UNL A   1      33.218  29.139  26.910  1.00  0.00     0.226 C 
ATOM      4  O   UNL A   1      34.424  28.909  27.023  1.00  0.00    -0.275 OA
ATOM      5  H   UNL A   1      33.547  30.808  25.858  1.00  0.00     0.163 HD
BRANCH   3   6
ATOM      6  C   UNL A   1      32.179  28.178  27.445  1.00  0.00     0.157 C 
BRANCH   6   7
ATOM      7  C   UNL A   1      31.848  27.105  26.464  1.00  0.00     0.062 A 
ATOM      8  C   UNL A   1      31.259  26.407  24.441  1.00  0.00     0.156 A 
ATOM      9  N   UNL A   1      31.421  27.474  25.192  1.00  0.00    -0.234 NA
ATOM     10  S   UNL A   1      31.486  24.904  25.244  1.00  0.00    -0.116 S 
ATOM     11  C   UNL A   1      31.937  25.740  26.667  1.00  0.00     0.092 A 
BRANCH   8  12
ATOM     12  S   UNL A   1      30.750  26.474  22.788  1.00  0.00    -0.039 SA
BRANCH  12  13
ATOM     13  C   UNL A   1      29.786  27.955  22.586  1.00  0.00     0.106 A 
ATOM     14  C   UNL A   1      27.544  27.360  23.740  1.00  0.00     0.047 C 
ATOM     15  C   UNL A   1      28.492  28.277  23.028  1.00  0.00    -0.017 A 
ATOM     16  C   UNL A   1      28.002  29.578  22.765  1.00  0.00     0.023 A 
ATOM     17  C   UNL A   1      28.796  30.521  22.135  1.00  0.00     0.036 A 
ATOM     18  N   UNL A   1      30.552  28.898  21.959  1.00  0.00    -0.248 NA
ATOM     19  Br  UNL A   1      28.164  32.268  21.829  1.00  0.00    -0.049 Br
ATOM     20  C   UNL A   1      30.059  30.140  21.754  1.00  0.00     0.128 A 
ENDBRANCH  12  13
ENDBRANCH   8  12
ENDBRANCH   6   7
ENDBRANCH   3   6
ENDBRANCH   1   2
BRANCH   1  21
ATOM     21  C   UNL A   1      31.395  32.277  26.557  1.00  0.00     0.042 C 
BRANCH  21  22
ATOM     22  C   UNL A   1      32.687  32.843  27.137  1.00  0.00     0.118 C 
BRANCH  22  23
ATOM     23  N   UNL A   1      32.525  34.192  27.654  1.00  0.00    -0.352 N 
ATOM     24  C   UNL A   1      33.136  34.814  28.709  1.00  0.00     0.251 C 
ATOM     25  H   UNL A   1      31.873  34.747  27.168  1.00  0.00     0.163 HD
ATOM     26  O   UNL A   1      32.719  35.916  29.077  1.00  0.00    -0.269 OA
BRANCH  24  27
ATOM     27  C   UNL A   1      34.277  34.195  29.419  1.00  0.00     0.039 A 
ATOM     28  C   UNL A   1      35.572  34.468  28.963  1.00  0.00     0.014 A 
ATOM     29  C   UNL A   1      34.090  33.293  30.470  1.00  0.00     0.014 A 
ATOM     30  C   UNL A   1      36.673  33.862  29.573  1.00  0.00     0.010 A 
ATOM     31  C   UNL A   1      35.192  32.742  31.124  1.00  0.00     0.010 A 
ATOM     32  C   UNL A   1      36.494  33.000  30.667  1.00  0.00    -0.014 A 
BRANCH  32  33
ATOM     33  C   UNL A   1      37.650  32.319  31.302  1.00  0.00     0.031 A 
ATOM     34  C   UNL A   1      38.379  31.230  30.560  1.00  0.00     0.074 A 
ATOM     35  C   UNL A   1      38.025  32.649  32.551  1.00  0.00     0.049 A 
ATOM     36  N   UNL A   1      39.371  30.475  30.960  1.00  0.00    -0.248 NA
ATOM     37  C   UNL A   1      37.914  30.934  29.195  1.00  0.00     0.031 C 
ATOM     38  C   UNL A   1      37.383  33.663  33.389  1.00  0.00     0.029 A 
ATOM     39  N   UNL A   1      39.038  32.160  33.337  1.00  0.00    -0.354 N 
ATOM     40  C   UNL A   1      39.634  29.607  29.909  1.00  0.00     0.074 A 
ATOM     41  C   UNL A   1      38.667  29.893  28.872  1.00  0.00     0.031 C 
ATOM     42  C   UNL A   1      38.032  33.736  34.563  1.00  0.00     0.029 A 
ATOM     43  C   UNL A   1      39.114  32.756  34.572  1.00  0.00     0.049 A 
ATOM     44  H   UNL A   1      39.653  31.450  33.044  1.00  0.00     0.167 HD
ATOM     45  C   UNL A   1      40.607  28.670  29.804  1.00  0.00     0.037 A 
ATOM     46  C   UNL A   1      39.960  32.536  35.596  1.00  0.00     0.037 A 
ATOM     47  C   UNL A   1      41.591  28.407  30.819  1.00  0.00     0.049 A 
ATOM     48  C   UNL A   1      41.040  31.500  35.450  1.00  0.00     0.074 A 
ATOM     49  C   UNL A   1      42.642  27.505  30.792  1.00  0.00     0.029 A 
ATOM     50  N   UNL A   1      41.652  29.056  32.043  1.00  0.00    -0.354 N 
ATOM     51  N   UNL A   1      41.302  30.716  34.433  1.00  0.00    -0.248 NA
ATOM     52  C   UNL A   1      41.950  31.328  36.592  1.00  0.00     0.031 C 
ATOM     53  C   UNL A   1      43.322  27.590  32.012  1.00  0.00     0.029 A 
ATOM     54  C   UNL A   1      42.719  28.572  32.781  1.00  0.00     0.049 A 
ATOM     55  H   UNL A   1      41.029  29.757  32.343  1.00  0.00     0.167 HD
ATOM     56  C   UNL A   1      42.426  29.985  34.797  1.00  0.00     0.074 A 
ATOM     57  C   UNL A   1      42.800  30.425  36.125  1.00  0.00     0.031 C 
ATOM     58  C   UNL A   1      43.091  29.037  34.092  1.00  0.00     0.037 A 
BRANCH  45  59
ATOM     59  C   UNL A   1      40.656  27.866  28.537  1.00  0.00     0.057 A 
ATOM     60  C   UNL A   1      41.408  28.280  27.430  1.00  0.00     0.134 A 
ATOM     61  C   UNL A   1      39.965  26.652  28.431  1.00  0.00     0.134 A 
ATOM     62  F   UNL A   1      42.081  29.441  27.462  1.00  0.00    -0.206 F 
ATOM     63  C   UNL A   1      41.449  27.531  26.252  1.00  0.00     0.040 A 
ATOM     64  C   UNL A   1      40.021  25.880  27.269  1.00  0.00     0.040 A 
ATOM     65  F   UNL A   1      39.232  26.193  29.455  1.00  0.00    -0.206 F 
ATOM     66  C   UNL A   1      40.759  26.324  26.173  1.00  0.00     0.006 A 
ENDBRANCH  45  59
BRANCH  46  67
ATOM     67  C   UNL A   1      39.846  33.337  36.840  1.00  0.00     0.057 A 
ATOM     68  C   UNL A   1      38.950  32.970  37.851  1.00  0.00     0.134 A 
ATOM     69  C   UNL A   1      40.613  34.490  37.042  1.00  0.00     0.134 A 
ATOM     70  F   UNL A   1      38.174  31.887  37.705  1.00  0.00    -0.206 F 
ATOM     71  C   UNL A   1      38.805  33.733  39.011  1.00  0.00     0.040 A 
ATOM     72  C   UNL A   1      40.495  35.249  38.208  1.00  0.00     0.040 A 
ATOM     73  F   UNL A   1      41.493  34.890  36.113  1.00  0.00    -0.206 F 
ATOM     74  C   UNL A   1      39.584  34.874  39.193  1.00  0.00     0.006 A 
ENDBRANCH  46  67
BRANCH  58  75
ATOM     75  C   UNL A   1      44.319  28.451  34.721  1.00  0.00     0.057 A 
ATOM     76  C   UNL A   1      45.582  29.032  34.565  1.00  0.00     0.134 A 
ATOM     77  C   UNL A   1      44.226  27.305  35.522  1.00  0.00     0.134 A 
ATOM     78  F   UNL A   1      45.739  30.122  33.799  1.00  0.00    -0.206 F 
ATOM     79  C   UNL A   1      46.716  28.481  35.166  1.00  0.00     0.040 A 
ATOM     80  C   UNL A   1      45.347  26.760  36.147  1.00  0.00     0.040 A 
ATOM     81  F   UNL A   1      43.042  26.705  35.719  1.00  0.00    -0.206 F 
ATOM     82  C   UNL A   1      46.598  27.345  35.965  1.00  0.00     0.006 A 
ENDBRANCH  58  75
ENDBRANCH  32  33
ENDBRANCH  24  27
ENDBRANCH  22  23
ENDBRANCH  21  22
ENDBRANCH   1  21
TORSDOF 13
ENDMDL
