MODEL 1
REMARK VINA RESULT:     -11.5      0.000      0.000
REMARK SMILES O=C(NCCCNC(=O)[C@H]1CCCC[C@H]1C(=O)Nc1ccc(F)c(Cl)c1)c1ccc(-c2c3nc(c(-c4c(F)cccc4F)c4ccc([nH]4)c(-c4c(F)cccc4F)c4nc(c(-c5c(F)cccc5F)c5ccc2[nH]5)C=C4)C=C3)cc1
REMARK SMILES IDX 5 1 4 2 3 3 1 4 2 5 27 7 28 8 80 9 29 10 79 11 30 12 31 13
REMARK SMILES IDX 32 14 73 15 33 16 78 17 72 18 74 19 34 20 77 21 71 22 70 23
REMARK SMILES IDX 35 25 61 26 44 27 60 28 45 29 48 30 59 31 75 32 46 33 47 34
REMARK SMILES IDX 58 36 76 37 49 38 36 39 37 40 42 41 38 42 39 43 41 44 43 45
REMARK SMILES IDX 40 46 62 47 63 48 68 49 64 50 65 51 67 52 69 53 66 54 50 55
REMARK SMILES IDX 51 56 56 57 52 58 53 59 55 60 57 61 54 62 6 63 7 64 8 65
REMARK SMILES IDX 9 67 10 68 11 69 15 70 12 71 14 72 13 73 16 74 17 75 18 76
REMARK SMILES IDX 19 78 20 79 26 80 21 81 24 82 22 83 25 84 23 85
REMARK H PARENT 3 6 74 24 48 35 7 66 18 77
REMARK Flexibility Score: inf
ROOT
ATOM      1  C   UNL A   1      33.018  28.568  25.771  1.00  0.00     0.042 C 
ENDROOT
BRANCH   1   2
ATOM      2  C   UNL A   1      33.380  28.625  27.257  1.00  0.00     0.118 C 
BRANCH   2   3
ATOM      3  N   UNL A   1      33.551  29.985  27.736  1.00  0.00    -0.352 N 
ATOM      4  O   UNL A   1      34.421  31.740  28.808  1.00  0.00    -0.269 OA
ATOM      5  C   UNL A   1      34.611  30.625  28.324  1.00  0.00     0.251 C 
ATOM      6  H   UNL A   1      32.756  30.553  27.615  1.00  0.00     0.163 HD
BRANCH   5   7
ATOM      7  C   UNL A   1      35.972  30.035  28.410  1.00  0.00     0.039 A 
ATOM      8  C   UNL A   1      36.902  30.117  27.373  1.00  0.00     0.014 A 
ATOM      9  C   UNL A   1      36.382  29.521  29.649  1.00  0.00     0.014 A 
ATOM     10  C   UNL A   1      38.207  29.632  27.552  1.00  0.00     0.010 A 
ATOM     11  C   UNL A   1      37.702  29.092  29.845  1.00  0.00     0.010 A 
ATOM     12  C   UNL A   1      38.630  29.137  28.797  1.00  0.00    -0.014 A 
BRANCH  12  13
ATOM     13  C   UNL A   1      40.056  28.762  29.027  1.00  0.00     0.031 A 
ATOM     14  C   UNL A   1      41.026  29.718  29.669  1.00  0.00     0.074 A 
ATOM     15  C   UNL A   1      40.502  27.557  28.615  1.00  0.00     0.049 A 
ATOM     16  N   UNL A   1      42.304  29.558  29.916  1.00  0.00    -0.248 NA
ATOM     17  C   UNL A   1      40.497  31.027  30.076  1.00  0.00     0.031 C 
ATOM     18  C   UNL A   1      39.691  26.540  27.944  1.00  0.00     0.029 A 
ATOM     19  N   UNL A   1      41.749  26.985  28.696  1.00  0.00    -0.354 N 
ATOM     20  C   UNL A   1      42.734  30.746  30.494  1.00  0.00     0.074 A 
ATOM     21  C   UNL A   1      41.586  31.628  30.535  1.00  0.00     0.031 C 
ATOM     22  C   UNL A   1      40.452  25.461  27.701  1.00  0.00     0.029 A 
ATOM     23  C   UNL A   1      41.812  25.722  28.159  1.00  0.00     0.049 A 
ATOM     24  H   UNL A   1      42.524  27.437  29.101  1.00  0.00     0.167 HD
ATOM     25  C   UNL A   1      43.966  31.071  30.956  1.00  0.00     0.037 A 
ATOM     26  C   UNL A   1      42.846  24.867  28.037  1.00  0.00     0.037 A 
ATOM     27  C   UNL A   1      45.114  30.200  30.933  1.00  0.00     0.049 A 
ATOM     28  C   UNL A   1      44.205  25.259  28.544  1.00  0.00     0.074 A 
ATOM     29  C   UNL A   1      46.385  30.434  31.433  1.00  0.00     0.029 A 
ATOM     30  N   UNL A   1      45.135  28.932  30.374  1.00  0.00    -0.354 N 
ATOM     31  N   UNL A   1      44.578  26.363  29.140  1.00  0.00    -0.248 NA
ATOM     32  C   UNL A   1      45.288  24.280  28.358  1.00  0.00     0.031 C 
ATOM     33  C   UNL A   1      47.185  29.322  31.143  1.00  0.00     0.029 A 
ATOM     34  C   UNL A   1      46.402  28.381  30.497  1.00  0.00     0.049 A 
ATOM     35  H   UNL A   1      44.365  28.488  29.952  1.00  0.00     0.167 HD
ATOM     36  C   UNL A   1      45.929  26.206  29.420  1.00  0.00     0.074 A 
ATOM     37  C   UNL A   1      46.309  24.894  28.940  1.00  0.00     0.031 C 
ATOM     38  C   UNL A   1      46.777  27.075  30.021  1.00  0.00     0.037 A 
BRANCH  25  39
ATOM     39  C   UNL A   1      44.146  32.444  31.536  1.00  0.00     0.057 A 
ATOM     40  C   UNL A   1      43.972  32.694  32.903  1.00  0.00     0.134 A 
ATOM     41  C   UNL A   1      44.550  33.515  30.728  1.00  0.00     0.134 A 
ATOM     42  F   UNL A   1      43.578  31.712  33.728  1.00  0.00    -0.206 F 
ATOM     43  C   UNL A   1      44.173  33.966  33.443  1.00  0.00     0.040 A 
ATOM     44  C   UNL A   1      44.775  34.785  31.260  1.00  0.00     0.040 A 
ATOM     45  F   UNL A   1      44.744  33.340  29.412  1.00  0.00    -0.206 F 
ATOM     46  C   UNL A   1      44.582  35.014  32.621  1.00  0.00     0.006 A 
ENDBRANCH  25  39
BRANCH  26  47
ATOM     47  C   UNL A   1      42.635  23.537  27.416  1.00  0.00     0.057 A 
ATOM     48  C   UNL A   1      42.709  23.371  26.029  1.00  0.00     0.134 A 
ATOM     49  C   UNL A   1      42.351  22.405  28.190  1.00  0.00     0.134 A 
ATOM     50  F   UNL A   1      42.953  24.426  25.236  1.00  0.00    -0.206 F 
ATOM     51  C   UNL A   1      42.496  22.129  25.430  1.00  0.00     0.040 A 
ATOM     52  C   UNL A   1      42.158  21.153  27.607  1.00  0.00     0.040 A 
ATOM     53  F   UNL A   1      42.268  22.502  29.525  1.00  0.00    -0.206 F 
ATOM     54  C   UNL A   1      42.226  21.014  26.221  1.00  0.00     0.006 A 
ENDBRANCH  26  47
BRANCH  38  55
ATOM     55  C   UNL A   1      48.193  26.623  30.221  1.00  0.00     0.057 A 
ATOM     56  C   UNL A   1      49.196  26.900  29.284  1.00  0.00     0.134 A 
ATOM     57  C   UNL A   1      48.562  25.918  31.374  1.00  0.00     0.134 A 
ATOM     58  F   UNL A   1      48.905  27.559  28.152  1.00  0.00    -0.206 F 
ATOM     59  C   UNL A   1      50.512  26.474  29.476  1.00  0.00     0.040 A 
ATOM     60  C   UNL A   1      49.877  25.504  31.587  1.00  0.00     0.040 A 
ATOM     61  F   UNL A   1      47.650  25.624  32.313  1.00  0.00    -0.206 F 
ATOM     62  C   UNL A   1      50.856  25.778  30.633  1.00  0.00     0.006 A 
ENDBRANCH  38  55
ENDBRANCH  12  13
ENDBRANCH   5   7
ENDBRANCH   2   3
ENDBRANCH   1   2
BRANCH   1  63
ATOM     63  C   UNL A   1      33.849  27.621  24.888  1.00  0.00     0.117 C 
BRANCH  63  64
ATOM     64  N   UNL A   1      33.081  26.807  23.960  1.00  0.00    -0.356 N 
ATOM     65  C   UNL A   1      32.461  25.607  24.084  1.00  0.00     0.223 C 
ATOM     66  H   UNL A   1      32.993  27.207  23.064  1.00  0.00     0.163 HD
ATOM     67  O   UNL A   1      31.642  25.332  23.202  1.00  0.00    -0.275 OA
BRANCH  65  68
ATOM     68  C   UNL A   1      32.737  24.643  25.240  1.00  0.00     0.091 C 
ATOM     69  C   UNL A   1      31.748  24.922  26.399  1.00  0.00     0.014 C 
ATOM     70  C   UNL A   1      32.835  23.125  24.950  1.00  0.00     0.091 C 
ATOM     71  C   UNL A   1      30.440  24.141  26.291  1.00  0.00     0.001 C 
ATOM     72  C   UNL A   1      31.626  22.205  25.201  1.00  0.00     0.014 C 
ATOM     73  C   UNL A   1      30.708  22.648  26.328  1.00  0.00     0.001 C 
BRANCH  70  74
ATOM     74  C   UNL A   1      33.564  22.693  23.689  1.00  0.00     0.228 C 
ATOM     75  O   UNL A   1      32.874  22.352  22.714  1.00  0.00    -0.274 OA
ATOM     76  N   UNL A   1      34.906  22.657  23.485  1.00  0.00    -0.326 N 
ATOM     77  H   UNL A   1      35.118  22.546  22.530  1.00  0.00     0.169 HD
BRANCH  76  78
ATOM     78  C   UNL A   1      36.076  22.736  24.261  1.00  0.00     0.042 A 
ATOM     79  C   UNL A   1      36.486  23.832  25.009  1.00  0.00     0.029 A 
ATOM     80  C   UNL A   1      36.844  21.562  24.347  1.00  0.00     0.049 A 
ATOM     81  C   UNL A   1      37.560  23.750  25.901  1.00  0.00     0.043 A 
ATOM     82  C   UNL A   1      37.933  21.480  25.222  1.00  0.00     0.078 A 
ATOM     83  C   UNL A   1      38.270  22.569  26.015  1.00  0.00     0.141 A 
ATOM     84  Cl  UNL A   1      38.824  20.013  25.336  1.00  0.00    -0.081 Cl
ATOM     85  F   UNL A   1      39.273  22.495  26.901  1.00  0.00    -0.205 F 
ENDBRANCH  76  78
ENDBRANCH  70  74
ENDBRANCH  65  68
ENDBRANCH  63  64
ENDBRANCH   1  63
TORSDOF 12
ENDMDL
MODEL 2
REMARK VINA RESULT:     -11.4      2.628      3.931
REMARK SMILES O=C(NCCCNC(=O)[C@H]1CCCC[C@H]1C(=O)Nc1ccc(F)c(Cl)c1)c1ccc(-c2c3nc(c(-c4c(F)cccc4F)c4ccc([nH]4)c(-c4c(F)cccc4F)c4nc(c(-c5c(F)cccc5F)c5ccc2[nH]5)C=C4)C=C3)cc1
REMARK SMILES IDX 5 1 4 2 3 3 1 4 2 5 27 7 28 8 80 9 29 10 79 11 30 12 31 13
REMARK SMILES IDX 32 14 73 15 33 16 78 17 72 18 74 19 34 20 77 21 71 22 70 23
REMARK SMILES IDX 35 25 61 26 44 27 60 28 45 29 48 30 59 31 75 32 46 33 47 34
REMARK SMILES IDX 58 36 76 37 49 38 36 39 37 40 42 41 38 42 39 43 41 44 43 45
REMARK SMILES IDX 40 46 62 47 63 48 68 49 64 50 65 51 67 52 69 53 66 54 50 55
REMARK SMILES IDX 51 56 56 57 52 58 53 59 55 60 57 61 54 62 6 63 7 64 8 65
REMARK SMILES IDX 9 67 10 68 11 69 15 70 12 71 14 72 13 73 16 74 17 75 18 76
REMARK SMILES IDX 19 78 20 79 26 80 21 81 24 82 22 83 25 84 23 85
REMARK H PARENT 3 6 74 24 48 35 7 66 18 77
REMARK Flexibility Score: inf
ROOT
ATOM      1  C   UNL A   1      31.961  28.165  27.631  1.00  0.00     0.042 C 
ENDROOT
BRANCH   1   2
ATOM      2  C   UNL A   1      33.302  28.767  27.203  1.00  0.00     0.118 C 
BRANCH   2   3
ATOM      3  N   UNL A   1      33.485  30.121  27.694  1.00  0.00    -0.352 N 
ATOM      4  O   UNL A   1      34.365  31.856  28.790  1.00  0.00    -0.269 OA
ATOM      5  C   UNL A   1      34.546  30.742  28.300  1.00  0.00     0.251 C 
ATOM      6  H   UNL A   1      32.700  30.701  27.568  1.00  0.00     0.163 HD
BRANCH   5   7
ATOM      7  C   UNL A   1      35.898  30.133  28.398  1.00  0.00     0.039 A 
ATOM      8  C   UNL A   1      36.823  30.164  27.353  1.00  0.00     0.014 A 
ATOM      9  C   UNL A   1      36.308  29.655  29.652  1.00  0.00     0.014 A 
ATOM     10  C   UNL A   1      38.121  29.664  27.541  1.00  0.00     0.010 A 
ATOM     11  C   UNL A   1      37.622  29.212  29.854  1.00  0.00     0.010 A 
ATOM     12  C   UNL A   1      38.544  29.206  28.800  1.00  0.00    -0.014 A 
BRANCH  12  13
ATOM     13  C   UNL A   1      39.965  28.815  29.034  1.00  0.00     0.031 A 
ATOM     14  C   UNL A   1      40.943  29.760  29.681  1.00  0.00     0.074 A 
ATOM     15  C   UNL A   1      40.400  27.606  28.621  1.00  0.00     0.049 A 
ATOM     16  N   UNL A   1      42.218  29.585  29.932  1.00  0.00    -0.248 NA
ATOM     17  C   UNL A   1      40.426  31.073  30.089  1.00  0.00     0.031 C 
ATOM     18  C   UNL A   1      39.581  26.598  27.946  1.00  0.00     0.029 A 
ATOM     19  N   UNL A   1      41.640  27.021  28.706  1.00  0.00    -0.354 N 
ATOM     20  C   UNL A   1      42.659  30.768  30.514  1.00  0.00     0.074 A 
ATOM     21  C   UNL A   1      41.520  31.662  30.553  1.00  0.00     0.031 C 
ATOM     22  C   UNL A   1      40.330  25.512  27.703  1.00  0.00     0.029 A 
ATOM     23  C   UNL A   1      41.692  25.758  28.167  1.00  0.00     0.049 A 
ATOM     24  H   UNL A   1      42.418  27.464  29.115  1.00  0.00     0.167 HD
ATOM     25  C   UNL A   1      43.892  31.079  30.982  1.00  0.00     0.037 A 
ATOM     26  C   UNL A   1      42.717  24.893  28.047  1.00  0.00     0.037 A 
ATOM     27  C   UNL A   1      45.031  30.196  30.961  1.00  0.00     0.049 A 
ATOM     28  C   UNL A   1      44.078  25.269  28.560  1.00  0.00     0.074 A 
ATOM     29  C   UNL A   1      46.303  30.416  31.465  1.00  0.00     0.029 A 
ATOM     30  N   UNL A   1      45.041  28.929  30.399  1.00  0.00    -0.354 N 
ATOM     31  N   UNL A   1      44.461  26.369  29.159  1.00  0.00    -0.248 NA
ATOM     32  C   UNL A   1      45.152  24.279  28.376  1.00  0.00     0.031 C 
ATOM     33  C   UNL A   1      47.092  29.296  31.176  1.00  0.00     0.029 A 
ATOM     34  C   UNL A   1      46.301  28.365  30.526  1.00  0.00     0.049 A 
ATOM     35  H   UNL A   1      44.268  28.494  29.973  1.00  0.00     0.167 HD
ATOM     36  C   UNL A   1      45.809  26.196  29.443  1.00  0.00     0.074 A 
ATOM     37  C   UNL A   1      46.177  24.882  28.962  1.00  0.00     0.031 C 
ATOM     38  C   UNL A   1      46.664  27.055  30.049  1.00  0.00     0.037 A 
BRANCH  25  39
ATOM     39  C   UNL A   1      44.085  32.449  31.565  1.00  0.00     0.057 A 
ATOM     40  C   UNL A   1      44.458  33.540  30.772  1.00  0.00     0.134 A 
ATOM     41  C   UNL A   1      43.841  32.688  32.924  1.00  0.00     0.134 A 
ATOM     42  F   UNL A   1      44.714  33.375  29.466  1.00  0.00    -0.206 F 
ATOM     43  C   UNL A   1      44.603  34.819  31.313  1.00  0.00     0.040 A 
ATOM     44  C   UNL A   1      43.962  33.966  33.472  1.00  0.00     0.040 A 
ATOM     45  F   UNL A   1      43.470  31.687  33.736  1.00  0.00    -0.206 F 
ATOM     46  C   UNL A   1      44.348  35.035  32.666  1.00  0.00     0.006 A 
ENDBRANCH  25  39
BRANCH  26  47
ATOM     47  C   UNL A   1      42.495  23.566  27.423  1.00  0.00     0.057 A 
ATOM     48  C   UNL A   1      42.096  22.467  28.193  1.00  0.00     0.134 A 
ATOM     49  C   UNL A   1      42.678  23.363  26.050  1.00  0.00     0.134 A 
ATOM     50  F   UNL A   1      41.929  22.597  29.518  1.00  0.00    -0.206 F 
ATOM     51  C   UNL A   1      41.898  21.210  27.622  1.00  0.00     0.040 A 
ATOM     52  C   UNL A   1      42.463  22.117  25.462  1.00  0.00     0.040 A 
ATOM     53  F   UNL A   1      43.059  24.379  25.261  1.00  0.00    -0.206 F 
ATOM     54  C   UNL A   1      42.076  21.034  26.251  1.00  0.00     0.006 A 
ENDBRANCH  26  47
BRANCH  38  55
ATOM     55  C   UNL A   1      48.075  26.588  30.253  1.00  0.00     0.057 A 
ATOM     56  C   UNL A   1      49.081  26.845  29.314  1.00  0.00     0.134 A 
ATOM     57  C   UNL A   1      48.435  25.888  31.412  1.00  0.00     0.134 A 
ATOM     58  F   UNL A   1      48.798  27.498  28.176  1.00  0.00    -0.206 F 
ATOM     59  C   UNL A   1      50.392  26.405  29.510  1.00  0.00     0.040 A 
ATOM     60  C   UNL A   1      49.745  25.461  31.629  1.00  0.00     0.040 A 
ATOM     61  F   UNL A   1      47.519  25.613  32.354  1.00  0.00    -0.206 F 
ATOM     62  C   UNL A   1      50.727  25.715  30.673  1.00  0.00     0.006 A 
ENDBRANCH  38  55
ENDBRANCH  12  13
ENDBRANCH   5   7
ENDBRANCH   2   3
ENDBRANCH   1   2
BRANCH   1  63
ATOM     63  C   UNL A   1      31.253  27.252  26.615  1.00  0.00     0.117 C 
BRANCH  63  64
ATOM     64  N   UNL A   1      31.500  25.829  26.784  1.00  0.00    -0.356 N 
ATOM     65  C   UNL A   1      32.413  24.984  26.243  1.00  0.00     0.223 C 
ATOM     66  H   UNL A   1      30.884  25.394  27.416  1.00  0.00     0.163 HD
ATOM     67  O   UNL A   1      32.550  23.901  26.822  1.00  0.00    -0.275 OA
BRANCH  65  68
ATOM     68  C   UNL A   1      33.238  25.331  25.003  1.00  0.00     0.091 C 
ATOM     69  C   UNL A   1      34.748  25.249  25.342  1.00  0.00     0.014 C 
ATOM     70  C   UNL A   1      32.930  24.612  23.666  1.00  0.00     0.091 C 
ATOM     71  C   UNL A   1      35.348  23.860  25.136  1.00  0.00     0.001 C 
ATOM     72  C   UNL A   1      33.782  23.411  23.216  1.00  0.00     0.014 C 
ATOM     73  C   UNL A   1      35.227  23.439  23.684  1.00  0.00     0.001 C 
BRANCH  70  74
ATOM     74  C   UNL A   1      31.473  24.380  23.308  1.00  0.00     0.228 C 
ATOM     75  O   UNL A   1      31.103  23.207  23.137  1.00  0.00    -0.274 OA
ATOM     76  N   UNL A   1      30.499  25.316  23.176  1.00  0.00    -0.326 N 
ATOM     77  H   UNL A   1      29.607  24.900  23.150  1.00  0.00     0.169 HD
BRANCH  76  78
ATOM     78  C   UNL A   1      30.412  26.715  23.066  1.00  0.00     0.042 A 
ATOM     79  C   UNL A   1      31.444  27.570  22.699  1.00  0.00     0.029 A 
ATOM     80  C   UNL A   1      29.140  27.276  23.264  1.00  0.00     0.049 A 
ATOM     81  C   UNL A   1      31.214  28.923  22.428  1.00  0.00     0.043 A 
ATOM     82  C   UNL A   1      28.907  28.634  23.016  1.00  0.00     0.078 A 
ATOM     83  C   UNL A   1      29.942  29.446  22.574  1.00  0.00     0.141 A 
ATOM     84  Cl  UNL A   1      27.326  29.278  23.225  1.00  0.00    -0.081 Cl
ATOM     85  F   UNL A   1      29.731  30.735  22.275  1.00  0.00    -0.205 F 
ENDBRANCH  76  78
ENDBRANCH  70  74
ENDBRANCH  65  68
ENDBRANCH  63  64
ENDBRANCH   1  63
TORSDOF 12
ENDMDL
MODEL 3
REMARK VINA RESULT:     -11.3      4.444      6.450
REMARK SMILES O=C(NCCCNC(=O)[C@H]1CCCC[C@H]1C(=O)Nc1ccc(F)c(Cl)c1)c1ccc(-c2c3nc(c(-c4c(F)cccc4F)c4ccc([nH]4)c(-c4c(F)cccc4F)c4nc(c(-c5c(F)cccc5F)c5ccc2[nH]5)C=C4)C=C3)cc1
REMARK SMILES IDX 5 1 4 2 3 3 1 4 2 5 27 7 28 8 80 9 29 10 79 11 30 12 31 13
REMARK SMILES IDX 32 14 73 15 33 16 78 17 72 18 74 19 34 20 77 21 71 22 70 23
REMARK SMILES IDX 35 25 61 26 44 27 60 28 45 29 48 30 59 31 75 32 46 33 47 34
REMARK SMILES IDX 58 36 76 37 49 38 36 39 37 40 42 41 38 42 39 43 41 44 43 45
REMARK SMILES IDX 40 46 62 47 63 48 68 49 64 50 65 51 67 52 69 53 66 54 50 55
REMARK SMILES IDX 51 56 56 57 52 58 53 59 55 60 57 61 54 62 6 63 7 64 8 65
REMARK SMILES IDX 9 67 10 68 11 69 15 70 12 71 14 72 13 73 16 74 17 75 18 76
REMARK SMILES IDX 19 78 20 79 26 80 21 81 24 82 22 83 25 84 23 85
REMARK H PARENT 3 6 74 24 48 35 7 66 18 77
REMARK Flexibility Score: inf
ROOT
ATOM      1  C   UNL A   1      31.271  31.908  26.747  1.00  0.00     0.042 C 
ENDROOT
BRANCH   1   2
ATOM      2  C   UNL A   1      32.619  32.533  27.120  1.00  0.00     0.118 C 
BRANCH   2   3
ATOM      3  N   UNL A   1      32.484  33.894  27.607  1.00  0.00    -0.352 N 
ATOM      4  O   UNL A   1      32.714  35.687  28.916  1.00  0.00    -0.269 OA
ATOM      5  C   UNL A   1      33.161  34.595  28.571  1.00  0.00     0.251 C 
ATOM      6  H   UNL A   1      31.775  34.409  27.160  1.00  0.00     0.163 HD
BRANCH   5   7
ATOM      7  C   UNL A   1      34.402  34.096  29.219  1.00  0.00     0.039 A 
ATOM      8  C   UNL A   1      34.393  33.305  30.370  1.00  0.00     0.014 A 
ATOM      9  C   UNL A   1      35.615  34.296  28.545  1.00  0.00     0.014 A 
ATOM     10  C   UNL A   1      35.591  32.778  30.876  1.00  0.00     0.010 A 
ATOM     11  C   UNL A   1      36.801  33.718  29.017  1.00  0.00     0.010 A 
ATOM     12  C   UNL A   1      36.805  32.955  30.192  1.00  0.00    -0.014 A 
BRANCH  12  13
ATOM     13  C   UNL A   1      38.049  32.270  30.650  1.00  0.00     0.031 A 
ATOM     14  C   UNL A   1      38.900  32.842  31.752  1.00  0.00     0.074 A 
ATOM     15  C   UNL A   1      38.447  31.135  30.038  1.00  0.00     0.049 A 
ATOM     16  N   UNL A   1      40.025  32.385  32.250  1.00  0.00    -0.248 NA
ATOM     17  C   UNL A   1      38.437  34.093  32.368  1.00  0.00     0.031 C 
ATOM     18  C   UNL A   1      37.748  30.481  28.931  1.00  0.00     0.029 A 
ATOM     19  N   UNL A   1      39.540  30.332  30.258  1.00  0.00    -0.354 N 
ATOM     20  C   UNL A   1      40.410  33.297  33.226  1.00  0.00     0.074 A 
ATOM     21  C   UNL A   1      39.412  34.347  33.230  1.00  0.00     0.031 C 
ATOM     22  C   UNL A   1      38.412  29.367  28.588  1.00  0.00     0.029 A 
ATOM     23  C   UNL A   1      39.604  29.245  29.421  1.00  0.00     0.049 A 
ATOM     24  H   UNL A   1      40.214  30.518  30.952  1.00  0.00     0.167 HD
ATOM     25  C   UNL A   1      41.486  33.260  34.048  1.00  0.00     0.037 A 
ATOM     26  C   UNL A   1      40.520  28.262  29.321  1.00  0.00     0.037 A 
ATOM     27  C   UNL A   1      42.479  32.216  34.063  1.00  0.00     0.049 A 
ATOM     28  C   UNL A   1      41.712  28.254  30.234  1.00  0.00     0.074 A 
ATOM     29  C   UNL A   1      43.572  32.076  34.904  1.00  0.00     0.029 A 
ATOM     30  N   UNL A   1      42.509  31.138  33.193  1.00  0.00    -0.354 N 
ATOM     31  N   UNL A   1      42.027  29.092  31.189  1.00  0.00    -0.248 NA
ATOM     32  C   UNL A   1      42.678  27.159  30.052  1.00  0.00     0.031 C 
ATOM     33  C   UNL A   1      44.283  30.933  34.519  1.00  0.00     0.029 A 
ATOM     34  C   UNL A   1      43.612  30.341  33.463  1.00  0.00     0.049 A 
ATOM     35  H   UNL A   1      41.846  30.963  32.487  1.00  0.00     0.167 HD
ATOM     36  C   UNL A   1      43.212  28.617  31.735  1.00  0.00     0.074 A 
ATOM     37  C   UNL A   1      43.554  27.410  31.014  1.00  0.00     0.031 C 
ATOM     38  C   UNL A   1      43.948  29.139  32.746  1.00  0.00     0.037 A 
BRANCH  25  39
ATOM     39  C   UNL A   1      41.654  34.394  35.017  1.00  0.00     0.057 A 
ATOM     40  C   UNL A   1      42.439  35.513  34.711  1.00  0.00     0.134 A 
ATOM     41  C   UNL A   1      40.982  34.392  36.246  1.00  0.00     0.134 A 
ATOM     42  F   UNL A   1      43.114  35.572  33.553  1.00  0.00    -0.206 F 
ATOM     43  C   UNL A   1      42.565  36.581  35.601  1.00  0.00     0.040 A 
ATOM     44  C   UNL A   1      41.083  35.463  37.135  1.00  0.00     0.040 A 
ATOM     45  F   UNL A   1      40.206  33.354  36.595  1.00  0.00    -0.206 F 
ATOM     46  C   UNL A   1      41.880  36.560  36.815  1.00  0.00     0.006 A 
ENDBRANCH  25  39
BRANCH  26  47
ATOM     47  C   UNL A   1      40.339  27.184  28.319  1.00  0.00     0.057 A 
ATOM     48  C   UNL A   1      40.949  27.260  27.062  1.00  0.00     0.134 A 
ATOM     49  C   UNL A   1      39.551  26.058  28.590  1.00  0.00     0.134 A 
ATOM     50  F   UNL A   1      41.694  28.328  26.738  1.00  0.00    -0.206 F 
ATOM     51  C   UNL A   1      40.774  26.261  26.104  1.00  0.00     0.040 A 
ATOM     52  C   UNL A   1      39.386  25.041  27.650  1.00  0.00     0.040 A 
ATOM     53  F   UNL A   1      38.942  25.929  29.777  1.00  0.00    -0.206 F 
ATOM     54  C   UNL A   1      39.995  25.144  26.399  1.00  0.00     0.006 A 
ENDBRANCH  26  47
BRANCH  38  55
ATOM     55  C   UNL A   1      45.183  28.390  33.152  1.00  0.00     0.057 A 
ATOM     56  C   UNL A   1      45.145  27.363  34.104  1.00  0.00     0.134 A 
ATOM     57  C   UNL A   1      46.422  28.687  32.570  1.00  0.00     0.134 A 
ATOM     58  F   UNL A   1      43.992  27.040  34.709  1.00  0.00    -0.206 F 
ATOM     59  C   UNL A   1      46.299  26.672  34.478  1.00  0.00     0.040 A 
ATOM     60  C   UNL A   1      47.579  27.990  32.920  1.00  0.00     0.040 A 
ATOM     61  F   UNL A   1      46.527  29.656  31.648  1.00  0.00    -0.206 F 
ATOM     62  C   UNL A   1      47.520  26.982  33.882  1.00  0.00     0.006 A 
ENDBRANCH  38  55
ENDBRANCH  12  13
ENDBRANCH   5   7
ENDBRANCH   2   3
ENDBRANCH   1   2
BRANCH   1  63
ATOM     63  C   UNL A   1      31.258  30.950  25.544  1.00  0.00     0.117 C 
BRANCH  63  64
ATOM     64  N   UNL A   1      31.642  29.579  25.840  1.00  0.00    -0.356 N 
ATOM     65  C   UNL A   1      32.176  28.589  25.081  1.00  0.00     0.223 C 
ATOM     66  H   UNL A   1      31.485  29.318  26.777  1.00  0.00     0.163 HD
ATOM     67  O   UNL A   1      32.664  27.641  25.704  1.00  0.00    -0.275 OA
BRANCH  65  68
ATOM     68  C   UNL A   1      32.190  28.628  23.552  1.00  0.00     0.091 C 
ATOM     69  C   UNL A   1      33.616  28.310  23.036  1.00  0.00     0.014 C 
ATOM     70  C   UNL A   1      31.125  27.824  22.767  1.00  0.00     0.091 C 
ATOM     71  C   UNL A   1      33.874  26.820  22.826  1.00  0.00     0.001 C 
ATOM     72  C   UNL A   1      31.469  26.441  22.183  1.00  0.00     0.014 C 
ATOM     73  C   UNL A   1      32.924  26.258  21.786  1.00  0.00     0.001 C 
BRANCH  70  74
ATOM     74  C   UNL A   1      29.704  27.823  23.302  1.00  0.00     0.228 C 
ATOM     75  O   UNL A   1      29.329  26.824  23.938  1.00  0.00    -0.274 OA
ATOM     76  N   UNL A   1      28.782  28.813  23.189  1.00  0.00    -0.326 N 
ATOM     77  H   UNL A   1      28.021  28.660  23.795  1.00  0.00     0.169 HD
BRANCH  76  78
ATOM     78  C   UNL A   1      28.614  29.995  22.448  1.00  0.00     0.042 A 
ATOM     79  C   UNL A   1      28.033  30.093  21.190  1.00  0.00     0.029 A 
ATOM     80  C   UNL A   1      28.995  31.188  23.086  1.00  0.00     0.049 A 
ATOM     81  C   UNL A   1      27.733  31.333  20.615  1.00  0.00     0.043 A 
ATOM     82  C   UNL A   1      28.717  32.431  22.507  1.00  0.00     0.078 A 
ATOM     83  C   UNL A   1      28.063  32.498  21.284  1.00  0.00     0.141 A 
ATOM     84  Cl  UNL A   1      29.156  33.873  23.337  1.00  0.00    -0.081 Cl
ATOM     85  F   UNL A   1      27.736  33.677  20.737  1.00  0.00    -0.205 F 
ENDBRANCH  76  78
ENDBRANCH  70  74
ENDBRANCH  65  68
ENDBRANCH  63  64
ENDBRANCH   1  63
TORSDOF 12
ENDMDL
