MODEL 1
REMARK VINA RESULT:     -12.1      0.000      0.000
REMARK SMILES CC1=Nn2c(nnc(CCC(=O)NCCCNC(=O)c3ccc(-c4c5nc(c(-c6c(F)cccc6F)c6ccc([nH]6)c(-c6c(F)cccc6F)c6nc(c(-c7c(F)cccc7F)c7ccc4[nH]7)C=C6)C=C5)cc3)c2=O)SC1
REMARK SMILES IDX 15 1 14 2 13 3 11 4 12 5 10 7 9 8 8 9 1 10 2 11 3 12 77 13
REMARK SMILES IDX 4 14 76 15 5 16 74 17 6 18 75 19 7 20 16 21 17 22 18 23
REMARK SMILES IDX 19 25 20 26 21 27 73 28 22 29 72 30 23 31 24 32 25 33 66 34
REMARK SMILES IDX 26 35 71 36 65 37 67 38 27 39 70 40 64 41 63 42 28 44 54 45
REMARK SMILES IDX 37 46 53 47 38 48 41 49 52 50 68 51 39 52 40 53 51 55 69 56
REMARK SMILES IDX 42 57 29 58 30 59 35 60 31 61 32 62 34 63 36 64 33 65 55 66
REMARK SMILES IDX 56 67 61 68 57 69 58 70 60 71 62 72 59 73 43 74 44 75 49 76
REMARK SMILES IDX 45 77 46 78 48 79 50 80 47 81
REMARK H PARENT 13 6 17 24 67 43 41 54
REMARK Flexibility Score: inf
ROOT
ATOM      1  C   UNL A   1      32.331  31.124  26.896  1.00  0.00     0.042 C 
ENDROOT
BRANCH   1   2
ATOM      2  C   UNL A   1      32.291  29.934  25.904  1.00  0.00     0.117 C 
BRANCH   2   3
ATOM      3  N   UNL A   1      31.305  30.079  24.837  1.00  0.00    -0.356 N 
ATOM      4  C   UNL A   1      30.720  29.167  24.001  1.00  0.00     0.220 C 
ATOM      5  O   UNL A   1      29.831  29.576  23.252  1.00  0.00    -0.275 OA
ATOM      6  H   UNL A   1      31.004  31.006  24.690  1.00  0.00     0.163 HD
BRANCH   4   7
ATOM      7  C   UNL A   1      31.131  27.701  23.970  1.00  0.00     0.106 C 
BRANCH   7   8
ATOM      8  C   UNL A   1      31.425  27.207  22.549  1.00  0.00     0.074 C 
BRANCH   8   9
ATOM      9  C   UNL A   1      31.499  25.706  22.542  1.00  0.00     0.131 A 
ATOM     10  C   UNL A   1      36.307  23.225  23.832  1.00  0.00     0.064 C 
ATOM     11  C   UNL A   1      34.886  22.923  23.451  1.00  0.00     0.046 C 
ATOM     12  N   UNL A   1      34.406  23.753  22.587  1.00  0.00    -0.172 NA
ATOM     13  C   UNL A   1      34.114  21.867  24.203  1.00  0.00     0.131 C 
ATOM     14  N   UNL A   1      33.064  23.934  22.495  1.00  0.00    -0.169 N 
ATOM     15  S   UNL A   1      32.509  21.533  23.479  1.00  0.00    -0.078 SA
ATOM     16  C   UNL A   1      32.090  23.172  23.090  1.00  0.00     0.214 A 
ATOM     17  C   UNL A   1      32.704  25.099  21.884  1.00  0.00     0.296 A 
ATOM     18  N   UNL A   1      30.898  23.607  23.344  1.00  0.00    -0.123 NA
ATOM     19  O   UNL A   1      33.271  25.691  20.988  1.00  0.00    -0.265 OA
ATOM     20  N   UNL A   1      30.641  24.986  23.199  1.00  0.00    -0.147 NA
ENDBRANCH   8   9
ENDBRANCH   7   8
ENDBRANCH   4   7
ENDBRANCH   2   3
ENDBRANCH   1   2
BRANCH   1  21
ATOM     21  C   UNL A   1      31.637  32.445  26.481  1.00  0.00     0.118 C 
BRANCH  21  22
ATOM     22  N   UNL A   1      32.004  33.638  27.288  1.00  0.00    -0.352 N 
ATOM     23  C   UNL A   1      32.984  34.214  28.070  1.00  0.00     0.251 C 
ATOM     24  H   UNL A   1      31.247  34.265  27.252  1.00  0.00     0.163 HD
ATOM     25  O   UNL A   1      32.743  35.382  28.402  1.00  0.00    -0.269 OA
BRANCH  23  26
ATOM     26  C   UNL A   1      34.241  33.637  28.646  1.00  0.00     0.039 A 
ATOM     27  C   UNL A   1      34.097  32.532  29.513  1.00  0.00     0.014 A 
ATOM     28  C   UNL A   1      35.523  34.158  28.531  1.00  0.00     0.014 A 
ATOM     29  C   UNL A   1      35.200  31.896  30.132  1.00  0.00     0.010 A 
ATOM     30  C   UNL A   1      36.645  33.463  29.076  1.00  0.00     0.010 A 
ATOM     31  C   UNL A   1      36.512  32.308  29.876  1.00  0.00    -0.014 A 
BRANCH  31  32
ATOM     32  C   UNL A   1      37.707  31.575  30.455  1.00  0.00     0.031 A 
ATOM     33  C   UNL A   1      38.191  31.858  31.868  1.00  0.00     0.074 A 
ATOM     34  C   UNL A   1      38.426  30.685  29.725  1.00  0.00     0.049 A 
ATOM     35  N   UNL A   1      39.207  31.346  32.524  1.00  0.00    -0.248 NA
ATOM     36  C   UNL A   1      37.456  32.879  32.630  1.00  0.00     0.031 C 
ATOM     37  C   UNL A   1      38.179  30.334  28.325  1.00  0.00     0.029 A 
ATOM     38  N   UNL A   1      39.535  29.924  30.052  1.00  0.00    -0.354 N 
ATOM     39  C   UNL A   1      39.239  31.992  33.758  1.00  0.00     0.074 A 
ATOM     40  C   UNL A   1      38.189  32.985  33.729  1.00  0.00     0.031 C 
ATOM     41  C   UNL A   1      39.100  29.441  27.917  1.00  0.00     0.029 A 
ATOM     42  C   UNL A   1      40.012  29.143  29.019  1.00  0.00     0.049 A 
ATOM     43  H   UNL A   1      39.948  29.939  30.945  1.00  0.00     0.167 HD
ATOM     44  C   UNL A   1      40.026  31.760  34.838  1.00  0.00     0.037 A 
ATOM     45  C   UNL A   1      41.048  28.276  28.955  1.00  0.00     0.037 A 
ATOM     46  C   UNL A   1      41.042  30.744  34.916  1.00  0.00     0.049 A 
ATOM     47  C   UNL A   1      41.889  28.000  30.179  1.00  0.00     0.074 A 
ATOM     48  C   UNL A   1      41.810  30.377  36.012  1.00  0.00     0.029 A 
ATOM     49  N   UNL A   1      41.431  29.930  33.868  1.00  0.00    -0.354 N 
ATOM     50  N   UNL A   1      41.806  28.532  31.372  1.00  0.00    -0.248 NA
ATOM     51  C   UNL A   1      42.950  26.983  30.056  1.00  0.00     0.031 C 
ATOM     52  C   UNL A   1      42.688  29.366  35.615  1.00  0.00     0.029 A 
ATOM     53  C   UNL A   1      42.435  29.073  34.287  1.00  0.00     0.049 A 
ATOM     54  H   UNL A   1      41.051  29.956  32.959  1.00  0.00     0.167 HD
ATOM     55  C   UNL A   1      42.766  27.889  32.147  1.00  0.00     0.074 A 
ATOM     56  C   UNL A   1      43.422  26.925  31.295  1.00  0.00     0.031 C 
ATOM     57  C   UNL A   1      43.067  28.086  33.453  1.00  0.00     0.037 A 
BRANCH  44  58
ATOM     58  C   UNL A   1      39.788  32.587  36.073  1.00  0.00     0.057 A 
ATOM     59  C   UNL A   1      40.514  33.762  36.313  1.00  0.00     0.134 A 
ATOM     60  C   UNL A   1      38.763  32.268  36.975  1.00  0.00     0.134 A 
ATOM     61  F   UNL A   1      41.508  34.125  35.489  1.00  0.00    -0.206 F 
ATOM     62  C   UNL A   1      40.246  34.577  37.413  1.00  0.00     0.040 A 
ATOM     63  C   UNL A   1      38.468  33.090  38.063  1.00  0.00     0.040 A 
ATOM     64  F   UNL A   1      38.016  31.168  36.796  1.00  0.00    -0.206 F 
ATOM     65  C   UNL A   1      39.212  34.247  38.286  1.00  0.00     0.006 A 
ENDBRANCH  44  58
BRANCH  45  66
ATOM     66  C   UNL A   1      41.330  27.532  27.693  1.00  0.00     0.057 A 
ATOM     67  C   UNL A   1      42.132  28.093  26.691  1.00  0.00     0.134 A 
ATOM     68  C   UNL A   1      40.788  26.265  27.443  1.00  0.00     0.134 A 
ATOM     69  F   UNL A   1      42.654  29.318  26.853  1.00  0.00    -0.206 F 
ATOM     70  C   UNL A   1      42.376  27.431  25.485  1.00  0.00     0.040 A 
ATOM     71  C   UNL A   1      41.042  25.581  26.250  1.00  0.00     0.040 A 
ATOM     72  F   UNL A   1      40.004  25.673  28.355  1.00  0.00    -0.206 F 
ATOM     73  C   UNL A   1      41.834  26.167  25.264  1.00  0.00     0.006 A 
ENDBRANCH  45  66
BRANCH  57  74
ATOM     74  C   UNL A   1      44.120  27.220  34.084  1.00  0.00     0.057 A 
ATOM     75  C   UNL A   1      43.819  25.963  34.618  1.00  0.00     0.134 A 
ATOM     76  C   UNL A   1      45.467  27.605  34.052  1.00  0.00     0.134 A 
ATOM     77  F   UNL A   1      42.549  25.537  34.681  1.00  0.00    -0.206 F 
ATOM     78  C   UNL A   1      44.822  25.116  35.098  1.00  0.00     0.040 A 
ATOM     79  C   UNL A   1      46.480  26.759  34.509  1.00  0.00     0.040 A 
ATOM     80  F   UNL A   1      45.825  28.793  33.542  1.00  0.00    -0.206 F 
ATOM     81  C   UNL A   1      46.158  25.510  35.034  1.00  0.00     0.006 A 
ENDBRANCH  57  74
ENDBRANCH  31  32
ENDBRANCH  23  26
ENDBRANCH  21  22
ENDBRANCH   1  21
TORSDOF 12
ENDMDL
MODEL 2
REMARK VINA RESULT:     -11.9      1.119      1.807
REMARK SMILES CC1=Nn2c(nnc(CCC(=O)NCCCNC(=O)c3ccc(-c4c5nc(c(-c6c(F)cccc6F)c6ccc([nH]6)c(-c6c(F)cccc6F)c6nc(c(-c7c(F)cccc7F)c7ccc4[nH]7)C=C6)C=C5)cc3)c2=O)SC1
REMARK SMILES IDX 15 1 14 2 13 3 11 4 12 5 10 7 9 8 8 9 1 10 2 11 3 12 77 13
REMARK SMILES IDX 4 14 76 15 5 16 74 17 6 18 75 19 7 20 16 21 17 22 18 23
REMARK SMILES IDX 19 25 20 26 21 27 73 28 22 29 72 30 23 31 24 32 25 33 66 34
REMARK SMILES IDX 26 35 71 36 65 37 67 38 27 39 70 40 64 41 63 42 28 44 54 45
REMARK SMILES IDX 37 46 53 47 38 48 41 49 52 50 68 51 39 52 40 53 51 55 69 56
REMARK SMILES IDX 42 57 29 58 30 59 35 60 31 61 32 62 34 63 36 64 33 65 55 66
REMARK SMILES IDX 56 67 61 68 57 69 58 70 60 71 62 72 59 73 43 74 44 75 49 76
REMARK SMILES IDX 45 77 46 78 48 79 50 80 47 81
REMARK H PARENT 13 6 17 24 67 43 41 54
REMARK Flexibility Score: inf
ROOT
ATOM      1  C   UNL A   1      32.179  30.910  26.899  1.00  0.00     0.042 C 
ENDROOT
BRANCH   1   2
ATOM      2  C   UNL A   1      32.178  29.708  25.922  1.00  0.00     0.117 C 
BRANCH   2   3
ATOM      3  N   UNL A   1      31.339  29.899  24.741  1.00  0.00    -0.356 N 
ATOM      4  C   UNL A   1      30.787  29.012  23.858  1.00  0.00     0.220 C 
ATOM      5  O   UNL A   1      30.027  29.466  23.001  1.00  0.00    -0.275 OA
ATOM      6  H   UNL A   1      31.131  30.841  24.544  1.00  0.00     0.163 HD
BRANCH   4   7
ATOM      7  C   UNL A   1      31.083  27.519  23.901  1.00  0.00     0.106 C 
BRANCH   7   8
ATOM      8  C   UNL A   1      29.890  26.700  24.407  1.00  0.00     0.074 C 
BRANCH   8   9
ATOM      9  C   UNL A   1      30.385  25.509  25.178  1.00  0.00     0.131 A 
ATOM     10  C   UNL A   1      35.092  23.013  23.579  1.00  0.00     0.064 C 
ATOM     11  C   UNL A   1      34.014  22.946  24.624  1.00  0.00     0.046 C 
ATOM     12  N   UNL A   1      32.843  23.231  24.161  1.00  0.00    -0.172 NA
ATOM     13  C   UNL A   1      34.382  22.762  26.074  1.00  0.00     0.131 C 
ATOM     14  N   UNL A   1      31.875  23.682  24.999  1.00  0.00    -0.169 N 
ATOM     15  S   UNL A   1      32.953  22.524  27.130  1.00  0.00    -0.078 SA
ATOM     16  C   UNL A   1      31.916  23.691  26.370  1.00  0.00     0.214 A 
ATOM     17  C   UNL A   1      30.859  24.338  24.368  1.00  0.00     0.296 A 
ATOM     18  N   UNL A   1      31.213  24.496  27.101  1.00  0.00    -0.123 NA
ATOM     19  O   UNL A   1      30.399  24.136  23.263  1.00  0.00    -0.265 OA
ATOM     20  N   UNL A   1      30.531  25.555  26.468  1.00  0.00    -0.147 NA
ENDBRANCH   8   9
ENDBRANCH   7   8
ENDBRANCH   4   7
ENDBRANCH   2   3
ENDBRANCH   1   2
BRANCH   1  21
ATOM     21  C   UNL A   1      31.557  32.245  26.417  1.00  0.00     0.118 C 
BRANCH  21  22
ATOM     22  N   UNL A   1      31.935  33.445  27.208  1.00  0.00    -0.352 N 
ATOM     23  C   UNL A   1      32.929  34.033  27.962  1.00  0.00     0.251 C 
ATOM     24  H   UNL A   1      31.174  34.068  27.184  1.00  0.00     0.163 HD
ATOM     25  O   UNL A   1      32.689  35.202  28.292  1.00  0.00    -0.269 OA
BRANCH  23  26
ATOM     26  C   UNL A   1      34.203  33.468  28.513  1.00  0.00     0.039 A 
ATOM     27  C   UNL A   1      34.085  32.537  29.568  1.00  0.00     0.014 A 
ATOM     28  C   UNL A   1      35.494  33.865  28.193  1.00  0.00     0.014 A 
ATOM     29  C   UNL A   1      35.206  31.933  30.184  1.00  0.00     0.010 A 
ATOM     30  C   UNL A   1      36.624  33.188  28.746  1.00  0.00     0.010 A 
ATOM     31  C   UNL A   1      36.507  32.197  29.742  1.00  0.00    -0.014 A 
BRANCH  31  32
ATOM     32  C   UNL A   1      37.710  31.483  30.328  1.00  0.00     0.031 A 
ATOM     33  C   UNL A   1      38.187  31.781  31.741  1.00  0.00     0.074 A 
ATOM     34  C   UNL A   1      38.443  30.598  29.606  1.00  0.00     0.049 A 
ATOM     35  N   UNL A   1      39.208  31.287  32.403  1.00  0.00    -0.248 NA
ATOM     36  C   UNL A   1      37.437  32.797  32.495  1.00  0.00     0.031 C 
ATOM     37  C   UNL A   1      38.203  30.235  28.208  1.00  0.00     0.029 A 
ATOM     38  N   UNL A   1      39.561  29.854  29.940  1.00  0.00    -0.354 N 
ATOM     39  C   UNL A   1      39.229  31.941  33.632  1.00  0.00     0.074 A 
ATOM     40  C   UNL A   1      38.165  32.920  33.595  1.00  0.00     0.031 C 
ATOM     41  C   UNL A   1      39.137  29.353  27.807  1.00  0.00     0.029 A 
ATOM     42  C   UNL A   1      40.051  29.073  28.913  1.00  0.00     0.049 A 
ATOM     43  H   UNL A   1      39.972  29.880  30.834  1.00  0.00     0.167 HD
ATOM     44  C   UNL A   1      40.016  31.727  34.716  1.00  0.00     0.037 A 
ATOM     45  C   UNL A   1      41.099  28.220  28.857  1.00  0.00     0.037 A 
ATOM     46  C   UNL A   1      41.045  30.724  34.803  1.00  0.00     0.049 A 
ATOM     47  C   UNL A   1      41.940  27.963  30.084  1.00  0.00     0.074 A 
ATOM     48  C   UNL A   1      41.815  30.375  35.902  1.00  0.00     0.029 A 
ATOM     49  N   UNL A   1      41.448  29.909  33.760  1.00  0.00    -0.354 N 
ATOM     50  N   UNL A   1      41.847  28.501  31.274  1.00  0.00    -0.248 NA
ATOM     51  C   UNL A   1      43.015  26.959  29.970  1.00  0.00     0.031 C 
ATOM     52  C   UNL A   1      42.708  29.373  35.514  1.00  0.00     0.029 A 
ATOM     53  C   UNL A   1      42.462  29.068  34.186  1.00  0.00     0.049 A 
ATOM     54  H   UNL A   1      41.070  29.925  32.851  1.00  0.00     0.167 HD
ATOM     55  C   UNL A   1      42.813  27.876  32.055  1.00  0.00     0.074 A 
ATOM     56  C   UNL A   1      43.485  26.915  31.210  1.00  0.00     0.031 C 
ATOM     57  C   UNL A   1      43.110  28.085  33.360  1.00  0.00     0.037 A 
BRANCH  44  58
ATOM     58  C   UNL A   1      39.764  32.557  35.945  1.00  0.00     0.057 A 
ATOM     59  C   UNL A   1      38.794  32.186  36.887  1.00  0.00     0.134 A 
ATOM     60  C   UNL A   1      40.558  33.673  36.244  1.00  0.00     0.134 A 
ATOM     61  F   UNL A   1      38.001  31.128  36.663  1.00  0.00    -0.206 F 
ATOM     62  C   UNL A   1      38.608  32.905  38.068  1.00  0.00     0.040 A 
ATOM     63  C   UNL A   1      40.400  34.383  37.435  1.00  0.00     0.040 A 
ATOM     64  F   UNL A   1      41.518  34.073  35.396  1.00  0.00    -0.206 F 
ATOM     65  C   UNL A   1      39.420  34.001  38.350  1.00  0.00     0.006 A 
ENDBRANCH  44  58
BRANCH  45  66
ATOM     66  C   UNL A   1      41.393  27.472  27.600  1.00  0.00     0.057 A 
ATOM     67  C   UNL A   1      40.878  26.185  27.391  1.00  0.00     0.134 A 
ATOM     68  C   UNL A   1      42.213  28.002  26.597  1.00  0.00     0.134 A 
ATOM     69  F   UNL A   1      40.114  25.606  28.328  1.00  0.00    -0.206 F 
ATOM     70  C   UNL A   1      41.174  25.451  26.240  1.00  0.00     0.040 A 
ATOM     71  C   UNL A   1      42.500  27.288  25.430  1.00  0.00     0.040 A 
ATOM     72  F   UNL A   1      42.748  29.224  26.736  1.00  0.00    -0.206 F 
ATOM     73  C   UNL A   1      41.984  26.005  25.251  1.00  0.00     0.006 A 
ENDBRANCH  45  66
BRANCH  57  74
ATOM     74  C   UNL A   1      44.172  27.237  33.999  1.00  0.00     0.057 A 
ATOM     75  C   UNL A   1      43.883  25.986  34.555  1.00  0.00     0.134 A 
ATOM     76  C   UNL A   1      45.517  27.631  33.953  1.00  0.00     0.134 A 
ATOM     77  F   UNL A   1      42.617  25.552  34.633  1.00  0.00    -0.206 F 
ATOM     78  C   UNL A   1      44.895  25.155  35.043  1.00  0.00     0.040 A 
ATOM     79  C   UNL A   1      46.538  26.800  34.417  1.00  0.00     0.040 A 
ATOM     80  F   UNL A   1      45.862  28.813  33.421  1.00  0.00    -0.206 F 
ATOM     81  C   UNL A   1      46.228  25.557  34.964  1.00  0.00     0.006 A 
ENDBRANCH  57  74
ENDBRANCH  31  32
ENDBRANCH  23  26
ENDBRANCH  21  22
ENDBRANCH   1  21
TORSDOF 12
ENDMDL
MODEL 3
REMARK VINA RESULT:     -11.8      4.543      9.802
REMARK SMILES CC1=Nn2c(nnc(CCC(=O)NCCCNC(=O)c3ccc(-c4c5nc(c(-c6c(F)cccc6F)c6ccc([nH]6)c(-c6c(F)cccc6F)c6nc(c(-c7c(F)cccc7F)c7ccc4[nH]7)C=C6)C=C5)cc3)c2=O)SC1
REMARK SMILES IDX 15 1 14 2 13 3 11 4 12 5 10 7 9 8 8 9 1 10 2 11 3 12 77 13
REMARK SMILES IDX 4 14 76 15 5 16 74 17 6 18 75 19 7 20 16 21 17 22 18 23
REMARK SMILES IDX 19 25 20 26 21 27 73 28 22 29 72 30 23 31 24 32 25 33 66 34
REMARK SMILES IDX 26 35 71 36 65 37 67 38 27 39 70 40 64 41 63 42 28 44 54 45
REMARK SMILES IDX 37 46 53 47 38 48 41 49 52 50 68 51 39 52 40 53 51 55 69 56
REMARK SMILES IDX 42 57 29 58 30 59 35 60 31 61 32 62 34 63 36 64 33 65 55 66
REMARK SMILES IDX 56 67 61 68 57 69 58 70 60 71 62 72 59 73 43 74 44 75 49 76
REMARK SMILES IDX 45 77 46 78 48 79 50 80 47 81
REMARK H PARENT 13 6 17 24 67 43 41 54
REMARK Flexibility Score: inf
ROOT
ATOM      1  C   UNL A   1      36.685  20.623  25.435  1.00  0.00     0.042 C 
ENDROOT
BRANCH   1   2
ATOM      2  C   UNL A   1      35.282  20.744  24.791  1.00  0.00     0.117 C 
BRANCH   2   3
ATOM      3  N   UNL A   1      34.330  19.730  25.239  1.00  0.00    -0.356 N 
ATOM      4  C   UNL A   1      32.964  19.672  25.190  1.00  0.00     0.220 C 
ATOM      5  O   UNL A   1      32.429  18.626  25.561  1.00  0.00    -0.275 OA
ATOM      6  H   UNL A   1      34.749  18.941  25.652  1.00  0.00     0.163 HD
BRANCH   4   7
ATOM      7  C   UNL A   1      32.110  20.837  24.707  1.00  0.00     0.106 C 
BRANCH   7   8
ATOM      8  C   UNL A   1      31.893  21.894  25.796  1.00  0.00     0.074 C 
BRANCH   8   9
ATOM      9  C   UNL A   1      31.136  23.060  25.224  1.00  0.00     0.131 A 
ATOM     10  C   UNL A   1      31.985  28.136  27.333  1.00  0.00     0.064 C 
ATOM     11  C   UNL A   1      31.205  27.412  26.272  1.00  0.00     0.046 C 
ATOM     12  N   UNL A   1      30.807  26.243  26.648  1.00  0.00    -0.172 NA
ATOM     13  C   UNL A   1      31.124  27.980  24.878  1.00  0.00     0.131 C 
ATOM     14  N   UNL A   1      30.532  25.291  25.720  1.00  0.00    -0.169 N 
ATOM     15  S   UNL A   1      30.003  27.066  23.820  1.00  0.00    -0.078 SA
ATOM     16  C   UNL A   1      30.426  25.473  24.364  1.00  0.00     0.214 A 
ATOM     17  C   UNL A   1      30.540  24.019  26.213  1.00  0.00     0.296 A 
ATOM     18  N   UNL A   1      30.601  24.526  23.499  1.00  0.00    -0.123 NA
ATOM     19  O   UNL A   1      30.221  23.634  27.319  1.00  0.00    -0.265 OA
ATOM     20  N   UNL A   1      31.129  23.297  23.947  1.00  0.00    -0.147 NA
ENDBRANCH   8   9
ENDBRANCH   7   8
ENDBRANCH   4   7
ENDBRANCH   2   3
ENDBRANCH   1   2
BRANCH   1  21
ATOM     21  C   UNL A   1      37.762  19.792  24.693  1.00  0.00     0.118 C 
BRANCH  21  22
ATOM     22  N   UNL A   1      38.991  19.500  25.475  1.00  0.00    -0.352 N 
ATOM     23  C   UNL A   1      39.971  20.040  26.282  1.00  0.00     0.251 C 
ATOM     24  H   UNL A   1      39.184  18.540  25.377  1.00  0.00     0.163 HD
ATOM     25  O   UNL A   1      40.735  19.203  26.778  1.00  0.00    -0.269 OA
BRANCH  23  26
ATOM     26  C   UNL A   1      40.309  21.468  26.588  1.00  0.00     0.039 A 
ATOM     27  C   UNL A   1      41.395  21.692  27.462  1.00  0.00     0.014 A 
ATOM     28  C   UNL A   1      39.585  22.591  26.215  1.00  0.00     0.014 A 
ATOM     29  C   UNL A   1      41.817  22.990  27.841  1.00  0.00     0.010 A 
ATOM     30  C   UNL A   1      40.063  23.902  26.518  1.00  0.00     0.010 A 
ATOM     31  C   UNL A   1      41.198  24.133  27.324  1.00  0.00    -0.014 A 
BRANCH  31  32
ATOM     32  C   UNL A   1      41.701  25.527  27.645  1.00  0.00     0.031 A 
ATOM     33  C   UNL A   1      43.082  25.983  27.202  1.00  0.00     0.074 A 
ATOM     34  C   UNL A   1      40.972  26.401  28.384  1.00  0.00     0.049 A 
ATOM     35  N   UNL A   1      43.691  27.130  27.404  1.00  0.00    -0.248 NA
ATOM     36  C   UNL A   1      43.900  25.008  26.467  1.00  0.00     0.031 C 
ATOM     37  C   UNL A   1      39.659  26.131  28.974  1.00  0.00     0.029 A 
ATOM     38  N   UNL A   1      41.242  27.697  28.791  1.00  0.00    -0.354 N 
ATOM     39  C   UNL A   1      44.957  27.003  26.839  1.00  0.00     0.074 A 
ATOM     40  C   UNL A   1      45.057  25.644  26.354  1.00  0.00     0.031 C 
ATOM     41  C   UNL A   1      39.245  27.211  29.662  1.00  0.00     0.029 A 
ATOM     42  C   UNL A   1      40.254  28.265  29.569  1.00  0.00     0.049 A 
ATOM     43  H   UNL A   1      42.068  28.172  28.545  1.00  0.00     0.167 HD
ATOM     44  C   UNL A   1      45.936  27.929  26.686  1.00  0.00     0.037 A 
ATOM     45  C   UNL A   1      40.151  29.489  30.136  1.00  0.00     0.037 A 
ATOM     46  C   UNL A   1      45.846  29.302  27.108  1.00  0.00     0.049 A 
ATOM     47  C   UNL A   1      41.232  30.522  29.921  1.00  0.00     0.074 A 
ATOM     48  C   UNL A   1      46.753  30.329  26.895  1.00  0.00     0.029 A 
ATOM     49  N   UNL A   1      44.793  29.844  27.823  1.00  0.00    -0.354 N 
ATOM     50  N   UNL A   1      42.360  30.410  29.265  1.00  0.00    -0.248 NA
ATOM     51  C   UNL A   1      41.013  31.860  30.501  1.00  0.00     0.031 C 
ATOM     52  C   UNL A   1      46.264  31.483  27.512  1.00  0.00     0.029 A 
ATOM     53  C   UNL A   1      45.033  31.186  28.070  1.00  0.00     0.049 A 
ATOM     54  H   UNL A   1      43.992  29.350  28.114  1.00  0.00     0.167 HD
ATOM     55  C   UNL A   1      42.959  31.664  29.316  1.00  0.00     0.074 A 
ATOM     56  C   UNL A   1      42.074  32.527  30.065  1.00  0.00     0.031 C 
ATOM     57  C   UNL A   1      44.140  32.058  28.783  1.00  0.00     0.037 A 
BRANCH  44  58
ATOM     58  C   UNL A   1      47.193  27.514  25.971  1.00  0.00     0.057 A 
ATOM     59  C   UNL A   1      48.279  26.964  26.667  1.00  0.00     0.134 A 
ATOM     60  C   UNL A   1      47.286  27.569  24.573  1.00  0.00     0.134 A 
ATOM     61  F   UNL A   1      48.254  26.882  28.006  1.00  0.00    -0.206 F 
ATOM     62  C   UNL A   1      49.416  26.503  26.004  1.00  0.00     0.040 A 
ATOM     63  C   UNL A   1      48.407  27.085  23.897  1.00  0.00     0.040 A 
ATOM     64  F   UNL A   1      46.278  28.066  23.842  1.00  0.00    -0.206 F 
ATOM     65  C   UNL A   1      49.478  26.552  24.614  1.00  0.00     0.006 A 
ENDBRANCH  44  58
BRANCH  45  66
ATOM     66  C   UNL A   1      38.938  29.855  30.922  1.00  0.00     0.057 A 
ATOM     67  C   UNL A   1      37.854  30.502  30.314  1.00  0.00     0.134 A 
ATOM     68  C   UNL A   1      38.840  29.598  32.295  1.00  0.00     0.134 A 
ATOM     69  F   UNL A   1      37.899  30.808  29.009  1.00  0.00    -0.206 F 
ATOM     70  C   UNL A   1      36.725  30.890  31.040  1.00  0.00     0.040 A 
ATOM     71  C   UNL A   1      37.707  29.960  33.030  1.00  0.00     0.040 A 
ATOM     72  F   UNL A   1      39.844  28.990  32.943  1.00  0.00    -0.206 F 
ATOM     73  C   UNL A   1      36.646  30.613  32.403  1.00  0.00     0.006 A 
ENDBRANCH  45  66
BRANCH  57  74
ATOM     74  C   UNL A   1      44.550  33.495  28.931  1.00  0.00     0.057 A 
ATOM     75  C   UNL A   1      45.350  33.929  29.993  1.00  0.00     0.134 A 
ATOM     76  C   UNL A   1      44.233  34.429  27.935  1.00  0.00     0.134 A 
ATOM     77  F   UNL A   1      45.685  33.086  30.981  1.00  0.00    -0.206 F 
ATOM     78  C   UNL A   1      45.821  35.243  30.061  1.00  0.00     0.040 A 
ATOM     79  C   UNL A   1      44.717  35.739  27.981  1.00  0.00     0.040 A 
ATOM     80  F   UNL A   1      43.480  34.075  26.883  1.00  0.00    -0.206 F 
ATOM     81  C   UNL A   1      45.514  36.148  29.046  1.00  0.00     0.006 A 
ENDBRANCH  57  74
ENDBRANCH  31  32
ENDBRANCH  23  26
ENDBRANCH  21  22
ENDBRANCH   1  21
TORSDOF 12
ENDMDL
