MODEL 1
REMARK VINA RESULT:     -12.9      0.000      0.000
REMARK SMILES CO[C@@H]1C[NH2+][C@@H](O[C@@H]2C[C@@H](C(=O)NCCCNC(=O)c3ccc(-c4c5nc(c(-c6c(F)cccc6F)c6ccc([nH]6)c(-c6c(F)cccc6F)c6nc(c(-c7c(F)cccc7F)c7ccc4[nH]7)C=C6)C=C5)cc3)N(C(=O)OC(C)(C)C)C2)c2cc(Cl)ccc21
REMARK SMILES IDX 14 1 13 2 11 3 12 4 10 6 8 7 9 8 82 9 74 10 7 11 6 12 3 13
REMARK SMILES IDX 4 14 89 15 5 16 83 17 88 18 84 21 87 22 85 23 86 24 2 25
REMARK SMILES IDX 1 26 75 27 76 28 77 29 78 30 79 31 80 32 81 33 15 34 16 35
REMARK SMILES IDX 17 36 18 37 19 39 20 40 21 41 73 42 22 43 72 44 23 45 24 46
REMARK SMILES IDX 25 47 66 48 26 49 71 50 65 51 67 52 27 53 70 54 64 55 63 56
REMARK SMILES IDX 28 58 54 59 37 60 53 61 38 62 41 63 52 64 68 65 39 66 40 67
REMARK SMILES IDX 51 69 69 70 42 71 29 72 30 73 35 74 31 75 32 76 34 77 36 78
REMARK SMILES IDX 33 79 55 80 56 81 61 82 57 83 58 84 60 85 62 86 59 87 43 88
REMARK SMILES IDX 44 89 49 90 45 91 46 92 48 93 50 94 47 95
REMARK H PARENT 13 5 5 19 5 20 17 38 67 57 41 68
REMARK Flexibility Score: inf
ROOT
ATOM      1  C   UNL A   1      35.935  22.639  25.118  1.00  0.00     0.117 C 
ENDROOT
BRANCH   1   2
ATOM      2  N   UNL A   1      35.532  22.263  26.464  1.00  0.00    -0.354 N 
ATOM      3  C   UNL A   1      34.234  22.066  26.920  1.00  0.00     0.243 C 
ATOM      4  O   UNL A   1      34.051  21.393  27.933  1.00  0.00    -0.273 OA
ATOM      5  H   UNL A   1      36.254  22.132  27.121  1.00  0.00     0.163 HD
BRANCH   3   6
ATOM      6  C   UNL A   1      33.086  22.739  26.138  1.00  0.00     0.180 C 
ATOM      7  C   UNL A   1      30.961  23.935  26.120  1.00  0.00     0.147 C 
ATOM      8  C   UNL A   1      32.174  23.619  27.011  1.00  0.00     0.069 C 
ATOM      9  C   UNL A   1      30.885  22.745  25.165  1.00  0.00     0.156 C 
ATOM     10  N   UNL A   1      32.128  21.996  25.314  1.00  0.00    -0.293 N 
BRANCH   7  11
ATOM     11  O   UNL A   1      30.715  25.203  25.526  1.00  0.00    -0.320 OA
BRANCH  11  12
ATOM     12  C   UNL A   1      31.023  25.697  24.234  1.00  0.00     0.354 C 
ATOM     13  C   UNL A   1      32.781  28.004  24.170  1.00  0.00     0.203 C 
ATOM     14  C   UNL A   1      33.334  26.559  24.113  1.00  0.00     0.300 C 
ATOM     15  C   UNL A   1      31.316  28.156  23.757  1.00  0.00    -0.002 A 
ATOM     16  N   UNL A   1      32.399  25.484  23.831  1.00  0.00    -0.315 N 
ATOM     17  C   UNL A   1      30.471  27.033  23.828  1.00  0.00     0.046 A 
ATOM     18  C   UNL A   1      30.723  29.403  23.506  1.00  0.00     0.009 A 
ATOM     19  H   UNL A   1      32.736  24.648  24.310  1.00  0.00     0.349 HD
ATOM     20  H   UNL A   1      32.373  25.410  22.814  1.00  0.00     0.349 HD
ATOM     21  C   UNL A   1      29.092  27.152  23.566  1.00  0.00     0.033 A 
ATOM     22  C   UNL A   1      29.334  29.533  23.356  1.00  0.00     0.021 A 
ATOM     23  C   UNL A   1      28.525  28.403  23.364  1.00  0.00     0.041 A 
ATOM     24  Cl  UNL A   1      26.821  28.549  23.184  1.00  0.00    -0.084 Cl
BRANCH  13  25
ATOM     25  O   UNL A   1      33.639  28.984  23.579  1.00  0.00    -0.371 OA
ATOM     26  C   UNL A   1      34.160  28.556  22.316  1.00  0.00     0.196 C 
ENDBRANCH  13  25
ENDBRANCH  11  12
ENDBRANCH   7  11
BRANCH  10  27
ATOM     27  C   UNL A   1      32.342  20.937  24.458  1.00  0.00     0.411 C 
ATOM     28  O   UNL A   1      32.695  21.110  23.299  1.00  0.00    -0.224 OA
BRANCH  27  29
ATOM     29  O   UNL A   1      32.087  19.715  25.001  1.00  0.00    -0.444 OA
BRANCH  29  30
ATOM     30  C   UNL A   1      32.950  18.581  24.669  1.00  0.00     0.106 C 
ATOM     31  C   UNL A   1      32.558  17.963  23.323  1.00  0.00     0.056 C 
ATOM     32  C   UNL A   1      34.431  18.987  24.717  1.00  0.00     0.056 C 
ATOM     33  C   UNL A   1      32.703  17.484  25.726  1.00  0.00     0.056 C 
ENDBRANCH  29  30
ENDBRANCH  27  29
ENDBRANCH  10  27
ENDBRANCH   3   6
ENDBRANCH   1   2
BRANCH   1  34
ATOM     34  C   UNL A   1      37.155  23.523  24.981  1.00  0.00     0.042 C 
BRANCH  34  35
ATOM     35  C   UNL A   1      37.981  23.706  26.242  1.00  0.00     0.118 C 
BRANCH  35  36
ATOM     36  N   UNL A   1      39.431  23.652  26.062  1.00  0.00    -0.352 N 
ATOM     37  C   UNL A   1      40.469  24.402  26.568  1.00  0.00     0.251 C 
ATOM     38  H   UNL A   1      39.724  22.934  25.455  1.00  0.00     0.163 HD
ATOM     39  O   UNL A   1      41.617  24.117  26.234  1.00  0.00    -0.269 OA
BRANCH  37  40
ATOM     40  C   UNL A   1      40.234  25.570  27.448  1.00  0.00     0.039 A 
ATOM     41  C   UNL A   1      40.873  26.781  27.226  1.00  0.00     0.014 A 
ATOM     42  C   UNL A   1      39.369  25.450  28.544  1.00  0.00     0.014 A 
ATOM     43  C   UNL A   1      40.897  27.739  28.222  1.00  0.00     0.010 A 
ATOM     44  C   UNL A   1      39.241  26.503  29.459  1.00  0.00     0.010 A 
ATOM     45  C   UNL A   1      40.057  27.635  29.341  1.00  0.00    -0.014 A 
BRANCH  45  46
ATOM     46  C   UNL A   1      40.054  28.758  30.316  1.00  0.00     0.031 A 
ATOM     47  C   UNL A   1      39.024  29.853  30.249  1.00  0.00     0.074 A 
ATOM     48  C   UNL A   1      40.931  28.710  31.340  1.00  0.00     0.049 A 
ATOM     49  N   UNL A   1      38.820  30.842  31.086  1.00  0.00    -0.248 NA
ATOM     50  C   UNL A   1      38.113  29.852  29.095  1.00  0.00     0.031 C 
ATOM     51  C   UNL A   1      41.979  27.696  31.505  1.00  0.00     0.029 A 
ATOM     52  N   UNL A   1      41.045  29.481  32.467  1.00  0.00    -0.354 N 
ATOM     53  C   UNL A   1      37.775  31.586  30.551  1.00  0.00     0.074 A 
ATOM     54  C   UNL A   1      37.412  30.959  29.299  1.00  0.00     0.031 C 
ATOM     55  C   UNL A   1      42.549  27.840  32.707  1.00  0.00     0.029 A 
ATOM     56  C   UNL A   1      41.985  29.014  33.355  1.00  0.00     0.049 A 
ATOM     57  H   UNL A   1      40.506  30.289  32.625  1.00  0.00     0.167 HD
ATOM     58  C   UNL A   1      37.169  32.685  31.064  1.00  0.00     0.037 A 
ATOM     59  C   UNL A   1      42.364  29.487  34.554  1.00  0.00     0.037 A 
ATOM     60  C   UNL A   1      37.536  33.299  32.316  1.00  0.00     0.049 A 
ATOM     61  C   UNL A   1      41.699  30.725  35.074  1.00  0.00     0.074 A 
ATOM     62  C   UNL A   1      36.990  34.415  32.927  1.00  0.00     0.029 A 
ATOM     63  N   UNL A   1      38.548  32.845  33.151  1.00  0.00    -0.354 N 
ATOM     64  N   UNL A   1      40.713  31.417  34.555  1.00  0.00    -0.248 NA
ATOM     65  C   UNL A   1      42.207  31.254  36.344  1.00  0.00     0.031 C 
ATOM     66  C   UNL A   1      37.705  34.665  34.105  1.00  0.00     0.029 A 
ATOM     67  C   UNL A   1      38.655  33.669  34.261  1.00  0.00     0.049 A 
ATOM     68  H   UNL A   1      39.106  32.052  32.980  1.00  0.00     0.167 HD
ATOM     69  C   UNL A   1      40.475  32.457  35.440  1.00  0.00     0.074 A 
ATOM     70  C   UNL A   1      41.392  32.276  36.549  1.00  0.00     0.031 C 
ATOM     71  C   UNL A   1      39.588  33.479  35.344  1.00  0.00     0.037 A 
BRANCH  58  72
ATOM     72  C   UNL A   1      36.066  33.308  30.251  1.00  0.00     0.057 A 
ATOM     73  C   UNL A   1      36.362  34.084  29.121  1.00  0.00     0.134 A 
ATOM     74  C   UNL A   1      34.713  33.151  30.583  1.00  0.00     0.134 A 
ATOM     75  F   UNL A   1      37.634  34.283  28.746  1.00  0.00    -0.206 F 
ATOM     76  C   UNL A   1      35.356  34.674  28.353  1.00  0.00     0.040 A 
ATOM     77  C   UNL A   1      33.696  33.711  29.805  1.00  0.00     0.040 A 
ATOM     78  F   UNL A   1      34.355  32.409  31.643  1.00  0.00    -0.206 F 
ATOM     79  C   UNL A   1      34.017  34.481  28.689  1.00  0.00     0.006 A 
ENDBRANCH  58  72
BRANCH  59  80
ATOM     80  C   UNL A   1      43.438  28.810  35.328  1.00  0.00     0.057 A 
ATOM     81  C   UNL A   1      43.138  27.846  36.298  1.00  0.00     0.134 A 
ATOM     82  C   UNL A   1      44.790  29.091  35.097  1.00  0.00     0.134 A 
ATOM     83  F   UNL A   1      41.863  27.536  36.576  1.00  0.00    -0.206 F 
ATOM     84  C   UNL A   1      44.141  27.190  37.014  1.00  0.00     0.040 A 
ATOM     85  C   UNL A   1      45.803  28.417  35.780  1.00  0.00     0.040 A 
ATOM     86  F   UNL A   1      45.144  29.993  34.170  1.00  0.00    -0.206 F 
ATOM     87  C   UNL A   1      45.478  27.466  36.746  1.00  0.00     0.006 A 
ENDBRANCH  59  80
BRANCH  71  88
ATOM     88  C   UNL A   1      39.566  34.447  36.492  1.00  0.00     0.057 A 
ATOM     89  C   UNL A   1      38.840  34.156  37.654  1.00  0.00     0.134 A 
ATOM     90  C   UNL A   1      40.302  35.640  36.471  1.00  0.00     0.134 A 
ATOM     91  F   UNL A   1      38.107  33.036  37.737  1.00  0.00    -0.206 F 
ATOM     92  C   UNL A   1      38.864  35.005  38.760  1.00  0.00     0.040 A 
ATOM     93  C   UNL A   1      40.363  36.478  37.584  1.00  0.00     0.040 A 
ATOM     94  F   UNL A   1      41.034  35.969  35.395  1.00  0.00    -0.206 F 
ATOM     95  C   UNL A   1      39.643  36.161  38.733  1.00  0.00     0.006 A 
ENDBRANCH  71  88
ENDBRANCH  45  46
ENDBRANCH  37  40
ENDBRANCH  35  36
ENDBRANCH  34  35
ENDBRANCH   1  34
TORSDOF 16
ENDMDL
MODEL 2
REMARK VINA RESULT:     -12.9      1.300      2.095
REMARK SMILES CO[C@@H]1C[NH2+][C@@H](O[C@@H]2C[C@@H](C(=O)NCCCNC(=O)c3ccc(-c4c5nc(c(-c6c(F)cccc6F)c6ccc([nH]6)c(-c6c(F)cccc6F)c6nc(c(-c7c(F)cccc7F)c7ccc4[nH]7)C=C6)C=C5)cc3)N(C(=O)OC(C)(C)C)C2)c2cc(Cl)ccc21
REMARK SMILES IDX 14 1 13 2 11 3 12 4 10 6 8 7 9 8 82 9 74 10 7 11 6 12 3 13
REMARK SMILES IDX 4 14 89 15 5 16 83 17 88 18 84 21 87 22 85 23 86 24 2 25
REMARK SMILES IDX 1 26 75 27 76 28 77 29 78 30 79 31 80 32 81 33 15 34 16 35
REMARK SMILES IDX 17 36 18 37 19 39 20 40 21 41 73 42 22 43 72 44 23 45 24 46
REMARK SMILES IDX 25 47 66 48 26 49 71 50 65 51 67 52 27 53 70 54 64 55 63 56
REMARK SMILES IDX 28 58 54 59 37 60 53 61 38 62 41 63 52 64 68 65 39 66 40 67
REMARK SMILES IDX 51 69 69 70 42 71 29 72 30 73 35 74 31 75 32 76 34 77 36 78
REMARK SMILES IDX 33 79 55 80 56 81 61 82 57 83 58 84 60 85 62 86 59 87 43 88
REMARK SMILES IDX 44 89 49 90 45 91 46 92 48 93 50 94 47 95
REMARK H PARENT 13 5 5 19 5 20 17 38 67 57 41 68
REMARK Flexibility Score: inf
ROOT
ATOM      1  C   UNL A   1      36.104  22.009  24.870  1.00  0.00     0.117 C 
ENDROOT
BRANCH   1   2
ATOM      2  N   UNL A   1      35.674  21.775  26.240  1.00  0.00    -0.354 N 
ATOM      3  C   UNL A   1      34.365  21.702  26.699  1.00  0.00     0.243 C 
ATOM      4  O   UNL A   1      34.136  21.130  27.764  1.00  0.00    -0.273 OA
ATOM      5  H   UNL A   1      36.384  21.655  26.911  1.00  0.00     0.163 HD
BRANCH   3   6
ATOM      6  C   UNL A   1      33.264  22.377  25.854  1.00  0.00     0.180 C 
ATOM      7  C   UNL A   1      31.187  23.647  25.718  1.00  0.00     0.147 C 
ATOM      8  C   UNL A   1      32.362  23.330  26.658  1.00  0.00     0.069 C 
ATOM      9  C   UNL A   1      31.093  22.417  24.818  1.00  0.00     0.156 C 
ATOM     10  N   UNL A   1      32.303  21.632  25.038  1.00  0.00    -0.293 N 
BRANCH   7  11
ATOM     11  O   UNL A   1      31.005  24.893  25.059  1.00  0.00    -0.320 OA
BRANCH  11  12
ATOM     12  C   UNL A   1      30.275  26.047  25.441  1.00  0.00     0.354 C 
ATOM     13  C   UNL A   1      29.719  27.932  23.307  1.00  0.00     0.203 C 
ATOM     14  C   UNL A   1      28.737  26.787  23.657  1.00  0.00     0.300 C 
ATOM     15  C   UNL A   1      30.694  28.316  24.422  1.00  0.00    -0.002 A 
ATOM     16  N   UNL A   1      28.924  26.092  24.918  1.00  0.00    -0.315 N 
ATOM     17  C   UNL A   1      30.976  27.374  25.429  1.00  0.00     0.046 A 
ATOM     18  C   UNL A   1      31.475  29.481  24.382  1.00  0.00     0.009 A 
ATOM     19  H   UNL A   1      28.608  25.131  24.791  1.00  0.00     0.349 HD
ATOM     20  H   UNL A   1      28.389  26.628  25.602  1.00  0.00     0.349 HD
ATOM     21  C   UNL A   1      31.951  27.641  26.412  1.00  0.00     0.033 A 
ATOM     22  C   UNL A   1      32.518  29.691  25.295  1.00  0.00     0.021 A 
ATOM     23  C   UNL A   1      32.738  28.780  26.322  1.00  0.00     0.041 A 
ATOM     24  Cl  UNL A   1      34.017  29.025  27.446  1.00  0.00    -0.084 Cl
BRANCH  13  25
ATOM     25  O   UNL A   1      29.104  29.062  22.682  1.00  0.00    -0.371 OA
ATOM     26  C   UNL A   1      27.688  29.093  22.891  1.00  0.00     0.196 C 
ENDBRANCH  13  25
ENDBRANCH  11  12
ENDBRANCH   7  11
BRANCH  10  27
ATOM     27  C   UNL A   1      32.500  20.526  24.237  1.00  0.00     0.411 C 
ATOM     28  O   UNL A   1      32.848  20.633  23.069  1.00  0.00    -0.224 OA
BRANCH  27  29
ATOM     29  O   UNL A   1      32.237  19.338  24.847  1.00  0.00    -0.444 OA
BRANCH  29  30
ATOM     30  C   UNL A   1      33.099  18.185  24.587  1.00  0.00     0.106 C 
ATOM     31  C   UNL A   1      32.729  17.503  23.266  1.00  0.00     0.056 C 
ATOM     32  C   UNL A   1      34.582  18.585  24.644  1.00  0.00     0.056 C 
ATOM     33  C   UNL A   1      32.827  17.142  25.692  1.00  0.00     0.056 C 
ENDBRANCH  29  30
ENDBRANCH  27  29
ENDBRANCH  10  27
ENDBRANCH   3   6
ENDBRANCH   1   2
BRANCH   1  34
ATOM     34  C   UNL A   1      36.883  23.276  24.595  1.00  0.00     0.042 C 
BRANCH  34  35
ATOM     35  C   UNL A   1      37.620  23.868  25.785  1.00  0.00     0.118 C 
BRANCH  35  36
ATOM     36  N   UNL A   1      39.047  23.563  25.861  1.00  0.00    -0.352 N 
ATOM     37  C   UNL A   1      40.091  24.123  26.563  1.00  0.00     0.251 C 
ATOM     38  H   UNL A   1      39.317  22.804  25.296  1.00  0.00     0.163 HD
ATOM     39  O   UNL A   1      41.214  23.643  26.429  1.00  0.00    -0.269 OA
BRANCH  37  40
ATOM     40  C   UNL A   1      39.906  25.317  27.421  1.00  0.00     0.039 A 
ATOM     41  C   UNL A   1      40.488  26.534  27.099  1.00  0.00     0.014 A 
ATOM     42  C   UNL A   1      39.150  25.216  28.597  1.00  0.00     0.014 A 
ATOM     43  C   UNL A   1      40.578  27.528  28.055  1.00  0.00     0.010 A 
ATOM     44  C   UNL A   1      39.078  26.298  29.483  1.00  0.00     0.010 A 
ATOM     45  C   UNL A   1      39.848  27.445  29.251  1.00  0.00    -0.014 A 
BRANCH  45  46
ATOM     46  C   UNL A   1      39.905  28.602  30.183  1.00  0.00     0.031 A 
ATOM     47  C   UNL A   1      38.899  29.719  30.109  1.00  0.00     0.074 A 
ATOM     48  C   UNL A   1      40.813  28.570  31.179  1.00  0.00     0.049 A 
ATOM     49  N   UNL A   1      38.747  30.743  30.914  1.00  0.00    -0.248 NA
ATOM     50  C   UNL A   1      37.950  29.699  28.986  1.00  0.00     0.031 C 
ATOM     51  C   UNL A   1      41.842  27.537  31.347  1.00  0.00     0.029 A 
ATOM     52  N   UNL A   1      40.984  29.378  32.272  1.00  0.00    -0.354 N 
ATOM     53  C   UNL A   1      37.703  31.493  30.386  1.00  0.00     0.074 A 
ATOM     54  C   UNL A   1      37.283  30.830  29.171  1.00  0.00     0.031 C 
ATOM     55  C   UNL A   1      42.456  27.710  32.524  1.00  0.00     0.029 A 
ATOM     56  C   UNL A   1      41.941  28.921  33.146  1.00  0.00     0.049 A 
ATOM     57  H   UNL A   1      40.470  30.205  32.417  1.00  0.00     0.167 HD
ATOM     58  C   UNL A   1      37.140  32.624  30.877  1.00  0.00     0.037 A 
ATOM     59  C   UNL A   1      42.372  29.427  34.313  1.00  0.00     0.037 A 
ATOM     60  C   UNL A   1      37.563  33.274  32.093  1.00  0.00     0.049 A 
ATOM     61  C   UNL A   1      41.754  30.700  34.808  1.00  0.00     0.074 A 
ATOM     62  C   UNL A   1      37.065  34.425  32.679  1.00  0.00     0.029 A 
ATOM     63  N   UNL A   1      38.591  32.826  32.911  1.00  0.00    -0.354 N 
ATOM     64  N   UNL A   1      40.767  31.397  34.296  1.00  0.00    -0.248 NA
ATOM     65  C   UNL A   1      42.317  31.262  36.041  1.00  0.00     0.031 C 
ATOM     66  C   UNL A   1      37.825  34.700  33.823  1.00  0.00     0.029 A 
ATOM     67  C   UNL A   1      38.755  33.687  33.985  1.00  0.00     0.049 A 
ATOM     68  H   UNL A   1      39.125  32.014  32.752  1.00  0.00     0.167 HD
ATOM     69  C   UNL A   1      40.584  32.474  35.149  1.00  0.00     0.074 A 
ATOM     70  C   UNL A   1      41.533  32.311  36.234  1.00  0.00     0.031 C 
ATOM     71  C   UNL A   1      39.719  33.514  35.044  1.00  0.00     0.037 A 
BRANCH  58  72
ATOM     72  C   UNL A   1      36.025  33.245  30.078  1.00  0.00     0.057 A 
ATOM     73  C   UNL A   1      34.689  33.086  30.472  1.00  0.00     0.134 A 
ATOM     74  C   UNL A   1      36.266  33.992  28.916  1.00  0.00     0.134 A 
ATOM     75  F   UNL A   1      34.382  32.378  31.570  1.00  0.00    -0.206 F 
ATOM     76  C   UNL A   1      33.638  33.650  29.745  1.00  0.00     0.040 A 
ATOM     77  C   UNL A   1      35.225  34.586  28.198  1.00  0.00     0.040 A 
ATOM     78  F   UNL A   1      37.522  34.197  28.488  1.00  0.00    -0.206 F 
ATOM     79  C   UNL A   1      33.906  34.411  28.609  1.00  0.00     0.006 A 
ENDBRANCH  58  72
BRANCH  59  80
ATOM     80  C   UNL A   1      43.454  28.753  35.076  1.00  0.00     0.057 A 
ATOM     81  C   UNL A   1      44.804  29.015  34.809  1.00  0.00     0.134 A 
ATOM     82  C   UNL A   1      43.168  27.852  36.108  1.00  0.00     0.134 A 
ATOM     83  F   UNL A   1      45.150  29.861  33.828  1.00  0.00    -0.206 F 
ATOM     84  C   UNL A   1      45.827  28.403  35.534  1.00  0.00     0.040 A 
ATOM     85  C   UNL A   1      44.180  27.260  36.865  1.00  0.00     0.040 A 
ATOM     86  F   UNL A   1      41.894  27.570  36.423  1.00  0.00    -0.206 F 
ATOM     87  C   UNL A   1      45.515  27.532  36.575  1.00  0.00     0.006 A 
ENDBRANCH  59  80
BRANCH  71  88
ATOM     88  C   UNL A   1      39.759  34.523  36.155  1.00  0.00     0.057 A 
ATOM     89  C   UNL A   1      39.038  34.309  37.337  1.00  0.00     0.134 A 
ATOM     90  C   UNL A   1      40.547  35.680  36.079  1.00  0.00     0.134 A 
ATOM     91  F   UNL A   1      38.257  33.227  37.472  1.00  0.00    -0.206 F 
ATOM     92  C   UNL A   1      39.118  35.196  38.410  1.00  0.00     0.040 A 
ATOM     93  C   UNL A   1      40.663  36.555  37.159  1.00  0.00     0.040 A 
ATOM     94  F   UNL A   1      41.276  35.935  34.981  1.00  0.00    -0.206 F 
ATOM     95  C   UNL A   1      39.947  36.313  38.329  1.00  0.00     0.006 A 
ENDBRANCH  71  88
ENDBRANCH  45  46
ENDBRANCH  37  40
ENDBRANCH  35  36
ENDBRANCH  34  35
ENDBRANCH   1  34
TORSDOF 16
ENDMDL
MODEL 3
REMARK VINA RESULT:     -12.9      1.445      1.911
REMARK SMILES CO[C@@H]1C[NH2+][C@@H](O[C@@H]2C[C@@H](C(=O)NCCCNC(=O)c3ccc(-c4c5nc(c(-c6c(F)cccc6F)c6ccc([nH]6)c(-c6c(F)cccc6F)c6nc(c(-c7c(F)cccc7F)c7ccc4[nH]7)C=C6)C=C5)cc3)N(C(=O)OC(C)(C)C)C2)c2cc(Cl)ccc21
REMARK SMILES IDX 14 1 13 2 11 3 12 4 10 6 8 7 9 8 82 9 74 10 7 11 6 12 3 13
REMARK SMILES IDX 4 14 89 15 5 16 83 17 88 18 84 21 87 22 85 23 86 24 2 25
REMARK SMILES IDX 1 26 75 27 76 28 77 29 78 30 79 31 80 32 81 33 15 34 16 35
REMARK SMILES IDX 17 36 18 37 19 39 20 40 21 41 73 42 22 43 72 44 23 45 24 46
REMARK SMILES IDX 25 47 66 48 26 49 71 50 65 51 67 52 27 53 70 54 64 55 63 56
REMARK SMILES IDX 28 58 54 59 37 60 53 61 38 62 41 63 52 64 68 65 39 66 40 67
REMARK SMILES IDX 51 69 69 70 42 71 29 72 30 73 35 74 31 75 32 76 34 77 36 78
REMARK SMILES IDX 33 79 55 80 56 81 61 82 57 83 58 84 60 85 62 86 59 87 43 88
REMARK SMILES IDX 44 89 49 90 45 91 46 92 48 93 50 94 47 95
REMARK H PARENT 13 5 5 19 5 20 17 38 67 57 41 68
REMARK Flexibility Score: inf
ROOT
ATOM      1  C   UNL A   1      35.929  22.685  25.376  1.00  0.00     0.117 C 
ENDROOT
BRANCH   1   2
ATOM      2  N   UNL A   1      35.584  22.882  23.976  1.00  0.00    -0.354 N 
ATOM      3  C   UNL A   1      34.421  23.456  23.479  1.00  0.00     0.243 C 
ATOM      4  O   UNL A   1      34.419  23.908  22.335  1.00  0.00    -0.273 OA
ATOM      5  H   UNL A   1      36.245  22.578  23.311  1.00  0.00     0.163 HD
BRANCH   3   6
ATOM      6  C   UNL A   1      33.175  23.464  24.389  1.00  0.00     0.180 C 
ATOM      7  C   UNL A   1      32.146  23.900  26.556  1.00  0.00     0.147 C 
ATOM      8  C   UNL A   1      33.361  24.267  25.689  1.00  0.00     0.069 C 
ATOM      9  C   UNL A   1      31.764  22.500  26.083  1.00  0.00     0.156 C 
ATOM     10  N   UNL A   1      32.508  22.245  24.854  1.00  0.00    -0.293 N 
BRANCH   7  11
ATOM     11  O   UNL A   1      31.052  24.772  26.808  1.00  0.00    -0.320 OA
BRANCH  11  12
ATOM     12  C   UNL A   1      30.659  25.975  26.170  1.00  0.00     0.354 C 
ATOM     13  C   UNL A   1      31.344  26.176  23.359  1.00  0.00     0.203 C 
ATOM     14  C   UNL A   1      29.989  25.590  23.825  1.00  0.00     0.300 C 
ATOM     15  C   UNL A   1      32.047  27.077  24.376  1.00  0.00    -0.002 A 
ATOM     16  N   UNL A   1      29.591  25.811  25.203  1.00  0.00    -0.315 N 
ATOM     17  C   UNL A   1      31.725  26.939  25.739  1.00  0.00     0.046 A 
ATOM     18  C   UNL A   1      33.142  27.889  24.044  1.00  0.00     0.009 A 
ATOM     19  H   UNL A   1      29.029  25.011  25.495  1.00  0.00     0.349 HD
ATOM     20  H   UNL A   1      29.093  26.701  25.199  1.00  0.00     0.349 HD
ATOM     21  C   UNL A   1      32.427  27.666  26.721  1.00  0.00     0.033 A 
ATOM     22  C   UNL A   1      33.907  28.523  25.034  1.00  0.00     0.021 A 
ATOM     23  C   UNL A   1      33.533  28.427  26.369  1.00  0.00     0.041 A 
ATOM     24  Cl  UNL A   1      34.464  29.197  27.593  1.00  0.00    -0.084 Cl
BRANCH  13  25
ATOM     25  O   UNL A   1      31.321  26.727  22.038  1.00  0.00    -0.371 OA
ATOM     26  C   UNL A   1      31.987  25.886  21.090  1.00  0.00     0.196 C 
ENDBRANCH  13  25
ENDBRANCH  11  12
ENDBRANCH   7  11
BRANCH  10  27
ATOM     27  C   UNL A   1      32.232  21.078  24.171  1.00  0.00     0.411 C 
ATOM     28  O   UNL A   1      32.056  21.070  22.961  1.00  0.00    -0.224 OA
BRANCH  27  29
ATOM     29  O   UNL A   1      32.138  19.975  24.962  1.00  0.00    -0.444 OA
BRANCH  29  30
ATOM     30  C   UNL A   1      32.874  18.762  24.602  1.00  0.00     0.106 C 
ATOM     31  C   UNL A   1      32.680  17.665  25.654  1.00  0.00     0.056 C 
ATOM     32  C   UNL A   1      32.498  18.292  23.189  1.00  0.00     0.056 C 
ATOM     33  C   UNL A   1      34.378  19.107  24.624  1.00  0.00     0.056 C 
ENDBRANCH  29  30
ENDBRANCH  27  29
ENDBRANCH  10  27
ENDBRANCH   3   6
ENDBRANCH   1   2
BRANCH   1  34
ATOM     34  C   UNL A   1      37.390  22.476  25.707  1.00  0.00     0.042 C 
BRANCH  34  35
ATOM     35  C   UNL A   1      38.136  23.703  26.204  1.00  0.00     0.118 C 
BRANCH  35  36
ATOM     36  N   UNL A   1      39.586  23.677  26.025  1.00  0.00    -0.352 N 
ATOM     37  C   UNL A   1      40.609  24.446  26.535  1.00  0.00     0.251 C 
ATOM     38  H   UNL A   1      39.894  22.967  25.417  1.00  0.00     0.163 HD
ATOM     39  O   UNL A   1      41.763  24.185  26.202  1.00  0.00    -0.269 OA
BRANCH  37  40
ATOM     40  C   UNL A   1      40.350  25.607  27.419  1.00  0.00     0.039 A 
ATOM     41  C   UNL A   1      40.963  26.831  27.200  1.00  0.00     0.014 A 
ATOM     42  C   UNL A   1      39.488  25.465  28.515  1.00  0.00     0.014 A 
ATOM     43  C   UNL A   1      40.968  27.787  28.199  1.00  0.00     0.010 A 
ATOM     44  C   UNL A   1      39.338  26.513  29.433  1.00  0.00     0.010 A 
ATOM     45  C   UNL A   1      40.130  27.662  29.318  1.00  0.00    -0.014 A 
BRANCH  45  46
ATOM     46  C   UNL A   1      40.105  28.782  30.296  1.00  0.00     0.031 A 
ATOM     47  C   UNL A   1      39.067  29.868  30.218  1.00  0.00     0.074 A 
ATOM     48  C   UNL A   1      40.968  28.738  31.332  1.00  0.00     0.049 A 
ATOM     49  N   UNL A   1      38.843  30.852  31.055  1.00  0.00    -0.248 NA
ATOM     50  C   UNL A   1      38.172  29.864  29.052  1.00  0.00     0.031 C 
ATOM     51  C   UNL A   1      42.022  27.732  31.508  1.00  0.00     0.029 A 
ATOM     52  N   UNL A   1      41.060  29.506  32.463  1.00  0.00    -0.354 N 
ATOM     53  C   UNL A   1      37.799  31.590  30.508  1.00  0.00     0.074 A 
ATOM     54  C   UNL A   1      37.459  30.964  29.250  1.00  0.00     0.031 C 
ATOM     55  C   UNL A   1      42.575  27.877  32.719  1.00  0.00     0.029 A 
ATOM     56  C   UNL A   1      41.991  29.044  33.363  1.00  0.00     0.049 A 
ATOM     57  H   UNL A   1      40.512  30.310  32.616  1.00  0.00     0.167 HD
ATOM     58  C   UNL A   1      37.177  32.682  31.016  1.00  0.00     0.037 A 
ATOM     59  C   UNL A   1      42.350  29.516  34.568  1.00  0.00     0.037 A 
ATOM     60  C   UNL A   1      37.521  33.295  32.275  1.00  0.00     0.049 A 
ATOM     61  C   UNL A   1      41.667  30.747  35.082  1.00  0.00     0.074 A 
ATOM     62  C   UNL A   1      36.958  34.405  32.881  1.00  0.00     0.029 A 
ATOM     63  N   UNL A   1      38.526  32.847  33.122  1.00  0.00    -0.354 N 
ATOM     64  N   UNL A   1      40.682  31.433  34.552  1.00  0.00    -0.248 NA
ATOM     65  C   UNL A   1      42.154  31.277  36.361  1.00  0.00     0.031 C 
ATOM     66  C   UNL A   1      37.655  34.657  34.070  1.00  0.00     0.029 A 
ATOM     67  C   UNL A   1      38.611  33.669  34.236  1.00  0.00     0.049 A 
ATOM     68  H   UNL A   1      39.093  32.059  32.957  1.00  0.00     0.167 HD
ATOM     69  C   UNL A   1      40.424  32.468  35.437  1.00  0.00     0.074 A 
ATOM     70  C   UNL A   1      41.327  32.292  36.558  1.00  0.00     0.031 C 
ATOM     71  C   UNL A   1      39.529  33.483  35.332  1.00  0.00     0.037 A 
BRANCH  58  72
ATOM     72  C   UNL A   1      36.080  33.298  30.190  1.00  0.00     0.057 A 
ATOM     73  C   UNL A   1      36.385  34.096  29.078  1.00  0.00     0.134 A 
ATOM     74  C   UNL A   1      34.723  33.113  30.492  1.00  0.00     0.134 A 
ATOM     75  F   UNL A   1      37.662  34.322  28.732  1.00  0.00    -0.206 F 
ATOM     76  C   UNL A   1      35.385  34.681  28.298  1.00  0.00     0.040 A 
ATOM     77  C   UNL A   1      33.713  33.668  29.701  1.00  0.00     0.040 A 
ATOM     78  F   UNL A   1      34.357  32.350  31.533  1.00  0.00    -0.206 F 
ATOM     79  C   UNL A   1      34.043  34.459  28.603  1.00  0.00     0.006 A 
ENDBRANCH  58  72
BRANCH  59  80
ATOM     80  C   UNL A   1      43.419  28.846  35.354  1.00  0.00     0.057 A 
ATOM     81  C   UNL A   1      43.114  27.874  36.315  1.00  0.00     0.134 A 
ATOM     82  C   UNL A   1      44.771  29.141  35.146  1.00  0.00     0.134 A 
ATOM     83  F   UNL A   1      41.838  27.550  36.573  1.00  0.00    -0.206 F 
ATOM     84  C   UNL A   1      44.112  27.224  37.043  1.00  0.00     0.040 A 
ATOM     85  C   UNL A   1      45.781  28.474  35.841  1.00  0.00     0.040 A 
ATOM     86  F   UNL A   1      45.130  30.052  34.229  1.00  0.00    -0.206 F 
ATOM     87  C   UNL A   1      45.451  27.515  36.796  1.00  0.00     0.006 A 
ENDBRANCH  59  80
BRANCH  71  88
ATOM     88  C   UNL A   1      39.484  34.447  36.482  1.00  0.00     0.057 A 
ATOM     89  C   UNL A   1      38.764  34.136  37.643  1.00  0.00     0.134 A 
ATOM     90  C   UNL A   1      40.190  35.657  36.464  1.00  0.00     0.134 A 
ATOM     91  F   UNL A   1      38.059  32.998  37.723  1.00  0.00    -0.206 F 
ATOM     92  C   UNL A   1      38.768  34.982  38.751  1.00  0.00     0.040 A 
ATOM     93  C   UNL A   1      40.231  36.494  37.580  1.00  0.00     0.040 A 
ATOM     94  F   UNL A   1      40.915  36.007  35.389  1.00  0.00    -0.206 F 
ATOM     95  C   UNL A   1      39.518  36.157  38.728  1.00  0.00     0.006 A 
ENDBRANCH  71  88
ENDBRANCH  45  46
ENDBRANCH  37  40
ENDBRANCH  35  36
ENDBRANCH  34  35
ENDBRANCH   1  34
TORSDOF 16
ENDMDL
