MODEL 1
REMARK VINA RESULT:      -9.1      0.000      0.000
REMARK SMILES N#CCc1ccc(OCC(=O)NCCCNC(=O)c2ccc(-c3c4nc(c(-c5c(F)cccc5F)c5ccc([nH]5)c(-c5c(F)cccc5F)c5nc(c(-c6c(F)cccc6F)c6ccc3[nH]6)C=C5)C=C4)cc2)cc1
REMARK SMILES IDX 13 1 12 2 10 3 11 4 9 6 8 7 7 8 4 9 5 10 74 11 6 12 73 13
REMARK SMILES IDX 3 14 2 15 1 16 14 17 15 18 16 19 17 20 18 22 19 23 20 24
REMARK SMILES IDX 72 25 21 26 71 27 22 28 23 29 24 30 65 31 25 32 70 33 64 34
REMARK SMILES IDX 66 35 26 36 69 37 63 38 62 39 27 41 53 42 36 43 52 44 37 45
REMARK SMILES IDX 40 46 51 47 67 48 38 49 39 50 50 52 68 53 41 54 28 55 29 56
REMARK SMILES IDX 34 57 30 58 31 59 33 60 35 61 32 62 54 63 55 64 60 65 56 66
REMARK SMILES IDX 57 67 59 68 61 69 58 70 42 71 43 72 48 73 44 74 45 75 47 76
REMARK SMILES IDX 49 77 46 78
REMARK H PARENT 12 5 16 21 66 40 40 51
REMARK Flexibility Score: inf
ROOT
ATOM      1  C   UNL A   1      34.894  35.569  32.762  1.00  0.00     0.117 C 
ENDROOT
BRANCH   1   2
ATOM      2  N   UNL A   1      34.822  35.084  34.127  1.00  0.00    -0.353 N 
ATOM      3  C   UNL A   1      35.587  34.129  34.732  1.00  0.00     0.257 C 
ATOM      4  O   UNL A   1      35.403  33.896  35.928  1.00  0.00    -0.271 OA
ATOM      5  H   UNL A   1      34.130  35.498  34.692  1.00  0.00     0.163 HD
BRANCH   3   6
ATOM      6  C   UNL A   1      36.676  33.403  33.930  1.00  0.00     0.329 C 
BRANCH   6   7
ATOM      7  O   UNL A   1      36.491  32.011  33.717  1.00  0.00    -0.484 OA
BRANCH   7   8
ATOM      8  C   UNL A   1      37.595  31.207  33.799  1.00  0.00     0.120 A 
ATOM      9  C   UNL A   1      40.044  29.835  34.018  1.00  0.00    -0.034 A 
ATOM     10  C   UNL A   1      39.804  30.980  34.786  1.00  0.00     0.008 A 
ATOM     11  C   UNL A   1      39.017  29.348  33.195  1.00  0.00     0.008 A 
ATOM     12  C   UNL A   1      38.585  31.655  34.676  1.00  0.00     0.047 A 
ATOM     13  C   UNL A   1      37.803  30.030  33.084  1.00  0.00     0.047 A 
BRANCH   9  14
ATOM     14  C   UNL A   1      41.394  29.156  34.028  1.00  0.00     0.155 C 
BRANCH  14  15
ATOM     15  C   UNL A   1      41.835  28.891  35.458  1.00  0.00     0.067 C 
ATOM     16  N   UNL A   1      42.200  28.672  36.645  1.00  0.00    -0.198 NA
ENDBRANCH  14  15
ENDBRANCH   9  14
ENDBRANCH   7   8
ENDBRANCH   6   7
ENDBRANCH   3   6
ENDBRANCH   1   2
BRANCH   1  17
ATOM     17  C   UNL A   1      33.519  35.755  32.131  1.00  0.00     0.042 C 
BRANCH  17  18
ATOM     18  C   UNL A   1      33.530  36.462  30.778  1.00  0.00     0.118 C 
BRANCH  18  19
ATOM     19  N   UNL A   1      32.778  35.752  29.753  1.00  0.00    -0.352 N 
ATOM     20  C   UNL A   1      33.121  34.671  28.979  1.00  0.00     0.251 C 
ATOM     21  H   UNL A   1      31.874  36.105  29.588  1.00  0.00     0.163 HD
ATOM     22  O   UNL A   1      32.383  34.330  28.055  1.00  0.00    -0.269 OA
BRANCH  20  23
ATOM     23  C   UNL A   1      34.378  33.932  29.219  1.00  0.00     0.039 A 
ATOM     24  C   UNL A   1      35.508  34.265  28.466  1.00  0.00     0.014 A 
ATOM     25  C   UNL A   1      34.449  32.902  30.160  1.00  0.00     0.014 A 
ATOM     26  C   UNL A   1      36.724  33.623  28.713  1.00  0.00     0.010 A 
ATOM     27  C   UNL A   1      35.679  32.320  30.461  1.00  0.00     0.010 A 
ATOM     28  C   UNL A   1      36.831  32.676  29.745  1.00  0.00    -0.014 A 
BRANCH  28  29
ATOM     29  C   UNL A   1      38.142  32.070  30.100  1.00  0.00     0.031 A 
ATOM     30  C   UNL A   1      39.110  32.809  30.982  1.00  0.00     0.074 A 
ATOM     31  C   UNL A   1      38.487  30.879  29.574  1.00  0.00     0.049 A 
ATOM     32  N   UNL A   1      40.319  32.465  31.351  1.00  0.00    -0.248 NA
ATOM     33  C   UNL A   1      38.675  34.115  31.501  1.00  0.00     0.031 C 
ATOM     34  C   UNL A   1      37.657  30.081  28.668  1.00  0.00     0.029 A 
ATOM     35  N   UNL A   1      39.631  30.133  29.715  1.00  0.00    -0.354 N 
ATOM     36  C   UNL A   1      40.790  33.515  32.131  1.00  0.00     0.074 A 
ATOM     37  C   UNL A   1      39.759  34.530  32.138  1.00  0.00     0.031 C 
ATOM     38  C   UNL A   1      38.308  28.950  28.357  1.00  0.00     0.029 A 
ATOM     39  C   UNL A   1      39.617  28.959  29.001  1.00  0.00     0.049 A 
ATOM     40  H   UNL A   1      40.391  30.413  30.275  1.00  0.00     0.167 HD
ATOM     41  C   UNL A   1      41.964  33.613  32.798  1.00  0.00     0.037 A 
ATOM     42  C   UNL A   1      40.554  28.001  28.871  1.00  0.00     0.037 A 
ATOM     43  C   UNL A   1      42.983  32.596  32.801  1.00  0.00     0.049 A 
ATOM     44  C   UNL A   1      41.860  28.146  29.604  1.00  0.00     0.074 A 
ATOM     45  C   UNL A   1      44.182  32.580  33.492  1.00  0.00     0.029 A 
ATOM     46  N   UNL A   1      42.925  31.418  32.072  1.00  0.00    -0.354 N 
ATOM     47  N   UNL A   1      42.261  29.110  30.397  1.00  0.00    -0.248 NA
ATOM     48  C   UNL A   1      42.844  27.068  29.428  1.00  0.00     0.031 C 
ATOM     49  C   UNL A   1      44.875  31.419  33.139  1.00  0.00     0.029 A 
ATOM     50  C   UNL A   1      44.082  30.681  32.275  1.00  0.00     0.049 A 
ATOM     51  H   UNL A   1      42.175  31.146  31.495  1.00  0.00     0.167 HD
ATOM     52  C   UNL A   1      43.524  28.738  30.841  1.00  0.00     0.074 A 
ATOM     53  C   UNL A   1      43.820  27.457  30.236  1.00  0.00     0.031 C 
ATOM     54  C   UNL A   1      44.360  29.400  31.678  1.00  0.00     0.037 A 
BRANCH  41  55
ATOM     55  C   UNL A   1      42.213  34.870  33.584  1.00  0.00     0.057 A 
ATOM     56  C   UNL A   1      42.878  35.971  33.027  1.00  0.00     0.134 A 
ATOM     57  C   UNL A   1      41.746  34.997  34.898  1.00  0.00     0.134 A 
ATOM     58  F   UNL A   1      43.358  35.914  31.776  1.00  0.00    -0.206 F 
ATOM     59  C   UNL A   1      43.094  37.141  33.758  1.00  0.00     0.040 A 
ATOM     60  C   UNL A   1      41.929  36.173  35.628  1.00  0.00     0.040 A 
ATOM     61  F   UNL A   1      41.092  33.986  35.490  1.00  0.00    -0.206 F 
ATOM     62  C   UNL A   1      42.612  37.246  35.061  1.00  0.00     0.006 A 
ENDBRANCH  41  55
BRANCH  42  63
ATOM     63  C   UNL A   1      40.289  26.809  28.026  1.00  0.00     0.057 A 
ATOM     64  C   UNL A   1      39.488  25.759  28.489  1.00  0.00     0.134 A 
ATOM     65  C   UNL A   1      40.836  26.685  26.743  1.00  0.00     0.134 A 
ATOM     66  F   UNL A   1      38.949  25.811  29.716  1.00  0.00    -0.206 F 
ATOM     67  C   UNL A   1      39.258  24.618  27.717  1.00  0.00     0.040 A 
ATOM     68  C   UNL A   1      40.592  25.562  25.949  1.00  0.00     0.040 A 
ATOM     69  F   UNL A   1      41.606  27.659  26.236  1.00  0.00    -0.206 F 
ATOM     70  C   UNL A   1      39.807  24.520  26.441  1.00  0.00     0.006 A 
ENDBRANCH  42  63
BRANCH  54  71
ATOM     71  C   UNL A   1      45.658  28.734  32.031  1.00  0.00     0.057 A 
ATOM     72  C   UNL A   1      45.769  27.843  33.105  1.00  0.00     0.134 A 
ATOM     73  C   UNL A   1      46.799  28.943  31.245  1.00  0.00     0.134 A 
ATOM     74  F   UNL A   1      44.717  27.609  33.905  1.00  0.00    -0.206 F 
ATOM     75  C   UNL A   1      46.972  27.198  33.397  1.00  0.00     0.040 A 
ATOM     76  C   UNL A   1      48.000  28.282  31.508  1.00  0.00     0.040 A 
ATOM     77  F   UNL A   1      46.760  29.778  30.194  1.00  0.00    -0.206 F 
ATOM     78  C   UNL A   1      48.089  27.409  32.590  1.00  0.00     0.006 A 
ENDBRANCH  54  71
ENDBRANCH  28  29
ENDBRANCH  20  23
ENDBRANCH  18  19
ENDBRANCH  17  18
ENDBRANCH   1  17
TORSDOF 14
ENDMDL
MODEL 2
REMARK VINA RESULT:      -9.0      0.396      6.526
REMARK SMILES N#CCc1ccc(OCC(=O)NCCCNC(=O)c2ccc(-c3c4nc(c(-c5c(F)cccc5F)c5ccc([nH]5)c(-c5c(F)cccc5F)c5nc(c(-c6c(F)cccc6F)c6ccc3[nH]6)C=C5)C=C4)cc2)cc1
REMARK SMILES IDX 13 1 12 2 10 3 11 4 9 6 8 7 7 8 4 9 5 10 74 11 6 12 73 13
REMARK SMILES IDX 3 14 2 15 1 16 14 17 15 18 16 19 17 20 18 22 19 23 20 24
REMARK SMILES IDX 72 25 21 26 71 27 22 28 23 29 24 30 65 31 25 32 70 33 64 34
REMARK SMILES IDX 66 35 26 36 69 37 63 38 62 39 27 41 53 42 36 43 52 44 37 45
REMARK SMILES IDX 40 46 51 47 67 48 38 49 39 50 50 52 68 53 41 54 28 55 29 56
REMARK SMILES IDX 34 57 30 58 31 59 33 60 35 61 32 62 54 63 55 64 60 65 56 66
REMARK SMILES IDX 57 67 59 68 61 69 58 70 42 71 43 72 48 73 44 74 45 75 47 76
REMARK SMILES IDX 49 77 46 78
REMARK H PARENT 12 5 16 21 66 40 40 51
REMARK Flexibility Score: inf
ROOT
ATOM      1  C   UNL A   1      34.813  35.561  32.666  1.00  0.00     0.117 C 
ENDROOT
BRANCH   1   2
ATOM      2  N   UNL A   1      34.768  35.155  34.058  1.00  0.00    -0.353 N 
ATOM      3  C   UNL A   1      35.516  34.207  34.692  1.00  0.00     0.257 C 
ATOM      4  O   UNL A   1      35.362  34.047  35.905  1.00  0.00    -0.271 OA
ATOM      5  H   UNL A   1      34.110  35.627  34.619  1.00  0.00     0.163 HD
BRANCH   3   6
ATOM      6  C   UNL A   1      36.552  33.396  33.901  1.00  0.00     0.329 C 
BRANCH   6   7
ATOM      7  O   UNL A   1      36.314  32.001  33.780  1.00  0.00    -0.484 OA
BRANCH   7   8
ATOM      8  C   UNL A   1      37.399  31.169  33.834  1.00  0.00     0.120 A 
ATOM      9  C   UNL A   1      39.812  29.729  34.024  1.00  0.00    -0.034 A 
ATOM     10  C   UNL A   1      39.572  30.820  34.867  1.00  0.00     0.008 A 
ATOM     11  C   UNL A   1      38.801  29.328  33.137  1.00  0.00     0.008 A 
ATOM     12  C   UNL A   1      38.371  31.530  34.771  1.00  0.00     0.047 A 
ATOM     13  C   UNL A   1      37.605  30.043  33.042  1.00  0.00     0.047 A 
BRANCH   9  14
ATOM     14  C   UNL A   1      41.146  29.021  34.022  1.00  0.00     0.155 C 
BRANCH  14  15
ATOM     15  C   UNL A   1      41.564  28.693  35.446  1.00  0.00     0.067 C 
ATOM     16  N   UNL A   1      41.911  28.422  36.628  1.00  0.00    -0.198 NA
ENDBRANCH  14  15
ENDBRANCH   9  14
ENDBRANCH   7   8
ENDBRANCH   6   7
ENDBRANCH   3   6
ENDBRANCH   1   2
BRANCH   1  17
ATOM     17  C   UNL A   1      33.427  35.716  32.053  1.00  0.00     0.042 C 
BRANCH  17  18
ATOM     18  C   UNL A   1      33.406  36.417  30.697  1.00  0.00     0.118 C 
BRANCH  18  19
ATOM     19  N   UNL A   1      32.706  35.658  29.669  1.00  0.00    -0.352 N 
ATOM     20  C   UNL A   1      33.114  34.586  28.916  1.00  0.00     0.251 C 
ATOM     21  H   UNL A   1      31.789  35.965  29.485  1.00  0.00     0.163 HD
ATOM     22  O   UNL A   1      32.409  34.197  27.984  1.00  0.00    -0.269 OA
BRANCH  20  23
ATOM     23  C   UNL A   1      34.400  33.910  29.187  1.00  0.00     0.039 A 
ATOM     24  C   UNL A   1      35.538  34.328  28.491  1.00  0.00     0.014 A 
ATOM     25  C   UNL A   1      34.493  32.858  30.101  1.00  0.00     0.014 A 
ATOM     26  C   UNL A   1      36.779  33.748  28.770  1.00  0.00     0.010 A 
ATOM     27  C   UNL A   1      35.741  32.337  30.437  1.00  0.00     0.010 A 
ATOM     28  C   UNL A   1      36.898  32.779  29.779  1.00  0.00    -0.014 A 
BRANCH  28  29
ATOM     29  C   UNL A   1      38.226  32.236  30.171  1.00  0.00     0.031 A 
ATOM     30  C   UNL A   1      38.697  30.912  29.637  1.00  0.00     0.074 A 
ATOM     31  C   UNL A   1      38.982  32.910  31.060  1.00  0.00     0.049 A 
ATOM     32  N   UNL A   1      39.796  30.254  29.911  1.00  0.00    -0.248 NA
ATOM     33  C   UNL A   1      37.807  30.222  28.690  1.00  0.00     0.031 C 
ATOM     34  C   UNL A   1      38.621  34.183  31.687  1.00  0.00     0.029 A 
ATOM     35  N   UNL A   1      40.210  32.613  31.600  1.00  0.00    -0.354 N 
ATOM     36  C   UNL A   1      39.723  29.074  29.182  1.00  0.00     0.074 A 
ATOM     37  C   UNL A   1      38.449  29.080  28.496  1.00  0.00     0.031 C 
ATOM     38  C   UNL A   1      39.613  34.569  32.504  1.00  0.00     0.029 A 
ATOM     39  C   UNL A   1      40.661  33.553  32.495  1.00  0.00     0.049 A 
ATOM     40  H   UNL A   1      40.719  31.804  31.367  1.00  0.00     0.167 HD
ATOM     41  C   UNL A   1      40.644  28.086  29.074  1.00  0.00     0.037 A 
ATOM     42  C   UNL A   1      41.786  33.590  33.235  1.00  0.00     0.037 A 
ATOM     43  C   UNL A   1      41.917  28.088  29.746  1.00  0.00     0.049 A 
ATOM     44  C   UNL A   1      42.781  32.469  33.116  1.00  0.00     0.074 A 
ATOM     45  C   UNL A   1      42.940  27.161  29.656  1.00  0.00     0.029 A 
ATOM     46  N   UNL A   1      42.338  29.063  30.638  1.00  0.00    -0.354 N 
ATOM     47  N   UNL A   1      42.732  31.395  32.365  1.00  0.00    -0.248 NA
ATOM     48  C   UNL A   1      43.992  32.564  33.944  1.00  0.00     0.031 C 
ATOM     49  C   UNL A   1      43.957  27.543  30.535  1.00  0.00     0.029 A 
ATOM     50  C   UNL A   1      43.595  28.743  31.127  1.00  0.00     0.049 A 
ATOM     51  H   UNL A   1      41.821  29.863  30.887  1.00  0.00     0.167 HD
ATOM     52  C   UNL A   1      43.916  30.708  32.602  1.00  0.00     0.074 A 
ATOM     53  C   UNL A   1      44.667  31.490  33.560  1.00  0.00     0.031 C 
ATOM     54  C   UNL A   1      44.341  29.536  32.071  1.00  0.00     0.037 A 
BRANCH  41  55
ATOM     55  C   UNL A   1      40.306  26.914  28.196  1.00  0.00     0.057 A 
ATOM     56  C   UNL A   1      39.434  25.901  28.618  1.00  0.00     0.134 A 
ATOM     57  C   UNL A   1      40.825  26.819  26.899  1.00  0.00     0.134 A 
ATOM     58  F   UNL A   1      38.907  25.927  29.851  1.00  0.00    -0.206 F 
ATOM     59  C   UNL A   1      39.114  24.822  27.792  1.00  0.00     0.040 A 
ATOM     60  C   UNL A   1      40.488  25.760  26.053  1.00  0.00     0.040 A 
ATOM     61  F   UNL A   1      41.657  27.759  26.426  1.00  0.00    -0.206 F 
ATOM     62  C   UNL A   1      39.636  24.753  26.502  1.00  0.00     0.006 A 
ENDBRANCH  41  55
BRANCH  42  63
ATOM     63  C   UNL A   1      42.043  34.737  34.143  1.00  0.00     0.057 A 
ATOM     64  C   UNL A   1      42.653  35.906  33.674  1.00  0.00     0.134 A 
ATOM     65  C   UNL A   1      41.696  34.690  35.499  1.00  0.00     0.134 A 
ATOM     66  F   UNL A   1      43.025  36.006  32.390  1.00  0.00    -0.206 F 
ATOM     67  C   UNL A   1      42.931  36.979  34.525  1.00  0.00     0.040 A 
ATOM     68  C   UNL A   1      41.942  35.766  36.354  1.00  0.00     0.040 A 
ATOM     69  F   UNL A   1      41.100  33.602  36.009  1.00  0.00    -0.206 F 
ATOM     70  C   UNL A   1      42.570  36.911  35.868  1.00  0.00     0.006 A 
ENDBRANCH  42  63
BRANCH  54  71
ATOM     71  C   UNL A   1      45.701  29.046  32.472  1.00  0.00     0.057 A 
ATOM     72  C   UNL A   1      45.891  28.198  33.571  1.00  0.00     0.134 A 
ATOM     73  C   UNL A   1      46.829  29.380  31.711  1.00  0.00     0.134 A 
ATOM     74  F   UNL A   1      44.855  27.851  34.349  1.00  0.00    -0.206 F 
ATOM     75  C   UNL A   1      47.157  27.715  33.908  1.00  0.00     0.040 A 
ATOM     76  C   UNL A   1      48.095  28.880  32.020  1.00  0.00     0.040 A 
ATOM     77  F   UNL A   1      46.716  30.181  30.640  1.00  0.00    -0.206 F 
ATOM     78  C   UNL A   1      48.262  28.048  33.125  1.00  0.00     0.006 A 
ENDBRANCH  54  71
ENDBRANCH  28  29
ENDBRANCH  20  23
ENDBRANCH  18  19
ENDBRANCH  17  18
ENDBRANCH   1  17
TORSDOF 14
ENDMDL
MODEL 3
REMARK VINA RESULT:      -8.6      2.626      4.350
REMARK SMILES N#CCc1ccc(OCC(=O)NCCCNC(=O)c2ccc(-c3c4nc(c(-c5c(F)cccc5F)c5ccc([nH]5)c(-c5c(F)cccc5F)c5nc(c(-c6c(F)cccc6F)c6ccc3[nH]6)C=C5)C=C4)cc2)cc1
REMARK SMILES IDX 13 1 12 2 10 3 11 4 9 6 8 7 7 8 4 9 5 10 74 11 6 12 73 13
REMARK SMILES IDX 3 14 2 15 1 16 14 17 15 18 16 19 17 20 18 22 19 23 20 24
REMARK SMILES IDX 72 25 21 26 71 27 22 28 23 29 24 30 65 31 25 32 70 33 64 34
REMARK SMILES IDX 66 35 26 36 69 37 63 38 62 39 27 41 53 42 36 43 52 44 37 45
REMARK SMILES IDX 40 46 51 47 67 48 38 49 39 50 50 52 68 53 41 54 28 55 29 56
REMARK SMILES IDX 34 57 30 58 31 59 33 60 35 61 32 62 54 63 55 64 60 65 56 66
REMARK SMILES IDX 57 67 59 68 61 69 58 70 42 71 43 72 48 73 44 74 45 75 47 76
REMARK SMILES IDX 49 77 46 78
REMARK H PARENT 12 5 16 21 66 40 40 51
REMARK Flexibility Score: inf
ROOT
ATOM      1  C   UNL A   1      34.059  34.912  29.209  1.00  0.00     0.117 C 
ENDROOT
BRANCH   1   2
ATOM      2  N   UNL A   1      32.913  35.568  29.810  1.00  0.00    -0.353 N 
ATOM      3  C   UNL A   1      32.690  35.853  31.125  1.00  0.00     0.257 C 
ATOM      4  O   UNL A   1      31.667  36.470  31.430  1.00  0.00    -0.271 OA
ATOM      5  H   UNL A   1      32.202  35.842  29.186  1.00  0.00     0.163 HD
BRANCH   3   6
ATOM      6  C   UNL A   1      33.725  35.443  32.182  1.00  0.00     0.329 C 
BRANCH   6   7
ATOM      7  O   UNL A   1      33.648  34.111  32.668  1.00  0.00    -0.484 OA
BRANCH   7   8
ATOM      8  C   UNL A   1      34.826  33.462  32.921  1.00  0.00     0.120 A 
ATOM      9  C   UNL A   1      37.099  31.849  33.325  1.00  0.00    -0.034 A 
ATOM     10  C   UNL A   1      36.250  31.615  32.237  1.00  0.00     0.008 A 
ATOM     11  C   UNL A   1      36.833  32.943  34.163  1.00  0.00     0.008 A 
ATOM     12  C   UNL A   1      35.125  32.420  32.039  1.00  0.00     0.047 A 
ATOM     13  C   UNL A   1      35.705  33.742  33.964  1.00  0.00     0.047 A 
BRANCH   9  14
ATOM     14  C   UNL A   1      38.252  30.922  33.631  1.00  0.00     0.155 C 
BRANCH  14  15
ATOM     15  C   UNL A   1      37.847  29.481  33.363  1.00  0.00     0.067 C 
ATOM     16  N   UNL A   1      37.512  28.286  33.139  1.00  0.00    -0.198 NA
ENDBRANCH  14  15
ENDBRANCH   9  14
ENDBRANCH   7   8
ENDBRANCH   6   7
ENDBRANCH   3   6
ENDBRANCH   1   2
BRANCH   1  17
ATOM     17  C   UNL A   1      33.672  33.695  28.377  1.00  0.00     0.042 C 
BRANCH  17  18
ATOM     18  C   UNL A   1      34.667  32.539  28.440  1.00  0.00     0.118 C 
BRANCH  18  19
ATOM     19  N   UNL A   1      34.069  31.250  28.118  1.00  0.00    -0.352 N 
ATOM     20  C   UNL A   1      34.643  30.015  27.948  1.00  0.00     0.251 C 
ATOM     21  H   UNL A   1      33.091  31.268  28.005  1.00  0.00     0.163 HD
ATOM     22  O   UNL A   1      33.962  29.084  27.520  1.00  0.00    -0.269 OA
BRANCH  20  23
ATOM     23  C   UNL A   1      36.075  29.795  28.243  1.00  0.00     0.039 A 
ATOM     24  C   UNL A   1      36.435  29.312  29.505  1.00  0.00     0.014 A 
ATOM     25  C   UNL A   1      37.066  30.079  27.300  1.00  0.00     0.014 A 
ATOM     26  C   UNL A   1      37.774  29.039  29.791  1.00  0.00     0.010 A 
ATOM     27  C   UNL A   1      38.390  29.730  27.557  1.00  0.00     0.010 A 
ATOM     28  C   UNL A   1      38.759  29.203  28.803  1.00  0.00    -0.014 A 
BRANCH  28  29
ATOM     29  C   UNL A   1      40.171  28.806  29.052  1.00  0.00     0.031 A 
ATOM     30  C   UNL A   1      41.130  29.765  29.700  1.00  0.00     0.074 A 
ATOM     31  C   UNL A   1      40.605  27.601  28.634  1.00  0.00     0.049 A 
ATOM     32  N   UNL A   1      42.409  29.617  29.944  1.00  0.00    -0.248 NA
ATOM     33  C   UNL A   1      40.590  31.072  30.108  1.00  0.00     0.031 C 
ATOM     34  C   UNL A   1      39.788  26.596  27.951  1.00  0.00     0.029 A 
ATOM     35  N   UNL A   1      41.847  27.019  28.712  1.00  0.00    -0.354 N 
ATOM     36  C   UNL A   1      42.825  30.811  30.520  1.00  0.00     0.074 A 
ATOM     37  C   UNL A   1      41.678  31.692  30.540  1.00  0.00     0.031 C 
ATOM     38  C   UNL A   1      40.541  25.514  27.697  1.00  0.00     0.029 A 
ATOM     39  C   UNL A   1      41.903  25.763  28.156  1.00  0.00     0.049 A 
ATOM     40  H   UNL A   1      42.623  27.458  29.128  1.00  0.00     0.167 HD
ATOM     41  C   UNL A   1      44.046  31.135  31.008  1.00  0.00     0.037 A 
ATOM     42  C   UNL A   1      42.937  24.911  28.020  1.00  0.00     0.037 A 
ATOM     43  C   UNL A   1      45.183  30.252  31.001  1.00  0.00     0.049 A 
ATOM     44  C   UNL A   1      44.289  25.304  28.550  1.00  0.00     0.074 A 
ATOM     45  C   UNL A   1      46.446  30.469  31.523  1.00  0.00     0.029 A 
ATOM     46  N   UNL A   1      45.196  28.986  30.435  1.00  0.00    -0.354 N 
ATOM     47  N   UNL A   1      44.649  26.407  29.159  1.00  0.00    -0.248 NA
ATOM     48  C   UNL A   1      45.378  24.332  28.377  1.00  0.00     0.031 C 
ATOM     49  C   UNL A   1      47.240  29.358  31.225  1.00  0.00     0.029 A 
ATOM     50  C   UNL A   1      46.455  28.421  30.571  1.00  0.00     0.049 A 
ATOM     51  H   UNL A   1      44.426  28.552  30.001  1.00  0.00     0.167 HD
ATOM     52  C   UNL A   1      45.993  26.248  29.473  1.00  0.00     0.074 A 
ATOM     53  C   UNL A   1      46.382  24.939  28.995  1.00  0.00     0.031 C 
ATOM     54  C   UNL A   1      46.828  27.111  30.104  1.00  0.00     0.037 A 
BRANCH  41  55
ATOM     55  C   UNL A   1      44.218  32.508  31.594  1.00  0.00     0.057 A 
ATOM     56  C   UNL A   1      44.609  33.603  30.810  1.00  0.00     0.134 A 
ATOM     57  C   UNL A   1      43.948  32.748  32.947  1.00  0.00     0.134 A 
ATOM     58  F   UNL A   1      44.890  33.442  29.509  1.00  0.00    -0.206 F 
ATOM     59  C   UNL A   1      44.754  34.879  31.359  1.00  0.00     0.040 A 
ATOM     60  C   UNL A   1      44.060  34.026  33.499  1.00  0.00     0.040 A 
ATOM     61  F   UNL A   1      43.559  31.748  33.753  1.00  0.00    -0.206 F 
ATOM     62  C   UNL A   1      44.472  35.094  32.706  1.00  0.00     0.006 A 
ENDBRANCH  41  55
BRANCH  42  63
ATOM     63  C   UNL A   1      42.734  23.591  27.370  1.00  0.00     0.057 A 
ATOM     64  C   UNL A   1      42.889  23.434  25.988  1.00  0.00     0.134 A 
ATOM     65  C   UNL A   1      42.371  22.458  28.110  1.00  0.00     0.134 A 
ATOM     66  F   UNL A   1      43.218  24.485  25.222  1.00  0.00    -0.206 F 
ATOM     67  C   UNL A   1      42.668  22.207  25.360  1.00  0.00     0.040 A 
ATOM     68  C   UNL A   1      42.174  21.218  27.499  1.00  0.00     0.040 A 
ATOM     69  F   UNL A   1      42.214  22.537  29.439  1.00  0.00    -0.206 F 
ATOM     70  C   UNL A   1      42.315  21.092  26.118  1.00  0.00     0.006 A 
ENDBRANCH  42  63
BRANCH  54  71
ATOM     71  C   UNL A   1      48.234  26.653  30.360  1.00  0.00     0.057 A 
ATOM     72  C   UNL A   1      49.295  27.006  29.517  1.00  0.00     0.134 A 
ATOM     73  C   UNL A   1      48.537  25.897  31.500  1.00  0.00     0.134 A 
ATOM     74  F   UNL A   1      49.071  27.716  28.402  1.00  0.00    -0.206 F 
ATOM     75  C   UNL A   1      50.605  26.608  29.790  1.00  0.00     0.040 A 
ATOM     76  C   UNL A   1      49.847  25.519  31.800  1.00  0.00     0.040 A 
ATOM     77  F   UNL A   1      47.568  25.533  32.354  1.00  0.00    -0.206 F 
ATOM     78  C   UNL A   1      50.885  25.871  30.941  1.00  0.00     0.006 A 
ENDBRANCH  54  71
ENDBRANCH  28  29
ENDBRANCH  20  23
ENDBRANCH  18  19
ENDBRANCH  17  18
ENDBRANCH   1  17
TORSDOF 14
ENDMDL
