MODEL 1
REMARK VINA RESULT:     -10.3      0.000      0.000
REMARK SMILES O=C(/C=C/c1c(Cl)cccc1Cl)NCC(=O)NCCCNC(=O)c1ccc(-c2c3nc(c(-c4c(F)cccc4F)c4ccc([nH]4)c(-c4c(F)cccc4F)c4nc(c(-c5c(F)cccc5F)c5ccc2[nH]5)C=C4)C=C3)cc1
REMARK SMILES IDX 18 1 17 2 15 3 16 4 14 6 13 7 1 8 2 9 3 11 4 12 5 13 6 14
REMARK SMILES IDX 11 15 7 16 8 17 10 18 12 19 9 20 19 21 20 22 21 23 22 24
REMARK SMILES IDX 23 26 24 27 25 28 77 29 26 30 76 31 27 32 28 33 29 34 70 35
REMARK SMILES IDX 30 36 75 37 69 38 71 39 31 40 74 41 68 42 67 43 32 45 58 46
REMARK SMILES IDX 41 47 57 48 42 49 45 50 56 51 72 52 43 53 44 54 55 56 73 57
REMARK SMILES IDX 46 58 33 59 34 60 39 61 35 62 36 63 38 64 40 65 37 66 59 67
REMARK SMILES IDX 60 68 65 69 61 70 62 71 64 72 66 73 63 74 47 75 48 76 53 77
REMARK SMILES IDX 49 78 50 79 52 80 54 81 51 82
REMARK H PARENT 17 5 13 10 21 25 71 44 45 55
REMARK Flexibility Score: inf
ROOT
ATOM      1  C   UNL A   1      41.845  19.441  25.984  1.00  0.00     0.117 C 
ENDROOT
BRANCH   1   2
ATOM      2  N   UNL A   1      42.998  18.579  25.796  1.00  0.00    -0.355 N 
ATOM      3  C   UNL A   1      44.192  18.870  25.201  1.00  0.00     0.239 C 
ATOM      4  O   UNL A   1      45.044  17.982  25.130  1.00  0.00    -0.273 OA
ATOM      5  H   UNL A   1      42.907  17.662  26.142  1.00  0.00     0.163 HD
BRANCH   3   6
ATOM      6  C   UNL A   1      44.456  20.274  24.653  1.00  0.00     0.216 C 
BRANCH   6   7
ATOM      7  N   UNL A   1      44.582  21.244  25.727  1.00  0.00    -0.343 N 
ATOM      8  O   UNL A   1      43.233  22.822  24.757  1.00  0.00    -0.270 OA
ATOM      9  C   UNL A   1      43.942  22.451  25.687  1.00  0.00     0.244 C 
ATOM     10  H   UNL A   1      45.144  21.027  26.505  1.00  0.00     0.164 HD
BRANCH   9  11
ATOM     11  C   UNL A   1      44.217  23.385  26.807  1.00  0.00     0.072 C 
ATOM     12  C   UNL A   1      45.205  23.256  27.704  1.00  0.00     0.017 C 
BRANCH  12  13
ATOM     13  C   UNL A   1      45.410  24.211  28.812  1.00  0.00     0.012 A 
ATOM     14  C   UNL A   1      46.562  25.017  28.911  1.00  0.00     0.049 A 
ATOM     15  C   UNL A   1      44.409  24.378  29.791  1.00  0.00     0.049 A 
ATOM     16  Cl  UNL A   1      47.846  24.954  27.748  1.00  0.00    -0.084 Cl
ATOM     17  C   UNL A   1      46.707  25.942  29.953  1.00  0.00     0.021 A 
ATOM     18  C   UNL A   1      44.555  25.310  30.825  1.00  0.00     0.021 A 
ATOM     19  Cl  UNL A   1      42.952  23.437  29.775  1.00  0.00    -0.084 Cl
ATOM     20  C   UNL A   1      45.703  26.093  30.906  1.00  0.00     0.003 A 
ENDBRANCH  12  13
ENDBRANCH   9  11
ENDBRANCH   6   7
ENDBRANCH   3   6
ENDBRANCH   1   2
BRANCH   1  21
ATOM     21  C   UNL A   1      41.693  19.880  27.438  1.00  0.00     0.042 C 
BRANCH  21  22
ATOM     22  C   UNL A   1      41.068  21.263  27.604  1.00  0.00     0.118 C 
BRANCH  22  23
ATOM     23  N   UNL A   1      39.930  21.475  26.718  1.00  0.00    -0.352 N 
ATOM     24  C   UNL A   1      39.251  22.625  26.412  1.00  0.00     0.251 C 
ATOM     25  H   UNL A   1      39.597  20.664  26.269  1.00  0.00     0.163 HD
ATOM     26  O   UNL A   1      38.202  22.560  25.769  1.00  0.00    -0.269 OA
BRANCH  24  27
ATOM     27  C   UNL A   1      39.750  23.942  26.859  1.00  0.00     0.039 A 
ATOM     28  C   UNL A   1      40.202  24.853  25.899  1.00  0.00     0.014 A 
ATOM     29  C   UNL A   1      39.808  24.271  28.216  1.00  0.00     0.014 A 
ATOM     30  C   UNL A   1      40.648  26.116  26.295  1.00  0.00     0.010 A 
ATOM     31  C   UNL A   1      40.187  25.553  28.603  1.00  0.00     0.010 A 
ATOM     32  C   UNL A   1      40.610  26.489  27.647  1.00  0.00    -0.014 A 
BRANCH  32  33
ATOM     33  C   UNL A   1      41.009  27.851  28.086  1.00  0.00     0.031 A 
ATOM     34  C   UNL A   1      42.461  28.239  28.118  1.00  0.00     0.074 A 
ATOM     35  C   UNL A   1      40.070  28.713  28.523  1.00  0.00     0.049 A 
ATOM     36  N   UNL A   1      43.016  29.333  28.575  1.00  0.00    -0.248 NA
ATOM     37  C   UNL A   1      43.418  27.255  27.587  1.00  0.00     0.031 C 
ATOM     38  C   UNL A   1      38.630  28.447  28.570  1.00  0.00     0.029 A 
ATOM     39  N   UNL A   1      40.188  29.984  29.028  1.00  0.00    -0.354 N 
ATOM     40  C   UNL A   1      44.384  29.166  28.395  1.00  0.00     0.074 A 
ATOM     41  C   UNL A   1      44.579  27.844  27.838  1.00  0.00     0.031 C 
ATOM     42  C   UNL A   1      38.000  29.527  29.062  1.00  0.00     0.029 A 
ATOM     43  C   UNL A   1      38.990  30.541  29.406  1.00  0.00     0.049 A 
ATOM     44  H   UNL A   1      41.050  30.452  29.113  1.00  0.00     0.167 HD
ATOM     45  C   UNL A   1      45.385  30.042  28.647  1.00  0.00     0.037 A 
ATOM     46  C   UNL A   1      38.723  31.730  29.980  1.00  0.00     0.037 A 
ATOM     47  C   UNL A   1      45.188  31.362  29.188  1.00  0.00     0.049 A 
ATOM     48  C   UNL A   1      39.856  32.672  30.281  1.00  0.00     0.074 A 
ATOM     49  C   UNL A   1      46.135  32.335  29.455  1.00  0.00     0.029 A 
ATOM     50  N   UNL A   1      43.957  31.894  29.541  1.00  0.00    -0.354 N 
ATOM     51  N   UNL A   1      41.140  32.517  30.067  1.00  0.00    -0.248 NA
ATOM     52  C   UNL A   1      39.503  33.956  30.903  1.00  0.00     0.031 C 
ATOM     53  C   UNL A   1      45.482  33.443  30.005  1.00  0.00     0.029 A 
ATOM     54  C   UNL A   1      44.123  33.177  30.036  1.00  0.00     0.049 A 
ATOM     55  H   UNL A   1      43.094  31.430  29.453  1.00  0.00     0.167 HD
ATOM     56  C   UNL A   1      41.742  33.694  30.492  1.00  0.00     0.074 A 
ATOM     57  C   UNL A   1      40.682  34.558  30.968  1.00  0.00     0.031 C 
ATOM     58  C   UNL A   1      43.055  34.031  30.489  1.00  0.00     0.037 A 
BRANCH  45  59
ATOM     59  C   UNL A   1      46.785  29.604  28.331  1.00  0.00     0.057 A 
ATOM     60  C   UNL A   1      47.659  29.156  29.330  1.00  0.00     0.134 A 
ATOM     61  C   UNL A   1      47.254  29.593  27.011  1.00  0.00     0.134 A 
ATOM     62  F   UNL A   1      47.275  29.152  30.616  1.00  0.00    -0.206 F 
ATOM     63  C   UNL A   1      48.956  28.737  29.032  1.00  0.00     0.040 A 
ATOM     64  C   UNL A   1      48.541  29.149  26.697  1.00  0.00     0.040 A 
ATOM     65  F   UNL A   1      46.467  30.001  26.004  1.00  0.00    -0.206 F 
ATOM     66  C   UNL A   1      49.397  28.726  27.711  1.00  0.00     0.006 A 
ENDBRANCH  45  59
BRANCH  46  67
ATOM     67  C   UNL A   1      37.323  32.109  30.301  1.00  0.00     0.057 A 
ATOM     68  C   UNL A   1      36.735  31.735  31.515  1.00  0.00     0.134 A 
ATOM     69  C   UNL A   1      36.531  32.826  29.396  1.00  0.00     0.134 A 
ATOM     70  F   UNL A   1      37.437  31.030  32.415  1.00  0.00    -0.206 F 
ATOM     71  C   UNL A   1      35.403  32.033  31.807  1.00  0.00     0.040 A 
ATOM     72  C   UNL A   1      35.206  33.156  29.686  1.00  0.00     0.040 A 
ATOM     73  F   UNL A   1      37.035  33.223  28.217  1.00  0.00    -0.206 F 
ATOM     74  C   UNL A   1      34.635  32.748  30.890  1.00  0.00     0.006 A 
ENDBRANCH  46  67
BRANCH  58  75
ATOM     75  C   UNL A   1      43.414  35.407  30.966  1.00  0.00     0.057 A 
ATOM     76  C   UNL A   1      43.667  35.680  32.316  1.00  0.00     0.134 A 
ATOM     77  C   UNL A   1      43.553  36.462  30.055  1.00  0.00     0.134 A 
ATOM     78  F   UNL A   1      43.538  34.717  33.241  1.00  0.00    -0.206 F 
ATOM     79  C   UNL A   1      44.026  36.959  32.745  1.00  0.00     0.040 A 
ATOM     80  C   UNL A   1      43.935  37.738  30.468  1.00  0.00     0.040 A 
ATOM     81  F   UNL A   1      43.332  36.265  28.746  1.00  0.00    -0.206 F 
ATOM     82  C   UNL A   1      44.169  37.990  31.818  1.00  0.00     0.006 A 
ENDBRANCH  58  75
ENDBRANCH  32  33
ENDBRANCH  24  27
ENDBRANCH  22  23
ENDBRANCH  21  22
ENDBRANCH   1  21
TORSDOF 13
ENDMDL
MODEL 2
REMARK VINA RESULT:     -10.1      4.225     10.685
REMARK SMILES O=C(/C=C/c1c(Cl)cccc1Cl)NCC(=O)NCCCNC(=O)c1ccc(-c2c3nc(c(-c4c(F)cccc4F)c4ccc([nH]4)c(-c4c(F)cccc4F)c4nc(c(-c5c(F)cccc5F)c5ccc2[nH]5)C=C4)C=C3)cc1
REMARK SMILES IDX 18 1 17 2 15 3 16 4 14 6 13 7 1 8 2 9 3 11 4 12 5 13 6 14
REMARK SMILES IDX 11 15 7 16 8 17 10 18 12 19 9 20 19 21 20 22 21 23 22 24
REMARK SMILES IDX 23 26 24 27 25 28 77 29 26 30 76 31 27 32 28 33 29 34 70 35
REMARK SMILES IDX 30 36 75 37 69 38 71 39 31 40 74 41 68 42 67 43 32 45 58 46
REMARK SMILES IDX 41 47 57 48 42 49 45 50 56 51 72 52 43 53 44 54 55 56 73 57
REMARK SMILES IDX 46 58 33 59 34 60 39 61 35 62 36 63 38 64 40 65 37 66 59 67
REMARK SMILES IDX 60 68 65 69 61 70 62 71 64 72 66 73 63 74 47 75 48 76 53 77
REMARK SMILES IDX 49 78 50 79 52 80 54 81 51 82
REMARK H PARENT 17 5 13 10 21 25 71 44 45 55
REMARK Flexibility Score: inf
ROOT
ATOM      1  C   UNL A   1      33.239  34.670  28.626  1.00  0.00     0.117 C 
ENDROOT
BRANCH   1   2
ATOM      2  N   UNL A   1      33.150  36.015  29.165  1.00  0.00    -0.355 N 
ATOM      3  C   UNL A   1      33.094  36.408  30.472  1.00  0.00     0.239 C 
ATOM      4  O   UNL A   1      33.006  37.612  30.719  1.00  0.00    -0.273 OA
ATOM      5  H   UNL A   1      33.126  36.741  28.500  1.00  0.00     0.163 HD
BRANCH   3   6
ATOM      6  C   UNL A   1      33.155  35.366  31.590  1.00  0.00     0.216 C 
BRANCH   6   7
ATOM      7  N   UNL A   1      34.492  34.812  31.724  1.00  0.00    -0.343 N 
ATOM      8  O   UNL A   1      33.800  32.708  32.310  1.00  0.00    -0.270 OA
ATOM      9  C   UNL A   1      34.700  33.507  32.070  1.00  0.00     0.244 C 
ATOM     10  H   UNL A   1      35.269  35.393  31.561  1.00  0.00     0.164 HD
BRANCH   9  11
ATOM     11  C   UNL A   1      36.111  33.086  32.252  1.00  0.00     0.072 C 
ATOM     12  C   UNL A   1      36.611  32.489  33.344  1.00  0.00     0.017 C 
BRANCH  12  13
ATOM     13  C   UNL A   1      38.035  32.116  33.470  1.00  0.00     0.012 A 
ATOM     14  C   UNL A   1      39.049  33.067  33.701  1.00  0.00     0.049 A 
ATOM     15  C   UNL A   1      38.413  30.759  33.413  1.00  0.00     0.049 A 
ATOM     16  Cl  UNL A   1      38.718  34.763  33.847  1.00  0.00    -0.084 Cl
ATOM     17  C   UNL A   1      40.384  32.675  33.856  1.00  0.00     0.021 A 
ATOM     18  C   UNL A   1      39.749  30.371  33.578  1.00  0.00     0.021 A 
ATOM     19  Cl  UNL A   1      37.255  29.499  33.128  1.00  0.00    -0.084 Cl
ATOM     20  C   UNL A   1      40.734  31.329  33.801  1.00  0.00     0.003 A 
ENDBRANCH  12  13
ENDBRANCH   9  11
ENDBRANCH   6   7
ENDBRANCH   3   6
ENDBRANCH   1   2
BRANCH   1  21
ATOM     21  C   UNL A   1      34.639  34.357  28.105  1.00  0.00     0.042 C 
BRANCH  21  22
ATOM     22  C   UNL A   1      35.198  33.026  28.601  1.00  0.00     0.118 C 
BRANCH  22  23
ATOM     23  N   UNL A   1      34.343  31.895  28.262  1.00  0.00    -0.352 N 
ATOM     24  C   UNL A   1      34.666  30.585  28.018  1.00  0.00     0.251 C 
ATOM     25  H   UNL A   1      33.383  32.105  28.198  1.00  0.00     0.163 HD
ATOM     26  O   UNL A   1      33.808  29.819  27.577  1.00  0.00    -0.269 OA
BRANCH  24  27
ATOM     27  C   UNL A   1      36.034  30.084  28.262  1.00  0.00     0.039 A 
ATOM     28  C   UNL A   1      36.964  30.131  27.218  1.00  0.00     0.014 A 
ATOM     29  C   UNL A   1      36.396  29.540  29.497  1.00  0.00     0.014 A 
ATOM     30  C   UNL A   1      38.273  29.693  27.434  1.00  0.00     0.010 A 
ATOM     31  C   UNL A   1      37.718  29.169  29.731  1.00  0.00     0.010 A 
ATOM     32  C   UNL A   1      38.670  29.242  28.703  1.00  0.00    -0.014 A 
BRANCH  32  33
ATOM     33  C   UNL A   1      40.073  28.842  28.978  1.00  0.00     0.031 A 
ATOM     34  C   UNL A   1      41.030  29.822  29.598  1.00  0.00     0.074 A 
ATOM     35  C   UNL A   1      40.504  27.621  28.606  1.00  0.00     0.049 A 
ATOM     36  N   UNL A   1      42.316  29.702  29.812  1.00  0.00    -0.248 NA
ATOM     37  C   UNL A   1      40.470  31.119  30.012  1.00  0.00     0.031 C 
ATOM     38  C   UNL A   1      39.683  26.589  27.970  1.00  0.00     0.029 A 
ATOM     39  N   UNL A   1      41.747  27.046  28.695  1.00  0.00    -0.354 N 
ATOM     40  C   UNL A   1      42.719  30.907  30.375  1.00  0.00     0.074 A 
ATOM     41  C   UNL A   1      41.554  31.764  30.418  1.00  0.00     0.031 C 
ATOM     42  C   UNL A   1      40.441  25.504  27.740  1.00  0.00     0.029 A 
ATOM     43  C   UNL A   1      41.808  25.777  28.170  1.00  0.00     0.049 A 
ATOM     44  H   UNL A   1      42.523  27.499  29.097  1.00  0.00     0.167 HD
ATOM     45  C   UNL A   1      43.943  31.260  30.834  1.00  0.00     0.037 A 
ATOM     46  C   UNL A   1      42.851  24.937  28.035  1.00  0.00     0.037 A 
ATOM     47  C   UNL A   1      45.098  30.401  30.802  1.00  0.00     0.049 A 
ATOM     48  C   UNL A   1      44.208  25.366  28.524  1.00  0.00     0.074 A 
ATOM     49  C   UNL A   1      46.377  30.656  31.268  1.00  0.00     0.029 A 
ATOM     50  N   UNL A   1      45.113  29.117  30.277  1.00  0.00    -0.354 N 
ATOM     51  N   UNL A   1      44.565  26.492  29.091  1.00  0.00    -0.248 NA
ATOM     52  C   UNL A   1      45.307  24.405  28.354  1.00  0.00     0.031 C 
ATOM     53  C   UNL A   1      47.174  29.541  30.991  1.00  0.00     0.029 A 
ATOM     54  C   UNL A   1      46.381  28.574  30.395  1.00  0.00     0.049 A 
ATOM     55  H   UNL A   1      44.337  28.661  29.879  1.00  0.00     0.167 HD
ATOM     56  C   UNL A   1      45.917  26.361  29.380  1.00  0.00     0.074 A 
ATOM     57  C   UNL A   1      46.315  25.043  28.933  1.00  0.00     0.031 C 
ATOM     58  C   UNL A   1      46.756  27.252  29.962  1.00  0.00     0.037 A 
BRANCH  45  59
ATOM     59  C   UNL A   1      44.093  32.632  31.422  1.00  0.00     0.057 A 
ATOM     60  C   UNL A   1      44.264  33.764  30.614  1.00  0.00     0.134 A 
ATOM     61  C   UNL A   1      44.027  32.833  32.807  1.00  0.00     0.134 A 
ATOM     62  F   UNL A   1      44.347  33.639  29.280  1.00  0.00    -0.206 F 
ATOM     63  C   UNL A   1      44.391  35.041  31.162  1.00  0.00     0.040 A 
ATOM     64  C   UNL A   1      44.124  34.109  33.365  1.00  0.00     0.040 A 
ATOM     65  F   UNL A   1      43.855  31.794  33.639  1.00  0.00    -0.206 F 
ATOM     66  C   UNL A   1      44.313  35.217  32.541  1.00  0.00     0.006 A 
ENDBRANCH  45  59
BRANCH  46  67
ATOM     67  C   UNL A   1      42.660  23.598  27.421  1.00  0.00     0.057 A 
ATOM     68  C   UNL A   1      42.798  23.412  26.041  1.00  0.00     0.134 A 
ATOM     69  C   UNL A   1      42.309  22.481  28.190  1.00  0.00     0.134 A 
ATOM     70  F   UNL A   1      43.115  24.447  25.249  1.00  0.00    -0.206 F 
ATOM     71  C   UNL A   1      42.566  22.172  25.442  1.00  0.00     0.040 A 
ATOM     72  C   UNL A   1      42.100  21.230  27.608  1.00  0.00     0.040 A 
ATOM     73  F   UNL A   1      42.169  22.589  29.520  1.00  0.00    -0.206 F 
ATOM     74  C   UNL A   1      42.217  21.076  26.228  1.00  0.00     0.006 A 
ENDBRANCH  46  67
BRANCH  58  75
ATOM     75  C   UNL A   1      48.171  26.814  30.197  1.00  0.00     0.057 A 
ATOM     76  C   UNL A   1      49.198  27.109  29.291  1.00  0.00     0.134 A 
ATOM     77  C   UNL A   1      48.518  26.128  31.369  1.00  0.00     0.134 A 
ATOM     78  F   UNL A   1      48.930  27.752  28.145  1.00  0.00    -0.206 F 
ATOM     79  C   UNL A   1      50.516  26.719  29.534  1.00  0.00     0.040 A 
ATOM     80  C   UNL A   1      49.835  25.755  31.633  1.00  0.00     0.040 A 
ATOM     81  F   UNL A   1      47.582  25.822  32.280  1.00  0.00    -0.206 F 
ATOM     82  C   UNL A   1      50.838  26.047  30.712  1.00  0.00     0.006 A 
ENDBRANCH  58  75
ENDBRANCH  32  33
ENDBRANCH  24  27
ENDBRANCH  22  23
ENDBRANCH  21  22
ENDBRANCH   1  21
TORSDOF 13
ENDMDL
MODEL 3
REMARK VINA RESULT:     -10.1      4.270     10.639
REMARK SMILES O=C(/C=C/c1c(Cl)cccc1Cl)NCC(=O)NCCCNC(=O)c1ccc(-c2c3nc(c(-c4c(F)cccc4F)c4ccc([nH]4)c(-c4c(F)cccc4F)c4nc(c(-c5c(F)cccc5F)c5ccc2[nH]5)C=C4)C=C3)cc1
REMARK SMILES IDX 18 1 17 2 15 3 16 4 14 6 13 7 1 8 2 9 3 11 4 12 5 13 6 14
REMARK SMILES IDX 11 15 7 16 8 17 10 18 12 19 9 20 19 21 20 22 21 23 22 24
REMARK SMILES IDX 23 26 24 27 25 28 77 29 26 30 76 31 27 32 28 33 29 34 70 35
REMARK SMILES IDX 30 36 75 37 69 38 71 39 31 40 74 41 68 42 67 43 32 45 58 46
REMARK SMILES IDX 41 47 57 48 42 49 45 50 56 51 72 52 43 53 44 54 55 56 73 57
REMARK SMILES IDX 46 58 33 59 34 60 39 61 35 62 36 63 38 64 40 65 37 66 59 67
REMARK SMILES IDX 60 68 65 69 61 70 62 71 64 72 66 73 63 74 47 75 48 76 53 77
REMARK SMILES IDX 49 78 50 79 52 80 54 81 51 82
REMARK H PARENT 17 5 13 10 21 25 71 44 45 55
REMARK Flexibility Score: inf
ROOT
ATOM      1  C   UNL A   1      33.619  34.593  29.349  1.00  0.00     0.117 C 
ENDROOT
BRANCH   1   2
ATOM      2  N   UNL A   1      33.495  35.963  29.813  1.00  0.00    -0.355 N 
ATOM      3  C   UNL A   1      33.227  36.416  31.074  1.00  0.00     0.239 C 
ATOM      4  O   UNL A   1      33.150  37.632  31.256  1.00  0.00    -0.273 OA
ATOM      5  H   UNL A   1      33.621  36.659  29.129  1.00  0.00     0.163 HD
BRANCH   3   6
ATOM      6  C   UNL A   1      33.043  35.422  32.223  1.00  0.00     0.216 C 
BRANCH   6   7
ATOM      7  N   UNL A   1      34.318  34.880  32.661  1.00  0.00    -0.343 N 
ATOM      8  O   UNL A   1      33.692  32.682  32.492  1.00  0.00    -0.270 OA
ATOM      9  C   UNL A   1      34.536  33.534  32.752  1.00  0.00     0.244 C 
ATOM     10  H   UNL A   1      35.045  35.499  32.900  1.00  0.00     0.164 HD
BRANCH   9  11
ATOM     11  C   UNL A   1      35.853  33.111  33.289  1.00  0.00     0.072 C 
ATOM     12  C   UNL A   1      36.828  32.520  32.583  1.00  0.00     0.017 C 
BRANCH  12  13
ATOM     13  C   UNL A   1      38.111  32.101  33.185  1.00  0.00     0.012 A 
ATOM     14  C   UNL A   1      38.422  30.750  33.435  1.00  0.00     0.049 A 
ATOM     15  C   UNL A   1      39.096  33.065  33.481  1.00  0.00     0.049 A 
ATOM     16  Cl  UNL A   1      37.326  29.458  33.068  1.00  0.00    -0.084 Cl
ATOM     17  C   UNL A   1      39.664  30.383  33.970  1.00  0.00     0.021 A 
ATOM     18  C   UNL A   1      40.339  32.692  34.008  1.00  0.00     0.021 A 
ATOM     19  Cl  UNL A   1      38.824  34.758  33.222  1.00  0.00    -0.084 Cl
ATOM     20  C   UNL A   1      40.623  31.352  34.251  1.00  0.00     0.003 A 
ENDBRANCH  12  13
ENDBRANCH   9  11
ENDBRANCH   6   7
ENDBRANCH   3   6
ENDBRANCH   1   2
BRANCH   1  21
ATOM     21  C   UNL A   1      35.078  34.160  29.233  1.00  0.00     0.042 C 
BRANCH  21  22
ATOM     22  C   UNL A   1      35.358  33.247  28.042  1.00  0.00     0.118 C 
BRANCH  22  23
ATOM     23  N   UNL A   1      34.423  32.132  27.956  1.00  0.00    -0.352 N 
ATOM     24  C   UNL A   1      34.655  30.781  27.955  1.00  0.00     0.251 C 
ATOM     25  H   UNL A   1      33.475  32.390  27.888  1.00  0.00     0.163 HD
ATOM     26  O   UNL A   1      33.733  30.005  27.699  1.00  0.00    -0.269 OA
BRANCH  24  27
ATOM     27  C   UNL A   1      36.001  30.244  28.240  1.00  0.00     0.039 A 
ATOM     28  C   UNL A   1      36.948  30.219  27.212  1.00  0.00     0.014 A 
ATOM     29  C   UNL A   1      36.325  29.736  29.501  1.00  0.00     0.014 A 
ATOM     30  C   UNL A   1      38.238  29.746  27.465  1.00  0.00     0.010 A 
ATOM     31  C   UNL A   1      37.630  29.330  29.771  1.00  0.00     0.010 A 
ATOM     32  C   UNL A   1      38.600  29.332  28.757  1.00  0.00    -0.014 A 
BRANCH  32  33
ATOM     33  C   UNL A   1      39.984  28.895  29.071  1.00  0.00     0.031 A 
ATOM     34  C   UNL A   1      40.937  29.838  29.752  1.00  0.00     0.074 A 
ATOM     35  C   UNL A   1      40.404  27.676  28.680  1.00  0.00     0.049 A 
ATOM     36  N   UNL A   1      42.211  29.686  30.008  1.00  0.00    -0.248 NA
ATOM     37  C   UNL A   1      40.387  31.134  30.183  1.00  0.00     0.031 C 
ATOM     38  C   UNL A   1      39.586  26.679  27.986  1.00  0.00     0.029 A 
ATOM     39  N   UNL A   1      41.632  27.074  28.797  1.00  0.00    -0.354 N 
ATOM     40  C   UNL A   1      42.617  30.866  30.619  1.00  0.00     0.074 A 
ATOM     41  C   UNL A   1      41.468  31.746  30.646  1.00  0.00     0.031 C 
ATOM     42  C   UNL A   1      40.331  25.586  27.751  1.00  0.00     0.029 A 
ATOM     43  C   UNL A   1      41.687  25.819  28.238  1.00  0.00     0.049 A 
ATOM     44  H   UNL A   1      42.402  27.500  29.239  1.00  0.00     0.167 HD
ATOM     45  C   UNL A   1      43.830  31.181  31.132  1.00  0.00     0.037 A 
ATOM     46  C   UNL A   1      42.718  24.962  28.116  1.00  0.00     0.037 A 
ATOM     47  C   UNL A   1      44.969  30.299  31.117  1.00  0.00     0.049 A 
ATOM     48  C   UNL A   1      44.064  25.349  28.665  1.00  0.00     0.074 A 
ATOM     49  C   UNL A   1      46.234  30.515  31.635  1.00  0.00     0.029 A 
ATOM     50  N   UNL A   1      44.978  29.031  30.556  1.00  0.00    -0.354 N 
ATOM     51  N   UNL A   1      44.422  26.451  29.277  1.00  0.00    -0.248 NA
ATOM     52  C   UNL A   1      45.150  24.371  28.508  1.00  0.00     0.031 C 
ATOM     53  C   UNL A   1      47.020  29.393  31.355  1.00  0.00     0.029 A 
ATOM     54  C   UNL A   1      46.230  28.459  30.703  1.00  0.00     0.049 A 
ATOM     55  H   UNL A   1      44.208  28.602  30.118  1.00  0.00     0.167 HD
ATOM     56  C   UNL A   1      45.760  26.285  29.610  1.00  0.00     0.074 A 
ATOM     57  C   UNL A   1      46.148  24.972  29.140  1.00  0.00     0.031 C 
ATOM     58  C   UNL A   1      46.594  27.142  30.247  1.00  0.00     0.037 A 
BRANCH  45  59
ATOM     59  C   UNL A   1      43.985  32.533  31.764  1.00  0.00     0.057 A 
ATOM     60  C   UNL A   1      43.957  32.702  33.155  1.00  0.00     0.134 A 
ATOM     61  C   UNL A   1      44.202  33.674  30.980  1.00  0.00     0.134 A 
ATOM     62  F   UNL A   1      43.742  31.652  33.962  1.00  0.00    -0.206 F 
ATOM     63  C   UNL A   1      44.114  33.959  33.741  1.00  0.00     0.040 A 
ATOM     64  C   UNL A   1      44.388  34.931  31.557  1.00  0.00     0.040 A 
ATOM     65  F   UNL A   1      44.249  33.582  29.642  1.00  0.00    -0.206 F 
ATOM     66  C   UNL A   1      44.337  35.077  32.941  1.00  0.00     0.006 A 
ENDBRANCH  45  59
BRANCH  46  67
ATOM     67  C   UNL A   1      42.523  23.644  27.458  1.00  0.00     0.057 A 
ATOM     68  C   UNL A   1      42.221  22.502  28.209  1.00  0.00     0.134 A 
ATOM     69  C   UNL A   1      42.660  23.488  26.074  1.00  0.00     0.134 A 
ATOM     70  F   UNL A   1      42.095  22.585  29.542  1.00  0.00    -0.206 F 
ATOM     71  C   UNL A   1      42.092  21.247  27.612  1.00  0.00     0.040 A 
ATOM     72  C   UNL A   1      42.506  22.243  25.460  1.00  0.00     0.040 A 
ATOM     73  F   UNL A   1      42.940  24.544  25.295  1.00  0.00    -0.206 F 
ATOM     74  C   UNL A   1      42.233  21.116  26.233  1.00  0.00     0.006 A 
ENDBRANCH  46  67
BRANCH  58  75
ATOM     75  C   UNL A   1      47.992  26.669  30.519  1.00  0.00     0.057 A 
ATOM     76  C   UNL A   1      48.316  25.944  31.672  1.00  0.00     0.134 A 
ATOM     77  C   UNL A   1      49.015  26.904  29.592  1.00  0.00     0.134 A 
ATOM     78  F   UNL A   1      47.385  25.696  32.606  1.00  0.00    -0.206 F 
ATOM     79  C   UNL A   1      49.615  25.486  31.902  1.00  0.00     0.040 A 
ATOM     80  C   UNL A   1      50.310  26.431  29.799  1.00  0.00     0.040 A 
ATOM     81  F   UNL A   1      48.768  27.587  28.463  1.00  0.00    -0.206 F 
ATOM     82  C   UNL A   1      50.614  25.723  30.959  1.00  0.00     0.006 A 
ENDBRANCH  58  75
ENDBRANCH  32  33
ENDBRANCH  24  27
ENDBRANCH  22  23
ENDBRANCH  21  22
ENDBRANCH   1  21
TORSDOF 13
ENDMDL
