MODEL 1
REMARK VINA RESULT:     -11.8      0.000      0.000
REMARK SMILES O=C(Cn1cc(NC(=O)N2CC[N@@H+]3CCC[C@@H]3C2)cn1)NCCCNC(=O)c1ccc(-c2c3nc(c(-c4c(F)cccc4F)c4ccc([nH]4)c(-c4c(F)cccc4F)c4nc(c(-c5c(F)cccc5F)c5ccc2[nH]5)C=C4)C=C3)cc1
REMARK SMILES IDX 22 1 21 2 1 3 2 4 3 6 4 7 5 8 20 9 6 10 19 11 7 12 8 13 9 15
REMARK SMILES IDX 10 16 11 17 18 18 12 19 17 20 13 21 16 22 14 23 15 25 23 26
REMARK SMILES IDX 24 27 25 28 26 29 27 31 28 32 29 33 81 34 30 35 80 36 31 37
REMARK SMILES IDX 32 38 33 39 74 40 34 41 79 42 73 43 75 44 35 45 78 46 72 47
REMARK SMILES IDX 71 48 36 50 62 51 45 52 61 53 46 54 49 55 60 56 76 57 47 58
REMARK SMILES IDX 48 59 59 61 77 62 50 63 37 64 38 65 43 66 39 67 40 68 42 69
REMARK SMILES IDX 44 70 41 71 63 72 64 73 69 74 65 75 66 76 68 77 70 78 67 79
REMARK SMILES IDX 51 80 52 81 57 82 53 83 54 84 56 85 58 86 55 87
REMARK H PARENT 21 5 7 14 13 24 25 30 75 49 49 60
REMARK Flexibility Score: inf
ROOT
ATOM      1  C   UNL A   1      40.148  21.471  26.628  1.00  0.00     0.117 C 
ENDROOT
BRANCH   1   2
ATOM      2  N   UNL A   1      38.976  21.818  25.844  1.00  0.00    -0.354 N 
ATOM      3  O   UNL A   1      38.432  23.766  26.933  1.00  0.00    -0.273 OA
ATOM      4  C   UNL A   1      38.268  22.996  25.989  1.00  0.00     0.241 C 
ATOM      5  H   UNL A   1      38.667  21.174  25.167  1.00  0.00     0.163 HD
BRANCH   4   6
ATOM      6  C   UNL A   1      37.204  23.253  24.930  1.00  0.00     0.244 C 
BRANCH   6   7
ATOM      7  N   UNL A   1      35.973  22.533  25.209  1.00  0.00    -0.261 N 
ATOM      8  C   UNL A   1      34.912  22.942  25.970  1.00  0.00     0.135 A 
ATOM      9  N   UNL A   1      35.809  21.297  24.682  1.00  0.00    -0.179 NA
ATOM     10  C   UNL A   1      33.992  21.919  25.921  1.00  0.00     0.081 A 
ATOM     11  C   UNL A   1      34.568  20.972  25.044  1.00  0.00     0.161 A 
BRANCH  10  12
ATOM     12  N   UNL A   1      32.766  21.915  26.563  1.00  0.00    -0.305 N 
ATOM     13  C   UNL A   1      31.892  22.968  26.631  1.00  0.00     0.322 C 
ATOM     14  H   UNL A   1      32.498  21.080  27.012  1.00  0.00     0.171 HD
ATOM     15  O   UNL A   1      31.239  23.143  27.659  1.00  0.00    -0.248 OA
BRANCH  13  16
ATOM     16  N   UNL A   1      31.783  23.789  25.528  1.00  0.00    -0.313 N 
ATOM     17  C   UNL A   1      31.074  23.360  24.314  1.00  0.00     0.183 C 
ATOM     18  C   UNL A   1      32.064  25.211  25.663  1.00  0.00     0.186 C 
ATOM     19  C   UNL A   1      30.718  24.491  23.331  1.00  0.00     0.284 C 
ATOM     20  C   UNL A   1      30.902  26.105  25.207  1.00  0.00     0.204 C 
ATOM     21  N   UNL A   1      30.250  25.744  23.930  1.00  0.00    -0.330 N 
ATOM     22  C   UNL A   1      31.347  27.561  25.048  1.00  0.00     0.073 C 
ATOM     23  C   UNL A   1      30.381  26.875  23.005  1.00  0.00     0.262 C 
ATOM     24  H   UNL A   1      29.268  25.557  24.132  1.00  0.00     0.348 HD
ATOM     25  C   UNL A   1      30.493  28.083  23.911  1.00  0.00     0.068 C 
ENDBRANCH  13  16
ENDBRANCH  10  12
ENDBRANCH   6   7
ENDBRANCH   4   6
ENDBRANCH   1   2
BRANCH   1  26
ATOM     26  C   UNL A   1      40.857  20.199  26.161  1.00  0.00     0.042 C 
BRANCH  26  27
ATOM     27  C   UNL A   1      42.199  19.970  26.838  1.00  0.00     0.118 C 
BRANCH  27  28
ATOM     28  N   UNL A   1      43.321  19.733  25.919  1.00  0.00    -0.352 N 
ATOM     29  C   UNL A   1      44.039  20.672  25.187  1.00  0.00     0.251 C 
ATOM     30  H   UNL A   1      43.597  18.795  25.809  1.00  0.00     0.163 HD
ATOM     31  O   UNL A   1      44.732  20.344  24.238  1.00  0.00    -0.269 OA
BRANCH  29  32
ATOM     32  C   UNL A   1      43.950  22.091  25.588  1.00  0.00     0.039 A 
ATOM     33  C   UNL A   1      43.078  22.997  24.975  1.00  0.00     0.014 A 
ATOM     34  C   UNL A   1      44.749  22.494  26.649  1.00  0.00     0.014 A 
ATOM     35  C   UNL A   1      42.968  24.282  25.506  1.00  0.00     0.010 A 
ATOM     36  C   UNL A   1      44.465  23.655  27.306  1.00  0.00     0.010 A 
ATOM     37  C   UNL A   1      43.654  24.594  26.689  1.00  0.00    -0.014 A 
BRANCH  37  38
ATOM     38  C   UNL A   1      43.516  25.880  27.354  1.00  0.00     0.031 A 
ATOM     39  C   UNL A   1      44.537  26.891  26.978  1.00  0.00     0.074 A 
ATOM     40  C   UNL A   1      42.421  26.212  28.072  1.00  0.00     0.049 A 
ATOM     41  N   UNL A   1      45.487  27.352  27.718  1.00  0.00    -0.248 NA
ATOM     42  C   UNL A   1      44.596  27.347  25.581  1.00  0.00     0.031 C 
ATOM     43  C   UNL A   1      41.171  25.464  28.260  1.00  0.00     0.029 A 
ATOM     44  N   UNL A   1      42.160  27.378  28.717  1.00  0.00    -0.354 N 
ATOM     45  C   UNL A   1      46.147  28.307  26.952  1.00  0.00     0.074 A 
ATOM     46  C   UNL A   1      45.675  28.133  25.603  1.00  0.00     0.031 C 
ATOM     47  C   UNL A   1      40.218  26.285  28.755  1.00  0.00     0.029 A 
ATOM     48  C   UNL A   1      40.833  27.555  29.087  1.00  0.00     0.049 A 
ATOM     49  H   UNL A   1      42.858  28.045  28.909  1.00  0.00     0.167 HD
ATOM     50  C   UNL A   1      46.859  29.309  27.543  1.00  0.00     0.037 A 
ATOM     51  C   UNL A   1      40.289  28.687  29.599  1.00  0.00     0.037 A 
ATOM     52  C   UNL A   1      47.070  29.034  28.944  1.00  0.00     0.049 A 
ATOM     53  C   UNL A   1      41.409  29.507  30.130  1.00  0.00     0.074 A 
ATOM     54  C   UNL A   1      47.674  28.010  29.649  1.00  0.00     0.029 A 
ATOM     55  N   UNL A   1      46.262  29.682  29.850  1.00  0.00    -0.354 N 
ATOM     56  N   UNL A   1      42.120  29.169  31.170  1.00  0.00    -0.248 NA
ATOM     57  C   UNL A   1      42.051  30.439  29.212  1.00  0.00     0.031 C 
ATOM     58  C   UNL A   1      46.814  27.782  30.764  1.00  0.00     0.029 A 
ATOM     59  C   UNL A   1      45.793  28.731  30.720  1.00  0.00     0.049 A 
ATOM     60  H   UNL A   1      46.059  30.645  29.868  1.00  0.00     0.167 HD
ATOM     61  C   UNL A   1      43.428  29.479  30.822  1.00  0.00     0.074 A 
ATOM     62  C   UNL A   1      43.314  30.329  29.636  1.00  0.00     0.031 C 
ATOM     63  C   UNL A   1      44.486  28.781  31.332  1.00  0.00     0.037 A 
BRANCH  50  64
ATOM     64  C   UNL A   1      47.049  30.693  26.976  1.00  0.00     0.057 A 
ATOM     65  C   UNL A   1      48.334  31.269  27.002  1.00  0.00     0.134 A 
ATOM     66  C   UNL A   1      45.999  31.586  26.688  1.00  0.00     0.134 A 
ATOM     67  F   UNL A   1      49.418  30.523  27.268  1.00  0.00    -0.206 F 
ATOM     68  C   UNL A   1      48.545  32.643  26.845  1.00  0.00     0.040 A 
ATOM     69  C   UNL A   1      46.205  32.952  26.478  1.00  0.00     0.040 A 
ATOM     70  F   UNL A   1      44.714  31.213  26.698  1.00  0.00    -0.206 F 
ATOM     71  C   UNL A   1      47.476  33.491  26.593  1.00  0.00     0.006 A 
ENDBRANCH  50  64
BRANCH  51  72
ATOM     72  C   UNL A   1      38.926  29.228  29.397  1.00  0.00     0.057 A 
ATOM     73  C   UNL A   1      38.446  29.530  28.115  1.00  0.00     0.134 A 
ATOM     74  C   UNL A   1      37.965  29.204  30.425  1.00  0.00     0.134 A 
ATOM     75  F   UNL A   1      39.277  29.540  27.063  1.00  0.00    -0.206 F 
ATOM     76  C   UNL A   1      37.087  29.766  27.864  1.00  0.00     0.040 A 
ATOM     77  C   UNL A   1      36.607  29.443  30.188  1.00  0.00     0.040 A 
ATOM     78  F   UNL A   1      38.297  28.862  31.677  1.00  0.00    -0.206 F 
ATOM     79  C   UNL A   1      36.160  29.711  28.900  1.00  0.00     0.006 A 
ENDBRANCH  51  72
BRANCH  63  80
ATOM     80  C   UNL A   1      44.230  27.812  32.454  1.00  0.00     0.057 A 
ATOM     81  C   UNL A   1      43.993  26.439  32.278  1.00  0.00     0.134 A 
ATOM     82  C   UNL A   1      44.403  28.254  33.771  1.00  0.00     0.134 A 
ATOM     83  F   UNL A   1      43.916  25.898  31.057  1.00  0.00    -0.206 F 
ATOM     84  C   UNL A   1      43.890  25.560  33.360  1.00  0.00     0.040 A 
ATOM     85  C   UNL A   1      44.338  27.381  34.859  1.00  0.00     0.040 A 
ATOM     86  F   UNL A   1      44.692  29.542  34.019  1.00  0.00    -0.206 F 
ATOM     87  C   UNL A   1      44.071  26.029  34.658  1.00  0.00     0.006 A 
ENDBRANCH  63  80
ENDBRANCH  37  38
ENDBRANCH  29  32
ENDBRANCH  27  28
ENDBRANCH  26  27
ENDBRANCH   1  26
TORSDOF 13
ENDMDL
MODEL 2
REMARK VINA RESULT:     -11.6      3.797      7.066
REMARK SMILES O=C(Cn1cc(NC(=O)N2CC[N@@H+]3CCC[C@@H]3C2)cn1)NCCCNC(=O)c1ccc(-c2c3nc(c(-c4c(F)cccc4F)c4ccc([nH]4)c(-c4c(F)cccc4F)c4nc(c(-c5c(F)cccc5F)c5ccc2[nH]5)C=C4)C=C3)cc1
REMARK SMILES IDX 22 1 21 2 1 3 2 4 3 6 4 7 5 8 20 9 6 10 19 11 7 12 8 13 9 15
REMARK SMILES IDX 10 16 11 17 18 18 12 19 17 20 13 21 16 22 14 23 15 25 23 26
REMARK SMILES IDX 24 27 25 28 26 29 27 31 28 32 29 33 81 34 30 35 80 36 31 37
REMARK SMILES IDX 32 38 33 39 74 40 34 41 79 42 73 43 75 44 35 45 78 46 72 47
REMARK SMILES IDX 71 48 36 50 62 51 45 52 61 53 46 54 49 55 60 56 76 57 47 58
REMARK SMILES IDX 48 59 59 61 77 62 50 63 37 64 38 65 43 66 39 67 40 68 42 69
REMARK SMILES IDX 44 70 41 71 63 72 64 73 69 74 65 75 66 76 68 77 70 78 67 79
REMARK SMILES IDX 51 80 52 81 57 82 53 83 54 84 56 85 58 86 55 87
REMARK H PARENT 21 5 7 14 13 24 25 30 75 49 49 60
REMARK Flexibility Score: inf
ROOT
ATOM      1  C   UNL A   1      42.320  20.151  27.495  1.00  0.00     0.117 C 
ENDROOT
BRANCH   1   2
ATOM      2  N   UNL A   1      43.234  20.228  26.369  1.00  0.00    -0.354 N 
ATOM      3  O   UNL A   1      43.582  17.975  26.089  1.00  0.00    -0.273 OA
ATOM      4  C   UNL A   1      43.714  19.128  25.684  1.00  0.00     0.241 C 
ATOM      5  H   UNL A   1      43.532  21.120  26.077  1.00  0.00     0.163 HD
BRANCH   4   6
ATOM      6  C   UNL A   1      44.490  19.438  24.411  1.00  0.00     0.244 C 
BRANCH   6   7
ATOM      7  N   UNL A   1      44.884  20.836  24.341  1.00  0.00    -0.261 N 
ATOM      8  C   UNL A   1      46.124  21.373  24.552  1.00  0.00     0.135 A 
ATOM      9  N   UNL A   1      43.942  21.762  24.043  1.00  0.00    -0.179 NA
ATOM     10  C   UNL A   1      45.989  22.729  24.361  1.00  0.00     0.081 A 
ATOM     11  C   UNL A   1      44.642  22.894  23.968  1.00  0.00     0.161 A 
BRANCH  10  12
ATOM     12  N   UNL A   1      47.006  23.659  24.482  1.00  0.00    -0.305 N 
ATOM     13  C   UNL A   1      46.867  24.946  24.934  1.00  0.00     0.322 C 
ATOM     14  H   UNL A   1      47.911  23.371  24.221  1.00  0.00     0.171 HD
ATOM     15  O   UNL A   1      47.548  25.838  24.429  1.00  0.00    -0.248 OA
BRANCH  13  16
ATOM     16  N   UNL A   1      45.964  25.180  25.950  1.00  0.00    -0.313 N 
ATOM     17  C   UNL A   1      44.698  25.887  25.709  1.00  0.00     0.183 C 
ATOM     18  C   UNL A   1      46.082  24.440  27.198  1.00  0.00     0.186 C 
ATOM     19  C   UNL A   1      43.649  25.749  26.828  1.00  0.00     0.284 C 
ATOM     20  C   UNL A   1      44.801  23.682  27.576  1.00  0.00     0.204 C 
ATOM     21  N   UNL A   1      43.528  24.423  27.439  1.00  0.00    -0.330 N 
ATOM     22  C   UNL A   1      44.846  23.201  29.029  1.00  0.00     0.073 C 
ATOM     23  C   UNL A   1      42.881  24.483  28.754  1.00  0.00     0.262 C 
ATOM     24  H   UNL A   1      42.948  23.909  26.777  1.00  0.00     0.348 HD
ATOM     25  C   UNL A   1      43.401  23.259  29.480  1.00  0.00     0.068 C 
ENDBRANCH  13  16
ENDBRANCH  10  12
ENDBRANCH   6   7
ENDBRANCH   4   6
ENDBRANCH   1   2
BRANCH   1  26
ATOM     26  C   UNL A   1      41.291  21.282  27.541  1.00  0.00     0.042 C 
BRANCH  26  27
ATOM     27  C   UNL A   1      41.037  21.924  26.187  1.00  0.00     0.118 C 
BRANCH  27  28
ATOM     28  N   UNL A   1      39.620  22.114  25.850  1.00  0.00    -0.352 N 
ATOM     29  C   UNL A   1      38.774  23.139  26.258  1.00  0.00     0.251 C 
ATOM     30  H   UNL A   1      39.221  21.431  25.264  1.00  0.00     0.163 HD
ATOM     31  O   UNL A   1      37.562  23.034  26.175  1.00  0.00    -0.269 OA
BRANCH  29  32
ATOM     32  C   UNL A   1      39.379  24.375  26.795  1.00  0.00     0.039 A 
ATOM     33  C   UNL A   1      40.042  25.305  25.989  1.00  0.00     0.014 A 
ATOM     34  C   UNL A   1      39.223  24.609  28.155  1.00  0.00     0.014 A 
ATOM     35  C   UNL A   1      40.466  26.504  26.562  1.00  0.00     0.010 A 
ATOM     36  C   UNL A   1      39.418  25.864  28.652  1.00  0.00     0.010 A 
ATOM     37  C   UNL A   1      40.128  26.782  27.895  1.00  0.00    -0.014 A 
BRANCH  37  38
ATOM     38  C   UNL A   1      40.452  28.047  28.533  1.00  0.00     0.031 A 
ATOM     39  C   UNL A   1      41.669  28.718  28.011  1.00  0.00     0.074 A 
ATOM     40  C   UNL A   1      39.597  28.680  29.367  1.00  0.00     0.049 A 
ATOM     41  N   UNL A   1      42.795  28.876  28.619  1.00  0.00    -0.248 NA
ATOM     42  C   UNL A   1      41.688  29.147  26.604  1.00  0.00     0.031 C 
ATOM     43  C   UNL A   1      38.215  28.329  29.723  1.00  0.00     0.029 A 
ATOM     44  N   UNL A   1      39.768  29.866  30.004  1.00  0.00    -0.354 N 
ATOM     45  C   UNL A   1      43.606  29.602  27.754  1.00  0.00     0.074 A 
ATOM     46  C   UNL A   1      42.944  29.583  26.476  1.00  0.00     0.031 C 
ATOM     47  C   UNL A   1      37.611  29.390  30.303  1.00  0.00     0.029 A 
ATOM     48  C   UNL A   1      38.604  30.421  30.523  1.00  0.00     0.049 A 
ATOM     49  H   UNL A   1      40.648  30.299  30.093  1.00  0.00     0.167 HD
ATOM     50  C   UNL A   1      44.645  30.348  28.227  1.00  0.00     0.037 A 
ATOM     51  C   UNL A   1      38.480  31.659  31.063  1.00  0.00     0.037 A 
ATOM     52  C   UNL A   1      44.936  30.013  29.600  1.00  0.00     0.049 A 
ATOM     53  C   UNL A   1      39.847  32.113  31.434  1.00  0.00     0.074 A 
ATOM     54  C   UNL A   1      45.297  28.852  30.258  1.00  0.00     0.029 A 
ATOM     55  N   UNL A   1      44.468  30.862  30.576  1.00  0.00    -0.354 N 
ATOM     56  N   UNL A   1      40.549  31.573  32.391  1.00  0.00    -0.248 NA
ATOM     57  C   UNL A   1      40.616  32.822  30.420  1.00  0.00     0.031 C 
ATOM     58  C   UNL A   1      44.550  28.877  31.473  1.00  0.00     0.029 A 
ATOM     59  C   UNL A   1      43.853  30.084  31.523  1.00  0.00     0.049 A 
ATOM     60  H   UNL A   1      44.558  31.842  30.591  1.00  0.00     0.167 HD
ATOM     61  C   UNL A   1      41.838  31.490  31.882  1.00  0.00     0.074 A 
ATOM     62  C   UNL A   1      41.833  32.344  30.695  1.00  0.00     0.031 C 
ATOM     63  C   UNL A   1      42.701  30.510  32.284  1.00  0.00     0.037 A 
BRANCH  50  64
ATOM     64  C   UNL A   1      45.160  31.619  27.601  1.00  0.00     0.057 A 
ATOM     65  C   UNL A   1      46.471  31.644  27.089  1.00  0.00     0.134 A 
ATOM     66  C   UNL A   1      44.551  32.881  27.747  1.00  0.00     0.134 A 
ATOM     67  F   UNL A   1      47.161  30.507  26.906  1.00  0.00    -0.206 F 
ATOM     68  C   UNL A   1      47.154  32.836  26.829  1.00  0.00     0.040 A 
ATOM     69  C   UNL A   1      45.207  34.076  27.442  1.00  0.00     0.040 A 
ATOM     70  F   UNL A   1      43.337  33.035  28.288  1.00  0.00    -0.206 F 
ATOM     71  C   UNL A   1      46.525  34.059  27.017  1.00  0.00     0.006 A 
ENDBRANCH  50  64
BRANCH  51  72
ATOM     72  C   UNL A   1      37.320  32.577  31.008  1.00  0.00     0.057 A 
ATOM     73  C   UNL A   1      37.004  33.281  29.838  1.00  0.00     0.134 A 
ATOM     74  C   UNL A   1      36.334  32.577  32.012  1.00  0.00     0.134 A 
ATOM     75  F   UNL A   1      37.862  33.309  28.809  1.00  0.00    -0.206 F 
ATOM     76  C   UNL A   1      35.770  33.924  29.664  1.00  0.00     0.040 A 
ATOM     77  C   UNL A   1      35.100  33.218  31.853  1.00  0.00     0.040 A 
ATOM     78  F   UNL A   1      36.498  31.881  33.146  1.00  0.00    -0.206 F 
ATOM     79  C   UNL A   1      34.808  33.883  30.669  1.00  0.00     0.006 A 
ENDBRANCH  51  72
BRANCH  63  80
ATOM     80  C   UNL A   1      42.313  29.650  33.456  1.00  0.00     0.057 A 
ATOM     81  C   UNL A   1      41.632  28.426  33.350  1.00  0.00     0.134 A 
ATOM     82  C   UNL A   1      42.799  29.989  34.724  1.00  0.00     0.134 A 
ATOM     83  F   UNL A   1      41.217  27.961  32.167  1.00  0.00    -0.206 F 
ATOM     84  C   UNL A   1      41.410  27.604  34.459  1.00  0.00     0.040 A 
ATOM     85  C   UNL A   1      42.615  29.161  35.833  1.00  0.00     0.040 A 
ATOM     86  F   UNL A   1      43.512  31.114  34.895  1.00  0.00    -0.206 F 
ATOM     87  C   UNL A   1      41.910  27.967  35.706  1.00  0.00     0.006 A 
ENDBRANCH  63  80
ENDBRANCH  37  38
ENDBRANCH  29  32
ENDBRANCH  27  28
ENDBRANCH  26  27
ENDBRANCH   1  26
TORSDOF 13
ENDMDL
MODEL 3
REMARK VINA RESULT:     -11.4      2.303      3.240
REMARK SMILES O=C(Cn1cc(NC(=O)N2CC[N@@H+]3CCC[C@@H]3C2)cn1)NCCCNC(=O)c1ccc(-c2c3nc(c(-c4c(F)cccc4F)c4ccc([nH]4)c(-c4c(F)cccc4F)c4nc(c(-c5c(F)cccc5F)c5ccc2[nH]5)C=C4)C=C3)cc1
REMARK SMILES IDX 22 1 21 2 1 3 2 4 3 6 4 7 5 8 20 9 6 10 19 11 7 12 8 13 9 15
REMARK SMILES IDX 10 16 11 17 18 18 12 19 17 20 13 21 16 22 14 23 15 25 23 26
REMARK SMILES IDX 24 27 25 28 26 29 27 31 28 32 29 33 81 34 30 35 80 36 31 37
REMARK SMILES IDX 32 38 33 39 74 40 34 41 79 42 73 43 75 44 35 45 78 46 72 47
REMARK SMILES IDX 71 48 36 50 62 51 45 52 61 53 46 54 49 55 60 56 76 57 47 58
REMARK SMILES IDX 48 59 59 61 77 62 50 63 37 64 38 65 43 66 39 67 40 68 42 69
REMARK SMILES IDX 44 70 41 71 63 72 64 73 69 74 65 75 66 76 68 77 70 78 67 79
REMARK SMILES IDX 51 80 52 81 57 82 53 83 54 84 56 85 58 86 55 87
REMARK H PARENT 21 5 7 14 13 24 25 30 75 49 49 60
REMARK Flexibility Score: inf
ROOT
ATOM      1  C   UNL A   1      39.383  21.593  26.297  1.00  0.00     0.117 C 
ENDROOT
BRANCH   1   2
ATOM      2  N   UNL A   1      38.272  22.068  25.491  1.00  0.00    -0.354 N 
ATOM      3  O   UNL A   1      37.558  20.032  24.704  1.00  0.00    -0.273 OA
ATOM      4  C   UNL A   1      37.378  21.241  24.838  1.00  0.00     0.241 C 
ATOM      5  H   UNL A   1      38.149  23.041  25.403  1.00  0.00     0.163 HD
BRANCH   4   6
ATOM      6  C   UNL A   1      36.171  21.938  24.225  1.00  0.00     0.244 C 
BRANCH   6   7
ATOM      7  N   UNL A   1      35.091  22.102  25.184  1.00  0.00    -0.261 N 
ATOM      8  C   UNL A   1      33.745  21.993  24.963  1.00  0.00     0.135 A 
ATOM      9  N   UNL A   1      35.401  22.408  26.465  1.00  0.00    -0.179 NA
ATOM     10  C   UNL A   1      33.140  22.224  26.178  1.00  0.00     0.081 A 
ATOM     11  C   UNL A   1      34.218  22.390  27.078  1.00  0.00     0.161 A 
BRANCH  10  12
ATOM     12  N   UNL A   1      31.776  22.217  26.407  1.00  0.00    -0.305 N 
ATOM     13  C   UNL A   1      30.971  23.323  26.485  1.00  0.00     0.322 C 
ATOM     14  H   UNL A   1      31.346  21.340  26.524  1.00  0.00     0.171 HD
ATOM     15  O   UNL A   1      30.034  23.331  27.283  1.00  0.00    -0.248 OA
BRANCH  13  16
ATOM     16  N   UNL A   1      31.249  24.386  25.651  1.00  0.00    -0.313 N 
ATOM     17  C   UNL A   1      30.642  24.500  24.317  1.00  0.00     0.183 C 
ATOM     18  C   UNL A   1      31.873  25.582  26.199  1.00  0.00     0.186 C 
ATOM     19  C   UNL A   1      30.751  25.892  23.666  1.00  0.00     0.284 C 
ATOM     20  C   UNL A   1      31.071  26.863  25.928  1.00  0.00     0.204 C 
ATOM     21  N   UNL A   1      30.546  27.038  24.556  1.00  0.00    -0.330 N 
ATOM     22  C   UNL A   1      31.904  28.114  26.216  1.00  0.00     0.073 C 
ATOM     23  C   UNL A   1      31.109  28.272  23.997  1.00  0.00     0.262 C 
ATOM     24  H   UNL A   1      29.531  27.106  24.625  1.00  0.00     0.348 HD
ATOM     25  C   UNL A   1      31.400  29.130  25.211  1.00  0.00     0.068 C 
ENDBRANCH  13  16
ENDBRANCH  10  12
ENDBRANCH   6   7
ENDBRANCH   4   6
ENDBRANCH   1   2
BRANCH   1  26
ATOM     26  C   UNL A   1      39.996  22.660  27.205  1.00  0.00     0.042 C 
BRANCH  26  27
ATOM     27  C   UNL A   1      41.440  22.374  27.584  1.00  0.00     0.118 C 
BRANCH  27  28
ATOM     28  N   UNL A   1      42.388  22.392  26.462  1.00  0.00    -0.352 N 
ATOM     29  C   UNL A   1      42.784  23.481  25.694  1.00  0.00     0.251 C 
ATOM     30  H   UNL A   1      42.792  21.526  26.225  1.00  0.00     0.163 HD
ATOM     31  O   UNL A   1      43.325  23.333  24.612  1.00  0.00    -0.269 OA
BRANCH  29  32
ATOM     32  C   UNL A   1      42.536  24.838  26.223  1.00  0.00     0.039 A 
ATOM     33  C   UNL A   1      41.510  25.660  25.745  1.00  0.00     0.014 A 
ATOM     34  C   UNL A   1      43.348  25.263  27.265  1.00  0.00     0.014 A 
ATOM     35  C   UNL A   1      41.269  26.872  26.393  1.00  0.00     0.010 A 
ATOM     36  C   UNL A   1      42.961  26.318  28.038  1.00  0.00     0.010 A 
ATOM     37  C   UNL A   1      41.991  27.181  27.556  1.00  0.00    -0.014 A 
BRANCH  37  38
ATOM     38  C   UNL A   1      41.732  28.379  28.338  1.00  0.00     0.031 A 
ATOM     39  C   UNL A   1      42.719  29.473  28.154  1.00  0.00     0.074 A 
ATOM     40  C   UNL A   1      40.568  28.579  28.997  1.00  0.00     0.049 A 
ATOM     41  N   UNL A   1      43.584  29.895  29.013  1.00  0.00    -0.248 NA
ATOM     42  C   UNL A   1      42.857  30.081  26.822  1.00  0.00     0.031 C 
ATOM     43  C   UNL A   1      39.351  27.755  29.004  1.00  0.00     0.029 A 
ATOM     44  N   UNL A   1      40.195  29.653  29.738  1.00  0.00    -0.354 N 
ATOM     45  C   UNL A   1      44.245  30.959  28.407  1.00  0.00     0.074 A 
ATOM     46  C   UNL A   1      43.886  30.910  27.013  1.00  0.00     0.031 C 
ATOM     47  C   UNL A   1      38.320  28.472  29.504  1.00  0.00     0.029 A 
ATOM     48  C   UNL A   1      38.836  29.725  30.016  1.00  0.00     0.049 A 
ATOM     49  H   UNL A   1      40.838  30.329  30.054  1.00  0.00     0.167 HD
ATOM     50  C   UNL A   1      44.853  31.923  29.155  1.00  0.00     0.037 A 
ATOM     51  C   UNL A   1      38.193  30.768  30.598  1.00  0.00     0.037 A 
ATOM     52  C   UNL A   1      44.973  31.508  30.531  1.00  0.00     0.049 A 
ATOM     53  C   UNL A   1      39.222  31.579  31.301  1.00  0.00     0.074 A 
ATOM     54  C   UNL A   1      45.580  30.443  31.172  1.00  0.00     0.029 A 
ATOM     55  N   UNL A   1      44.065  32.014  31.432  1.00  0.00    -0.354 N 
ATOM     56  N   UNL A   1      39.871  31.163  32.353  1.00  0.00    -0.248 NA
ATOM     57  C   UNL A   1      39.878  32.634  30.540  1.00  0.00     0.031 C 
ATOM     58  C   UNL A   1      44.653  30.054  32.184  1.00  0.00     0.029 A 
ATOM     59  C   UNL A   1      43.586  30.953  32.158  1.00  0.00     0.049 A 
ATOM     60  H   UNL A   1      43.807  32.958  31.535  1.00  0.00     0.167 HD
ATOM     61  C   UNL A   1      41.181  31.571  32.146  1.00  0.00     0.074 A 
ATOM     62  C   UNL A   1      41.110  32.539  31.050  1.00  0.00     0.031 C 
ATOM     63  C   UNL A   1      42.236  30.874  32.664  1.00  0.00     0.037 A 
BRANCH  50  64
ATOM     64  C   UNL A   1      45.007  33.368  28.752  1.00  0.00     0.057 A 
ATOM     65  C   UNL A   1      43.855  34.114  28.439  1.00  0.00     0.134 A 
ATOM     66  C   UNL A   1      46.227  33.962  28.373  1.00  0.00     0.134 A 
ATOM     67  F   UNL A   1      42.632  33.655  28.745  1.00  0.00    -0.206 F 
ATOM     68  C   UNL A   1      43.909  35.314  27.722  1.00  0.00     0.040 A 
ATOM     69  C   UNL A   1      46.294  35.186  27.702  1.00  0.00     0.040 A 
ATOM     70  F   UNL A   1      47.405  33.350  28.533  1.00  0.00    -0.206 F 
ATOM     71  C   UNL A   1      45.132  35.848  27.341  1.00  0.00     0.006 A 
ENDBRANCH  50  64
BRANCH  51  72
ATOM     72  C   UNL A   1      36.820  31.262  30.344  1.00  0.00     0.057 A 
ATOM     73  C   UNL A   1      35.966  31.610  31.400  1.00  0.00     0.134 A 
ATOM     74  C   UNL A   1      36.409  31.666  29.061  1.00  0.00     0.134 A 
ATOM     75  F   UNL A   1      36.289  31.303  32.665  1.00  0.00    -0.206 F 
ATOM     76  C   UNL A   1      34.787  32.341  31.196  1.00  0.00     0.040 A 
ATOM     77  C   UNL A   1      35.233  32.392  28.843  1.00  0.00     0.040 A 
ATOM     78  F   UNL A   1      37.179  31.448  27.985  1.00  0.00    -0.206 F 
ATOM     79  C   UNL A   1      34.423  32.745  29.915  1.00  0.00     0.006 A 
ENDBRANCH  51  72
BRANCH  63  80
ATOM     80  C   UNL A   1      41.952  29.777  33.654  1.00  0.00     0.057 A 
ATOM     81  C   UNL A   1      41.747  28.431  33.310  1.00  0.00     0.134 A 
ATOM     82  C   UNL A   1      42.061  30.065  35.020  1.00  0.00     0.134 A 
ATOM     83  F   UNL A   1      41.731  28.035  32.032  1.00  0.00    -0.206 F 
ATOM     84  C   UNL A   1      41.616  27.430  34.278  1.00  0.00     0.040 A 
ATOM     85  C   UNL A   1      41.966  29.070  35.995  1.00  0.00     0.040 A 
ATOM     86  F   UNL A   1      42.315  31.319  35.427  1.00  0.00    -0.206 F 
ATOM     87  C   UNL A   1      41.733  27.748  35.627  1.00  0.00     0.006 A 
ENDBRANCH  63  80
ENDBRANCH  37  38
ENDBRANCH  29  32
ENDBRANCH  27  28
ENDBRANCH  26  27
ENDBRANCH   1  26
TORSDOF 13
ENDMDL
