MODEL 1
REMARK VINA RESULT:     -11.8      0.000      0.000
REMARK SMILES CC(C)(C)OC(=O)Nc1ccc(-c2cccc(Cl)c2C(=O)NCCCNC(=O)c2ccc(-c3c4nc(c(-c5c(F)cccc5F)c5ccc([nH]5)c(-c5c(F)cccc5F)c5nc(c(-c6c(F)cccc6F)c6ccc3[nH]6)C=C5)C=C4)cc2)cc1
REMARK SMILES IDX 23 1 22 2 20 3 21 4 19 6 13 7 14 8 15 9 17 10 16 11 18 12
REMARK SMILES IDX 12 13 9 14 10 15 84 16 11 17 83 18 8 19 6 20 7 21 5 23 2 24
REMARK SMILES IDX 1 25 3 26 4 27 24 28 25 29 26 30 27 31 28 33 29 34 30 35
REMARK SMILES IDX 82 36 31 37 81 38 32 39 33 40 34 41 75 42 35 43 80 44 74 45
REMARK SMILES IDX 76 46 36 47 79 48 73 49 72 50 37 52 63 53 46 54 62 55 47 56
REMARK SMILES IDX 50 57 61 58 77 59 48 60 49 61 60 63 78 64 51 65 38 66 39 67
REMARK SMILES IDX 44 68 40 69 41 70 43 71 45 72 42 73 64 74 65 75 70 76 66 77
REMARK SMILES IDX 67 78 69 79 71 80 68 81 52 82 53 83 58 84 54 85 55 86 57 87
REMARK SMILES IDX 59 88 56 89
REMARK H PARENT 22 5 8 22 26 32 76 51 50 62
REMARK Flexibility Score: inf
ROOT
ATOM      1  C   UNL A   1      33.529  28.390  24.717  1.00  0.00     0.118 C 
ENDROOT
BRANCH   1   2
ATOM      2  N   UNL A   1      33.768  27.401  23.716  1.00  0.00    -0.352 N 
ATOM      3  C   UNL A   1      32.818  27.019  22.780  1.00  0.00     0.253 C 
ATOM      4  O   UNL A   1      33.235  26.812  21.637  1.00  0.00    -0.269 OA
ATOM      5  H   UNL A   1      34.652  26.970  23.688  1.00  0.00     0.163 HD
BRANCH   3   6
ATOM      6  C   UNL A   1      31.359  26.739  23.076  1.00  0.00     0.066 A 
ATOM      7  C   UNL A   1      30.784  25.565  23.663  1.00  0.00    -0.004 A 
ATOM      8  C   UNL A   1      29.416  25.590  24.038  1.00  0.00     0.009 A 
ATOM      9  C   UNL A   1      28.611  26.705  23.847  1.00  0.00     0.002 A 
ATOM     10  C   UNL A   1      30.494  27.844  22.845  1.00  0.00     0.054 A 
ATOM     11  C   UNL A   1      29.148  27.826  23.238  1.00  0.00     0.021 A 
ATOM     12  Cl  UNL A   1      30.972  29.281  21.985  1.00  0.00    -0.083 Cl
BRANCH   7  13
ATOM     13  C   UNL A   1      31.431  24.254  23.860  1.00  0.00    -0.017 A 
ATOM     14  C   UNL A   1      33.070  21.969  24.252  1.00  0.00     0.044 A 
ATOM     15  C   UNL A   1      33.009  22.583  23.000  1.00  0.00     0.027 A 
ATOM     16  C   UNL A   1      32.233  22.447  25.269  1.00  0.00     0.027 A 
ATOM     17  C   UNL A   1      32.178  23.691  22.798  1.00  0.00     0.011 A 
ATOM     18  C   UNL A   1      31.414  23.574  25.077  1.00  0.00     0.011 A 
BRANCH  14  19
ATOM     19  N   UNL A   1      34.027  20.948  24.403  1.00  0.00    -0.291 N 
ATOM     20  C   UNL A   1      35.266  20.953  24.993  1.00  0.00     0.412 C 
ATOM     21  O   UNL A   1      35.959  19.946  24.986  1.00  0.00    -0.224 OA
ATOM     22  H   UNL A   1      33.764  20.081  24.017  1.00  0.00     0.173 HD
BRANCH  20  23
ATOM     23  O   UNL A   1      35.552  22.103  25.634  1.00  0.00    -0.444 OA
BRANCH  23  24
ATOM     24  C   UNL A   1      36.262  23.193  25.008  1.00  0.00     0.106 C 
ATOM     25  C   UNL A   1      37.522  23.336  25.875  1.00  0.00     0.056 C 
ATOM     26  C   UNL A   1      35.458  24.491  25.070  1.00  0.00     0.056 C 
ATOM     27  C   UNL A   1      36.680  22.841  23.579  1.00  0.00     0.056 C 
ENDBRANCH  23  24
ENDBRANCH  20  23
ENDBRANCH  14  19
ENDBRANCH   7  13
ENDBRANCH   3   6
ENDBRANCH   1   2
BRANCH   1  28
ATOM     28  C   UNL A   1      34.454  28.535  25.891  1.00  0.00     0.042 C 
BRANCH  28  29
ATOM     29  C   UNL A   1      33.807  28.628  27.255  1.00  0.00     0.118 C 
BRANCH  29  30
ATOM     30  N   UNL A   1      33.725  29.966  27.841  1.00  0.00    -0.352 N 
ATOM     31  C   UNL A   1      34.668  30.783  28.429  1.00  0.00     0.251 C 
ATOM     32  H   UNL A   1      32.823  30.358  27.811  1.00  0.00     0.163 HD
ATOM     33  O   UNL A   1      34.339  31.905  28.801  1.00  0.00    -0.269 OA
BRANCH  31  34
ATOM     34  C   UNL A   1      36.056  30.318  28.653  1.00  0.00     0.039 A 
ATOM     35  C   UNL A   1      36.395  29.669  29.847  1.00  0.00     0.014 A 
ATOM     36  C   UNL A   1      37.033  30.512  27.686  1.00  0.00     0.014 A 
ATOM     37  C   UNL A   1      37.684  29.150  30.016  1.00  0.00     0.010 A 
ATOM     38  C   UNL A   1      38.240  29.841  27.769  1.00  0.00     0.010 A 
ATOM     39  C   UNL A   1      38.605  29.206  28.961  1.00  0.00    -0.014 A 
BRANCH  39  40
ATOM     40  C   UNL A   1      40.009  28.749  29.094  1.00  0.00     0.031 A 
ATOM     41  C   UNL A   1      41.034  29.715  29.635  1.00  0.00     0.074 A 
ATOM     42  C   UNL A   1      40.376  27.529  28.662  1.00  0.00     0.049 A 
ATOM     43  N   UNL A   1      42.335  29.596  29.707  1.00  0.00    -0.248 NA
ATOM     44  C   UNL A   1      40.531  31.019  30.105  1.00  0.00     0.031 C 
ATOM     45  C   UNL A   1      39.484  26.528  28.073  1.00  0.00     0.029 A 
ATOM     46  N   UNL A   1      41.608  26.928  28.644  1.00  0.00    -0.354 N 
ATOM     47  C   UNL A   1      42.794  30.815  30.191  1.00  0.00     0.074 A 
ATOM     48  C   UNL A   1      41.653  31.691  30.302  1.00  0.00     0.031 C 
ATOM     49  C   UNL A   1      40.193  25.424  27.784  1.00  0.00     0.029 A 
ATOM     50  C   UNL A   1      41.592  25.654  28.130  1.00  0.00     0.049 A 
ATOM     51  H   UNL A   1      42.426  27.367  28.970  1.00  0.00     0.167 HD
ATOM     52  C   UNL A   1      44.049  31.164  30.557  1.00  0.00     0.037 A 
ATOM     53  C   UNL A   1      42.600  24.777  27.964  1.00  0.00     0.037 A 
ATOM     54  C   UNL A   1      45.168  30.266  30.496  1.00  0.00     0.049 A 
ATOM     55  C   UNL A   1      43.984  25.176  28.400  1.00  0.00     0.074 A 
ATOM     56  C   UNL A   1      46.474  30.483  30.890  1.00  0.00     0.029 A 
ATOM     57  N   UNL A   1      45.103  28.966  30.014  1.00  0.00    -0.354 N 
ATOM     58  N   UNL A   1      44.400  26.312  28.907  1.00  0.00    -0.248 NA
ATOM     59  C   UNL A   1      45.037  24.162  28.257  1.00  0.00     0.031 C 
ATOM     60  C   UNL A   1      47.211  29.329  30.604  1.00  0.00     0.029 A 
ATOM     61  C   UNL A   1      46.349  28.372  30.091  1.00  0.00     0.049 A 
ATOM     62  H   UNL A   1      44.289  28.532  29.667  1.00  0.00     0.167 HD
ATOM     63  C   UNL A   1      45.750  26.137  29.183  1.00  0.00     0.074 A 
ATOM     64  C   UNL A   1      46.077  24.779  28.797  1.00  0.00     0.031 C 
ATOM     65  C   UNL A   1      46.642  27.013  29.711  1.00  0.00     0.037 A 
BRANCH  52  66
ATOM     66  C   UNL A   1      44.258  32.565  31.063  1.00  0.00     0.057 A 
ATOM     67  C   UNL A   1      44.131  32.893  32.421  1.00  0.00     0.134 A 
ATOM     68  C   UNL A   1      44.582  33.601  30.180  1.00  0.00     0.134 A 
ATOM     69  F   UNL A   1      43.802  31.954  33.321  1.00  0.00    -0.206 F 
ATOM     70  C   UNL A   1      44.278  34.205  32.875  1.00  0.00     0.040 A 
ATOM     71  C   UNL A   1      44.767  34.911  30.627  1.00  0.00     0.040 A 
ATOM     72  F   UNL A   1      44.721  33.362  28.867  1.00  0.00    -0.206 F 
ATOM     73  C   UNL A   1      44.604  35.218  31.976  1.00  0.00     0.006 A 
ENDBRANCH  52  66
BRANCH  53  74
ATOM     74  C   UNL A   1      42.332  23.425  27.408  1.00  0.00     0.057 A 
ATOM     75  C   UNL A   1      42.370  23.192  26.028  1.00  0.00     0.134 A 
ATOM     76  C   UNL A   1      42.022  22.339  28.235  1.00  0.00     0.134 A 
ATOM     77  F   UNL A   1      42.648  24.193  25.181  1.00  0.00    -0.206 F 
ATOM     78  C   UNL A   1      42.081  21.937  25.487  1.00  0.00     0.040 A 
ATOM     79  C   UNL A   1      41.758  21.072  27.710  1.00  0.00     0.040 A 
ATOM     80  F   UNL A   1      41.981  22.490  29.567  1.00  0.00    -0.206 F 
ATOM     81  C   UNL A   1      41.777  20.871  26.332  1.00  0.00     0.006 A 
ENDBRANCH  53  74
BRANCH  65  82
ATOM     82  C   UNL A   1      48.032  26.505  29.960  1.00  0.00     0.057 A 
ATOM     83  C   UNL A   1      49.049  26.614  29.003  1.00  0.00     0.134 A 
ATOM     84  C   UNL A   1      48.359  25.917  31.188  1.00  0.00     0.134 A 
ATOM     85  F   UNL A   1      48.800  27.161  27.803  1.00  0.00    -0.206 F 
ATOM     86  C   UNL A   1      50.331  26.117  29.244  1.00  0.00     0.040 A 
ATOM     87  C   UNL A   1      49.646  25.449  31.454  1.00  0.00     0.040 A 
ATOM     88  F   UNL A   1      47.436  25.796  32.155  1.00  0.00    -0.206 F 
ATOM     89  C   UNL A   1      50.632  25.536  30.475  1.00  0.00     0.006 A 
ENDBRANCH  65  82
ENDBRANCH  39  40
ENDBRANCH  31  34
ENDBRANCH  29  30
ENDBRANCH  28  29
ENDBRANCH   1  28
TORSDOF 14
ENDMDL
MODEL 2
REMARK VINA RESULT:     -11.7      2.308      7.681
REMARK SMILES CC(C)(C)OC(=O)Nc1ccc(-c2cccc(Cl)c2C(=O)NCCCNC(=O)c2ccc(-c3c4nc(c(-c5c(F)cccc5F)c5ccc([nH]5)c(-c5c(F)cccc5F)c5nc(c(-c6c(F)cccc6F)c6ccc3[nH]6)C=C5)C=C4)cc2)cc1
REMARK SMILES IDX 23 1 22 2 20 3 21 4 19 6 13 7 14 8 15 9 17 10 16 11 18 12
REMARK SMILES IDX 12 13 9 14 10 15 84 16 11 17 83 18 8 19 6 20 7 21 5 23 2 24
REMARK SMILES IDX 1 25 3 26 4 27 24 28 25 29 26 30 27 31 28 33 29 34 30 35
REMARK SMILES IDX 82 36 31 37 81 38 32 39 33 40 34 41 75 42 35 43 80 44 74 45
REMARK SMILES IDX 76 46 36 47 79 48 73 49 72 50 37 52 63 53 46 54 62 55 47 56
REMARK SMILES IDX 50 57 61 58 77 59 48 60 49 61 60 63 78 64 51 65 38 66 39 67
REMARK SMILES IDX 44 68 40 69 41 70 43 71 45 72 42 73 64 74 65 75 70 76 66 77
REMARK SMILES IDX 67 78 69 79 71 80 68 81 52 82 53 83 58 84 54 85 55 86 57 87
REMARK SMILES IDX 59 88 56 89
REMARK H PARENT 22 5 8 22 26 32 76 51 50 62
REMARK Flexibility Score: inf
ROOT
ATOM      1  C   UNL A   1      36.518  20.734  24.750  1.00  0.00     0.118 C 
ENDROOT
BRANCH   1   2
ATOM      2  N   UNL A   1      35.801  21.322  25.836  1.00  0.00    -0.352 N 
ATOM      3  C   UNL A   1      34.423  21.250  25.967  1.00  0.00     0.253 C 
ATOM      4  O   UNL A   1      33.994  21.078  27.111  1.00  0.00    -0.269 OA
ATOM      5  H   UNL A   1      36.313  21.801  26.528  1.00  0.00     0.163 HD
BRANCH   3   6
ATOM      6  C   UNL A   1      33.424  21.470  24.850  1.00  0.00     0.066 A 
ATOM      7  C   UNL A   1      32.960  22.713  24.308  1.00  0.00    -0.004 A 
ATOM      8  C   UNL A   1      32.174  22.692  23.127  1.00  0.00     0.009 A 
ATOM      9  C   UNL A   1      31.828  21.512  22.484  1.00  0.00     0.002 A 
ATOM     10  C   UNL A   1      33.006  20.277  24.197  1.00  0.00     0.054 A 
ATOM     11  C   UNL A   1      32.232  20.305  23.027  1.00  0.00     0.021 A 
ATOM     12  Cl  UNL A   1      33.322  18.679  24.811  1.00  0.00    -0.083 Cl
BRANCH   7  13
ATOM     13  C   UNL A   1      33.129  24.060  24.886  1.00  0.00    -0.017 A 
ATOM     14  C   UNL A   1      33.176  26.791  25.659  1.00  0.00     0.044 A 
ATOM     15  C   UNL A   1      33.923  26.358  24.562  1.00  0.00     0.027 A 
ATOM     16  C   UNL A   1      32.493  25.832  26.418  1.00  0.00     0.027 A 
ATOM     17  C   UNL A   1      33.924  25.007  24.198  1.00  0.00     0.011 A 
ATOM     18  C   UNL A   1      32.472  24.477  26.043  1.00  0.00     0.011 A 
BRANCH  14  19
ATOM     19  N   UNL A   1      33.126  28.182  25.874  1.00  0.00    -0.291 N 
ATOM     20  C   UNL A   1      32.171  29.110  25.545  1.00  0.00     0.412 C 
ATOM     21  O   UNL A   1      32.344  30.293  25.802  1.00  0.00    -0.224 OA
ATOM     22  H   UNL A   1      33.911  28.552  26.338  1.00  0.00     0.173 HD
BRANCH  20  23
ATOM     23  O   UNL A   1      31.047  28.570  25.037  1.00  0.00    -0.444 OA
BRANCH  23  24
ATOM     24  C   UNL A   1      30.657  28.727  23.656  1.00  0.00     0.106 C 
ATOM     25  C   UNL A   1      29.987  27.385  23.325  1.00  0.00     0.056 C 
ATOM     26  C   UNL A   1      31.873  28.920  22.751  1.00  0.00     0.056 C 
ATOM     27  C   UNL A   1      29.630  29.850  23.490  1.00  0.00     0.056 C 
ENDBRANCH  23  24
ENDBRANCH  20  23
ENDBRANCH  14  19
ENDBRANCH   7  13
ENDBRANCH   3   6
ENDBRANCH   1   2
BRANCH   1  28
ATOM     28  C   UNL A   1      37.611  19.736  25.001  1.00  0.00     0.042 C 
BRANCH  28  29
ATOM     29  C   UNL A   1      38.824  20.236  25.753  1.00  0.00     0.118 C 
BRANCH  29  30
ATOM     30  N   UNL A   1      39.994  19.357  25.751  1.00  0.00    -0.352 N 
ATOM     31  C   UNL A   1      41.303  19.551  26.139  1.00  0.00     0.251 C 
ATOM     32  H   UNL A   1      39.811  18.454  25.405  1.00  0.00     0.163 HD
ATOM     33  O   UNL A   1      42.090  18.611  26.080  1.00  0.00    -0.269 OA
BRANCH  31  34
ATOM     34  C   UNL A   1      41.783  20.876  26.589  1.00  0.00     0.039 A 
ATOM     35  C   UNL A   1      42.121  21.857  25.649  1.00  0.00     0.014 A 
ATOM     36  C   UNL A   1      41.899  21.167  27.943  1.00  0.00     0.014 A 
ATOM     37  C   UNL A   1      42.486  23.138  26.079  1.00  0.00     0.010 A 
ATOM     38  C   UNL A   1      42.074  22.473  28.363  1.00  0.00     0.010 A 
ATOM     39  C   UNL A   1      42.432  23.462  27.441  1.00  0.00    -0.014 A 
BRANCH  39  40
ATOM     40  C   UNL A   1      42.879  24.770  27.976  1.00  0.00     0.031 A 
ATOM     41  C   UNL A   1      41.841  25.832  28.247  1.00  0.00     0.074 A 
ATOM     42  C   UNL A   1      44.189  25.034  28.136  1.00  0.00     0.049 A 
ATOM     43  N   UNL A   1      42.000  27.088  28.575  1.00  0.00    -0.248 NA
ATOM     44  C   UNL A   1      40.431  25.440  28.065  1.00  0.00     0.031 C 
ATOM     45  C   UNL A   1      45.286  24.105  27.858  1.00  0.00     0.029 A 
ATOM     46  N   UNL A   1      44.818  26.174  28.563  1.00  0.00    -0.354 N 
ATOM     47  C   UNL A   1      40.721  27.631  28.598  1.00  0.00     0.074 A 
ATOM     48  C   UNL A   1      39.809  26.603  28.159  1.00  0.00     0.031 C 
ATOM     49  C   UNL A   1      46.452  24.702  28.156  1.00  0.00     0.029 A 
ATOM     50  C   UNL A   1      46.187  26.064  28.608  1.00  0.00     0.049 A 
ATOM     51  H   UNL A   1      44.335  26.993  28.817  1.00  0.00     0.167 HD
ATOM     52  C   UNL A   1      40.331  28.864  28.997  1.00  0.00     0.037 A 
ATOM     53  C   UNL A   1      47.114  26.968  28.975  1.00  0.00     0.037 A 
ATOM     54  C   UNL A   1      41.241  29.862  29.486  1.00  0.00     0.049 A 
ATOM     55  C   UNL A   1      46.657  28.325  29.437  1.00  0.00     0.074 A 
ATOM     56  C   UNL A   1      40.961  31.125  29.970  1.00  0.00     0.029 A 
ATOM     57  N   UNL A   1      42.617  29.696  29.561  1.00  0.00    -0.354 N 
ATOM     58  N   UNL A   1      45.441  28.812  29.509  1.00  0.00    -0.248 NA
ATOM     59  C   UNL A   1      47.703  29.253  29.888  1.00  0.00     0.031 C 
ATOM     60  C   UNL A   1      42.173  31.742  30.296  1.00  0.00     0.029 A 
ATOM     61  C   UNL A   1      43.201  30.839  30.074  1.00  0.00     0.049 A 
ATOM     62  H   UNL A   1      43.104  28.884  29.288  1.00  0.00     0.167 HD
ATOM     63  C   UNL A   1      45.570  30.085  30.051  1.00  0.00     0.074 A 
ATOM     64  C   UNL A   1      46.983  30.286  30.300  1.00  0.00     0.031 C 
ATOM     65  C   UNL A   1      44.611  31.005  30.324  1.00  0.00     0.037 A 
BRANCH  52  66
ATOM     66  C   UNL A   1      38.862  29.181  28.927  1.00  0.00     0.057 A 
ATOM     67  C   UNL A   1      38.024  29.080  30.047  1.00  0.00     0.134 A 
ATOM     68  C   UNL A   1      38.275  29.584  27.721  1.00  0.00     0.134 A 
ATOM     69  F   UNL A   1      38.514  28.681  31.231  1.00  0.00    -0.206 F 
ATOM     70  C   UNL A   1      36.652  29.328  29.962  1.00  0.00     0.040 A 
ATOM     71  C   UNL A   1      36.911  29.869  27.632  1.00  0.00     0.040 A 
ATOM     72  F   UNL A   1      39.015  29.703  26.608  1.00  0.00    -0.206 F 
ATOM     73  C   UNL A   1      36.094  29.731  28.751  1.00  0.00     0.006 A 
ENDBRANCH  52  66
BRANCH  53  74
ATOM     74  C   UNL A   1      48.555  26.606  28.971  1.00  0.00     0.057 A 
ATOM     75  C   UNL A   1      49.148  25.987  30.079  1.00  0.00     0.134 A 
ATOM     76  C   UNL A   1      49.378  26.876  27.871  1.00  0.00     0.134 A 
ATOM     77  F   UNL A   1      48.418  25.713  31.170  1.00  0.00    -0.206 F 
ATOM     78  C   UNL A   1      50.509  25.678  30.107  1.00  0.00     0.040 A 
ATOM     79  C   UNL A   1      50.735  26.547  27.874  1.00  0.00     0.040 A 
ATOM     80  F   UNL A   1      48.872  27.455  26.772  1.00  0.00    -0.206 F 
ATOM     81  C   UNL A   1      51.306  25.955  28.998  1.00  0.00     0.006 A 
ENDBRANCH  53  74
BRANCH  65  82
ATOM     82  C   UNL A   1      45.055  32.280  30.981  1.00  0.00     0.057 A 
ATOM     83  C   UNL A   1      45.103  32.426  32.372  1.00  0.00     0.134 A 
ATOM     84  C   UNL A   1      45.460  33.371  30.201  1.00  0.00     0.134 A 
ATOM     85  F   UNL A   1      44.721  31.421  33.176  1.00  0.00    -0.206 F 
ATOM     86  C   UNL A   1      45.498  33.627  32.965  1.00  0.00     0.040 A 
ATOM     87  C   UNL A   1      45.891  34.564  30.782  1.00  0.00     0.040 A 
ATOM     88  F   UNL A   1      45.454  33.293  28.861  1.00  0.00    -0.206 F 
ATOM     89  C   UNL A   1      45.898  34.697  32.168  1.00  0.00     0.006 A 
ENDBRANCH  65  82
ENDBRANCH  39  40
ENDBRANCH  31  34
ENDBRANCH  29  30
ENDBRANCH  28  29
ENDBRANCH   1  28
TORSDOF 14
ENDMDL
MODEL 3
REMARK VINA RESULT:     -11.7      3.806      7.490
REMARK SMILES CC(C)(C)OC(=O)Nc1ccc(-c2cccc(Cl)c2C(=O)NCCCNC(=O)c2ccc(-c3c4nc(c(-c5c(F)cccc5F)c5ccc([nH]5)c(-c5c(F)cccc5F)c5nc(c(-c6c(F)cccc6F)c6ccc3[nH]6)C=C5)C=C4)cc2)cc1
REMARK SMILES IDX 23 1 22 2 20 3 21 4 19 6 13 7 14 8 15 9 17 10 16 11 18 12
REMARK SMILES IDX 12 13 9 14 10 15 84 16 11 17 83 18 8 19 6 20 7 21 5 23 2 24
REMARK SMILES IDX 1 25 3 26 4 27 24 28 25 29 26 30 27 31 28 33 29 34 30 35
REMARK SMILES IDX 82 36 31 37 81 38 32 39 33 40 34 41 75 42 35 43 80 44 74 45
REMARK SMILES IDX 76 46 36 47 79 48 73 49 72 50 37 52 63 53 46 54 62 55 47 56
REMARK SMILES IDX 50 57 61 58 77 59 48 60 49 61 60 63 78 64 51 65 38 66 39 67
REMARK SMILES IDX 44 68 40 69 41 70 43 71 45 72 42 73 64 74 65 75 70 76 66 77
REMARK SMILES IDX 67 78 69 79 71 80 68 81 52 82 53 83 58 84 54 85 55 86 57 87
REMARK SMILES IDX 59 88 56 89
REMARK H PARENT 22 5 8 22 26 32 76 51 50 62
REMARK Flexibility Score: inf
ROOT
ATOM      1  C   UNL A   1      31.564  30.173  26.017  1.00  0.00     0.118 C 
ENDROOT
BRANCH   1   2
ATOM      2  N   UNL A   1      32.543  29.709  25.088  1.00  0.00    -0.352 N 
ATOM      3  C   UNL A   1      32.226  29.023  23.925  1.00  0.00     0.253 C 
ATOM      4  O   UNL A   1      32.895  29.308  22.928  1.00  0.00    -0.269 OA
ATOM      5  H   UNL A   1      33.492  29.885  25.283  1.00  0.00     0.163 HD
BRANCH   3   6
ATOM      6  C   UNL A   1      31.216  27.900  23.817  1.00  0.00     0.066 A 
ATOM      7  C   UNL A   1      31.395  26.514  24.134  1.00  0.00    -0.004 A 
ATOM      8  C   UNL A   1      30.259  25.665  24.152  1.00  0.00     0.009 A 
ATOM      9  C   UNL A   1      28.981  26.125  23.865  1.00  0.00     0.002 A 
ATOM     10  C   UNL A   1      29.903  28.326  23.475  1.00  0.00     0.054 A 
ATOM     11  C   UNL A   1      28.807  27.452  23.512  1.00  0.00     0.021 A 
ATOM     12  Cl  UNL A   1      29.528  29.924  22.893  1.00  0.00    -0.083 Cl
BRANCH   7  13
ATOM     13  C   UNL A   1      32.669  25.807  24.371  1.00  0.00    -0.017 A 
ATOM     14  C   UNL A   1      34.857  24.074  24.890  1.00  0.00     0.044 A 
ATOM     15  C   UNL A   1      34.060  24.533  25.939  1.00  0.00     0.027 A 
ATOM     16  C   UNL A   1      34.610  24.569  23.602  1.00  0.00     0.027 A 
ATOM     17  C   UNL A   1      32.999  25.411  25.688  1.00  0.00     0.011 A 
ATOM     18  C   UNL A   1      33.531  25.432  23.342  1.00  0.00     0.011 A 
BRANCH  14  19
ATOM     19  N   UNL A   1      35.814  23.094  25.212  1.00  0.00    -0.291 N 
ATOM     20  C   UNL A   1      35.823  21.739  25.000  1.00  0.00     0.412 C 
ATOM     21  O   UNL A   1      36.758  21.057  25.396  1.00  0.00    -0.224 OA
ATOM     22  H   UNL A   1      36.614  23.440  25.670  1.00  0.00     0.173 HD
BRANCH  20  23
ATOM     23  O   UNL A   1      34.790  21.304  24.254  1.00  0.00    -0.444 OA
BRANCH  23  24
ATOM     24  C   UNL A   1      33.720  20.497  24.791  1.00  0.00     0.106 C 
ATOM     25  C   UNL A   1      32.519  20.874  23.909  1.00  0.00     0.056 C 
ATOM     26  C   UNL A   1      33.415  20.868  26.241  1.00  0.00     0.056 C 
ATOM     27  C   UNL A   1      34.008  19.003  24.625  1.00  0.00     0.056 C 
ENDBRANCH  23  24
ENDBRANCH  20  23
ENDBRANCH  14  19
ENDBRANCH   7  13
ENDBRANCH   3   6
ENDBRANCH   1   2
BRANCH   1  28
ATOM     28  C   UNL A   1      31.354  31.643  26.241  1.00  0.00     0.042 C 
BRANCH  28  29
ATOM     29  C   UNL A   1      32.564  32.441  26.674  1.00  0.00     0.118 C 
BRANCH  29  30
ATOM     30  N   UNL A   1      32.294  33.696  27.375  1.00  0.00    -0.352 N 
ATOM     31  C   UNL A   1      32.974  34.372  28.366  1.00  0.00     0.251 C 
ATOM     32  H   UNL A   1      31.467  34.144  27.084  1.00  0.00     0.163 HD
ATOM     33  O   UNL A   1      32.547  35.456  28.752  1.00  0.00    -0.269 OA
BRANCH  31  34
ATOM     34  C   UNL A   1      34.184  33.798  28.997  1.00  0.00     0.039 A 
ATOM     35  C   UNL A   1      35.440  34.365  28.750  1.00  0.00     0.014 A 
ATOM     36  C   UNL A   1      34.090  32.702  29.844  1.00  0.00     0.014 A 
ATOM     37  C   UNL A   1      36.569  33.878  29.420  1.00  0.00     0.010 A 
ATOM     38  C   UNL A   1      35.161  32.344  30.644  1.00  0.00     0.010 A 
ATOM     39  C   UNL A   1      36.427  32.884  30.397  1.00  0.00    -0.014 A 
BRANCH  39  40
ATOM     40  C   UNL A   1      37.583  32.265  31.089  1.00  0.00     0.031 A 
ATOM     41  C   UNL A   1      38.342  31.166  30.386  1.00  0.00     0.074 A 
ATOM     42  C   UNL A   1      37.897  32.619  32.349  1.00  0.00     0.049 A 
ATOM     43  N   UNL A   1      39.286  30.383  30.841  1.00  0.00    -0.248 NA
ATOM     44  C   UNL A   1      37.939  30.867  29.000  1.00  0.00     0.031 C 
ATOM     45  C   UNL A   1      37.204  33.631  33.148  1.00  0.00     0.029 A 
ATOM     46  N   UNL A   1      38.879  32.151  33.183  1.00  0.00    -0.354 N 
ATOM     47  C   UNL A   1      39.554  29.488  29.812  1.00  0.00     0.074 A 
ATOM     48  C   UNL A   1      38.613  29.756  28.752  1.00  0.00     0.031 C 
ATOM     49  C   UNL A   1      37.807  33.733  34.345  1.00  0.00     0.029 A 
ATOM     50  C   UNL A   1      38.899  32.768  34.411  1.00  0.00     0.049 A 
ATOM     51  H   UNL A   1      39.511  31.442  32.926  1.00  0.00     0.167 HD
ATOM     52  C   UNL A   1      40.530  28.553  29.734  1.00  0.00     0.037 A 
ATOM     53  C   UNL A   1      39.715  32.570  35.463  1.00  0.00     0.037 A 
ATOM     54  C   UNL A   1      41.497  28.333  30.773  1.00  0.00     0.049 A 
ATOM     55  C   UNL A   1      40.808  31.543  35.347  1.00  0.00     0.074 A 
ATOM     56  C   UNL A   1      42.566  27.456  30.788  1.00  0.00     0.029 A 
ATOM     57  N   UNL A   1      41.515  29.011  31.983  1.00  0.00    -0.354 N 
ATOM     58  N   UNL A   1      41.089  30.738  34.349  1.00  0.00    -0.248 NA
ATOM     59  C   UNL A   1      41.711  31.409  36.498  1.00  0.00     0.031 C 
ATOM     60  C   UNL A   1      43.204  27.572  32.027  1.00  0.00     0.029 A 
ATOM     61  C   UNL A   1      42.570  28.565  32.757  1.00  0.00     0.049 A 
ATOM     62  H   UNL A   1      40.870  29.707  32.251  1.00  0.00     0.167 HD
ATOM     63  C   UNL A   1      42.223  30.034  34.734  1.00  0.00     0.074 A 
ATOM     64  C   UNL A   1      42.583  30.518  36.051  1.00  0.00     0.031 C 
ATOM     65  C   UNL A   1      42.912  29.076  34.061  1.00  0.00     0.037 A 
BRANCH  52  66
ATOM     66  C   UNL A   1      40.594  27.723  28.482  1.00  0.00     0.057 A 
ATOM     67  C   UNL A   1      39.935  26.489  28.372  1.00  0.00     0.134 A 
ATOM     68  C   UNL A   1      41.331  28.157  27.374  1.00  0.00     0.134 A 
ATOM     69  F   UNL A   1      39.225  26.002  29.401  1.00  0.00    -0.206 F 
ATOM     70  C   UNL A   1      40.040  25.701  27.224  1.00  0.00     0.040 A 
ATOM     71  C   UNL A   1      41.415  27.394  26.208  1.00  0.00     0.040 A 
ATOM     72  F   UNL A   1      41.987  29.326  27.407  1.00  0.00    -0.206 F 
ATOM     73  C   UNL A   1      40.777  26.158  26.135  1.00  0.00     0.006 A 
ENDBRANCH  52  66
BRANCH  53  74
ATOM     74  C   UNL A   1      39.563  33.391  36.692  1.00  0.00     0.057 A 
ATOM     75  C   UNL A   1      38.715  32.986  37.731  1.00  0.00     0.134 A 
ATOM     76  C   UNL A   1      40.248  34.600  36.857  1.00  0.00     0.134 A 
ATOM     77  F   UNL A   1      38.020  31.844  37.629  1.00  0.00    -0.206 F 
ATOM     78  C   UNL A   1      38.531  33.766  38.874  1.00  0.00     0.040 A 
ATOM     79  C   UNL A   1      40.095  35.378  38.008  1.00  0.00     0.040 A 
ATOM     80  F   UNL A   1      41.086  35.040  35.907  1.00  0.00    -0.206 F 
ATOM     81  C   UNL A   1      39.226  34.965  39.016  1.00  0.00     0.006 A 
ENDBRANCH  53  74
BRANCH  65  82
ATOM     82  C   UNL A   1      44.153  28.543  34.714  1.00  0.00     0.057 A 
ATOM     83  C   UNL A   1      45.408  29.136  34.530  1.00  0.00     0.134 A 
ATOM     84  C   UNL A   1      44.083  27.426  35.557  1.00  0.00     0.134 A 
ATOM     85  F   UNL A   1      45.546  30.204  33.728  1.00  0.00    -0.206 F 
ATOM     86  C   UNL A   1      46.556  28.612  35.127  1.00  0.00     0.040 A 
ATOM     87  C   UNL A   1      45.217  26.915  36.189  1.00  0.00     0.040 A 
ATOM     88  F   UNL A   1      42.909  26.819  35.789  1.00  0.00    -0.206 F 
ATOM     89  C   UNL A   1      46.460  27.502  35.963  1.00  0.00     0.006 A 
ENDBRANCH  65  82
ENDBRANCH  39  40
ENDBRANCH  31  34
ENDBRANCH  29  30
ENDBRANCH  28  29
ENDBRANCH   1  28
TORSDOF 14
ENDMDL
