MODEL 1
REMARK VINA RESULT:     -11.6      0.000      0.000
REMARK SMILES Cc1csc([C@H](C)Nc2cc(C)c(N)c(C(=O)NCCCNC(=O)c3ccc(-c4c5nc(c(-c6c(F)cccc6F)c6ccc([nH]6)c(-c6c(F)cccc6F)c6nc(c(-c7c(F)cccc7F)c7ccc4[nH]7)C=C6)C=C5)cc3)c2)n1
REMARK SMILES IDX 19 1 18 2 16 3 17 4 15 6 9 7 10 8 79 9 11 10 12 11 13 12
REMARK SMILES IDX 8 13 6 15 7 16 5 17 1 18 2 19 3 20 80 21 4 22 14 23 20 26
REMARK SMILES IDX 21 27 22 28 23 29 24 31 25 32 26 33 78 34 27 35 77 36 28 37
REMARK SMILES IDX 29 38 30 39 71 40 31 41 76 42 70 43 72 44 32 45 75 46 69 47
REMARK SMILES IDX 68 48 33 50 59 51 42 52 58 53 43 54 46 55 57 56 73 57 44 58
REMARK SMILES IDX 45 59 56 61 74 62 47 63 34 64 35 65 40 66 36 67 37 68 39 69
REMARK SMILES IDX 41 70 38 71 60 72 61 73 66 74 62 75 63 76 65 77 67 78 64 79
REMARK SMILES IDX 48 80 49 81 54 82 50 83 51 84 53 85 55 86 52 87
REMARK H PARENT 18 5 8 14 14 24 14 25 22 30 72 49 46 60
REMARK Flexibility Score: inf
ROOT
ATOM      1  C   UNL A   1      31.683  30.389  26.579  1.00  0.00     0.118 C 
ENDROOT
BRANCH   1   2
ATOM      2  N   UNL A   1      32.502  30.086  25.420  1.00  0.00    -0.352 N 
ATOM      3  C   UNL A   1      32.343  29.258  24.334  1.00  0.00     0.253 C 
ATOM      4  O   UNL A   1      33.275  29.258  23.523  1.00  0.00    -0.269 OA
ATOM      5  H   UNL A   1      33.355  30.579  25.408  1.00  0.00     0.163 HD
BRANCH   3   6
ATOM      6  C   UNL A   1      31.131  28.409  24.078  1.00  0.00     0.065 A 
ATOM      7  C   UNL A   1      30.021  26.222  24.072  1.00  0.00     0.036 A 
ATOM      8  C   UNL A   1      28.844  26.831  23.654  1.00  0.00     0.031 A 
ATOM      9  C   UNL A   1      31.149  27.022  24.263  1.00  0.00     0.041 A 
ATOM     10  C   UNL A   1      28.795  28.212  23.388  1.00  0.00    -0.025 A 
ATOM     11  C   UNL A   1      27.497  28.810  22.912  1.00  0.00     0.046 C 
ATOM     12  C   UNL A   1      29.945  29.012  23.583  1.00  0.00     0.047 A 
BRANCH   7  13
ATOM     13  N   UNL A   1      30.084  24.906  24.508  1.00  0.00    -0.376 N 
ATOM     14  H   UNL A   1      29.431  24.257  24.159  1.00  0.00     0.161 HD
BRANCH  13  15
ATOM     15  C   UNL A   1      31.093  24.449  25.476  1.00  0.00     0.135 C 
ATOM     16  C   UNL A   1      30.294  23.914  26.675  1.00  0.00     0.039 C 
BRANCH  15  17
ATOM     17  C   UNL A   1      32.056  23.407  24.904  1.00  0.00     0.115 A 
ATOM     18  C   UNL A   1      32.668  19.970  23.990  1.00  0.00     0.067 C 
ATOM     19  C   UNL A   1      32.821  21.429  24.226  1.00  0.00     0.049 A 
ATOM     20  C   UNL A   1      33.913  22.207  23.903  1.00  0.00     0.090 A 
ATOM     21  N   UNL A   1      31.777  22.118  24.821  1.00  0.00    -0.244 NA
ATOM     22  S   UNL A   1      33.598  23.847  24.270  1.00  0.00    -0.125 S 
ENDBRANCH  15  17
ENDBRANCH  13  15
ENDBRANCH   7  13
BRANCH  12  23
ATOM     23  N   UNL A   1      29.842  30.403  23.446  1.00  0.00    -0.398 N 
ATOM     24  H   UNL A   1      28.955  30.829  23.405  1.00  0.00     0.156 HD
ATOM     25  H   UNL A   1      30.656  30.954  23.387  1.00  0.00     0.156 HD
ENDBRANCH  12  23
ENDBRANCH   3   6
ENDBRANCH   1   2
BRANCH   1  26
ATOM     26  C   UNL A   1      31.481  31.899  26.729  1.00  0.00     0.042 C 
BRANCH  26  27
ATOM     27  C   UNL A   1      32.786  32.675  26.883  1.00  0.00     0.118 C 
BRANCH  27  28
ATOM     28  N   UNL A   1      32.579  33.965  27.525  1.00  0.00    -0.352 N 
ATOM     29  C   UNL A   1      33.176  34.506  28.635  1.00  0.00     0.251 C 
ATOM     30  H   UNL A   1      31.906  34.539  27.095  1.00  0.00     0.163 HD
ATOM     31  O   UNL A   1      32.699  35.516  29.145  1.00  0.00    -0.269 OA
BRANCH  29  32
ATOM     32  C   UNL A   1      34.382  33.888  29.229  1.00  0.00     0.039 A 
ATOM     33  C   UNL A   1      34.215  32.888  30.193  1.00  0.00     0.014 A 
ATOM     34  C   UNL A   1      35.667  34.327  28.897  1.00  0.00     0.014 A 
ATOM     35  C   UNL A   1      35.332  32.299  30.789  1.00  0.00     0.010 A 
ATOM     36  C   UNL A   1      36.782  33.696  29.446  1.00  0.00     0.010 A 
ATOM     37  C   UNL A   1      36.626  32.682  30.403  1.00  0.00    -0.014 A 
BRANCH  37  38
ATOM     38  C   UNL A   1      37.826  32.035  30.991  1.00  0.00     0.031 A 
ATOM     39  C   UNL A   1      38.534  30.933  30.253  1.00  0.00     0.074 A 
ATOM     40  C   UNL A   1      38.241  32.399  32.220  1.00  0.00     0.049 A 
ATOM     41  N   UNL A   1      39.549  30.199  30.636  1.00  0.00    -0.248 NA
ATOM     42  C   UNL A   1      38.019  30.595  28.916  1.00  0.00     0.031 C 
ATOM     43  C   UNL A   1      37.613  33.425  33.055  1.00  0.00     0.029 A 
ATOM     44  N   UNL A   1      39.281  31.938  32.986  1.00  0.00    -0.354 N 
ATOM     45  C   UNL A   1      39.780  29.303  29.600  1.00  0.00     0.074 A 
ATOM     46  C   UNL A   1      38.774  29.556  28.591  1.00  0.00     0.031 C 
ATOM     47  C   UNL A   1      38.291  33.526  34.209  1.00  0.00     0.029 A 
ATOM     48  C   UNL A   1      39.377  32.551  34.211  1.00  0.00     0.049 A 
ATOM     49  H   UNL A   1      39.900  31.233  32.687  1.00  0.00     0.167 HD
ATOM     50  C   UNL A   1      40.753  28.367  29.492  1.00  0.00     0.037 A 
ATOM     51  C   UNL A   1      40.237  32.346  35.225  1.00  0.00     0.037 A 
ATOM     52  C   UNL A   1      41.769  28.136  30.485  1.00  0.00     0.049 A 
ATOM     53  C   UNL A   1      41.312  31.306  35.078  1.00  0.00     0.074 A 
ATOM     54  C   UNL A   1      42.833  27.253  30.442  1.00  0.00     0.029 A 
ATOM     55  N   UNL A   1      41.846  28.796  31.702  1.00  0.00    -0.354 N 
ATOM     56  N   UNL A   1      41.555  30.506  34.069  1.00  0.00    -0.248 NA
ATOM     57  C   UNL A   1      42.236  31.144  36.210  1.00  0.00     0.031 C 
ATOM     58  C   UNL A   1      43.534  27.352  31.650  1.00  0.00     0.029 A 
ATOM     59  C   UNL A   1      42.931  28.328  32.426  1.00  0.00     0.049 A 
ATOM     60  H   UNL A   1      41.223  29.495  32.007  1.00  0.00     0.167 HD
ATOM     61  C   UNL A   1      42.672  29.766  34.429  1.00  0.00     0.074 A 
ATOM     62  C   UNL A   1      43.068  30.220  35.748  1.00  0.00     0.031 C 
ATOM     63  C   UNL A   1      43.314  28.797  33.732  1.00  0.00     0.037 A 
BRANCH  50  64
ATOM     64  C   UNL A   1      40.766  27.523  28.251  1.00  0.00     0.057 A 
ATOM     65  C   UNL A   1      41.506  27.888  27.117  1.00  0.00     0.134 A 
ATOM     66  C   UNL A   1      40.059  26.316  28.198  1.00  0.00     0.134 A 
ATOM     67  F   UNL A   1      42.197  29.037  27.099  1.00  0.00    -0.206 F 
ATOM     68  C   UNL A   1      41.520  27.096  25.968  1.00  0.00     0.040 A 
ATOM     69  C   UNL A   1      40.085  25.503  27.063  1.00  0.00     0.040 A 
ATOM     70  F   UNL A   1      39.336  25.903  29.250  1.00  0.00    -0.206 F 
ATOM     71  C   UNL A   1      40.813  25.896  25.941  1.00  0.00     0.006 A 
ENDBRANCH  50  64
BRANCH  51  72
ATOM     72  C   UNL A   1      40.133  33.160  36.461  1.00  0.00     0.057 A 
ATOM     73  C   UNL A   1      40.921  34.303  36.638  1.00  0.00     0.134 A 
ATOM     74  C   UNL A   1      39.244  32.823  37.488  1.00  0.00     0.134 A 
ATOM     75  F   UNL A   1      41.804  34.666  35.695  1.00  0.00    -0.206 F 
ATOM     76  C   UNL A   1      40.842  35.073  37.800  1.00  0.00     0.040 A 
ATOM     77  C   UNL A   1      39.138  33.596  38.645  1.00  0.00     0.040 A 
ATOM     78  F   UNL A   1      38.455  31.745  37.375  1.00  0.00    -0.206 F 
ATOM     79  C   UNL A   1      39.944  34.722  38.805  1.00  0.00     0.006 A 
ENDBRANCH  51  72
BRANCH  63  80
ATOM     80  C   UNL A   1      44.530  28.189  34.366  1.00  0.00     0.057 A 
ATOM     81  C   UNL A   1      44.454  27.030  35.148  1.00  0.00     0.134 A 
ATOM     82  C   UNL A   1      45.797  28.747  34.155  1.00  0.00     0.134 A 
ATOM     83  F   UNL A   1      43.267  26.456  35.398  1.00  0.00    -0.206 F 
ATOM     84  C   UNL A   1      45.593  26.459  35.716  1.00  0.00     0.040 A 
ATOM     85  C   UNL A   1      46.946  28.173  34.698  1.00  0.00     0.040 A 
ATOM     86  F   UNL A   1      45.939  29.854  33.409  1.00  0.00    -0.206 F 
ATOM     87  C   UNL A   1      46.846  27.026  35.485  1.00  0.00     0.006 A 
ENDBRANCH  63  80
ENDBRANCH  37  38
ENDBRANCH  29  32
ENDBRANCH  27  28
ENDBRANCH  26  27
ENDBRANCH   1  26
TORSDOF 14
ENDMDL
MODEL 2
REMARK VINA RESULT:     -11.6      0.433      6.281
REMARK SMILES Cc1csc([C@H](C)Nc2cc(C)c(N)c(C(=O)NCCCNC(=O)c3ccc(-c4c5nc(c(-c6c(F)cccc6F)c6ccc([nH]6)c(-c6c(F)cccc6F)c6nc(c(-c7c(F)cccc7F)c7ccc4[nH]7)C=C6)C=C5)cc3)c2)n1
REMARK SMILES IDX 19 1 18 2 16 3 17 4 15 6 9 7 10 8 79 9 11 10 12 11 13 12
REMARK SMILES IDX 8 13 6 15 7 16 5 17 1 18 2 19 3 20 80 21 4 22 14 23 20 26
REMARK SMILES IDX 21 27 22 28 23 29 24 31 25 32 26 33 78 34 27 35 77 36 28 37
REMARK SMILES IDX 29 38 30 39 71 40 31 41 76 42 70 43 72 44 32 45 75 46 69 47
REMARK SMILES IDX 68 48 33 50 59 51 42 52 58 53 43 54 46 55 57 56 73 57 44 58
REMARK SMILES IDX 45 59 56 61 74 62 47 63 34 64 35 65 40 66 36 67 37 68 39 69
REMARK SMILES IDX 41 70 38 71 60 72 61 73 66 74 62 75 63 76 65 77 67 78 64 79
REMARK SMILES IDX 48 80 49 81 54 82 50 83 51 84 53 85 55 86 52 87
REMARK H PARENT 18 5 8 14 14 24 14 25 22 30 72 49 46 60
REMARK Flexibility Score: inf
ROOT
ATOM      1  C   UNL A   1      31.703  30.331  26.736  1.00  0.00     0.118 C 
ENDROOT
BRANCH   1   2
ATOM      2  N   UNL A   1      32.510  30.069  25.558  1.00  0.00    -0.352 N 
ATOM      3  C   UNL A   1      32.314  29.328  24.417  1.00  0.00     0.253 C 
ATOM      4  O   UNL A   1      33.248  29.337  23.609  1.00  0.00    -0.269 OA
ATOM      5  H   UNL A   1      33.387  30.519  25.582  1.00  0.00     0.163 HD
BRANCH   3   6
ATOM      6  C   UNL A   1      31.063  28.560  24.103  1.00  0.00     0.065 A 
ATOM      7  C   UNL A   1      29.819  26.447  24.023  1.00  0.00     0.036 A 
ATOM      8  C   UNL A   1      28.700  27.134  23.568  1.00  0.00     0.031 A 
ATOM      9  C   UNL A   1      30.986  27.172  24.269  1.00  0.00     0.041 A 
ATOM     10  C   UNL A   1      28.748  28.518  23.320  1.00  0.00    -0.025 A 
ATOM     11  C   UNL A   1      27.510  29.203  22.803  1.00  0.00     0.046 C 
ATOM     12  C   UNL A   1      29.938  29.242  23.571  1.00  0.00     0.047 A 
BRANCH   7  13
ATOM     13  N   UNL A   1      29.783  25.125  24.442  1.00  0.00    -0.376 N 
ATOM     14  H   UNL A   1      29.000  24.574  24.211  1.00  0.00     0.161 HD
BRANCH  13  15
ATOM     15  C   UNL A   1      30.874  24.520  25.222  1.00  0.00     0.135 C 
ATOM     16  C   UNL A   1      30.209  23.972  26.495  1.00  0.00     0.039 C 
BRANCH  15  17
ATOM     17  C   UNL A   1      31.643  23.444  24.456  1.00  0.00     0.115 A 
ATOM     18  C   UNL A   1      32.591  19.974  24.157  1.00  0.00     0.067 C 
ATOM     19  C   UNL A   1      32.448  21.435  23.929  1.00  0.00     0.049 A 
ATOM     20  C   UNL A   1      32.966  22.159  22.875  1.00  0.00     0.090 A 
ATOM     21  N   UNL A   1      31.717  22.181  24.839  1.00  0.00    -0.244 NA
ATOM     22  S   UNL A   1      32.459  23.790  22.976  1.00  0.00    -0.125 S 
ENDBRANCH  15  17
ENDBRANCH  13  15
ENDBRANCH   7  13
BRANCH  12  23
ATOM     23  N   UNL A   1      29.927  30.638  23.449  1.00  0.00    -0.398 N 
ATOM     24  H   UNL A   1      30.303  31.198  24.166  1.00  0.00     0.156 HD
ATOM     25  H   UNL A   1      29.541  31.059  22.647  1.00  0.00     0.156 HD
ENDBRANCH  12  23
ENDBRANCH   3   6
ENDBRANCH   1   2
BRANCH   1  26
ATOM     26  C   UNL A   1      31.431  31.830  26.892  1.00  0.00     0.042 C 
BRANCH  26  27
ATOM     27  C   UNL A   1      32.678  32.695  26.724  1.00  0.00     0.118 C 
BRANCH  27  28
ATOM     28  N   UNL A   1      32.538  33.984  27.384  1.00  0.00    -0.352 N 
ATOM     29  C   UNL A   1      33.164  34.479  28.500  1.00  0.00     0.251 C 
ATOM     30  H   UNL A   1      31.894  34.597  26.964  1.00  0.00     0.163 HD
ATOM     31  O   UNL A   1      32.740  35.504  29.025  1.00  0.00    -0.269 OA
BRANCH  29  32
ATOM     32  C   UNL A   1      34.338  33.792  29.082  1.00  0.00     0.039 A 
ATOM     33  C   UNL A   1      34.121  32.721  29.956  1.00  0.00     0.014 A 
ATOM     34  C   UNL A   1      35.640  34.231  28.829  1.00  0.00     0.014 A 
ATOM     35  C   UNL A   1      35.207  32.064  30.539  1.00  0.00     0.010 A 
ATOM     36  C   UNL A   1      36.726  33.536  29.363  1.00  0.00     0.010 A 
ATOM     37  C   UNL A   1      36.520  32.452  30.229  1.00  0.00    -0.014 A 
BRANCH  37  38
ATOM     38  C   UNL A   1      37.687  31.738  30.803  1.00  0.00     0.031 A 
ATOM     39  C   UNL A   1      38.196  32.093  32.172  1.00  0.00     0.074 A 
ATOM     40  C   UNL A   1      38.328  30.811  30.065  1.00  0.00     0.049 A 
ATOM     41  N   UNL A   1      39.244  31.636  32.811  1.00  0.00    -0.248 NA
ATOM     42  C   UNL A   1      37.441  33.116  32.915  1.00  0.00     0.031 C 
ATOM     43  C   UNL A   1      37.957  30.408  28.707  1.00  0.00     0.029 A 
ATOM     44  N   UNL A   1      39.433  30.049  30.348  1.00  0.00    -0.354 N 
ATOM     45  C   UNL A   1      39.285  32.325  34.015  1.00  0.00     0.074 A 
ATOM     46  C   UNL A   1      38.183  33.263  34.003  1.00  0.00     0.031 C 
ATOM     47  C   UNL A   1      38.810  29.462  28.283  1.00  0.00     0.029 A 
ATOM     48  C   UNL A   1      39.806  29.217  29.321  1.00  0.00     0.049 A 
ATOM     49  H   UNL A   1      39.915  30.095  31.205  1.00  0.00     0.167 HD
ATOM     50  C   UNL A   1      40.151  32.179  35.047  1.00  0.00     0.037 A 
ATOM     51  C   UNL A   1      40.838  28.359  29.224  1.00  0.00     0.037 A 
ATOM     52  C   UNL A   1      41.231  31.227  35.068  1.00  0.00     0.049 A 
ATOM     53  C   UNL A   1      41.781  28.209  30.383  1.00  0.00     0.074 A 
ATOM     54  C   UNL A   1      42.126  30.960  36.089  1.00  0.00     0.029 A 
ATOM     55  N   UNL A   1      41.560  30.384  34.018  1.00  0.00    -0.354 N 
ATOM     56  N   UNL A   1      41.773  28.826  31.540  1.00  0.00    -0.248 NA
ATOM     57  C   UNL A   1      42.875  27.240  30.227  1.00  0.00     0.031 C 
ATOM     58  C   UNL A   1      43.020  29.981  35.642  1.00  0.00     0.029 A 
ATOM     59  C   UNL A   1      42.655  29.607  34.360  1.00  0.00     0.049 A 
ATOM     60  H   UNL A   1      41.085  30.342  33.156  1.00  0.00     0.167 HD
ATOM     61  C   UNL A   1      42.839  28.303  32.259  1.00  0.00     0.074 A 
ATOM     62  C   UNL A   1      43.467  27.308  31.412  1.00  0.00     0.031 C 
ATOM     63  C   UNL A   1      43.261  28.617  33.508  1.00  0.00     0.037 A 
BRANCH  50  64
ATOM     64  C   UNL A   1      39.963  33.069  36.240  1.00  0.00     0.057 A 
ATOM     65  C   UNL A   1      40.654  34.281  36.374  1.00  0.00     0.134 A 
ATOM     66  C   UNL A   1      39.057  32.729  37.253  1.00  0.00     0.134 A 
ATOM     67  F   UNL A   1      41.545  34.660  35.445  1.00  0.00    -0.206 F 
ATOM     68  C   UNL A   1      40.471  35.108  37.483  1.00  0.00     0.040 A 
ATOM     69  C   UNL A   1      38.846  33.560  38.354  1.00  0.00     0.040 A 
ATOM     70  F   UNL A   1      38.357  31.586  37.185  1.00  0.00    -0.206 F 
ATOM     71  C   UNL A   1      39.559  34.752  38.474  1.00  0.00     0.006 A 
ENDBRANCH  50  64
BRANCH  51  72
ATOM     72  C   UNL A   1      41.018  27.555  27.990  1.00  0.00     0.057 A 
ATOM     73  C   UNL A   1      40.445  26.284  27.868  1.00  0.00     0.134 A 
ATOM     74  C   UNL A   1      41.760  28.036  26.904  1.00  0.00     0.134 A 
ATOM     75  F   UNL A   1      39.739  25.764  28.883  1.00  0.00    -0.206 F 
ATOM     76  C   UNL A   1      40.616  25.512  26.718  1.00  0.00     0.040 A 
ATOM     77  C   UNL A   1      41.920  27.285  25.739  1.00  0.00     0.040 A 
ATOM     78  F   UNL A   1      42.327  29.250  26.955  1.00  0.00    -0.206 F 
ATOM     79  C   UNL A   1      41.351  26.016  25.647  1.00  0.00     0.006 A 
ENDBRANCH  51  72
BRANCH  63  80
ATOM     80  C   UNL A   1      44.435  27.854  34.046  1.00  0.00     0.057 A 
ATOM     81  C   UNL A   1      45.745  28.330  33.922  1.00  0.00     0.134 A 
ATOM     82  C   UNL A   1      44.244  26.648  34.733  1.00  0.00     0.134 A 
ATOM     83  F   UNL A   1      45.994  29.472  33.263  1.00  0.00    -0.206 F 
ATOM     84  C   UNL A   1      46.829  27.623  34.445  1.00  0.00     0.040 A 
ATOM     85  C   UNL A   1      45.317  25.944  35.281  1.00  0.00     0.040 A 
ATOM     86  F   UNL A   1      43.012  26.141  34.892  1.00  0.00    -0.206 F 
ATOM     87  C   UNL A   1      46.616  26.430  35.134  1.00  0.00     0.006 A 
ENDBRANCH  63  80
ENDBRANCH  37  38
ENDBRANCH  29  32
ENDBRANCH  27  28
ENDBRANCH  26  27
ENDBRANCH   1  26
TORSDOF 14
ENDMDL
MODEL 3
REMARK VINA RESULT:     -11.5      1.228      2.041
REMARK SMILES Cc1csc([C@H](C)Nc2cc(C)c(N)c(C(=O)NCCCNC(=O)c3ccc(-c4c5nc(c(-c6c(F)cccc6F)c6ccc([nH]6)c(-c6c(F)cccc6F)c6nc(c(-c7c(F)cccc7F)c7ccc4[nH]7)C=C6)C=C5)cc3)c2)n1
REMARK SMILES IDX 19 1 18 2 16 3 17 4 15 6 9 7 10 8 79 9 11 10 12 11 13 12
REMARK SMILES IDX 8 13 6 15 7 16 5 17 1 18 2 19 3 20 80 21 4 22 14 23 20 26
REMARK SMILES IDX 21 27 22 28 23 29 24 31 25 32 26 33 78 34 27 35 77 36 28 37
REMARK SMILES IDX 29 38 30 39 71 40 31 41 76 42 70 43 72 44 32 45 75 46 69 47
REMARK SMILES IDX 68 48 33 50 59 51 42 52 58 53 43 54 46 55 57 56 73 57 44 58
REMARK SMILES IDX 45 59 56 61 74 62 47 63 34 64 35 65 40 66 36 67 37 68 39 69
REMARK SMILES IDX 41 70 38 71 60 72 61 73 66 74 62 75 63 76 65 77 67 78 64 79
REMARK SMILES IDX 48 80 49 81 54 82 50 83 51 84 53 85 55 86 52 87
REMARK H PARENT 18 5 8 14 14 24 14 25 22 30 72 49 46 60
REMARK Flexibility Score: inf
ROOT
ATOM      1  C   UNL A   1      31.638  30.421  26.694  1.00  0.00     0.118 C 
ENDROOT
BRANCH   1   2
ATOM      2  N   UNL A   1      32.483  30.136  25.547  1.00  0.00    -0.352 N 
ATOM      3  C   UNL A   1      32.367  29.293  24.468  1.00  0.00     0.253 C 
ATOM      4  O   UNL A   1      33.309  29.319  23.669  1.00  0.00    -0.269 OA
ATOM      5  H   UNL A   1      33.317  30.660  25.542  1.00  0.00     0.163 HD
BRANCH   3   6
ATOM      6  C   UNL A   1      31.190  28.399  24.206  1.00  0.00     0.065 A 
ATOM      7  C   UNL A   1      30.144  26.181  24.250  1.00  0.00     0.036 A 
ATOM      8  C   UNL A   1      28.966  26.737  23.768  1.00  0.00     0.031 A 
ATOM      9  C   UNL A   1      31.241  27.021  24.447  1.00  0.00     0.041 A 
ATOM     10  C   UNL A   1      28.886  28.104  23.444  1.00  0.00    -0.025 A 
ATOM     11  C   UNL A   1      27.589  28.644  22.901  1.00  0.00     0.046 C 
ATOM     12  C   UNL A   1      30.005  28.946  23.647  1.00  0.00     0.047 A 
BRANCH   7  13
ATOM     13  N   UNL A   1      30.230  24.885  24.740  1.00  0.00    -0.376 N 
ATOM     14  H   UNL A   1      29.653  24.190  24.351  1.00  0.00     0.161 HD
BRANCH  13  15
ATOM     15  C   UNL A   1      31.153  24.518  25.825  1.00  0.00     0.135 C 
ATOM     16  C   UNL A   1      30.383  23.509  26.692  1.00  0.00     0.039 C 
BRANCH  15  17
ATOM     17  C   UNL A   1      32.486  23.960  25.325  1.00  0.00     0.115 A 
ATOM     18  C   UNL A   1      36.073  23.793  25.686  1.00  0.00     0.067 C 
ATOM     19  C   UNL A   1      34.681  23.599  25.207  1.00  0.00     0.049 A 
ATOM     20  C   UNL A   1      34.269  22.775  24.180  1.00  0.00     0.090 A 
ATOM     21  N   UNL A   1      33.659  24.291  25.837  1.00  0.00    -0.244 NA
ATOM     22  S   UNL A   1      32.564  22.798  24.053  1.00  0.00    -0.125 S 
ENDBRANCH  15  17
ENDBRANCH  13  15
ENDBRANCH   7  13
BRANCH  12  23
ATOM     23  N   UNL A   1      29.867  30.326  23.449  1.00  0.00    -0.398 N 
ATOM     24  H   UNL A   1      30.361  30.958  24.021  1.00  0.00     0.156 HD
ATOM     25  H   UNL A   1      29.274  30.665  22.740  1.00  0.00     0.156 HD
ENDBRANCH  12  23
ENDBRANCH   3   6
ENDBRANCH   1   2
BRANCH   1  26
ATOM     26  C   UNL A   1      31.400  31.926  26.841  1.00  0.00     0.042 C 
BRANCH  26  27
ATOM     27  C   UNL A   1      32.689  32.742  26.899  1.00  0.00     0.118 C 
BRANCH  27  28
ATOM     28  N   UNL A   1      32.500  34.009  27.591  1.00  0.00    -0.352 N 
ATOM     29  C   UNL A   1      33.169  34.538  28.665  1.00  0.00     0.251 C 
ATOM     30  H   UNL A   1      31.779  34.573  27.232  1.00  0.00     0.163 HD
ATOM     31  O   UNL A   1      32.707  35.520  29.238  1.00  0.00    -0.269 OA
BRANCH  29  32
ATOM     32  C   UNL A   1      34.435  33.941  29.144  1.00  0.00     0.039 A 
ATOM     33  C   UNL A   1      35.626  34.293  28.498  1.00  0.00     0.014 A 
ATOM     34  C   UNL A   1      34.453  32.995  30.171  1.00  0.00     0.014 A 
ATOM     35  C   UNL A   1      36.836  33.731  28.912  1.00  0.00     0.010 A 
ATOM     36  C   UNL A   1      35.668  32.481  30.624  1.00  0.00     0.010 A 
ATOM     37  C   UNL A   1      36.870  32.838  29.994  1.00  0.00    -0.014 A 
BRANCH  37  38
ATOM     38  C   UNL A   1      38.151  32.265  30.477  1.00  0.00     0.031 A 
ATOM     39  C   UNL A   1      38.677  30.983  29.895  1.00  0.00     0.074 A 
ATOM     40  C   UNL A   1      38.811  32.868  31.485  1.00  0.00     0.049 A 
ATOM     41  N   UNL A   1      39.734  30.290  30.237  1.00  0.00    -0.248 NA
ATOM     42  C   UNL A   1      37.898  30.386  28.798  1.00  0.00     0.031 C 
ATOM     43  C   UNL A   1      38.381  34.094  32.162  1.00  0.00     0.029 A 
ATOM     44  N   UNL A   1      39.975  32.526  32.124  1.00  0.00    -0.354 N 
ATOM     45  C   UNL A   1      39.737  29.172  29.414  1.00  0.00     0.074 A 
ATOM     46  C   UNL A   1      38.554  29.254  28.585  1.00  0.00     0.031 C 
ATOM     47  C   UNL A   1      39.279  34.409  33.109  1.00  0.00     0.029 A 
ATOM     48  C   UNL A   1      40.325  33.391  33.131  1.00  0.00     0.049 A 
ATOM     49  H   UNL A   1      40.509  31.734  31.885  1.00  0.00     0.167 HD
ATOM     50  C   UNL A   1      40.652  28.174  29.343  1.00  0.00     0.037 A 
ATOM     51  C   UNL A   1      41.368  33.365  33.982  1.00  0.00     0.037 A 
ATOM     52  C   UNL A   1      41.842  28.108  30.150  1.00  0.00     0.049 A 
ATOM     53  C   UNL A   1      42.373  32.253  33.879  1.00  0.00     0.074 A 
ATOM     54  C   UNL A   1      42.860  27.172  30.112  1.00  0.00     0.029 A 
ATOM     55  N   UNL A   1      42.174  29.019  31.142  1.00  0.00    -0.354 N 
ATOM     56  N   UNL A   1      42.393  31.232  33.056  1.00  0.00    -0.248 NA
ATOM     57  C   UNL A   1      43.501  32.291  34.819  1.00  0.00     0.031 C 
ATOM     58  C   UNL A   1      43.790  27.495  31.106  1.00  0.00     0.029 A 
ATOM     59  C   UNL A   1      43.373  28.657  31.734  1.00  0.00     0.049 A 
ATOM     60  H   UNL A   1      41.637  29.807  31.389  1.00  0.00     0.167 HD
ATOM     61  C   UNL A   1      43.547  30.522  33.359  1.00  0.00     0.074 A 
ATOM     62  C   UNL A   1      44.207  31.235  34.434  1.00  0.00     0.031 C 
ATOM     63  C   UNL A   1      44.019  29.382  32.797  1.00  0.00     0.037 A 
BRANCH  50  64
ATOM     64  C   UNL A   1      40.401  27.074  28.354  1.00  0.00     0.057 A 
ATOM     65  C   UNL A   1      39.531  26.012  28.636  1.00  0.00     0.134 A 
ATOM     66  C   UNL A   1      41.008  27.093  27.092  1.00  0.00     0.134 A 
ATOM     67  F   UNL A   1      38.926  25.929  29.830  1.00  0.00    -0.206 F 
ATOM     68  C   UNL A   1      39.295  24.995  27.709  1.00  0.00     0.040 A 
ATOM     69  C   UNL A   1      40.761  26.094  26.148  1.00  0.00     0.040 A 
ATOM     70  F   UNL A   1      41.846  28.084  26.753  1.00  0.00    -0.206 F 
ATOM     71  C   UNL A   1      39.907  25.037  26.458  1.00  0.00     0.006 A 
ENDBRANCH  50  64
BRANCH  51  72
ATOM     72  C   UNL A   1      41.528  34.442  34.990  1.00  0.00     0.057 A 
ATOM     73  C   UNL A   1      42.284  35.585  34.708  1.00  0.00     0.134 A 
ATOM     74  C   UNL A   1      40.929  34.358  36.252  1.00  0.00     0.134 A 
ATOM     75  F   UNL A   1      42.896  35.712  33.521  1.00  0.00    -0.206 F 
ATOM     76  C   UNL A   1      42.453  36.601  35.650  1.00  0.00     0.040 A 
ATOM     77  C   UNL A   1      41.071  35.376  37.196  1.00  0.00     0.040 A 
ATOM     78  F   UNL A   1      40.185  33.292  36.580  1.00  0.00    -0.206 F 
ATOM     79  C   UNL A   1      41.840  36.499  36.897  1.00  0.00     0.006 A 
ENDBRANCH  51  72
BRANCH  63  80
ATOM     80  C   UNL A   1      45.326  28.856  33.311  1.00  0.00     0.057 A 
ATOM     81  C   UNL A   1      46.551  29.270  32.775  1.00  0.00     0.134 A 
ATOM     82  C   UNL A   1      45.357  27.954  34.381  1.00  0.00     0.134 A 
ATOM     83  F   UNL A   1      46.587  30.122  31.739  1.00  0.00    -0.206 F 
ATOM     84  C   UNL A   1      47.763  28.791  33.274  1.00  0.00     0.040 A 
ATOM     85  C   UNL A   1      46.563  27.485  34.905  1.00  0.00     0.040 A 
ATOM     86  F   UNL A   1      44.218  27.523  34.944  1.00  0.00    -0.206 F 
ATOM     87  C   UNL A   1      47.771  27.901  34.347  1.00  0.00     0.006 A 
ENDBRANCH  63  80
ENDBRANCH  37  38
ENDBRANCH  29  32
ENDBRANCH  27  28
ENDBRANCH  26  27
ENDBRANCH   1  26
TORSDOF 14
ENDMDL
