MODEL 1
REMARK VINA RESULT:     -12.1      0.000      0.000
REMARK SMILES C[C@@H](Cc1cnn(-c2ccccc2)n1)C(=O)NCCCNC(=O)c1ccc(-c2c3nc(c(-c4c(F)cccc4F)c4ccc([nH]4)c(-c4c(F)cccc4F)c4nc(c(-c5c(F)cccc5F)c5ccc2[nH]5)C=C4)C=C3)cc1
REMARK SMILES IDX 18 1 17 2 15 3 16 4 2 6 1 7 3 8 4 9 5 10 14 11 6 12 7 13
REMARK SMILES IDX 8 14 9 15 13 16 10 17 12 18 11 19 19 20 20 21 21 22 22 23
REMARK SMILES IDX 23 25 24 26 25 27 77 28 26 29 76 30 27 31 28 32 29 33 70 34
REMARK SMILES IDX 30 35 75 36 69 37 71 38 31 39 74 40 68 41 67 42 32 44 58 45
REMARK SMILES IDX 41 46 57 47 42 48 45 49 56 50 72 51 43 52 44 53 55 55 73 56
REMARK SMILES IDX 46 57 33 58 34 59 39 60 35 61 36 62 38 63 40 64 37 65 59 66
REMARK SMILES IDX 60 67 65 68 61 69 62 70 64 71 66 72 63 73 47 74 48 75 53 76
REMARK SMILES IDX 49 77 50 78 52 79 54 80 51 81
REMARK H PARENT 17 5 21 24 71 43 45 54
REMARK Flexibility Score: inf
ROOT
ATOM      1  C   UNL A   1      33.202  29.442  26.372  1.00  0.00     0.117 C 
ENDROOT
BRANCH   1   2
ATOM      2  N   UNL A   1      33.629  29.351  24.989  1.00  0.00    -0.356 N 
ATOM      3  C   UNL A   1      33.554  28.385  24.048  1.00  0.00     0.223 C 
ATOM      4  O   UNL A   1      33.989  28.691  22.930  1.00  0.00    -0.275 OA
ATOM      5  H   UNL A   1      34.068  30.171  24.665  1.00  0.00     0.163 HD
BRANCH   3   6
ATOM      6  C   UNL A   1      33.037  26.968  24.281  1.00  0.00     0.081 C 
ATOM      7  C   UNL A   1      34.062  26.059  24.944  1.00  0.00     0.018 C 
BRANCH   6   8
ATOM      8  C   UNL A   1      31.570  26.816  24.694  1.00  0.00     0.073 C 
BRANCH   8   9
ATOM      9  C   UNL A   1      30.480  27.599  24.039  1.00  0.00     0.084 A 
ATOM     10  C   UNL A   1      29.245  27.094  23.591  1.00  0.00     0.161 A 
ATOM     11  N   UNL A   1      30.497  28.925  23.846  1.00  0.00    -0.153 NA
ATOM     12  N   UNL A   1      28.476  28.080  23.134  1.00  0.00    -0.157 NA
ATOM     13  N   UNL A   1      29.293  29.162  23.244  1.00  0.00    -0.151 N 
BRANCH  13  14
ATOM     14  C   UNL A   1      28.960  30.389  22.604  1.00  0.00     0.086 A 
ATOM     15  C   UNL A   1      28.969  31.577  23.350  1.00  0.00     0.030 A 
ATOM     16  C   UNL A   1      28.534  30.419  21.269  1.00  0.00     0.030 A 
ATOM     17  C   UNL A   1      28.531  32.771  22.774  1.00  0.00     0.002 A 
ATOM     18  C   UNL A   1      28.026  31.604  20.724  1.00  0.00     0.002 A 
ATOM     19  C   UNL A   1      28.031  32.779  21.475  1.00  0.00     0.000 A 
ENDBRANCH  13  14
ENDBRANCH   8   9
ENDBRANCH   6   8
ENDBRANCH   3   6
ENDBRANCH   1   2
BRANCH   1  20
ATOM     20  C   UNL A   1      34.262  28.959  27.350  1.00  0.00     0.042 C 
BRANCH  20  21
ATOM     21  C   UNL A   1      35.350  29.968  27.671  1.00  0.00     0.118 C 
BRANCH  21  22
ATOM     22  N   UNL A   1      35.664  30.156  29.094  1.00  0.00    -0.352 N 
ATOM     23  C   UNL A   1      36.642  29.507  29.851  1.00  0.00     0.251 C 
ATOM     24  H   UNL A   1      35.119  30.821  29.572  1.00  0.00     0.163 HD
ATOM     25  O   UNL A   1      36.599  29.453  31.060  1.00  0.00    -0.269 OA
BRANCH  23  26
ATOM     26  C   UNL A   1      37.753  28.876  29.109  1.00  0.00     0.039 A 
ATOM     27  C   UNL A   1      38.336  29.465  27.983  1.00  0.00     0.014 A 
ATOM     28  C   UNL A   1      38.344  27.798  29.740  1.00  0.00     0.014 A 
ATOM     29  C   UNL A   1      39.618  29.054  27.611  1.00  0.00     0.010 A 
ATOM     30  C   UNL A   1      39.687  27.632  29.556  1.00  0.00     0.010 A 
ATOM     31  C   UNL A   1      40.323  28.178  28.452  1.00  0.00    -0.014 A 
BRANCH  31  32
ATOM     32  C   UNL A   1      41.738  27.866  28.265  1.00  0.00     0.031 A 
ATOM     33  C   UNL A   1      42.045  26.632  27.494  1.00  0.00     0.074 A 
ATOM     34  C   UNL A   1      42.739  28.711  28.606  1.00  0.00     0.049 A 
ATOM     35  N   UNL A   1      42.452  25.503  27.970  1.00  0.00    -0.248 NA
ATOM     36  C   UNL A   1      41.773  26.602  26.049  1.00  0.00     0.031 C 
ATOM     37  C   UNL A   1      42.681  30.101  29.088  1.00  0.00     0.029 A 
ATOM     38  N   UNL A   1      44.078  28.498  28.513  1.00  0.00    -0.354 N 
ATOM     39  C   UNL A   1      42.684  24.673  26.877  1.00  0.00     0.074 A 
ATOM     40  C   UNL A   1      42.092  25.339  25.745  1.00  0.00     0.031 C 
ATOM     41  C   UNL A   1      43.902  30.668  29.011  1.00  0.00     0.029 A 
ATOM     42  C   UNL A   1      44.860  29.629  28.698  1.00  0.00     0.049 A 
ATOM     43  H   UNL A   1      44.464  27.611  28.328  1.00  0.00     0.167 HD
ATOM     44  C   UNL A   1      43.533  23.610  26.970  1.00  0.00     0.037 A 
ATOM     45  C   UNL A   1      46.208  29.708  28.628  1.00  0.00     0.037 A 
ATOM     46  C   UNL A   1      43.870  23.338  28.347  1.00  0.00     0.049 A 
ATOM     47  C   UNL A   1      46.733  28.336  28.828  1.00  0.00     0.074 A 
ATOM     48  C   UNL A   1      43.146  23.018  29.480  1.00  0.00     0.029 A 
ATOM     49  N   UNL A   1      45.092  23.774  28.802  1.00  0.00    -0.354 N 
ATOM     50  N   UNL A   1      46.654  27.691  29.960  1.00  0.00    -0.248 NA
ATOM     51  C   UNL A   1      46.921  27.509  27.648  1.00  0.00     0.031 C 
ATOM     52  C   UNL A   1      43.765  23.761  30.530  1.00  0.00     0.029 A 
ATOM     53  C   UNL A   1      44.872  24.421  29.991  1.00  0.00     0.049 A 
ATOM     54  H   UNL A   1      45.962  23.646  28.359  1.00  0.00     0.167 HD
ATOM     55  C   UNL A   1      46.340  26.388  29.600  1.00  0.00     0.074 A 
ATOM     56  C   UNL A   1      46.611  26.315  28.165  1.00  0.00     0.031 C 
ATOM     57  C   UNL A   1      45.622  25.575  30.431  1.00  0.00     0.037 A 
BRANCH  44  58
ATOM     58  C   UNL A   1      44.348  23.035  25.838  1.00  0.00     0.057 A 
ATOM     59  C   UNL A   1      44.313  21.644  25.607  1.00  0.00     0.134 A 
ATOM     60  C   UNL A   1      45.373  23.726  25.166  1.00  0.00     0.134 A 
ATOM     61  F   UNL A   1      43.386  20.872  26.192  1.00  0.00    -0.206 F 
ATOM     62  C   UNL A   1      45.280  20.985  24.839  1.00  0.00     0.040 A 
ATOM     63  C   UNL A   1      46.314  23.083  24.355  1.00  0.00     0.040 A 
ATOM     64  F   UNL A   1      45.587  25.035  25.339  1.00  0.00    -0.206 F 
ATOM     65  C   UNL A   1      46.291  21.704  24.217  1.00  0.00     0.006 A 
ENDBRANCH  44  58
BRANCH  45  66
ATOM     66  C   UNL A   1      47.038  30.829  28.145  1.00  0.00     0.057 A 
ATOM     67  C   UNL A   1      46.839  31.379  26.874  1.00  0.00     0.134 A 
ATOM     68  C   UNL A   1      47.849  31.569  29.024  1.00  0.00     0.134 A 
ATOM     69  F   UNL A   1      46.060  30.757  25.979  1.00  0.00    -0.206 F 
ATOM     70  C   UNL A   1      47.379  32.618  26.509  1.00  0.00     0.040 A 
ATOM     71  C   UNL A   1      48.398  32.806  28.671  1.00  0.00     0.040 A 
ATOM     72  F   UNL A   1      48.058  31.161  30.285  1.00  0.00    -0.206 F 
ATOM     73  C   UNL A   1      48.147  33.344  27.415  1.00  0.00     0.006 A 
ENDBRANCH  45  66
BRANCH  57  74
ATOM     74  C   UNL A   1      45.393  26.030  31.848  1.00  0.00     0.057 A 
ATOM     75  C   UNL A   1      44.245  26.707  32.288  1.00  0.00     0.134 A 
ATOM     76  C   UNL A   1      46.301  25.630  32.835  1.00  0.00     0.134 A 
ATOM     77  F   UNL A   1      43.268  27.045  31.438  1.00  0.00    -0.206 F 
ATOM     78  C   UNL A   1      44.033  27.007  33.639  1.00  0.00     0.040 A 
ATOM     79  C   UNL A   1      46.087  25.894  34.190  1.00  0.00     0.040 A 
ATOM     80  F   UNL A   1      47.396  24.929  32.500  1.00  0.00    -0.206 F 
ATOM     81  C   UNL A   1      44.954  26.594  34.595  1.00  0.00     0.006 A 
ENDBRANCH  57  74
ENDBRANCH  31  32
ENDBRANCH  23  26
ENDBRANCH  21  22
ENDBRANCH  20  21
ENDBRANCH   1  20
TORSDOF 13
ENDMDL
MODEL 2
REMARK VINA RESULT:     -11.7      2.686      7.652
REMARK SMILES C[C@@H](Cc1cnn(-c2ccccc2)n1)C(=O)NCCCNC(=O)c1ccc(-c2c3nc(c(-c4c(F)cccc4F)c4ccc([nH]4)c(-c4c(F)cccc4F)c4nc(c(-c5c(F)cccc5F)c5ccc2[nH]5)C=C4)C=C3)cc1
REMARK SMILES IDX 18 1 17 2 15 3 16 4 2 6 1 7 3 8 4 9 5 10 14 11 6 12 7 13
REMARK SMILES IDX 8 14 9 15 13 16 10 17 12 18 11 19 19 20 20 21 21 22 22 23
REMARK SMILES IDX 23 25 24 26 25 27 77 28 26 29 76 30 27 31 28 32 29 33 70 34
REMARK SMILES IDX 30 35 75 36 69 37 71 38 31 39 74 40 68 41 67 42 32 44 58 45
REMARK SMILES IDX 41 46 57 47 42 48 45 49 56 50 72 51 43 52 44 53 55 55 73 56
REMARK SMILES IDX 46 57 33 58 34 59 39 60 35 61 36 62 38 63 40 64 37 65 59 66
REMARK SMILES IDX 60 67 65 68 61 69 62 70 64 71 66 72 63 73 47 74 48 75 53 76
REMARK SMILES IDX 49 77 50 78 52 79 54 80 51 81
REMARK H PARENT 17 5 21 24 71 43 45 54
REMARK Flexibility Score: inf
ROOT
ATOM      1  C   UNL A   1      33.302  29.329  24.929  1.00  0.00     0.117 C 
ENDROOT
BRANCH   1   2
ATOM      2  N   UNL A   1      33.853  29.036  23.620  1.00  0.00    -0.356 N 
ATOM      3  C   UNL A   1      33.620  28.075  22.700  1.00  0.00     0.223 C 
ATOM      4  O   UNL A   1      34.262  28.177  21.647  1.00  0.00    -0.275 OA
ATOM      5  H   UNL A   1      34.547  29.677  23.341  1.00  0.00     0.163 HD
BRANCH   3   6
ATOM      6  C   UNL A   1      32.691  26.880  22.892  1.00  0.00     0.081 C 
ATOM      7  C   UNL A   1      31.302  27.104  22.313  1.00  0.00     0.018 C 
BRANCH   6   8
ATOM      8  C   UNL A   1      33.308  25.484  22.759  1.00  0.00     0.073 C 
BRANCH   8   9
ATOM      9  C   UNL A   1      34.018  24.823  23.894  1.00  0.00     0.084 A 
ATOM     10  C   UNL A   1      33.603  24.803  25.239  1.00  0.00     0.161 A 
ATOM     11  N   UNL A   1      35.131  24.085  23.777  1.00  0.00    -0.153 NA
ATOM     12  N   UNL A   1      34.425  24.053  25.970  1.00  0.00    -0.157 NA
ATOM     13  N   UNL A   1      35.372  23.691  25.064  1.00  0.00    -0.151 N 
BRANCH  13  14
ATOM     14  C   UNL A   1      36.598  23.106  25.492  1.00  0.00     0.086 A 
ATOM     15  C   UNL A   1      37.547  23.905  26.148  1.00  0.00     0.030 A 
ATOM     16  C   UNL A   1      36.912  21.775  25.187  1.00  0.00     0.030 A 
ATOM     17  C   UNL A   1      38.802  23.384  26.468  1.00  0.00     0.002 A 
ATOM     18  C   UNL A   1      38.198  21.285  25.444  1.00  0.00     0.002 A 
ATOM     19  C   UNL A   1      39.138  22.088  26.088  1.00  0.00     0.000 A 
ENDBRANCH  13  14
ENDBRANCH   8   9
ENDBRANCH   6   8
ENDBRANCH   3   6
ENDBRANCH   1   2
BRANCH   1  20
ATOM     20  C   UNL A   1      33.845  28.416  26.018  1.00  0.00     0.042 C 
BRANCH  20  21
ATOM     21  C   UNL A   1      34.634  29.116  27.110  1.00  0.00     0.118 C 
BRANCH  21  22
ATOM     22  N   UNL A   1      34.567  30.583  27.123  1.00  0.00    -0.352 N 
ATOM     23  C   UNL A   1      35.120  31.461  28.059  1.00  0.00     0.251 C 
ATOM     24  H   UNL A   1      34.072  31.000  26.381  1.00  0.00     0.163 HD
ATOM     25  O   UNL A   1      34.726  32.598  28.197  1.00  0.00    -0.269 OA
BRANCH  23  26
ATOM     26  C   UNL A   1      36.226  30.942  28.890  1.00  0.00     0.039 A 
ATOM     27  C   UNL A   1      36.070  29.855  29.755  1.00  0.00     0.014 A 
ATOM     28  C   UNL A   1      37.479  31.433  28.574  1.00  0.00     0.014 A 
ATOM     29  C   UNL A   1      37.214  29.162  30.158  1.00  0.00     0.010 A 
ATOM     30  C   UNL A   1      38.534  30.578  28.721  1.00  0.00     0.010 A 
ATOM     31  C   UNL A   1      38.449  29.489  29.575  1.00  0.00    -0.014 A 
BRANCH  31  32
ATOM     32  C   UNL A   1      39.654  28.685  29.764  1.00  0.00     0.031 A 
ATOM     33  C   UNL A   1      40.146  28.552  31.162  1.00  0.00     0.074 A 
ATOM     34  C   UNL A   1      40.219  27.945  28.781  1.00  0.00     0.049 A 
ATOM     35  N   UNL A   1      41.162  29.154  31.684  1.00  0.00    -0.248 NA
ATOM     36  C   UNL A   1      39.373  27.752  32.123  1.00  0.00     0.031 C 
ATOM     37  C   UNL A   1      39.744  27.667  27.416  1.00  0.00     0.029 A 
ATOM     38  N   UNL A   1      41.355  27.203  28.845  1.00  0.00    -0.354 N 
ATOM     39  C   UNL A   1      41.288  28.664  32.981  1.00  0.00     0.074 A 
ATOM     40  C   UNL A   1      40.071  27.941  33.249  1.00  0.00     0.031 C 
ATOM     41  C   UNL A   1      40.446  26.646  26.882  1.00  0.00     0.029 A 
ATOM     42  C   UNL A   1      41.555  26.355  27.764  1.00  0.00     0.049 A 
ATOM     43  H   UNL A   1      41.987  27.261  29.597  1.00  0.00     0.167 HD
ATOM     44  C   UNL A   1      42.481  28.719  33.640  1.00  0.00     0.037 A 
ATOM     45  C   UNL A   1      42.578  25.489  27.587  1.00  0.00     0.037 A 
ATOM     46  C   UNL A   1      43.414  29.575  32.947  1.00  0.00     0.049 A 
ATOM     47  C   UNL A   1      43.689  25.947  28.456  1.00  0.00     0.074 A 
ATOM     48  C   UNL A   1      43.419  30.905  32.570  1.00  0.00     0.029 A 
ATOM     49  N   UNL A   1      44.383  28.972  32.181  1.00  0.00    -0.354 N 
ATOM     50  N   UNL A   1      44.357  27.049  28.253  1.00  0.00    -0.248 NA
ATOM     51  C   UNL A   1      43.744  25.423  29.810  1.00  0.00     0.031 C 
ATOM     52  C   UNL A   1      44.000  30.911  31.266  1.00  0.00     0.029 A 
ATOM     53  C   UNL A   1      44.386  29.603  30.964  1.00  0.00     0.049 A 
ATOM     54  H   UNL A   1      44.966  28.227  32.454  1.00  0.00     0.167 HD
ATOM     55  C   UNL A   1      44.541  27.586  29.519  1.00  0.00     0.074 A 
ATOM     56  C   UNL A   1      44.228  26.497  30.442  1.00  0.00     0.031 C 
ATOM     57  C   UNL A   1      44.650  28.935  29.709  1.00  0.00     0.037 A 
BRANCH  44  58
ATOM     58  C   UNL A   1      42.948  27.748  34.696  1.00  0.00     0.057 A 
ATOM     59  C   UNL A   1      43.308  26.440  34.312  1.00  0.00     0.134 A 
ATOM     60  C   UNL A   1      42.780  27.938  36.080  1.00  0.00     0.134 A 
ATOM     61  F   UNL A   1      43.495  26.128  33.021  1.00  0.00    -0.206 F 
ATOM     62  C   UNL A   1      43.405  25.386  35.229  1.00  0.00     0.040 A 
ATOM     63  C   UNL A   1      42.925  26.904  37.010  1.00  0.00     0.040 A 
ATOM     64  F   UNL A   1      42.366  29.100  36.598  1.00  0.00    -0.206 F 
ATOM     65  C   UNL A   1      43.204  25.615  36.583  1.00  0.00     0.006 A 
ENDBRANCH  44  58
BRANCH  45  66
ATOM     66  C   UNL A   1      42.559  24.168  26.928  1.00  0.00     0.057 A 
ATOM     67  C   UNL A   1      43.059  24.002  25.631  1.00  0.00     0.134 A 
ATOM     68  C   UNL A   1      42.318  22.990  27.658  1.00  0.00     0.134 A 
ATOM     69  F   UNL A   1      43.344  25.069  24.871  1.00  0.00    -0.206 F 
ATOM     70  C   UNL A   1      43.344  22.738  25.102  1.00  0.00     0.040 A 
ATOM     71  C   UNL A   1      42.594  21.721  27.140  1.00  0.00     0.040 A 
ATOM     72  F   UNL A   1      41.893  23.037  28.930  1.00  0.00    -0.206 F 
ATOM     73  C   UNL A   1      43.128  21.593  25.864  1.00  0.00     0.006 A 
ENDBRANCH  45  66
BRANCH  57  74
ATOM     74  C   UNL A   1      44.820  29.813  28.498  1.00  0.00     0.057 A 
ATOM     75  C   UNL A   1      43.763  30.419  27.803  1.00  0.00     0.134 A 
ATOM     76  C   UNL A   1      46.115  30.184  28.117  1.00  0.00     0.134 A 
ATOM     77  F   UNL A   1      42.488  30.209  28.154  1.00  0.00    -0.206 F 
ATOM     78  C   UNL A   1      43.984  31.316  26.752  1.00  0.00     0.040 A 
ATOM     79  C   UNL A   1      46.350  31.103  27.092  1.00  0.00     0.040 A 
ATOM     80  F   UNL A   1      47.178  29.691  28.771  1.00  0.00    -0.206 F 
ATOM     81  C   UNL A   1      45.283  31.666  26.398  1.00  0.00     0.006 A 
ENDBRANCH  57  74
ENDBRANCH  31  32
ENDBRANCH  23  26
ENDBRANCH  21  22
ENDBRANCH  20  21
ENDBRANCH   1  20
TORSDOF 13
ENDMDL
MODEL 3
REMARK VINA RESULT:     -11.7      1.754      3.702
REMARK SMILES C[C@@H](Cc1cnn(-c2ccccc2)n1)C(=O)NCCCNC(=O)c1ccc(-c2c3nc(c(-c4c(F)cccc4F)c4ccc([nH]4)c(-c4c(F)cccc4F)c4nc(c(-c5c(F)cccc5F)c5ccc2[nH]5)C=C4)C=C3)cc1
REMARK SMILES IDX 18 1 17 2 15 3 16 4 2 6 1 7 3 8 4 9 5 10 14 11 6 12 7 13
REMARK SMILES IDX 8 14 9 15 13 16 10 17 12 18 11 19 19 20 20 21 21 22 22 23
REMARK SMILES IDX 23 25 24 26 25 27 77 28 26 29 76 30 27 31 28 32 29 33 70 34
REMARK SMILES IDX 30 35 75 36 69 37 71 38 31 39 74 40 68 41 67 42 32 44 58 45
REMARK SMILES IDX 41 46 57 47 42 48 45 49 56 50 72 51 43 52 44 53 55 55 73 56
REMARK SMILES IDX 46 57 33 58 34 59 39 60 35 61 36 62 38 63 40 64 37 65 59 66
REMARK SMILES IDX 60 67 65 68 61 69 62 70 64 71 66 72 63 73 47 74 48 75 53 76
REMARK SMILES IDX 49 77 50 78 52 79 54 80 51 81
REMARK H PARENT 17 5 21 24 71 43 45 54
REMARK Flexibility Score: inf
ROOT
ATOM      1  C   UNL A   1      33.172  29.011  25.944  1.00  0.00     0.117 C 
ENDROOT
BRANCH   1   2
ATOM      2  N   UNL A   1      32.045  29.650  25.292  1.00  0.00    -0.356 N 
ATOM      3  C   UNL A   1      31.146  29.244  24.368  1.00  0.00     0.223 C 
ATOM      4  O   UNL A   1      30.268  30.068  24.080  1.00  0.00    -0.275 OA
ATOM      5  H   UNL A   1      31.904  30.579  25.585  1.00  0.00     0.163 HD
BRANCH   3   6
ATOM      6  C   UNL A   1      31.175  27.904  23.640  1.00  0.00     0.081 C 
ATOM      7  C   UNL A   1      29.809  27.474  23.125  1.00  0.00     0.018 C 
BRANCH   6   8
ATOM      8  C   UNL A   1      32.397  27.608  22.766  1.00  0.00     0.073 C 
BRANCH   8   9
ATOM      9  C   UNL A   1      32.904  26.218  22.563  1.00  0.00     0.084 A 
ATOM     10  C   UNL A   1      32.584  25.362  21.491  1.00  0.00     0.161 A 
ATOM     11  N   UNL A   1      33.804  25.606  23.346  1.00  0.00    -0.153 NA
ATOM     12  N   UNL A   1      33.277  24.229  21.576  1.00  0.00    -0.157 NA
ATOM     13  N   UNL A   1      33.954  24.387  22.746  1.00  0.00    -0.151 N 
BRANCH  13  14
ATOM     14  C   UNL A   1      34.608  23.282  23.360  1.00  0.00     0.086 A 
ATOM     15  C   UNL A   1      33.837  22.251  23.917  1.00  0.00     0.030 A 
ATOM     16  C   UNL A   1      36.002  23.251  23.500  1.00  0.00     0.030 A 
ATOM     17  C   UNL A   1      34.453  21.220  24.629  1.00  0.00     0.002 A 
ATOM     18  C   UNL A   1      36.604  22.255  24.278  1.00  0.00     0.002 A 
ATOM     19  C   UNL A   1      35.829  21.239  24.836  1.00  0.00     0.000 A 
ENDBRANCH  13  14
ENDBRANCH   8   9
ENDBRANCH   6   8
ENDBRANCH   3   6
ENDBRANCH   1   2
BRANCH   1  20
ATOM     20  C   UNL A   1      33.845  29.907  26.972  1.00  0.00     0.042 C 
BRANCH  20  21
ATOM     21  C   UNL A   1      35.103  29.334  27.600  1.00  0.00     0.118 C 
BRANCH  21  22
ATOM     22  N   UNL A   1      35.523  29.930  28.876  1.00  0.00    -0.352 N 
ATOM     23  C   UNL A   1      36.653  29.623  29.638  1.00  0.00     0.251 C 
ATOM     24  H   UNL A   1      34.937  30.633  29.238  1.00  0.00     0.163 HD
ATOM     25  O   UNL A   1      36.735  29.890  30.816  1.00  0.00    -0.269 OA
BRANCH  23  26
ATOM     26  C   UNL A   1      37.765  28.946  28.940  1.00  0.00     0.039 A 
ATOM     27  C   UNL A   1      38.350  29.461  27.780  1.00  0.00     0.014 A 
ATOM     28  C   UNL A   1      38.356  27.912  29.642  1.00  0.00     0.014 A 
ATOM     29  C   UNL A   1      39.633  29.027  27.438  1.00  0.00     0.010 A 
ATOM     30  C   UNL A   1      39.699  27.735  29.472  1.00  0.00     0.010 A 
ATOM     31  C   UNL A   1      40.337  28.209  28.336  1.00  0.00    -0.014 A 
BRANCH  31  32
ATOM     32  C   UNL A   1      41.753  27.887  28.173  1.00  0.00     0.031 A 
ATOM     33  C   UNL A   1      42.064  26.647  27.412  1.00  0.00     0.074 A 
ATOM     34  C   UNL A   1      42.755  28.727  28.525  1.00  0.00     0.049 A 
ATOM     35  N   UNL A   1      42.456  25.517  27.900  1.00  0.00    -0.248 NA
ATOM     36  C   UNL A   1      41.814  26.611  25.964  1.00  0.00     0.031 C 
ATOM     37  C   UNL A   1      42.698  30.119  28.998  1.00  0.00     0.029 A 
ATOM     38  N   UNL A   1      44.093  28.504  28.453  1.00  0.00    -0.354 N 
ATOM     39  C   UNL A   1      42.699  24.681  26.815  1.00  0.00     0.074 A 
ATOM     40  C   UNL A   1      42.129  25.344  25.670  1.00  0.00     0.031 C 
ATOM     41  C   UNL A   1      43.924  30.678  28.938  1.00  0.00     0.029 A 
ATOM     42  C   UNL A   1      44.879  29.631  28.645  1.00  0.00     0.049 A 
ATOM     43  H   UNL A   1      44.476  27.614  28.279  1.00  0.00     0.167 HD
ATOM     44  C   UNL A   1      43.540  23.612  26.927  1.00  0.00     0.037 A 
ATOM     45  C   UNL A   1      46.229  29.701  28.595  1.00  0.00     0.037 A 
ATOM     46  C   UNL A   1      43.853  23.344  28.310  1.00  0.00     0.049 A 
ATOM     47  C   UNL A   1      46.742  28.326  28.811  1.00  0.00     0.074 A 
ATOM     48  C   UNL A   1      43.110  23.035  29.433  1.00  0.00     0.029 A 
ATOM     49  N   UNL A   1      45.071  23.775  28.782  1.00  0.00    -0.354 N 
ATOM     50  N   UNL A   1      46.641  27.687  29.944  1.00  0.00    -0.248 NA
ATOM     51  C   UNL A   1      46.942  27.492  27.638  1.00  0.00     0.031 C 
ATOM     52  C   UNL A   1      43.718  23.779  30.489  1.00  0.00     0.029 A 
ATOM     53  C   UNL A   1      44.837  24.430  29.964  1.00  0.00     0.049 A 
ATOM     54  H   UNL A   1      45.946  23.639  28.352  1.00  0.00     0.167 HD
ATOM     55  C   UNL A   1      46.324  26.385  29.586  1.00  0.00     0.074 A 
ATOM     56  C   UNL A   1      46.617  26.303  28.156  1.00  0.00     0.031 C 
ATOM     57  C   UNL A   1      45.588  25.581  30.410  1.00  0.00     0.037 A 
BRANCH  44  58
ATOM     58  C   UNL A   1      44.368  23.026  25.810  1.00  0.00     0.057 A 
ATOM     59  C   UNL A   1      44.344  21.632  25.599  1.00  0.00     0.134 A 
ATOM     60  C   UNL A   1      45.394  23.713  25.137  1.00  0.00     0.134 A 
ATOM     61  F   UNL A   1      43.416  20.862  26.187  1.00  0.00    -0.206 F 
ATOM     62  C   UNL A   1      45.322  20.967  24.849  1.00  0.00     0.040 A 
ATOM     63  C   UNL A   1      46.346  23.065  24.343  1.00  0.00     0.040 A 
ATOM     64  F   UNL A   1      45.598  25.027  25.293  1.00  0.00    -0.206 F 
ATOM     65  C   UNL A   1      46.334  21.684  24.225  1.00  0.00     0.006 A 
ENDBRANCH  44  58
BRANCH  45  66
ATOM     66  C   UNL A   1      47.074  30.813  28.120  1.00  0.00     0.057 A 
ATOM     67  C   UNL A   1      46.871  31.387  26.860  1.00  0.00     0.134 A 
ATOM     68  C   UNL A   1      47.908  31.526  29.001  1.00  0.00     0.134 A 
ATOM     69  F   UNL A   1      46.070  30.792  25.964  1.00  0.00    -0.206 F 
ATOM     70  C   UNL A   1      47.429  32.621  26.507  1.00  0.00     0.040 A 
ATOM     71  C   UNL A   1      48.475  32.757  28.660  1.00  0.00     0.040 A 
ATOM     72  F   UNL A   1      48.124  31.095  30.253  1.00  0.00    -0.206 F 
ATOM     73  C   UNL A   1      48.221  33.319  27.415  1.00  0.00     0.006 A 
ENDBRANCH  45  66
BRANCH  57  74
ATOM     74  C   UNL A   1      45.340  26.045  31.821  1.00  0.00     0.057 A 
ATOM     75  C   UNL A   1      44.191  26.733  32.239  1.00  0.00     0.134 A 
ATOM     76  C   UNL A   1      46.229  25.641  32.824  1.00  0.00     0.134 A 
ATOM     77  F   UNL A   1      43.231  27.077  31.372  1.00  0.00    -0.206 F 
ATOM     78  C   UNL A   1      43.960  27.042  33.584  1.00  0.00     0.040 A 
ATOM     79  C   UNL A   1      45.995  25.913  34.174  1.00  0.00     0.040 A 
ATOM     80  F   UNL A   1      47.322  24.929  32.510  1.00  0.00    -0.206 F 
ATOM     81  C   UNL A   1      44.862  26.626  34.558  1.00  0.00     0.006 A 
ENDBRANCH  57  74
ENDBRANCH  31  32
ENDBRANCH  23  26
ENDBRANCH  21  22
ENDBRANCH  20  21
ENDBRANCH   1  20
TORSDOF 13
ENDMDL
