MODEL 1
REMARK VINA RESULT:     -10.1      0.000      0.000
REMARK SMILES C[C@H]1CCC[C@@H](S[C@H](F)C(=O)NCCCNC(=O)c2ccc(-c3c4nc(c(-c5c(F)cccc5F)c5ccc([nH]5)c(-c5c(F)cccc5F)c5nc(c(-c6c(F)cccc6F)c6ccc3[nH]6)C=C5)C=C4)cc2)C1
REMARK SMILES IDX 14 1 13 2 12 3 10 4 11 5 8 7 9 8 7 9 6 10 1 11 2 12 3 13
REMARK SMILES IDX 73 14 4 15 5 16 15 17 16 18 17 19 18 21 19 22 20 23 72 24
REMARK SMILES IDX 21 25 71 26 22 27 23 28 24 29 65 30 25 31 70 32 64 33 66 34
REMARK SMILES IDX 26 35 69 36 63 37 62 38 27 40 53 41 36 42 52 43 37 44 40 45
REMARK SMILES IDX 51 46 67 47 38 48 39 49 50 51 68 52 41 53 28 54 29 55 34 56
REMARK SMILES IDX 30 57 31 58 33 59 35 60 32 61 54 62 55 63 60 64 56 65 57 66
REMARK SMILES IDX 59 67 61 68 58 69 42 70 43 71 48 72 44 73 45 74 47 75 49 76
REMARK SMILES IDX 46 77
REMARK H PARENT 12 6 16 20 66 39 40 50
REMARK Flexibility Score: inf
ROOT
ATOM      1  C   UNL A   1      33.781  33.764  28.248  1.00  0.00     0.042 C 
ENDROOT
BRANCH   1   2
ATOM      2  C   UNL A   1      34.131  34.966  29.104  1.00  0.00     0.118 C 
BRANCH   2   3
ATOM      3  N   UNL A   1      32.979  35.520  29.796  1.00  0.00    -0.353 N 
ATOM      4  C   UNL A   1      32.916  35.983  31.086  1.00  0.00     0.265 C 
ATOM      5  O   UNL A   1      31.863  36.508  31.460  1.00  0.00    -0.271 OA
ATOM      6  H   UNL A   1      32.144  35.568  29.278  1.00  0.00     0.163 HD
BRANCH   4   7
ATOM      7  C   UNL A   1      34.126  35.849  32.018  1.00  0.00     0.313 C 
ATOM      8  F   UNL A   1      34.219  36.913  32.871  1.00  0.00    -0.225 F 
BRANCH   7   9
ATOM      9  S   UNL A   1      33.985  34.320  33.022  1.00  0.00    -0.112 SA
BRANCH   9  10
ATOM     10  C   UNL A   1      35.267  33.258  32.296  1.00  0.00     0.050 C 
ATOM     11  C   UNL A   1      38.381  33.841  30.069  1.00  0.00     0.007 C 
ATOM     12  C   UNL A   1      37.311  33.070  30.840  1.00  0.00    -0.013 C 
ATOM     13  C   UNL A   1      37.951  32.155  31.894  1.00  0.00     0.003 C 
ATOM     14  C   UNL A   1      36.311  34.037  31.493  1.00  0.00     0.018 C 
ATOM     15  C   UNL A   1      36.901  31.398  32.705  1.00  0.00     0.001 C 
ATOM     16  C   UNL A   1      35.899  32.348  33.351  1.00  0.00     0.014 C 
ENDBRANCH   9  10
ENDBRANCH   7   9
ENDBRANCH   4   7
ENDBRANCH   2   3
ENDBRANCH   1   2
BRANCH   1  17
ATOM     17  C   UNL A   1      34.697  32.572  28.459  1.00  0.00     0.118 C 
BRANCH  17  18
ATOM     18  N   UNL A   1      34.049  31.296  28.174  1.00  0.00    -0.352 N 
ATOM     19  C   UNL A   1      34.592  30.045  28.024  1.00  0.00     0.251 C 
ATOM     20  H   UNL A   1      33.071  31.341  28.074  1.00  0.00     0.163 HD
ATOM     21  O   UNL A   1      33.896  29.117  27.621  1.00  0.00    -0.269 OA
BRANCH  19  22
ATOM     22  C   UNL A   1      36.023  29.819  28.319  1.00  0.00     0.039 A 
ATOM     23  C   UNL A   1      36.388  29.334  29.577  1.00  0.00     0.014 A 
ATOM     24  C   UNL A   1      37.000  30.074  27.356  1.00  0.00     0.014 A 
ATOM     25  C   UNL A   1      37.725  29.026  29.836  1.00  0.00     0.010 A 
ATOM     26  C   UNL A   1      38.310  29.670  27.578  1.00  0.00     0.010 A 
ATOM     27  C   UNL A   1      38.690  29.147  28.823  1.00  0.00    -0.014 A 
BRANCH  27  28
ATOM     28  C   UNL A   1      40.103  28.751  29.038  1.00  0.00     0.031 A 
ATOM     29  C   UNL A   1      41.078  29.741  29.618  1.00  0.00     0.074 A 
ATOM     30  C   UNL A   1      40.530  27.537  28.640  1.00  0.00     0.049 A 
ATOM     31  N   UNL A   1      42.371  29.631  29.780  1.00  0.00    -0.248 NA
ATOM     32  C   UNL A   1      40.529  31.039  30.042  1.00  0.00     0.031 C 
ATOM     33  C   UNL A   1      39.694  26.503  28.026  1.00  0.00     0.029 A 
ATOM     34  N   UNL A   1      41.780  26.971  28.680  1.00  0.00    -0.354 N 
ATOM     35  C   UNL A   1      42.790  30.847  30.306  1.00  0.00     0.074 A 
ATOM     36  C   UNL A   1      41.624  31.701  30.378  1.00  0.00     0.031 C 
ATOM     37  C   UNL A   1      40.449  25.423  27.769  1.00  0.00     0.029 A 
ATOM     38  C   UNL A   1      41.828  25.703  28.155  1.00  0.00     0.049 A 
ATOM     39  H   UNL A   1      42.568  27.431  29.052  1.00  0.00     0.167 HD
ATOM     40  C   UNL A   1      44.027  31.212  30.717  1.00  0.00     0.037 A 
ATOM     41  C   UNL A   1      42.871  24.866  27.989  1.00  0.00     0.037 A 
ATOM     42  C   UNL A   1      45.179  30.352  30.666  1.00  0.00     0.049 A 
ATOM     43  C   UNL A   1      44.241  25.303  28.432  1.00  0.00     0.074 A 
ATOM     44  C   UNL A   1      46.466  30.609  31.105  1.00  0.00     0.029 A 
ATOM     45  N   UNL A   1      45.183  29.068  30.142  1.00  0.00    -0.354 N 
ATOM     46  N   UNL A   1      44.610  26.434  28.983  1.00  0.00    -0.248 NA
ATOM     47  C   UNL A   1      45.337  24.346  28.233  1.00  0.00     0.031 C 
ATOM     48  C   UNL A   1      47.260  29.499  30.801  1.00  0.00     0.029 A 
ATOM     49  C   UNL A   1      46.456  28.528  30.226  1.00  0.00     0.049 A 
ATOM     50  H   UNL A   1      44.398  28.609  29.766  1.00  0.00     0.167 HD
ATOM     51  C   UNL A   1      45.972  26.309  29.231  1.00  0.00     0.074 A 
ATOM     52  C   UNL A   1      46.360  24.990  28.777  1.00  0.00     0.031 C 
ATOM     53  C   UNL A   1      46.823  27.207  29.785  1.00  0.00     0.037 A 
BRANCH  40  54
ATOM     54  C   UNL A   1      44.194  32.602  31.263  1.00  0.00     0.057 A 
ATOM     55  C   UNL A   1      44.510  33.689  30.437  1.00  0.00     0.134 A 
ATOM     56  C   UNL A   1      44.007  32.862  32.626  1.00  0.00     0.134 A 
ATOM     57  F   UNL A   1      44.715  33.506  29.123  1.00  0.00    -0.206 F 
ATOM     58  C   UNL A   1      44.664  34.977  30.950  1.00  0.00     0.040 A 
ATOM     59  C   UNL A   1      44.127  34.152  33.147  1.00  0.00     0.040 A 
ATOM     60  F   UNL A   1      43.696  31.870  33.475  1.00  0.00    -0.206 F 
ATOM     61  C   UNL A   1      44.465  35.212  32.309  1.00  0.00     0.006 A 
ENDBRANCH  40  54
BRANCH  41  62
ATOM     62  C   UNL A   1      42.662  23.522  27.392  1.00  0.00     0.057 A 
ATOM     63  C   UNL A   1      42.347  22.418  28.193  1.00  0.00     0.134 A 
ATOM     64  C   UNL A   1      42.787  23.303  26.014  1.00  0.00     0.134 A 
ATOM     65  F   UNL A   1      42.232  22.560  29.521  1.00  0.00    -0.206 F 
ATOM     66  C   UNL A   1      42.188  21.141  27.651  1.00  0.00     0.040 A 
ATOM     67  C   UNL A   1      42.603  22.037  25.456  1.00  0.00     0.040 A 
ATOM     68  F   UNL A   1      43.079  24.319  25.190  1.00  0.00    -0.206 F 
ATOM     69  C   UNL A   1      42.313  20.949  26.277  1.00  0.00     0.006 A 
ENDBRANCH  41  62
BRANCH  53  70
ATOM     70  C   UNL A   1      48.248  26.777  29.983  1.00  0.00     0.057 A 
ATOM     71  C   UNL A   1      49.256  27.097  29.065  1.00  0.00     0.134 A 
ATOM     72  C   UNL A   1      48.623  26.075  31.137  1.00  0.00     0.134 A 
ATOM     73  F   UNL A   1      48.961  27.757  27.934  1.00  0.00    -0.206 F 
ATOM     74  C   UNL A   1      50.581  26.716  29.277  1.00  0.00     0.040 A 
ATOM     75  C   UNL A   1      49.949  25.716  31.374  1.00  0.00     0.040 A 
ATOM     76  F   UNL A   1      47.708  25.746  32.061  1.00  0.00    -0.206 F 
ATOM     77  C   UNL A   1      50.932  26.031  30.439  1.00  0.00     0.006 A 
ENDBRANCH  53  70
ENDBRANCH  27  28
ENDBRANCH  19  22
ENDBRANCH  17  18
ENDBRANCH   1  17
TORSDOF 12
ENDMDL
MODEL 2
REMARK VINA RESULT:     -10.0      4.755     10.459
REMARK SMILES C[C@H]1CCC[C@@H](S[C@H](F)C(=O)NCCCNC(=O)c2ccc(-c3c4nc(c(-c5c(F)cccc5F)c5ccc([nH]5)c(-c5c(F)cccc5F)c5nc(c(-c6c(F)cccc6F)c6ccc3[nH]6)C=C5)C=C4)cc2)C1
REMARK SMILES IDX 14 1 13 2 12 3 10 4 11 5 8 7 9 8 7 9 6 10 1 11 2 12 3 13
REMARK SMILES IDX 73 14 4 15 5 16 15 17 16 18 17 19 18 21 19 22 20 23 72 24
REMARK SMILES IDX 21 25 71 26 22 27 23 28 24 29 65 30 25 31 70 32 64 33 66 34
REMARK SMILES IDX 26 35 69 36 63 37 62 38 27 40 53 41 36 42 52 43 37 44 40 45
REMARK SMILES IDX 51 46 67 47 38 48 39 49 50 51 68 52 41 53 28 54 29 55 34 56
REMARK SMILES IDX 30 57 31 58 33 59 35 60 32 61 54 62 55 63 60 64 56 65 57 66
REMARK SMILES IDX 59 67 61 68 58 69 42 70 43 71 48 72 44 73 45 74 47 75 49 76
REMARK SMILES IDX 46 77
REMARK H PARENT 12 6 16 20 66 39 40 50
REMARK Flexibility Score: inf
ROOT
ATOM      1  C   UNL A   1      37.696  19.783  24.975  1.00  0.00     0.042 C 
ENDROOT
BRANCH   1   2
ATOM      2  C   UNL A   1      36.577  20.797  24.836  1.00  0.00     0.118 C 
BRANCH   2   3
ATOM      3  N   UNL A   1      35.996  21.174  26.114  1.00  0.00    -0.353 N 
ATOM      4  C   UNL A   1      34.735  21.656  26.355  1.00  0.00     0.265 C 
ATOM      5  O   UNL A   1      34.397  21.826  27.531  1.00  0.00    -0.271 OA
ATOM      6  H   UNL A   1      36.578  21.071  26.901  1.00  0.00     0.163 HD
BRANCH   4   7
ATOM      7  C   UNL A   1      33.787  21.964  25.190  1.00  0.00     0.313 C 
ATOM      8  F   UNL A   1      34.448  21.952  23.993  1.00  0.00    -0.225 F 
BRANCH   7   9
ATOM      9  S   UNL A   1      32.445  20.716  25.117  1.00  0.00    -0.112 SA
BRANCH   9  10
ATOM     10  C   UNL A   1      33.236  19.348  24.221  1.00  0.00     0.050 C 
ATOM     11  C   UNL A   1      35.145  16.138  25.238  1.00  0.00     0.007 C 
ATOM     12  C   UNL A   1      34.567  17.215  24.324  1.00  0.00    -0.013 C 
ATOM     13  C   UNL A   1      33.620  16.599  23.285  1.00  0.00     0.003 C 
ATOM     14  C   UNL A   1      33.846  18.294  25.147  1.00  0.00     0.018 C 
ATOM     15  C   UNL A   1      32.999  17.660  22.379  1.00  0.00     0.001 C 
ATOM     16  C   UNL A   1      32.286  18.740  23.186  1.00  0.00     0.014 C 
ENDBRANCH   9  10
ENDBRANCH   7   9
ENDBRANCH   4   7
ENDBRANCH   2   3
ENDBRANCH   1   2
BRANCH   1  17
ATOM     17  C   UNL A   1      38.898  20.295  25.749  1.00  0.00     0.118 C 
BRANCH  17  18
ATOM     18  N   UNL A   1      40.003  19.345  25.784  1.00  0.00    -0.352 N 
ATOM     19  C   UNL A   1      41.330  19.543  26.077  1.00  0.00     0.251 C 
ATOM     20  H   UNL A   1      39.760  18.416  25.563  1.00  0.00     0.163 HD
ATOM     21  O   UNL A   1      42.142  18.641  25.890  1.00  0.00    -0.269 OA
BRANCH  19  22
ATOM     22  C   UNL A   1      41.785  20.852  26.589  1.00  0.00     0.039 A 
ATOM     23  C   UNL A   1      42.269  21.803  25.687  1.00  0.00     0.014 A 
ATOM     24  C   UNL A   1      41.724  21.147  27.952  1.00  0.00     0.014 A 
ATOM     25  C   UNL A   1      42.612  23.077  26.145  1.00  0.00     0.010 A 
ATOM     26  C   UNL A   1      41.965  22.443  28.389  1.00  0.00     0.010 A 
ATOM     27  C   UNL A   1      42.418  23.422  27.492  1.00  0.00    -0.014 A 
BRANCH  27  28
ATOM     28  C   UNL A   1      42.695  24.790  27.996  1.00  0.00     0.031 A 
ATOM     29  C   UNL A   1      44.088  25.163  28.424  1.00  0.00     0.074 A 
ATOM     30  C   UNL A   1      41.684  25.667  28.147  1.00  0.00     0.049 A 
ATOM     31  N   UNL A   1      44.514  26.261  28.993  1.00  0.00    -0.248 NA
ATOM     32  C   UNL A   1      45.138  24.153  28.212  1.00  0.00     0.031 C 
ATOM     33  C   UNL A   1      40.282  25.414  27.809  1.00  0.00     0.029 A 
ATOM     34  N   UNL A   1      41.679  26.950  28.637  1.00  0.00    -0.354 N 
ATOM     35  C   UNL A   1      45.870  26.067  29.221  1.00  0.00     0.074 A 
ATOM     36  C   UNL A   1      46.184  24.723  28.787  1.00  0.00     0.031 C 
ATOM     37  C   UNL A   1      39.558  26.512  28.081  1.00  0.00     0.029 A 
ATOM     38  C   UNL A   1      40.434  27.529  28.654  1.00  0.00     0.049 A 
ATOM     39  H   UNL A   1      42.492  27.411  28.947  1.00  0.00     0.167 HD
ATOM     40  C   UNL A   1      46.778  26.937  29.723  1.00  0.00     0.037 A 
ATOM     41  C   UNL A   1      40.040  28.739  29.096  1.00  0.00     0.037 A 
ATOM     42  C   UNL A   1      46.467  28.280  30.133  1.00  0.00     0.049 A 
ATOM     43  C   UNL A   1      41.063  29.679  29.672  1.00  0.00     0.074 A 
ATOM     44  C   UNL A   1      47.324  29.257  30.607  1.00  0.00     0.029 A 
ATOM     45  N   UNL A   1      45.196  28.835  30.119  1.00  0.00    -0.354 N 
ATOM     46  N   UNL A   1      42.354  29.503  29.826  1.00  0.00    -0.248 NA
ATOM     47  C   UNL A   1      40.577  30.987  30.131  1.00  0.00     0.031 C 
ATOM     48  C   UNL A   1      46.565  30.386  30.926  1.00  0.00     0.029 A 
ATOM     49  C   UNL A   1      45.243  30.134  30.597  1.00  0.00     0.049 A 
ATOM     50  H   UNL A   1      44.381  28.374  29.814  1.00  0.00     0.167 HD
ATOM     51  C   UNL A   1      42.838  30.690  30.364  1.00  0.00     0.074 A 
ATOM     52  C   UNL A   1      41.703  31.579  30.501  1.00  0.00     0.031 C 
ATOM     53  C   UNL A   1      44.107  31.012  30.711  1.00  0.00     0.037 A 
BRANCH  40  54
ATOM     54  C   UNL A   1      48.197  26.459  29.851  1.00  0.00     0.057 A 
ATOM     55  C   UNL A   1      48.655  25.798  30.999  1.00  0.00     0.134 A 
ATOM     56  C   UNL A   1      49.108  26.636  28.803  1.00  0.00     0.134 A 
ATOM     57  F   UNL A   1      47.836  25.607  32.046  1.00  0.00    -0.206 F 
ATOM     58  C   UNL A   1      49.975  25.357  31.112  1.00  0.00     0.040 A 
ATOM     59  C   UNL A   1      50.422  26.172  28.892  1.00  0.00     0.040 A 
ATOM     60  F   UNL A   1      48.737  27.256  27.672  1.00  0.00    -0.206 F 
ATOM     61  C   UNL A   1      50.860  25.538  30.052  1.00  0.00     0.006 A 
ENDBRANCH  40  54
BRANCH  41  62
ATOM     62  C   UNL A   1      38.613  29.141  28.998  1.00  0.00     0.057 A 
ATOM     63  C   UNL A   1      38.081  29.623  27.796  1.00  0.00     0.134 A 
ATOM     64  C   UNL A   1      37.753  29.073  30.102  1.00  0.00     0.134 A 
ATOM     65  F   UNL A   1      38.858  29.729  26.709  1.00  0.00    -0.206 F 
ATOM     66  C   UNL A   1      36.753  30.043  27.699  1.00  0.00     0.040 A 
ATOM     67  C   UNL A   1      36.416  29.464  30.011  1.00  0.00     0.040 A 
ATOM     68  F   UNL A   1      38.198  28.614  31.280  1.00  0.00    -0.206 F 
ATOM     69  C   UNL A   1      35.915  29.961  28.810  1.00  0.00     0.006 A 
ENDBRANCH  41  62
BRANCH  53  70
ATOM     70  C   UNL A   1      44.351  32.402  31.224  1.00  0.00     0.057 A 
ATOM     71  C   UNL A   1      44.330  32.706  32.591  1.00  0.00     0.134 A 
ATOM     72  C   UNL A   1      44.662  33.442  30.336  1.00  0.00     0.134 A 
ATOM     73  F   UNL A   1      44.027  31.759  33.493  1.00  0.00    -0.206 F 
ATOM     74  C   UNL A   1      44.588  33.996  33.055  1.00  0.00     0.040 A 
ATOM     75  C   UNL A   1      44.951  34.728  30.790  1.00  0.00     0.040 A 
ATOM     76  F   UNL A   1      44.709  33.217  29.014  1.00  0.00    -0.206 F 
ATOM     77  C   UNL A   1      44.908  35.010  32.154  1.00  0.00     0.006 A 
ENDBRANCH  53  70
ENDBRANCH  27  28
ENDBRANCH  19  22
ENDBRANCH  17  18
ENDBRANCH   1  17
TORSDOF 12
ENDMDL
MODEL 3
REMARK VINA RESULT:     -10.0      4.166      9.492
REMARK SMILES C[C@H]1CCC[C@@H](S[C@H](F)C(=O)NCCCNC(=O)c2ccc(-c3c4nc(c(-c5c(F)cccc5F)c5ccc([nH]5)c(-c5c(F)cccc5F)c5nc(c(-c6c(F)cccc6F)c6ccc3[nH]6)C=C5)C=C4)cc2)C1
REMARK SMILES IDX 14 1 13 2 12 3 10 4 11 5 8 7 9 8 7 9 6 10 1 11 2 12 3 13
REMARK SMILES IDX 73 14 4 15 5 16 15 17 16 18 17 19 18 21 19 22 20 23 72 24
REMARK SMILES IDX 21 25 71 26 22 27 23 28 24 29 65 30 25 31 70 32 64 33 66 34
REMARK SMILES IDX 26 35 69 36 63 37 62 38 27 40 53 41 36 42 52 43 37 44 40 45
REMARK SMILES IDX 51 46 67 47 38 48 39 49 50 51 68 52 41 53 28 54 29 55 34 56
REMARK SMILES IDX 30 57 31 58 33 59 35 60 32 61 54 62 55 63 60 64 56 65 57 66
REMARK SMILES IDX 59 67 61 68 58 69 42 70 43 71 48 72 44 73 45 74 47 75 49 76
REMARK SMILES IDX 46 77
REMARK H PARENT 12 6 16 20 66 39 40 50
REMARK Flexibility Score: inf
ROOT
ATOM      1  C   UNL A   1      37.669  19.764  24.932  1.00  0.00     0.042 C 
ENDROOT
BRANCH   1   2
ATOM      2  C   UNL A   1      36.469  20.690  24.972  1.00  0.00     0.118 C 
BRANCH   2   3
ATOM      3  N   UNL A   1      35.232  19.997  25.288  1.00  0.00    -0.353 N 
ATOM      4  C   UNL A   1      33.949  20.463  25.154  1.00  0.00     0.265 C 
ATOM      5  O   UNL A   1      33.023  19.679  25.387  1.00  0.00    -0.271 OA
ATOM      6  H   UNL A   1      35.326  19.083  25.640  1.00  0.00     0.163 HD
BRANCH   4   7
ATOM      7  C   UNL A   1      33.691  21.912  24.725  1.00  0.00     0.313 C 
ATOM      8  F   UNL A   1      33.325  21.985  23.410  1.00  0.00    -0.225 F 
BRANCH   7   9
ATOM      9  S   UNL A   1      32.347  22.643  25.736  1.00  0.00    -0.112 SA
BRANCH   9  10
ATOM     10  C   UNL A   1      32.538  24.420  25.411  1.00  0.00     0.050 C 
ATOM     11  C   UNL A   1      31.518  27.674  27.243  1.00  0.00     0.007 C 
ATOM     12  C   UNL A   1      32.069  26.785  26.132  1.00  0.00    -0.013 C 
ATOM     13  C   UNL A   1      33.528  27.147  25.816  1.00  0.00     0.003 C 
ATOM     14  C   UNL A   1      31.947  25.301  26.513  1.00  0.00     0.018 C 
ATOM     15  C   UNL A   1      34.117  26.249  24.730  1.00  0.00     0.001 C 
ATOM     16  C   UNL A   1      33.993  24.773  25.096  1.00  0.00     0.014 C 
ENDBRANCH   9  10
ENDBRANCH   7   9
ENDBRANCH   4   7
ENDBRANCH   2   3
ENDBRANCH   1   2
BRANCH   1  17
ATOM     17  C   UNL A   1      38.877  20.289  25.688  1.00  0.00     0.118 C 
BRANCH  17  18
ATOM     18  N   UNL A   1      39.969  19.326  25.761  1.00  0.00    -0.352 N 
ATOM     19  C   UNL A   1      41.290  19.511  26.087  1.00  0.00     0.251 C 
ATOM     20  H   UNL A   1      39.720  18.398  25.543  1.00  0.00     0.163 HD
ATOM     21  O   UNL A   1      42.095  18.597  25.931  1.00  0.00    -0.269 OA
BRANCH  19  22
ATOM     22  C   UNL A   1      41.748  20.820  26.597  1.00  0.00     0.039 A 
ATOM     23  C   UNL A   1      42.247  21.763  25.697  1.00  0.00     0.014 A 
ATOM     24  C   UNL A   1      41.675  21.121  27.959  1.00  0.00     0.014 A 
ATOM     25  C   UNL A   1      42.593  23.037  26.152  1.00  0.00     0.010 A 
ATOM     26  C   UNL A   1      41.919  22.417  28.392  1.00  0.00     0.010 A 
ATOM     27  C   UNL A   1      42.388  23.389  27.496  1.00  0.00    -0.014 A 
BRANCH  27  28
ATOM     28  C   UNL A   1      42.667  24.758  27.997  1.00  0.00     0.031 A 
ATOM     29  C   UNL A   1      44.061  25.128  28.425  1.00  0.00     0.074 A 
ATOM     30  C   UNL A   1      41.659  25.638  28.143  1.00  0.00     0.049 A 
ATOM     31  N   UNL A   1      44.489  26.227  28.992  1.00  0.00    -0.248 NA
ATOM     32  C   UNL A   1      45.108  24.115  28.217  1.00  0.00     0.031 C 
ATOM     33  C   UNL A   1      40.256  25.388  27.805  1.00  0.00     0.029 A 
ATOM     34  N   UNL A   1      41.656  26.922  28.630  1.00  0.00    -0.354 N 
ATOM     35  C   UNL A   1      45.844  26.029  29.223  1.00  0.00     0.074 A 
ATOM     36  C   UNL A   1      46.155  24.683  28.792  1.00  0.00     0.031 C 
ATOM     37  C   UNL A   1      39.536  26.489  28.073  1.00  0.00     0.029 A 
ATOM     38  C   UNL A   1      40.413  27.505  28.644  1.00  0.00     0.049 A 
ATOM     39  H   UNL A   1      42.471  27.382  28.940  1.00  0.00     0.167 HD
ATOM     40  C   UNL A   1      46.755  26.898  29.723  1.00  0.00     0.037 A 
ATOM     41  C   UNL A   1      40.022  28.717  29.082  1.00  0.00     0.037 A 
ATOM     42  C   UNL A   1      46.446  28.243  30.129  1.00  0.00     0.049 A 
ATOM     43  C   UNL A   1      41.047  29.656  29.657  1.00  0.00     0.074 A 
ATOM     44  C   UNL A   1      47.306  29.219  30.601  1.00  0.00     0.029 A 
ATOM     45  N   UNL A   1      45.177  28.801  30.112  1.00  0.00    -0.354 N 
ATOM     46  N   UNL A   1      42.337  29.477  29.813  1.00  0.00    -0.248 NA
ATOM     47  C   UNL A   1      40.564  30.967  30.112  1.00  0.00     0.031 C 
ATOM     48  C   UNL A   1      46.549  30.352  30.916  1.00  0.00     0.029 A 
ATOM     49  C   UNL A   1      45.227  30.102  30.586  1.00  0.00     0.049 A 
ATOM     50  H   UNL A   1      44.361  28.342  29.807  1.00  0.00     0.167 HD
ATOM     51  C   UNL A   1      42.823  30.664  30.349  1.00  0.00     0.074 A 
ATOM     52  C   UNL A   1      41.692  31.557  30.482  1.00  0.00     0.031 C 
ATOM     53  C   UNL A   1      44.094  30.984  30.697  1.00  0.00     0.037 A 
BRANCH  40  54
ATOM     54  C   UNL A   1      48.172  26.417  29.854  1.00  0.00     0.057 A 
ATOM     55  C   UNL A   1      49.108  26.582  28.824  1.00  0.00     0.134 A 
ATOM     56  C   UNL A   1      48.615  25.809  31.035  1.00  0.00     0.134 A 
ATOM     57  F   UNL A   1      48.746  27.145  27.661  1.00  0.00    -0.206 F 
ATOM     58  C   UNL A   1      50.423  26.132  28.952  1.00  0.00     0.040 A 
ATOM     59  C   UNL A   1      49.935  25.383  31.187  1.00  0.00     0.040 A 
ATOM     60  F   UNL A   1      47.774  25.625  32.065  1.00  0.00    -0.206 F 
ATOM     61  C   UNL A   1      50.841  25.537  30.140  1.00  0.00     0.006 A 
ENDBRANCH  40  54
BRANCH  41  62
ATOM     62  C   UNL A   1      38.596  29.123  28.982  1.00  0.00     0.057 A 
ATOM     63  C   UNL A   1      38.070  29.614  27.781  1.00  0.00     0.134 A 
ATOM     64  C   UNL A   1      37.732  29.049  30.081  1.00  0.00     0.134 A 
ATOM     65  F   UNL A   1      38.852  29.726  26.698  1.00  0.00    -0.206 F 
ATOM     66  C   UNL A   1      36.743  30.038  27.682  1.00  0.00     0.040 A 
ATOM     67  C   UNL A   1      36.396  29.444  29.988  1.00  0.00     0.040 A 
ATOM     68  F   UNL A   1      38.171  28.582  31.259  1.00  0.00    -0.206 F 
ATOM     69  C   UNL A   1      35.901  29.950  28.788  1.00  0.00     0.006 A 
ENDBRANCH  41  62
BRANCH  53  70
ATOM     70  C   UNL A   1      44.341  32.374  31.207  1.00  0.00     0.057 A 
ATOM     71  C   UNL A   1      44.608  33.446  30.346  1.00  0.00     0.134 A 
ATOM     72  C   UNL A   1      44.259  32.652  32.578  1.00  0.00     0.134 A 
ATOM     73  F   UNL A   1      44.712  33.246  29.023  1.00  0.00    -0.206 F 
ATOM     74  C   UNL A   1      44.806  34.739  30.832  1.00  0.00     0.040 A 
ATOM     75  C   UNL A   1      44.425  33.945  33.073  1.00  0.00     0.040 A 
ATOM     76  F   UNL A   1      43.996  31.672  33.457  1.00  0.00    -0.206 F 
ATOM     77  C   UNL A   1      44.705  34.992  32.199  1.00  0.00     0.006 A 
ENDBRANCH  53  70
ENDBRANCH  27  28
ENDBRANCH  19  22
ENDBRANCH  17  18
ENDBRANCH   1  17
TORSDOF 12
ENDMDL
