MODEL 1
REMARK VINA RESULT:     -12.5      0.000      0.000
REMARK SMILES Cc1cc2c(c(C)c1Cl)C=C(C(=O)NCCCNC(=O)c1ccc(-c3c4nc(c(-c5c(F)cccc5F)c5ccc([nH]5)c(-c5c(F)cccc5F)c5nc(c(-c6c(F)cccc6F)c6ccc3[nH]6)C=C5)C=C4)cc1)[C@H](C(F)(F)F)O2
REMARK SMILES IDX 16 1 15 2 14 3 12 4 13 5 11 7 1 8 2 9 3 10 8 11 4 12 6 13
REMARK SMILES IDX 9 14 5 15 80 16 7 17 10 18 75 19 76 20 77 21 78 22 79 23
REMARK SMILES IDX 17 24 18 25 19 26 20 28 21 29 22 30 74 31 23 32 73 33 24 34
REMARK SMILES IDX 25 35 26 36 67 37 27 38 72 39 66 40 68 41 28 42 71 43 65 44
REMARK SMILES IDX 64 45 29 47 55 48 38 49 54 50 39 51 42 52 53 53 69 54 40 55
REMARK SMILES IDX 41 56 52 58 70 59 43 60 30 61 31 62 36 63 32 64 33 65 35 66
REMARK SMILES IDX 37 67 34 68 56 69 57 70 62 71 58 72 59 73 61 74 63 75 60 76
REMARK SMILES IDX 44 77 45 78 50 79 46 80 47 81 49 82 51 83 48 84
REMARK H PARENT 14 6 18 27 68 46 42 57
REMARK Flexibility Score: inf
ROOT
ATOM      1  C   UNL A   1      36.851  23.771  25.277  1.00  0.00     0.042 C 
ENDROOT
BRANCH   1   2
ATOM      2  C   UNL A   1      36.361  22.326  25.292  1.00  0.00     0.118 C 
BRANCH   2   3
ATOM      3  N   UNL A   1      35.566  22.043  26.478  1.00  0.00    -0.352 N 
ATOM      4  C   UNL A   1      34.299  22.254  26.898  1.00  0.00     0.251 C 
ATOM      5  O   UNL A   1      34.028  21.771  28.002  1.00  0.00    -0.270 OA
ATOM      6  H   UNL A   1      36.095  21.569  27.159  1.00  0.00     0.163 HD
BRANCH   4   7
ATOM      7  C   UNL A   1      33.251  23.005  26.148  1.00  0.00     0.067 C 
ATOM      8  C   UNL A   1      29.297  27.407  23.432  1.00  0.00     0.046 C 
ATOM      9  C   UNL A   1      30.376  26.671  24.179  1.00  0.00    -0.028 A 
ATOM     10  C   UNL A   1      30.297  25.277  24.256  1.00  0.00     0.052 A 
ATOM     11  C   UNL A   1      31.480  27.325  24.764  1.00  0.00     0.047 A 
ATOM     12  C   UNL A   1      31.282  24.547  24.914  1.00  0.00     0.128 A 
ATOM     13  C   UNL A   1      32.477  26.596  25.459  1.00  0.00    -0.021 A 
ATOM     14  Cl  UNL A   1      31.593  29.052  24.609  1.00  0.00    -0.084 Cl
ATOM     15  C   UNL A   1      32.358  25.187  25.537  1.00  0.00     0.022 A 
ATOM     16  O   UNL A   1      31.092  23.195  24.935  1.00  0.00    -0.475 OA
ATOM     17  C   UNL A   1      33.658  27.281  26.108  1.00  0.00     0.047 C 
ATOM     18  C   UNL A   1      33.299  24.344  26.282  1.00  0.00     0.026 C 
ATOM     19  C   UNL A   1      32.259  22.378  25.216  1.00  0.00     0.314 C 
BRANCH  19  20
ATOM     20  C   UNL A   1      32.882  21.865  23.907  1.00  0.00     0.429 C 
ATOM     21  F   UNL A   1      33.542  20.695  24.069  1.00  0.00    -0.167 F 
ATOM     22  F   UNL A   1      31.909  21.635  22.987  1.00  0.00    -0.167 F 
ATOM     23  F   UNL A   1      33.754  22.739  23.360  1.00  0.00    -0.167 F 
ENDBRANCH  19  20
ENDBRANCH   4   7
ENDBRANCH   2   3
ENDBRANCH   1   2
BRANCH   1  24
ATOM     24  C   UNL A   1      37.789  24.082  26.441  1.00  0.00     0.118 C 
BRANCH  24  25
ATOM     25  N   UNL A   1      39.183  23.857  26.081  1.00  0.00    -0.352 N 
ATOM     26  C   UNL A   1      40.297  24.598  26.381  1.00  0.00     0.251 C 
ATOM     27  H   UNL A   1      39.350  23.051  25.540  1.00  0.00     0.163 HD
ATOM     28  O   UNL A   1      41.339  24.412  25.752  1.00  0.00    -0.269 OA
BRANCH  26  29
ATOM     29  C   UNL A   1      40.255  25.620  27.447  1.00  0.00     0.039 A 
ATOM     30  C   UNL A   1      41.068  26.751  27.340  1.00  0.00     0.014 A 
ATOM     31  C   UNL A   1      39.451  25.442  28.576  1.00  0.00     0.014 A 
ATOM     32  C   UNL A   1      41.035  27.725  28.340  1.00  0.00     0.010 A 
ATOM     33  C   UNL A   1      39.352  26.453  29.527  1.00  0.00     0.010 A 
ATOM     34  C   UNL A   1      40.155  27.597  29.428  1.00  0.00    -0.014 A 
BRANCH  34  35
ATOM     35  C   UNL A   1      40.092  28.631  30.490  1.00  0.00     0.031 A 
ATOM     36  C   UNL A   1      39.110  29.765  30.381  1.00  0.00     0.074 A 
ATOM     37  C   UNL A   1      40.939  28.566  31.536  1.00  0.00     0.049 A 
ATOM     38  N   UNL A   1      38.919  30.773  31.193  1.00  0.00    -0.248 NA
ATOM     39  C   UNL A   1      38.242  29.780  29.192  1.00  0.00     0.031 C 
ATOM     40  C   UNL A   1      41.958  27.535  31.735  1.00  0.00     0.029 A 
ATOM     41  N   UNL A   1      41.070  29.380  32.632  1.00  0.00    -0.354 N 
ATOM     42  C   UNL A   1      37.913  31.536  30.615  1.00  0.00     0.074 A 
ATOM     43  C   UNL A   1      37.584  30.918  29.350  1.00  0.00     0.031 C 
ATOM     44  C   UNL A   1      42.579  27.752  32.906  1.00  0.00     0.029 A 
ATOM     45  C   UNL A   1      42.027  28.956  33.521  1.00  0.00     0.049 A 
ATOM     46  H   UNL A   1      40.530  30.192  32.769  1.00  0.00     0.167 HD
ATOM     47  C   UNL A   1      37.292  32.632  31.110  1.00  0.00     0.037 A 
ATOM     48  C   UNL A   1      42.410  29.474  34.704  1.00  0.00     0.037 A 
ATOM     49  C   UNL A   1      37.609  33.236  32.375  1.00  0.00     0.049 A 
ATOM     50  C   UNL A   1      41.733  30.716  35.214  1.00  0.00     0.074 A 
ATOM     51  C   UNL A   1      37.018  34.332  32.979  1.00  0.00     0.029 A 
ATOM     52  N   UNL A   1      38.603  32.791  33.234  1.00  0.00    -0.354 N 
ATOM     53  N   UNL A   1      40.752  31.402  34.677  1.00  0.00    -0.248 NA
ATOM     54  C   UNL A   1      42.216  31.258  36.492  1.00  0.00     0.031 C 
ATOM     55  C   UNL A   1      37.681  34.574  34.187  1.00  0.00     0.029 A 
ATOM     56  C   UNL A   1      38.653  33.601  34.356  1.00  0.00     0.049 A 
ATOM     57  H   UNL A   1      39.185  32.014  33.070  1.00  0.00     0.167 HD
ATOM     58  C   UNL A   1      40.485  32.439  35.561  1.00  0.00     0.074 A 
ATOM     59  C   UNL A   1      41.397  32.285  36.676  1.00  0.00     0.031 C 
ATOM     60  C   UNL A   1      39.566  33.430  35.458  1.00  0.00     0.037 A 
BRANCH  47  61
ATOM     61  C   UNL A   1      36.189  33.233  30.286  1.00  0.00     0.057 A 
ATOM     62  C   UNL A   1      36.463  33.995  29.143  1.00  0.00     0.134 A 
ATOM     63  C   UNL A   1      34.845  33.016  30.611  1.00  0.00     0.134 A 
ATOM     64  F   UNL A   1      37.730  34.251  28.783  1.00  0.00    -0.206 F 
ATOM     65  C   UNL A   1      35.440  34.542  28.366  1.00  0.00     0.040 A 
ATOM     66  C   UNL A   1      33.812  33.535  29.826  1.00  0.00     0.040 A 
ATOM     67  F   UNL A   1      34.511  32.291  31.689  1.00  0.00    -0.206 F 
ATOM     68  C   UNL A   1      34.109  34.304  28.704  1.00  0.00     0.006 A 
ENDBRANCH  47  61
BRANCH  48  69
ATOM     69  C   UNL A   1      43.450  28.788  35.508  1.00  0.00     0.057 A 
ATOM     70  C   UNL A   1      43.107  27.754  36.388  1.00  0.00     0.134 A 
ATOM     71  C   UNL A   1      44.805  29.125  35.407  1.00  0.00     0.134 A 
ATOM     72  F   UNL A   1      41.823  27.396  36.540  1.00  0.00    -0.206 F 
ATOM     73  C   UNL A   1      44.071  27.084  37.143  1.00  0.00     0.040 A 
ATOM     74  C   UNL A   1      45.783  28.449  36.140  1.00  0.00     0.040 A 
ATOM     75  F   UNL A   1      45.200  30.102  34.579  1.00  0.00    -0.206 F 
ATOM     76  C   UNL A   1      45.415  27.427  37.014  1.00  0.00     0.006 A 
ENDBRANCH  48  69
BRANCH  60  77
ATOM     77  C   UNL A   1      39.485  34.421  36.580  1.00  0.00     0.057 A 
ATOM     78  C   UNL A   1      38.779  34.141  37.756  1.00  0.00     0.134 A 
ATOM     79  C   UNL A   1      40.186  35.633  36.517  1.00  0.00     0.134 A 
ATOM     80  F   UNL A   1      38.078  33.003  37.874  1.00  0.00    -0.206 F 
ATOM     81  C   UNL A   1      38.764  35.037  38.827  1.00  0.00     0.040 A 
ATOM     82  C   UNL A   1      40.200  36.524  37.590  1.00  0.00     0.040 A 
ATOM     83  F   UNL A   1      40.890  35.955  35.421  1.00  0.00    -0.206 F 
ATOM     84  C   UNL A   1      39.486  36.227  38.749  1.00  0.00     0.006 A 
ENDBRANCH  60  77
ENDBRANCH  34  35
ENDBRANCH  26  29
ENDBRANCH  24  25
ENDBRANCH   1  24
TORSDOF 11
ENDMDL
MODEL 2
REMARK VINA RESULT:     -12.4      5.642     10.079
REMARK SMILES Cc1cc2c(c(C)c1Cl)C=C(C(=O)NCCCNC(=O)c1ccc(-c3c4nc(c(-c5c(F)cccc5F)c5ccc([nH]5)c(-c5c(F)cccc5F)c5nc(c(-c6c(F)cccc6F)c6ccc3[nH]6)C=C5)C=C4)cc1)[C@H](C(F)(F)F)O2
REMARK SMILES IDX 16 1 15 2 14 3 12 4 13 5 11 7 1 8 2 9 3 10 8 11 4 12 6 13
REMARK SMILES IDX 9 14 5 15 80 16 7 17 10 18 75 19 76 20 77 21 78 22 79 23
REMARK SMILES IDX 17 24 18 25 19 26 20 28 21 29 22 30 74 31 23 32 73 33 24 34
REMARK SMILES IDX 25 35 26 36 67 37 27 38 72 39 66 40 68 41 28 42 71 43 65 44
REMARK SMILES IDX 64 45 29 47 55 48 38 49 54 50 39 51 42 52 53 53 69 54 40 55
REMARK SMILES IDX 41 56 52 58 70 59 43 60 30 61 31 62 36 63 32 64 33 65 35 66
REMARK SMILES IDX 37 67 34 68 56 69 57 70 62 71 58 72 59 73 61 74 63 75 60 76
REMARK SMILES IDX 44 77 45 78 50 79 46 80 47 81 49 82 51 83 48 84
REMARK H PARENT 14 6 18 27 68 46 42 57
REMARK Flexibility Score: inf
ROOT
ATOM      1  C   UNL A   1      33.473  28.426  27.146  1.00  0.00     0.042 C 
ENDROOT
BRANCH   1   2
ATOM      2  C   UNL A   1      32.623  29.140  26.100  1.00  0.00     0.118 C 
BRANCH   2   3
ATOM      3  N   UNL A   1      33.327  29.264  24.832  1.00  0.00    -0.352 N 
ATOM      4  C   UNL A   1      33.546  28.501  23.738  1.00  0.00     0.251 C 
ATOM      5  O   UNL A   1      34.180  29.055  22.834  1.00  0.00    -0.270 OA
ATOM      6  H   UNL A   1      33.761  30.143  24.749  1.00  0.00     0.163 HD
BRANCH   4   7
ATOM      7  C   UNL A   1      33.094  27.091  23.562  1.00  0.00     0.067 C 
ATOM      8  C   UNL A   1      32.327  20.627  23.427  1.00  0.00     0.046 C 
ATOM      9  C   UNL A   1      32.792  22.042  23.637  1.00  0.00    -0.028 A 
ATOM     10  C   UNL A   1      32.084  23.073  23.011  1.00  0.00     0.052 A 
ATOM     11  C   UNL A   1      33.882  22.372  24.469  1.00  0.00     0.047 A 
ATOM     12  C   UNL A   1      32.457  24.400  23.192  1.00  0.00     0.128 A 
ATOM     13  C   UNL A   1      34.289  23.718  24.642  1.00  0.00    -0.021 A 
ATOM     14  Cl  UNL A   1      34.716  21.084  25.285  1.00  0.00    -0.084 Cl
ATOM     15  C   UNL A   1      33.563  24.738  23.978  1.00  0.00     0.022 A 
ATOM     16  O   UNL A   1      31.699  25.318  22.522  1.00  0.00    -0.475 OA
ATOM     17  C   UNL A   1      35.466  24.089  25.515  1.00  0.00     0.047 C 
ATOM     18  C   UNL A   1      33.936  26.155  24.038  1.00  0.00     0.026 C 
ATOM     19  C   UNL A   1      31.765  26.689  22.996  1.00  0.00     0.314 C 
BRANCH  19  20
ATOM     20  C   UNL A   1      30.582  26.990  23.930  1.00  0.00     0.429 C 
ATOM     21  F   UNL A   1      29.454  26.338  23.568  1.00  0.00    -0.167 F 
ATOM     22  F   UNL A   1      30.872  26.587  25.195  1.00  0.00    -0.167 F 
ATOM     23  F   UNL A   1      30.277  28.305  23.988  1.00  0.00    -0.167 F 
ENDBRANCH  19  20
ENDBRANCH   4   7
ENDBRANCH   2   3
ENDBRANCH   1   2
BRANCH   1  24
ATOM     24  C   UNL A   1      34.845  29.070  27.323  1.00  0.00     0.118 C 
BRANCH  24  25
ATOM     25  N   UNL A   1      34.834  30.074  28.380  1.00  0.00    -0.352 N 
ATOM     26  C   UNL A   1      35.813  30.416  29.276  1.00  0.00     0.251 C 
ATOM     27  H   UNL A   1      33.996  30.585  28.462  1.00  0.00     0.163 HD
ATOM     28  O   UNL A   1      35.523  31.080  30.271  1.00  0.00    -0.269 OA
BRANCH  26  29
ATOM     29  C   UNL A   1      37.211  29.990  29.060  1.00  0.00     0.039 A 
ATOM     30  C   UNL A   1      37.966  29.550  30.149  1.00  0.00     0.014 A 
ATOM     31  C   UNL A   1      37.794  30.071  27.792  1.00  0.00     0.014 A 
ATOM     32  C   UNL A   1      39.288  29.142  29.957  1.00  0.00     0.010 A 
ATOM     33  C   UNL A   1      39.081  29.581  27.585  1.00  0.00     0.010 A 
ATOM     34  C   UNL A   1      39.846  29.128  28.667  1.00  0.00    -0.014 A 
BRANCH  34  35
ATOM     35  C   UNL A   1      41.243  28.680  28.441  1.00  0.00     0.031 A 
ATOM     36  C   UNL A   1      41.530  27.237  28.132  1.00  0.00     0.074 A 
ATOM     37  C   UNL A   1      42.253  29.566  28.543  1.00  0.00     0.049 A 
ATOM     38  N   UNL A   1      42.682  26.650  27.925  1.00  0.00    -0.248 NA
ATOM     39  C   UNL A   1      40.374  26.327  28.069  1.00  0.00     0.031 C 
ATOM     40  C   UNL A   1      42.103  30.984  28.872  1.00  0.00     0.029 A 
ATOM     41  N   UNL A   1      43.604  29.404  28.372  1.00  0.00    -0.354 N 
ATOM     42  C   UNL A   1      42.388  25.310  27.706  1.00  0.00     0.074 A 
ATOM     43  C   UNL A   1      40.961  25.155  27.878  1.00  0.00     0.031 C 
ATOM     44  C   UNL A   1      43.309  31.572  28.833  1.00  0.00     0.029 A 
ATOM     45  C   UNL A   1      44.320  30.568  28.514  1.00  0.00     0.049 A 
ATOM     46  H   UNL A   1      44.023  28.536  28.169  1.00  0.00     0.167 HD
ATOM     47  C   UNL A   1      43.224  24.306  27.357  1.00  0.00     0.037 A 
ATOM     48  C   UNL A   1      45.640  30.800  28.391  1.00  0.00     0.037 A 
ATOM     49  C   UNL A   1      44.641  24.466  27.170  1.00  0.00     0.049 A 
ATOM     50  C   UNL A   1      46.556  29.661  28.042  1.00  0.00     0.074 A 
ATOM     51  C   UNL A   1      45.572  23.516  26.787  1.00  0.00     0.029 A 
ATOM     52  N   UNL A   1      45.331  25.656  27.347  1.00  0.00    -0.354 N 
ATOM     53  N   UNL A   1      46.258  28.408  27.794  1.00  0.00    -0.248 NA
ATOM     54  C   UNL A   1      47.992  29.965  27.955  1.00  0.00     0.031 C 
ATOM     55  C   UNL A   1      46.832  24.122  26.773  1.00  0.00     0.029 A 
ATOM     56  C   UNL A   1      46.679  25.460  27.100  1.00  0.00     0.049 A 
ATOM     57  H   UNL A   1      44.921  26.512  27.611  1.00  0.00     0.167 HD
ATOM     58  C   UNL A   1      47.462  27.780  27.500  1.00  0.00     0.074 A 
ATOM     59  C   UNL A   1      48.494  28.794  27.586  1.00  0.00     0.031 C 
ATOM     60  C   UNL A   1      47.692  26.482  27.188  1.00  0.00     0.037 A 
BRANCH  47  61
ATOM     61  C   UNL A   1      42.621  22.950  27.131  1.00  0.00     0.057 A 
ATOM     62  C   UNL A   1      42.428  22.442  25.839  1.00  0.00     0.134 A 
ATOM     63  C   UNL A   1      42.266  22.129  28.208  1.00  0.00     0.134 A 
ATOM     64  F   UNL A   1      42.735  23.183  24.763  1.00  0.00    -0.206 F 
ATOM     65  C   UNL A   1      41.881  21.174  25.626  1.00  0.00     0.040 A 
ATOM     66  C   UNL A   1      41.744  20.849  28.008  1.00  0.00     0.040 A 
ATOM     67  F   UNL A   1      42.429  22.550  29.471  1.00  0.00    -0.206 F 
ATOM     68  C   UNL A   1      41.546  20.371  26.714  1.00  0.00     0.006 A 
ENDBRANCH  47  61
BRANCH  48  69
ATOM     69  C   UNL A   1      46.165  32.179  28.547  1.00  0.00     0.057 A 
ATOM     70  C   UNL A   1      46.570  32.653  29.801  1.00  0.00     0.134 A 
ATOM     71  C   UNL A   1      46.297  33.048  27.457  1.00  0.00     0.134 A 
ATOM     72  F   UNL A   1      46.454  31.872  30.886  1.00  0.00    -0.206 F 
ATOM     73  C   UNL A   1      47.081  33.940  29.968  1.00  0.00     0.040 A 
ATOM     74  C   UNL A   1      46.826  34.331  27.606  1.00  0.00     0.040 A 
ATOM     75  F   UNL A   1      45.932  32.653  26.229  1.00  0.00    -0.206 F 
ATOM     76  C   UNL A   1      47.217  34.781  28.866  1.00  0.00     0.006 A 
ENDBRANCH  48  69
BRANCH  60  77
ATOM     77  C   UNL A   1      49.106  26.077  26.900  1.00  0.00     0.057 A 
ATOM     78  C   UNL A   1      49.681  26.264  25.638  1.00  0.00     0.134 A 
ATOM     79  C   UNL A   1      49.925  25.568  27.917  1.00  0.00     0.134 A 
ATOM     80  F   UNL A   1      48.947  26.737  24.619  1.00  0.00    -0.206 F 
ATOM     81  C   UNL A   1      51.020  25.951  25.394  1.00  0.00     0.040 A 
ATOM     82  C   UNL A   1      51.270  25.276  27.692  1.00  0.00     0.040 A 
ATOM     83  F   UNL A   1      49.436  25.375  29.152  1.00  0.00    -0.206 F 
ATOM     84  C   UNL A   1      51.821  25.466  26.427  1.00  0.00     0.006 A 
ENDBRANCH  60  77
ENDBRANCH  34  35
ENDBRANCH  26  29
ENDBRANCH  24  25
ENDBRANCH   1  24
TORSDOF 11
ENDMDL
MODEL 3
REMARK VINA RESULT:     -12.3      3.950      5.494
REMARK SMILES Cc1cc2c(c(C)c1Cl)C=C(C(=O)NCCCNC(=O)c1ccc(-c3c4nc(c(-c5c(F)cccc5F)c5ccc([nH]5)c(-c5c(F)cccc5F)c5nc(c(-c6c(F)cccc6F)c6ccc3[nH]6)C=C5)C=C4)cc1)[C@H](C(F)(F)F)O2
REMARK SMILES IDX 16 1 15 2 14 3 12 4 13 5 11 7 1 8 2 9 3 10 8 11 4 12 6 13
REMARK SMILES IDX 9 14 5 15 80 16 7 17 10 18 75 19 76 20 77 21 78 22 79 23
REMARK SMILES IDX 17 24 18 25 19 26 20 28 21 29 22 30 74 31 23 32 73 33 24 34
REMARK SMILES IDX 25 35 26 36 67 37 27 38 72 39 66 40 68 41 28 42 71 43 65 44
REMARK SMILES IDX 64 45 29 47 55 48 38 49 54 50 39 51 42 52 53 53 69 54 40 55
REMARK SMILES IDX 41 56 52 58 70 59 43 60 30 61 31 62 36 63 32 64 33 65 35 66
REMARK SMILES IDX 37 67 34 68 56 69 57 70 62 71 58 72 59 73 61 74 63 75 60 76
REMARK SMILES IDX 44 77 45 78 50 79 46 80 47 81 49 82 51 83 48 84
REMARK H PARENT 14 6 18 27 68 46 42 57
REMARK Flexibility Score: inf
ROOT
ATOM      1  C   UNL A   1      37.044  20.030  24.912  1.00  0.00     0.042 C 
ENDROOT
BRANCH   1   2
ATOM      2  C   UNL A   1      35.919  21.059  24.903  1.00  0.00     0.118 C 
BRANCH   2   3
ATOM      3  N   UNL A   1      35.172  21.047  26.152  1.00  0.00    -0.352 N 
ATOM      4  C   UNL A   1      34.008  21.553  26.619  1.00  0.00     0.251 C 
ATOM      5  O   UNL A   1      33.727  21.229  27.778  1.00  0.00    -0.270 OA
ATOM      6  H   UNL A   1      35.642  20.530  26.845  1.00  0.00     0.163 HD
BRANCH   4   7
ATOM      7  C   UNL A   1      33.084  22.442  25.859  1.00  0.00     0.067 C 
ATOM      8  C   UNL A   1      29.801  27.351  23.118  1.00  0.00     0.046 C 
ATOM      9  C   UNL A   1      30.760  26.473  23.875  1.00  0.00    -0.028 A 
ATOM     10  C   UNL A   1      30.492  25.102  23.941  1.00  0.00     0.052 A 
ATOM     11  C   UNL A   1      31.934  26.968  24.479  1.00  0.00     0.047 A 
ATOM     12  C   UNL A   1      31.359  24.242  24.608  1.00  0.00     0.128 A 
ATOM     13  C   UNL A   1      32.813  26.108  25.183  1.00  0.00    -0.021 A 
ATOM     14  Cl  UNL A   1      32.282  28.665  24.337  1.00  0.00    -0.084 Cl
ATOM     15  C   UNL A   1      32.503  24.727  25.250  1.00  0.00     0.022 A 
ATOM     16  O   UNL A   1      30.988  22.927  24.618  1.00  0.00    -0.475 OA
ATOM     17  C   UNL A   1      34.066  26.624  25.853  1.00  0.00     0.047 C 
ATOM     18  C   UNL A   1      33.310  23.761  26.003  1.00  0.00     0.026 C 
ATOM     19  C   UNL A   1      32.029  21.959  24.910  1.00  0.00     0.314 C 
BRANCH  19  20
ATOM     20  C   UNL A   1      32.596  21.372  23.607  1.00  0.00     0.429 C 
ATOM     21  F   UNL A   1      31.683  21.342  22.609  1.00  0.00    -0.167 F 
ATOM     22  F   UNL A   1      33.628  22.136  23.163  1.00  0.00    -0.167 F 
ATOM     23  F   UNL A   1      33.063  20.113  23.754  1.00  0.00    -0.167 F 
ENDBRANCH  19  20
ENDBRANCH   4   7
ENDBRANCH   2   3
ENDBRANCH   1   2
BRANCH   1  24
ATOM     24  C   UNL A   1      38.403  20.652  25.220  1.00  0.00     0.118 C 
BRANCH  24  25
ATOM     25  N   UNL A   1      39.401  19.635  25.531  1.00  0.00    -0.352 N 
ATOM     26  C   UNL A   1      40.685  19.777  25.989  1.00  0.00     0.251 C 
ATOM     27  H   UNL A   1      39.107  18.706  25.390  1.00  0.00     0.163 HD
ATOM     28  O   UNL A   1      41.465  18.827  25.917  1.00  0.00    -0.269 OA
BRANCH  26  29
ATOM     29  C   UNL A   1      41.141  21.060  26.561  1.00  0.00     0.039 A 
ATOM     30  C   UNL A   1      41.713  22.018  25.720  1.00  0.00     0.014 A 
ATOM     31  C   UNL A   1      41.051  21.302  27.935  1.00  0.00     0.014 A 
ATOM     32  C   UNL A   1      42.145  23.235  26.249  1.00  0.00     0.010 A 
ATOM     33  C   UNL A   1      41.400  22.548  28.447  1.00  0.00     0.010 A 
ATOM     34  C   UNL A   1      41.966  23.521  27.613  1.00  0.00    -0.014 A 
BRANCH  34  35
ATOM     35  C   UNL A   1      42.402  24.817  28.189  1.00  0.00     0.031 A 
ATOM     36  C   UNL A   1      41.408  25.928  28.384  1.00  0.00     0.074 A 
ATOM     37  C   UNL A   1      43.698  25.003  28.509  1.00  0.00     0.049 A 
ATOM     38  N   UNL A   1      41.599  27.135  28.851  1.00  0.00    -0.248 NA
ATOM     39  C   UNL A   1      40.018  25.654  27.980  1.00  0.00     0.031 C 
ATOM     40  C   UNL A   1      44.762  24.014  28.334  1.00  0.00     0.029 A 
ATOM     41  N   UNL A   1      44.337  26.087  29.055  1.00  0.00    -0.354 N 
ATOM     42  C   UNL A   1      40.359  27.760  28.799  1.00  0.00     0.074 A 
ATOM     43  C   UNL A   1      39.439  26.827  28.188  1.00  0.00     0.031 C 
ATOM     44  C   UNL A   1      45.912  24.519  28.808  1.00  0.00     0.029 A 
ATOM     45  C   UNL A   1      45.675  25.878  29.285  1.00  0.00     0.049 A 
ATOM     46  H   UNL A   1      43.880  26.935  29.263  1.00  0.00     0.167 HD
ATOM     47  C   UNL A   1      40.009  28.986  29.253  1.00  0.00     0.037 A 
ATOM     48  C   UNL A   1      46.603  26.689  29.827  1.00  0.00     0.037 A 
ATOM     49  C   UNL A   1      40.922  29.905  29.875  1.00  0.00     0.049 A 
ATOM     50  C   UNL A   1      46.199  28.062  30.287  1.00  0.00     0.074 A 
ATOM     51  C   UNL A   1      40.659  31.161  30.395  1.00  0.00     0.029 A 
ATOM     52  N   UNL A   1      42.275  29.666  30.066  1.00  0.00    -0.354 N 
ATOM     53  N   UNL A   1      45.014  28.623  30.273  1.00  0.00    -0.248 NA
ATOM     54  C   UNL A   1      47.261  28.917  30.839  1.00  0.00     0.031 C 
ATOM     55  C   UNL A   1      41.863  31.698  30.865  1.00  0.00     0.029 A 
ATOM     56  C   UNL A   1      42.864  30.758  30.680  1.00  0.00     0.049 A 
ATOM     57  H   UNL A   1      42.746  28.842  29.803  1.00  0.00     0.167 HD
ATOM     58  C   UNL A   1      45.181  29.883  30.832  1.00  0.00     0.074 A 
ATOM     59  C   UNL A   1      46.580  30.000  31.189  1.00  0.00     0.031 C 
ATOM     60  C   UNL A   1      44.259  30.856  31.031  1.00  0.00     0.037 A 
BRANCH  47  61
ATOM     61  C   UNL A   1      38.570  29.390  29.112  1.00  0.00     0.057 A 
ATOM     62  C   UNL A   1      38.032  29.758  27.872  1.00  0.00     0.134 A 
ATOM     63  C   UNL A   1      37.705  29.374  30.213  1.00  0.00     0.134 A 
ATOM     64  F   UNL A   1      38.811  29.807  26.780  1.00  0.00    -0.206 F 
ATOM     65  C   UNL A   1      36.690  30.120  27.735  1.00  0.00     0.040 A 
ATOM     66  C   UNL A   1      36.354  29.706  30.083  1.00  0.00     0.040 A 
ATOM     67  F   UNL A   1      38.152  29.026  31.428  1.00  0.00    -0.206 F 
ATOM     68  C   UNL A   1      35.846  30.086  28.843  1.00  0.00     0.006 A 
ENDBRANCH  47  61
BRANCH  48  69
ATOM     69  C   UNL A   1      47.992  26.201  30.013  1.00  0.00     0.057 A 
ATOM     70  C   UNL A   1      48.922  26.278  28.969  1.00  0.00     0.134 A 
ATOM     71  C   UNL A   1      48.432  25.669  31.231  1.00  0.00     0.134 A 
ATOM     72  F   UNL A   1      48.556  26.764  27.773  1.00  0.00    -0.206 F 
ATOM     73  C   UNL A   1      50.238  25.840  29.127  1.00  0.00     0.040 A 
ATOM     74  C   UNL A   1      49.751  25.246  31.409  1.00  0.00     0.040 A 
ATOM     75  F   UNL A   1      47.592  25.573  32.270  1.00  0.00    -0.206 F 
ATOM     76  C   UNL A   1      50.657  25.328  30.353  1.00  0.00     0.006 A 
ENDBRANCH  48  69
BRANCH  60  77
ATOM     77  C   UNL A   1      44.720  32.128  31.676  1.00  0.00     0.057 A 
ATOM     78  C   UNL A   1      44.742  32.280  33.067  1.00  0.00     0.134 A 
ATOM     79  C   UNL A   1      45.222  33.182  30.900  1.00  0.00     0.134 A 
ATOM     80  F   UNL A   1      44.265  31.312  33.864  1.00  0.00    -0.206 F 
ATOM     81  C   UNL A   1      45.238  33.439  33.666  1.00  0.00     0.040 A 
ATOM     82  C   UNL A   1      45.744  34.334  31.487  1.00  0.00     0.040 A 
ATOM     83  F   UNL A   1      45.238  33.094  29.562  1.00  0.00    -0.206 F 
ATOM     84  C   UNL A   1      45.752  34.466  32.874  1.00  0.00     0.006 A 
ENDBRANCH  60  77
ENDBRANCH  34  35
ENDBRANCH  26  29
ENDBRANCH  24  25
ENDBRANCH   1  24
TORSDOF 11
ENDMDL
