MODEL 1
REMARK VINA RESULT:     -11.0      0.000      0.000
REMARK SMILES CCCCCCNC(=O)Oc1cccc(-c2ccc([C@@H](C)C(=O)NCCCNC(=O)c3ccc(-c4c5nc(c(-c6c(F)cccc6F)c6ccc([nH]6)c(-c6c(F)cccc6F)c6nc(c(-c7c(F)cccc7F)c7ccc4[nH]7)C=C6)C=C5)cc3)cc2N)c1
REMARK SMILES IDX 16 1 17 2 18 3 19 4 85 5 86 6 15 7 11 8 12 9 88 10 13 11
REMARK SMILES IDX 14 12 10 13 8 14 7 15 9 17 6 18 5 19 4 20 3 21 2 22 1 23
REMARK SMILES IDX 87 24 20 27 21 28 22 29 23 30 24 31 25 33 26 34 27 35 28 36
REMARK SMILES IDX 29 37 30 39 31 40 32 41 84 42 33 43 83 44 34 45 35 46 36 47
REMARK SMILES IDX 77 48 37 49 82 50 76 51 78 52 38 53 81 54 75 55 74 56 39 58
REMARK SMILES IDX 65 59 48 60 64 61 49 62 52 63 63 64 79 65 50 66 51 67 62 69
REMARK SMILES IDX 80 70 53 71 40 72 41 73 46 74 42 75 43 76 45 77 47 78 44 79
REMARK SMILES IDX 66 80 67 81 72 82 68 83 69 84 71 85 73 86 70 87 54 88 55 89
REMARK SMILES IDX 60 90 56 91 57 92 59 93 61 94 58 95
REMARK H PARENT 7 16 87 25 87 26 24 32 28 38 78 57 52 68
REMARK Flexibility Score: inf
ROOT
ATOM      1  C   UNL A   1      33.558  28.553  26.312  1.00  0.00     0.005 A 
ATOM      2  C   UNL A   1      34.010  28.217  25.021  1.00  0.00     0.011 A 
ATOM      3  C   UNL A   1      33.406  27.209  24.266  1.00  0.00     0.005 A 
ATOM      4  C   UNL A   1      32.395  26.422  24.811  1.00  0.00    -0.034 A 
ATOM      5  C   UNL A   1      31.902  26.785  26.075  1.00  0.00     0.030 A 
ATOM      6  C   UNL A   1      32.408  27.885  26.791  1.00  0.00     0.040 A 
ENDROOT
BRANCH   1   7
ATOM      7  C   UNL A   1      34.312  29.563  27.097  1.00  0.00    -0.013 A 
ATOM      8  C   UNL A   1      34.648  31.856  27.846  1.00  0.00     0.133 A 
ATOM      9  C   UNL A   1      35.737  31.476  28.625  1.00  0.00     0.047 A 
ATOM     10  C   UNL A   1      33.934  30.918  27.099  1.00  0.00     0.056 A 
ATOM     11  C   UNL A   1      36.111  30.137  28.661  1.00  0.00     0.004 A 
ATOM     12  C   UNL A   1      35.414  29.195  27.896  1.00  0.00     0.009 A 
BRANCH   8  13
ATOM     13  O   UNL A   1      34.403  33.234  27.733  1.00  0.00    -0.410 OA
BRANCH  13  14
ATOM     14  C   UNL A   1      33.221  33.756  28.236  1.00  0.00     0.412 C 
ATOM     15  N   UNL A   1      33.354  34.243  29.509  1.00  0.00    -0.321 N 
ATOM     16  H   UNL A   1      32.542  34.612  29.927  1.00  0.00     0.167 HD
ATOM     17  O   UNL A   1      32.144  33.793  27.655  1.00  0.00    -0.224 OA
BRANCH  15  18
ATOM     18  C   UNL A   1      34.564  34.273  30.305  1.00  0.00     0.119 C 
BRANCH  18  19
ATOM     19  C   UNL A   1      34.436  33.438  31.580  1.00  0.00     0.021 C 
BRANCH  19  20
ATOM     20  C   UNL A   1      34.114  34.240  32.847  1.00  0.00     0.002 C 
BRANCH  20  21
ATOM     21  C   UNL A   1      34.811  35.600  32.964  1.00  0.00    -0.000 C 
BRANCH  21  22
ATOM     22  C   UNL A   1      33.900  36.779  33.320  1.00  0.00    -0.003 C 
ATOM     23  C   UNL A   1      33.698  37.752  32.170  1.00  0.00     0.004 C 
ENDBRANCH  21  22
ENDBRANCH  20  21
ENDBRANCH  19  20
ENDBRANCH  18  19
ENDBRANCH  15  18
ENDBRANCH  13  14
ENDBRANCH   8  13
ENDBRANCH   1   7
BRANCH   6  24
ATOM     24  N   UNL A   1      31.819  28.192  28.020  1.00  0.00    -0.398 N 
ATOM     25  H   UNL A   1      32.158  28.947  28.553  1.00  0.00     0.156 HD
ATOM     26  H   UNL A   1      31.065  27.653  28.353  1.00  0.00     0.156 HD
ENDBRANCH   6  24
BRANCH   4  27
ATOM     27  C   UNL A   1      31.842  25.187  24.117  1.00  0.00     0.105 C 
ATOM     28  C   UNL A   1      30.342  25.204  23.832  1.00  0.00     0.023 C 
BRANCH  27  29
ATOM     29  C   UNL A   1      32.711  24.696  22.947  1.00  0.00     0.227 C 
ATOM     30  O   UNL A   1      32.540  25.165  21.814  1.00  0.00    -0.274 OA
ATOM     31  N   UNL A   1      33.697  23.765  23.064  1.00  0.00    -0.356 N 
ATOM     32  H   UNL A   1      34.201  23.610  22.233  1.00  0.00     0.163 HD
BRANCH  31  33
ATOM     33  C   UNL A   1      34.143  22.961  24.184  1.00  0.00     0.117 C 
BRANCH  33  34
ATOM     34  C   UNL A   1      35.543  23.346  24.653  1.00  0.00     0.042 C 
BRANCH  34  35
ATOM     35  C   UNL A   1      35.966  22.690  25.958  1.00  0.00     0.118 C 
BRANCH  35  36
ATOM     36  N   UNL A   1      36.970  21.658  25.753  1.00  0.00    -0.352 N 
ATOM     37  C   UNL A   1      38.336  21.694  25.869  1.00  0.00     0.251 C 
ATOM     38  H   UNL A   1      36.607  20.784  25.484  1.00  0.00     0.163 HD
ATOM     39  O   UNL A   1      38.986  20.746  25.431  1.00  0.00    -0.269 OA
BRANCH  37  40
ATOM     40  C   UNL A   1      39.044  22.829  26.507  1.00  0.00     0.039 A 
ATOM     41  C   UNL A   1      38.658  24.129  26.158  1.00  0.00     0.014 A 
ATOM     42  C   UNL A   1      40.139  22.647  27.357  1.00  0.00     0.014 A 
ATOM     43  C   UNL A   1      39.357  25.231  26.658  1.00  0.00     0.010 A 
ATOM     44  C   UNL A   1      40.777  23.747  27.930  1.00  0.00     0.010 A 
ATOM     45  C   UNL A   1      40.422  25.049  27.553  1.00  0.00    -0.014 A 
BRANCH  45  46
ATOM     46  C   UNL A   1      41.222  26.205  28.033  1.00  0.00     0.031 A 
ATOM     47  C   UNL A   1      42.634  26.397  27.541  1.00  0.00     0.074 A 
ATOM     48  C   UNL A   1      40.693  27.070  28.918  1.00  0.00     0.049 A 
ATOM     49  N   UNL A   1      43.499  27.332  27.846  1.00  0.00    -0.248 NA
ATOM     50  C   UNL A   1      43.154  25.388  26.603  1.00  0.00     0.031 C 
ATOM     51  C   UNL A   1      39.357  26.969  29.506  1.00  0.00     0.029 A 
ATOM     52  N   UNL A   1      41.218  28.207  29.477  1.00  0.00    -0.354 N 
ATOM     53  C   UNL A   1      44.662  27.012  27.156  1.00  0.00     0.074 A 
ATOM     54  C   UNL A   1      44.415  25.767  26.463  1.00  0.00     0.031 C 
ATOM     55  C   UNL A   1      39.156  28.018  30.321  1.00  0.00     0.029 A 
ATOM     56  C   UNL A   1      40.355  28.850  30.331  1.00  0.00     0.049 A 
ATOM     57  H   UNL A   1      42.127  28.533  29.284  1.00  0.00     0.167 HD
ATOM     58  C   UNL A   1      45.824  27.704  27.082  1.00  0.00     0.037 A 
ATOM     59  C   UNL A   1      40.513  29.986  31.034  1.00  0.00     0.037 A 
ATOM     60  C   UNL A   1      46.058  28.960  27.742  1.00  0.00     0.049 A 
ATOM     61  C   UNL A   1      41.798  30.756  30.908  1.00  0.00     0.074 A 
ATOM     62  C   UNL A   1      47.183  29.766  27.697  1.00  0.00     0.029 A 
ATOM     63  N   UNL A   1      45.142  29.598  28.567  1.00  0.00    -0.354 N 
ATOM     64  N   UNL A   1      42.868  30.472  30.206  1.00  0.00    -0.248 NA
ATOM     65  C   UNL A   1      41.890  32.015  31.659  1.00  0.00     0.031 C 
ATOM     66  C   UNL A   1      46.958  30.876  28.517  1.00  0.00     0.029 A 
ATOM     67  C   UNL A   1      45.677  30.785  29.037  1.00  0.00     0.049 A 
ATOM     68  H   UNL A   1      44.245  29.256  28.784  1.00  0.00     0.167 HD
ATOM     69  C   UNL A   1      43.743  31.531  30.400  1.00  0.00     0.074 A 
ATOM     70  C   UNL A   1      43.075  32.469  31.278  1.00  0.00     0.031 C 
ATOM     71  C   UNL A   1      44.989  31.714  29.896  1.00  0.00     0.037 A 
BRANCH  58  72
ATOM     72  C   UNL A   1      46.926  27.115  26.247  1.00  0.00     0.057 A 
ATOM     73  C   UNL A   1      47.874  26.236  26.789  1.00  0.00     0.134 A 
ATOM     74  C   UNL A   1      47.033  27.417  24.884  1.00  0.00     0.134 A 
ATOM     75  F   UNL A   1      47.838  25.915  28.091  1.00  0.00    -0.206 F 
ATOM     76  C   UNL A   1      48.905  25.703  26.012  1.00  0.00     0.040 A 
ATOM     77  C   UNL A   1      48.042  26.869  24.091  1.00  0.00     0.040 A 
ATOM     78  F   UNL A   1      46.156  28.247  24.299  1.00  0.00    -0.206 F 
ATOM     79  C   UNL A   1      48.987  26.016  24.657  1.00  0.00     0.006 A 
ENDBRANCH  58  72
BRANCH  59  80
ATOM     80  C   UNL A   1      39.405  30.494  31.882  1.00  0.00     0.057 A 
ATOM     81  C   UNL A   1      38.536  31.488  31.413  1.00  0.00     0.134 A 
ATOM     82  C   UNL A   1      39.190  30.008  33.176  1.00  0.00     0.134 A 
ATOM     83  F   UNL A   1      38.702  32.005  30.187  1.00  0.00    -0.206 F 
ATOM     84  C   UNL A   1      37.509  31.995  32.209  1.00  0.00     0.040 A 
ATOM     85  C   UNL A   1      38.150  30.489  33.974  1.00  0.00     0.040 A 
ATOM     86  F   UNL A   1      39.983  29.050  33.681  1.00  0.00    -0.206 F 
ATOM     87  C   UNL A   1      37.310  31.492  33.493  1.00  0.00     0.006 A 
ENDBRANCH  59  80
BRANCH  71  88
ATOM     88  C   UNL A   1      45.684  32.999  30.239  1.00  0.00     0.057 A 
ATOM     89  C   UNL A   1      46.511  33.120  31.362  1.00  0.00     0.134 A 
ATOM     90  C   UNL A   1      45.536  34.123  29.418  1.00  0.00     0.134 A 
ATOM     91  F   UNL A   1      46.684  32.082  32.195  1.00  0.00    -0.206 F 
ATOM     92  C   UNL A   1      47.143  34.325  31.674  1.00  0.00     0.040 A 
ATOM     93  C   UNL A   1      46.184  35.325  29.704  1.00  0.00     0.040 A 
ATOM     94  F   UNL A   1      44.765  34.071  28.321  1.00  0.00    -0.206 F 
ATOM     95  C   UNL A   1      46.984  35.430  30.840  1.00  0.00     0.006 A 
ENDBRANCH  71  88
ENDBRANCH  45  46
ENDBRANCH  37  40
ENDBRANCH  35  36
ENDBRANCH  34  35
ENDBRANCH  33  34
ENDBRANCH  31  33
ENDBRANCH  27  29
ENDBRANCH   4  27
TORSDOF 20
ENDMDL
MODEL 2
REMARK VINA RESULT:     -10.8      3.549      9.860
REMARK SMILES CCCCCCNC(=O)Oc1cccc(-c2ccc([C@@H](C)C(=O)NCCCNC(=O)c3ccc(-c4c5nc(c(-c6c(F)cccc6F)c6ccc([nH]6)c(-c6c(F)cccc6F)c6nc(c(-c7c(F)cccc7F)c7ccc4[nH]7)C=C6)C=C5)cc3)cc2N)c1
REMARK SMILES IDX 16 1 17 2 18 3 19 4 85 5 86 6 15 7 11 8 12 9 88 10 13 11
REMARK SMILES IDX 14 12 10 13 8 14 7 15 9 17 6 18 5 19 4 20 3 21 2 22 1 23
REMARK SMILES IDX 87 24 20 27 21 28 22 29 23 30 24 31 25 33 26 34 27 35 28 36
REMARK SMILES IDX 29 37 30 39 31 40 32 41 84 42 33 43 83 44 34 45 35 46 36 47
REMARK SMILES IDX 77 48 37 49 82 50 76 51 78 52 38 53 81 54 75 55 74 56 39 58
REMARK SMILES IDX 65 59 48 60 64 61 49 62 52 63 63 64 79 65 50 66 51 67 62 69
REMARK SMILES IDX 80 70 53 71 40 72 41 73 46 74 42 75 43 76 45 77 47 78 44 79
REMARK SMILES IDX 66 80 67 81 72 82 68 83 69 84 71 85 73 86 70 87 54 88 55 89
REMARK SMILES IDX 60 90 56 91 57 92 59 93 61 94 58 95
REMARK H PARENT 7 16 87 25 87 26 24 32 28 38 78 57 52 68
REMARK Flexibility Score: inf
ROOT
ATOM      1  C   UNL A   1      32.757  23.295  24.089  1.00  0.00     0.005 A 
ATOM      2  C   UNL A   1      31.895  23.719  25.119  1.00  0.00     0.011 A 
ATOM      3  C   UNL A   1      30.837  24.601  24.882  1.00  0.00     0.005 A 
ATOM      4  C   UNL A   1      30.662  25.179  23.627  1.00  0.00    -0.034 A 
ATOM      5  C   UNL A   1      31.482  24.721  22.583  1.00  0.00     0.030 A 
ATOM      6  C   UNL A   1      32.463  23.731  22.777  1.00  0.00     0.040 A 
ENDROOT
BRANCH   1   7
ATOM      7  C   UNL A   1      33.921  22.440  24.433  1.00  0.00    -0.013 A 
ATOM      8  C   UNL A   1      36.291  22.171  24.923  1.00  0.00     0.133 A 
ATOM      9  C   UNL A   1      36.128  20.804  25.123  1.00  0.00     0.047 A 
ATOM     10  C   UNL A   1      35.208  22.986  24.593  1.00  0.00     0.056 A 
ATOM     11  C   UNL A   1      34.859  20.247  24.999  1.00  0.00     0.004 A 
ATOM     12  C   UNL A   1      33.773  21.054  24.645  1.00  0.00     0.009 A 
BRANCH   8  13
ATOM     13  O   UNL A   1      37.610  22.656  24.919  1.00  0.00    -0.410 OA
BRANCH  13  14
ATOM     14  C   UNL A   1      38.134  23.204  26.081  1.00  0.00     0.412 C 
ATOM     15  N   UNL A   1      39.165  22.466  26.598  1.00  0.00    -0.321 N 
ATOM     16  H   UNL A   1      39.567  22.797  27.434  1.00  0.00     0.167 HD
ATOM     17  O   UNL A   1      37.747  24.225  26.634  1.00  0.00    -0.224 OA
BRANCH  15  18
ATOM     18  C   UNL A   1      39.727  21.251  26.044  1.00  0.00     0.119 C 
BRANCH  18  19
ATOM     19  C   UNL A   1      40.837  20.677  26.926  1.00  0.00     0.021 C 
BRANCH  19  20
ATOM     20  C   UNL A   1      42.110  20.266  26.175  1.00  0.00     0.002 C 
BRANCH  20  21
ATOM     21  C   UNL A   1      42.656  18.874  26.512  1.00  0.00    -0.000 C 
BRANCH  21  22
ATOM     22  C   UNL A   1      43.907  18.452  25.735  1.00  0.00    -0.003 C 
ATOM     23  C   UNL A   1      44.284  19.422  24.627  1.00  0.00     0.004 C 
ENDBRANCH  21  22
ENDBRANCH  20  21
ENDBRANCH  19  20
ENDBRANCH  18  19
ENDBRANCH  15  18
ENDBRANCH  13  14
ENDBRANCH   8  13
ENDBRANCH   1   7
BRANCH   6  24
ATOM     24  N   UNL A   1      33.195  23.309  21.664  1.00  0.00    -0.398 N 
ATOM     25  H   UNL A   1      33.464  22.366  21.580  1.00  0.00     0.156 HD
ATOM     26  H   UNL A   1      33.443  23.956  20.964  1.00  0.00     0.156 HD
ENDBRANCH   6  24
BRANCH   4  27
ATOM     27  C   UNL A   1      29.662  26.292  23.361  1.00  0.00     0.105 C 
ATOM     28  C   UNL A   1      28.448  26.326  24.287  1.00  0.00     0.023 C 
BRANCH  27  29
ATOM     29  C   UNL A   1      30.315  27.662  23.112  1.00  0.00     0.227 C 
ATOM     30  O   UNL A   1      30.249  28.181  21.991  1.00  0.00    -0.274 OA
ATOM     31  N   UNL A   1      30.973  28.380  24.063  1.00  0.00    -0.356 N 
ATOM     32  H   UNL A   1      31.277  29.265  23.758  1.00  0.00     0.163 HD
BRANCH  31  33
ATOM     33  C   UNL A   1      31.308  28.084  25.442  1.00  0.00     0.117 C 
BRANCH  33  34
ATOM     34  C   UNL A   1      32.808  27.897  25.646  1.00  0.00     0.042 C 
BRANCH  34  35
ATOM     35  C   UNL A   1      33.648  29.097  25.233  1.00  0.00     0.118 C 
BRANCH  35  36
ATOM     36  N   UNL A   1      33.193  30.327  25.863  1.00  0.00    -0.352 N 
ATOM     37  C   UNL A   1      33.644  30.990  26.975  1.00  0.00     0.251 C 
ATOM     38  H   UNL A   1      32.431  30.758  25.413  1.00  0.00     0.163 HD
ATOM     39  O   UNL A   1      32.956  31.899  27.434  1.00  0.00    -0.269 OA
BRANCH  37  40
ATOM     40  C   UNL A   1      34.930  30.648  27.630  1.00  0.00     0.039 A 
ATOM     41  C   UNL A   1      35.119  29.330  28.066  1.00  0.00     0.014 A 
ATOM     42  C   UNL A   1      35.904  31.608  27.915  1.00  0.00     0.014 A 
ATOM     43  C   UNL A   1      36.273  28.981  28.774  1.00  0.00     0.010 A 
ATOM     44  C   UNL A   1      37.096  31.240  28.538  1.00  0.00     0.010 A 
ATOM     45  C   UNL A   1      37.274  29.933  29.012  1.00  0.00    -0.014 A 
BRANCH  45  46
ATOM     46  C   UNL A   1      38.469  29.596  29.829  1.00  0.00     0.031 A 
ATOM     47  C   UNL A   1      38.619  30.169  31.214  1.00  0.00     0.074 A 
ATOM     48  C   UNL A   1      39.425  28.794  29.324  1.00  0.00     0.049 A 
ATOM     49  N   UNL A   1      39.588  30.007  32.080  1.00  0.00    -0.248 NA
ATOM     50  C   UNL A   1      37.550  31.069  31.680  1.00  0.00     0.031 C 
ATOM     51  C   UNL A   1      39.422  28.214  27.981  1.00  0.00     0.029 A 
ATOM     52  N   UNL A   1      40.586  28.327  29.887  1.00  0.00    -0.354 N 
ATOM     53  C   UNL A   1      39.256  30.795  33.175  1.00  0.00     0.074 A 
ATOM     54  C   UNL A   1      38.026  31.480  32.845  1.00  0.00     0.031 C 
ATOM     55  C   UNL A   1      40.513  27.444  27.833  1.00  0.00     0.029 A 
ATOM     56  C   UNL A   1      41.303  27.496  29.059  1.00  0.00     0.049 A 
ATOM     57  H   UNL A   1      40.878  28.564  30.796  1.00  0.00     0.167 HD
ATOM     58  C   UNL A   1      39.899  30.918  34.361  1.00  0.00     0.037 A 
ATOM     59  C   UNL A   1      42.461  26.846  29.273  1.00  0.00     0.037 A 
ATOM     60  C   UNL A   1      41.102  30.208  34.703  1.00  0.00     0.049 A 
ATOM     61  C   UNL A   1      43.138  26.968  30.609  1.00  0.00     0.074 A 
ATOM     62  C   UNL A   1      41.809  30.226  35.892  1.00  0.00     0.029 A 
ATOM     63  N   UNL A   1      41.775  29.345  33.850  1.00  0.00    -0.354 N 
ATOM     64  N   UNL A   1      42.780  27.671  31.657  1.00  0.00    -0.248 NA
ATOM     65  C   UNL A   1      44.371  26.192  30.799  1.00  0.00     0.031 C 
ATOM     66  C   UNL A   1      42.925  29.395  35.750  1.00  0.00     0.029 A 
ATOM     67  C   UNL A   1      42.889  28.826  34.487  1.00  0.00     0.049 A 
ATOM     68  H   UNL A   1      41.499  29.133  32.930  1.00  0.00     0.167 HD
ATOM     69  C   UNL A   1      43.720  27.394  32.640  1.00  0.00     0.074 A 
ATOM     70  C   UNL A   1      44.658  26.451  32.067  1.00  0.00     0.031 C 
ATOM     71  C   UNL A   1      43.801  27.875  33.906  1.00  0.00     0.037 A 
BRANCH  58  72
ATOM     72  C   UNL A   1      39.301  31.849  35.377  1.00  0.00     0.057 A 
ATOM     73  C   UNL A   1      39.627  33.212  35.411  1.00  0.00     0.134 A 
ATOM     74  C   UNL A   1      38.378  31.384  36.321  1.00  0.00     0.134 A 
ATOM     75  F   UNL A   1      40.515  33.721  34.543  1.00  0.00    -0.206 F 
ATOM     76  C   UNL A   1      39.080  34.071  36.367  1.00  0.00     0.040 A 
ATOM     77  C   UNL A   1      37.804  32.239  37.264  1.00  0.00     0.040 A 
ATOM     78  F   UNL A   1      38.016  30.092  36.342  1.00  0.00    -0.206 F 
ATOM     79  C   UNL A   1      38.161  33.585  37.293  1.00  0.00     0.006 A 
ENDBRANCH  58  72
BRANCH  59  80
ATOM     80  C   UNL A   1      43.029  25.976  28.212  1.00  0.00     0.057 A 
ATOM     81  C   UNL A   1      44.044  26.440  27.366  1.00  0.00     0.134 A 
ATOM     82  C   UNL A   1      42.572  24.668  28.014  1.00  0.00     0.134 A 
ATOM     83  F   UNL A   1      44.511  27.690  27.496  1.00  0.00    -0.206 F 
ATOM     84  C   UNL A   1      44.567  25.643  26.347  1.00  0.00     0.040 A 
ATOM     85  C   UNL A   1      43.104  23.852  27.014  1.00  0.00     0.040 A 
ATOM     86  F   UNL A   1      41.608  24.162  28.797  1.00  0.00    -0.206 F 
ATOM     87  C   UNL A   1      44.100  24.343  26.172  1.00  0.00     0.006 A 
ENDBRANCH  59  80
BRANCH  71  88
ATOM     88  C   UNL A   1      44.908  27.346  34.769  1.00  0.00     0.057 A 
ATOM     89  C   UNL A   1      46.190  27.908  34.759  1.00  0.00     0.134 A 
ATOM     90  C   UNL A   1      44.678  26.272  35.637  1.00  0.00     0.134 A 
ATOM     91  F   UNL A   1      46.479  28.932  33.942  1.00  0.00    -0.206 F 
ATOM     92  C   UNL A   1      47.214  27.399  35.561  1.00  0.00     0.040 A 
ATOM     93  C   UNL A   1      45.685  25.772  36.462  1.00  0.00     0.040 A 
ATOM     94  F   UNL A   1      43.468  25.694  35.700  1.00  0.00    -0.206 F 
ATOM     95  C   UNL A   1      46.960  26.331  36.419  1.00  0.00     0.006 A 
ENDBRANCH  71  88
ENDBRANCH  45  46
ENDBRANCH  37  40
ENDBRANCH  35  36
ENDBRANCH  34  35
ENDBRANCH  33  34
ENDBRANCH  31  33
ENDBRANCH  27  29
ENDBRANCH   4  27
TORSDOF 20
ENDMDL
MODEL 3
REMARK VINA RESULT:     -10.4      4.068      9.516
REMARK SMILES CCCCCCNC(=O)Oc1cccc(-c2ccc([C@@H](C)C(=O)NCCCNC(=O)c3ccc(-c4c5nc(c(-c6c(F)cccc6F)c6ccc([nH]6)c(-c6c(F)cccc6F)c6nc(c(-c7c(F)cccc7F)c7ccc4[nH]7)C=C6)C=C5)cc3)cc2N)c1
REMARK SMILES IDX 16 1 17 2 18 3 19 4 85 5 86 6 15 7 11 8 12 9 88 10 13 11
REMARK SMILES IDX 14 12 10 13 8 14 7 15 9 17 6 18 5 19 4 20 3 21 2 22 1 23
REMARK SMILES IDX 87 24 20 27 21 28 22 29 23 30 24 31 25 33 26 34 27 35 28 36
REMARK SMILES IDX 29 37 30 39 31 40 32 41 84 42 33 43 83 44 34 45 35 46 36 47
REMARK SMILES IDX 77 48 37 49 82 50 76 51 78 52 38 53 81 54 75 55 74 56 39 58
REMARK SMILES IDX 65 59 48 60 64 61 49 62 52 63 63 64 79 65 50 66 51 67 62 69
REMARK SMILES IDX 80 70 53 71 40 72 41 73 46 74 42 75 43 76 45 77 47 78 44 79
REMARK SMILES IDX 66 80 67 81 72 82 68 83 69 84 71 85 73 86 70 87 54 88 55 89
REMARK SMILES IDX 60 90 56 91 57 92 59 93 61 94 58 95
REMARK H PARENT 7 16 87 25 87 26 24 32 28 38 78 57 52 68
REMARK Flexibility Score: inf
ROOT
ATOM      1  C   UNL A   1      38.261  30.388  29.122  1.00  0.00     0.005 A 
ATOM      2  C   UNL A   1      38.642  31.505  29.890  1.00  0.00     0.011 A 
ATOM      3  C   UNL A   1      37.806  32.614  30.046  1.00  0.00     0.005 A 
ATOM      4  C   UNL A   1      36.600  32.698  29.355  1.00  0.00    -0.034 A 
ATOM      5  C   UNL A   1      36.188  31.566  28.631  1.00  0.00     0.030 A 
ATOM      6  C   UNL A   1      36.956  30.389  28.577  1.00  0.00     0.040 A 
ENDROOT
BRANCH   1   7
ATOM      7  C   UNL A   1      39.241  29.291  28.915  1.00  0.00    -0.013 A 
ATOM      8  C   UNL A   1      41.424  28.501  28.182  1.00  0.00     0.133 A 
ATOM      9  C   UNL A   1      41.114  27.197  28.556  1.00  0.00     0.047 A 
ATOM     10  C   UNL A   1      40.511  29.541  28.365  1.00  0.00     0.056 A 
ATOM     11  C   UNL A   1      39.875  26.933  29.129  1.00  0.00     0.004 A 
ATOM     12  C   UNL A   1      38.946  27.966  29.294  1.00  0.00     0.009 A 
BRANCH   8  13
ATOM     13  O   UNL A   1      42.627  28.687  27.480  1.00  0.00    -0.410 OA
BRANCH  13  14
ATOM     14  C   UNL A   1      42.705  28.291  26.153  1.00  0.00     0.412 C 
ATOM     15  N   UNL A   1      43.540  27.223  25.966  1.00  0.00    -0.321 N 
ATOM     16  H   UNL A   1      43.651  26.906  25.039  1.00  0.00     0.167 HD
ATOM     17  O   UNL A   1      42.123  28.812  25.210  1.00  0.00    -0.224 OA
BRANCH  15  18
ATOM     18  C   UNL A   1      44.279  26.508  26.987  1.00  0.00     0.119 C 
BRANCH  18  19
ATOM     19  C   UNL A   1      43.735  25.096  27.209  1.00  0.00     0.021 C 
BRANCH  19  20
ATOM     20  C   UNL A   1      44.692  24.142  27.934  1.00  0.00     0.002 C 
BRANCH  20  21
ATOM     21  C   UNL A   1      45.922  23.703  27.132  1.00  0.00    -0.000 C 
BRANCH  21  22
ATOM     22  C   UNL A   1      45.653  22.688  26.017  1.00  0.00    -0.003 C 
ATOM     23  C   UNL A   1      46.018  23.202  24.634  1.00  0.00     0.004 C 
ENDBRANCH  21  22
ENDBRANCH  20  21
ENDBRANCH  19  20
ENDBRANCH  18  19
ENDBRANCH  15  18
ENDBRANCH  13  14
ENDBRANCH   8  13
ENDBRANCH   1   7
BRANCH   6  24
ATOM     24  N   UNL A   1      36.438  29.302  27.869  1.00  0.00    -0.398 N 
ATOM     25  H   UNL A   1      35.820  28.676  28.312  1.00  0.00     0.156 HD
ATOM     26  H   UNL A   1      36.691  29.161  26.928  1.00  0.00     0.156 HD
ENDBRANCH   6  24
BRANCH   4  27
ATOM     27  C   UNL A   1      35.749  33.957  29.325  1.00  0.00     0.105 C 
ATOM     28  C   UNL A   1      35.043  34.246  28.001  1.00  0.00     0.023 C 
BRANCH  27  29
ATOM     29  C   UNL A   1      34.868  34.137  30.573  1.00  0.00     0.227 C 
ATOM     30  O   UNL A   1      33.658  33.884  30.514  1.00  0.00    -0.274 OA
ATOM     31  N   UNL A   1      35.333  34.553  31.783  1.00  0.00    -0.356 N 
ATOM     32  H   UNL A   1      34.652  34.553  32.494  1.00  0.00     0.163 HD
BRANCH  31  33
ATOM     33  C   UNL A   1      36.642  34.994  32.219  1.00  0.00     0.117 C 
BRANCH  33  34
ATOM     34  C   UNL A   1      37.150  34.202  33.420  1.00  0.00     0.042 C 
BRANCH  34  35
ATOM     35  C   UNL A   1      36.501  32.836  33.586  1.00  0.00     0.118 C 
BRANCH  35  36
ATOM     36  N   UNL A   1      36.843  32.217  34.857  1.00  0.00    -0.352 N 
ATOM     37  C   UNL A   1      37.856  31.357  35.197  1.00  0.00     0.251 C 
ATOM     38  H   UNL A   1      36.246  32.457  35.601  1.00  0.00     0.163 HD
ATOM     39  O   UNL A   1      37.809  30.800  36.292  1.00  0.00    -0.269 OA
BRANCH  37  40
ATOM     40  C   UNL A   1      38.998  31.086  34.291  1.00  0.00     0.039 A 
ATOM     41  C   UNL A   1      38.860  30.068  33.339  1.00  0.00     0.014 A 
ATOM     42  C   UNL A   1      40.228  31.735  34.422  1.00  0.00     0.014 A 
ATOM     43  C   UNL A   1      39.940  29.710  32.527  1.00  0.00     0.010 A 
ATOM     44  C   UNL A   1      41.277  31.443  33.550  1.00  0.00     0.010 A 
ATOM     45  C   UNL A   1      41.158  30.399  32.623  1.00  0.00    -0.014 A 
BRANCH  45  46
ATOM     46  C   UNL A   1      42.337  29.979  31.822  1.00  0.00     0.031 A 
ATOM     47  C   UNL A   1      43.040  28.685  32.140  1.00  0.00     0.074 A 
ATOM     48  C   UNL A   1      42.786  30.763  30.824  1.00  0.00     0.049 A 
ATOM     49  N   UNL A   1      44.089  28.148  31.569  1.00  0.00    -0.248 NA
ATOM     50  C   UNL A   1      42.512  27.902  33.270  1.00  0.00     0.031 C 
ATOM     51  C   UNL A   1      42.224  32.060  30.447  1.00  0.00     0.029 A 
ATOM     52  N   UNL A   1      43.822  30.580  29.943  1.00  0.00    -0.354 N 
ATOM     53  C   UNL A   1      44.354  26.984  32.280  1.00  0.00     0.074 A 
ATOM     54  C   UNL A   1      43.394  26.919  33.359  1.00  0.00     0.031 C 
ATOM     55  C   UNL A   1      42.902  32.543  29.392  1.00  0.00     0.029 A 
ATOM     56  C   UNL A   1      43.960  31.602  29.036  1.00  0.00     0.049 A 
ATOM     57  H   UNL A   1      44.410  29.791  29.959  1.00  0.00     0.167 HD
ATOM     58  C   UNL A   1      45.293  26.037  32.042  1.00  0.00     0.037 A 
ATOM     59  C   UNL A   1      44.836  31.756  28.027  1.00  0.00     0.037 A 
ATOM     60  C   UNL A   1      46.225  26.083  30.946  1.00  0.00     0.049 A 
ATOM     61  C   UNL A   1      45.846  30.676  27.758  1.00  0.00     0.074 A 
ATOM     62  C   UNL A   1      47.186  25.155  30.588  1.00  0.00     0.029 A 
ATOM     63  N   UNL A   1      46.305  27.118  30.025  1.00  0.00    -0.354 N 
ATOM     64  N   UNL A   1      46.047  29.552  28.403  1.00  0.00    -0.248 NA
ATOM     65  C   UNL A   1      46.741  30.878  26.611  1.00  0.00     0.031 C 
ATOM     66  C   UNL A   1      47.867  25.641  29.468  1.00  0.00     0.029 A 
ATOM     67  C   UNL A   1      47.301  26.851  29.102  1.00  0.00     0.049 A 
ATOM     68  H   UNL A   1      45.737  27.921  30.029  1.00  0.00     0.167 HD
ATOM     69  C   UNL A   1      47.062  28.897  27.719  1.00  0.00     0.074 A 
ATOM     70  C   UNL A   1      47.428  29.744  26.604  1.00  0.00     0.031 C 
ATOM     71  C   UNL A   1      47.639  27.699  27.988  1.00  0.00     0.037 A 
BRANCH  58  72
ATOM     72  C   UNL A   1      45.348  24.867  32.982  1.00  0.00     0.057 A 
ATOM     73  C   UNL A   1      46.153  24.878  34.129  1.00  0.00     0.134 A 
ATOM     74  C   UNL A   1      44.576  23.722  32.749  1.00  0.00     0.134 A 
ATOM     75  F   UNL A   1      46.929  25.938  34.405  1.00  0.00    -0.206 F 
ATOM     76  C   UNL A   1      46.212  23.782  34.992  1.00  0.00     0.040 A 
ATOM     77  C   UNL A   1      44.604  22.632  33.619  1.00  0.00     0.040 A 
ATOM     78  F   UNL A   1      43.777  23.646  31.673  1.00  0.00    -0.206 F 
ATOM     79  C   UNL A   1      45.431  22.656  34.740  1.00  0.00     0.006 A 
ENDBRANCH  58  72
BRANCH  59  80
ATOM     80  C   UNL A   1      44.765  32.959  27.159  1.00  0.00     0.057 A 
ATOM     81  C   UNL A   1      45.416  34.146  27.517  1.00  0.00     0.134 A 
ATOM     82  C   UNL A   1      44.043  32.955  25.961  1.00  0.00     0.134 A 
ATOM     83  F   UNL A   1      46.110  34.216  28.663  1.00  0.00    -0.206 F 
ATOM     84  C   UNL A   1      45.334  35.292  26.726  1.00  0.00     0.040 A 
ATOM     85  C   UNL A   1      43.972  34.088  25.147  1.00  0.00     0.040 A 
ATOM     86  F   UNL A   1      43.403  31.848  25.558  1.00  0.00    -0.206 F 
ATOM     87  C   UNL A   1      44.613  35.264  25.533  1.00  0.00     0.006 A 
ENDBRANCH  59  80
BRANCH  71  88
ATOM     88  C   UNL A   1      48.686  27.214  27.029  1.00  0.00     0.057 A 
ATOM     89  C   UNL A   1      48.355  26.535  25.850  1.00  0.00     0.134 A 
ATOM     90  C   UNL A   1      50.042  27.451  27.282  1.00  0.00     0.134 A 
ATOM     91  F   UNL A   1      47.074  26.268  25.555  1.00  0.00    -0.206 F 
ATOM     92  C   UNL A   1      49.340  26.081  24.971  1.00  0.00     0.040 A 
ATOM     93  C   UNL A   1      51.034  27.025  26.399  1.00  0.00     0.040 A 
ATOM     94  F   UNL A   1      50.425  28.104  28.390  1.00  0.00    -0.206 F 
ATOM     95  C   UNL A   1      50.684  26.330  25.243  1.00  0.00     0.006 A 
ENDBRANCH  71  88
ENDBRANCH  45  46
ENDBRANCH  37  40
ENDBRANCH  35  36
ENDBRANCH  34  35
ENDBRANCH  33  34
ENDBRANCH  31  33
ENDBRANCH  27  29
ENDBRANCH   4  27
TORSDOF 20
ENDMDL
