MODEL 1
REMARK VINA RESULT:     -11.9      0.000      0.000
REMARK SMILES Cc1cnc(NC(=O)NC[C@H]2CC[C@H](C(=O)NCCCNC(=O)c3ccc(-c4c5nc(c(-c6c(F)cccc6F)c6ccc([nH]6)c(-c6c(F)cccc6F)c6nc(c(-c7c(F)cccc7F)c7ccc4[nH]7)C=C6)C=C5)cc3)O2)s1
REMARK SMILES IDX 18 1 17 2 15 3 16 4 14 6 11 7 12 8 78 9 13 10 10 11 9 12
REMARK SMILES IDX 6 13 7 14 8 16 5 18 1 19 2 20 3 21 79 22 4 23 19 24 20 25
REMARK SMILES IDX 21 26 22 27 23 29 24 30 25 31 77 32 26 33 76 34 27 35 28 36
REMARK SMILES IDX 29 37 70 38 30 39 75 40 69 41 71 42 31 43 74 44 68 45 67 46
REMARK SMILES IDX 32 48 58 49 41 50 57 51 42 52 45 53 56 54 72 55 43 56 44 57
REMARK SMILES IDX 55 59 73 60 46 61 33 62 34 63 39 64 35 65 36 66 38 67 40 68
REMARK SMILES IDX 37 69 59 70 60 71 65 72 61 73 62 74 64 75 66 76 63 77 47 78
REMARK SMILES IDX 48 79 53 80 49 81 50 82 52 83 54 84 51 85
REMARK H PARENT 17 5 6 15 9 17 21 28 71 47 45 58
REMARK Flexibility Score: inf
ROOT
ATOM      1  C   UNL A   1      31.458  30.893  25.958  1.00  0.00     0.117 C 
ENDROOT
BRANCH   1   2
ATOM      2  N   UNL A   1      32.762  30.353  26.261  1.00  0.00    -0.354 N 
ATOM      3  C   UNL A   1      33.318  29.151  25.939  1.00  0.00     0.249 C 
ATOM      4  O   UNL A   1      34.486  28.966  26.300  1.00  0.00    -0.272 OA
ATOM      5  H   UNL A   1      33.344  30.949  26.786  1.00  0.00     0.163 HD
BRANCH   3   6
ATOM      6  C   UNL A   1      32.522  28.018  25.242  1.00  0.00     0.207 C 
ATOM      7  C   UNL A   1      31.589  26.059  26.129  1.00  0.00     0.138 C 
ATOM      8  C   UNL A   1      32.982  25.711  25.660  1.00  0.00     0.037 C 
ATOM      9  O   UNL A   1      31.397  27.467  25.928  1.00  0.00    -0.363 OA
ATOM     10  C   UNL A   1      33.432  26.876  24.828  1.00  0.00     0.045 C 
BRANCH   7  11
ATOM     11  C   UNL A   1      30.412  25.228  25.600  1.00  0.00     0.149 C 
BRANCH  11  12
ATOM     12  N   UNL A   1      29.829  24.235  26.485  1.00  0.00    -0.335 N 
ATOM     13  N   UNL A   1      30.836  22.064  26.372  1.00  0.00    -0.284 N 
ATOM     14  C   UNL A   1      30.004  22.974  26.875  1.00  0.00     0.321 C 
ATOM     15  H   UNL A   1      30.649  21.159  26.711  1.00  0.00     0.174 HD
ATOM     16  O   UNL A   1      29.207  22.578  27.737  1.00  0.00    -0.248 OA
ATOM     17  H   UNL A   1      29.051  24.620  26.949  1.00  0.00     0.165 HD
BRANCH  13  18
ATOM     18  C   UNL A   1      31.879  22.080  25.505  1.00  0.00     0.190 A 
ATOM     19  C   UNL A   1      35.458  22.698  24.344  1.00  0.00     0.058 C 
ATOM     20  C   UNL A   1      34.032  22.327  24.499  1.00  0.00     0.023 A 
ATOM     21  C   UNL A   1      32.960  22.562  23.661  1.00  0.00     0.128 A 
ATOM     22  S   UNL A   1      33.445  21.566  25.924  1.00  0.00    -0.102 S 
ATOM     23  N   UNL A   1      31.719  22.359  24.232  1.00  0.00    -0.228 NA
ENDBRANCH  13  18
ENDBRANCH  11  12
ENDBRANCH   7  11
ENDBRANCH   3   6
ENDBRANCH   1   2
BRANCH   1  24
ATOM     24  C   UNL A   1      31.277  32.306  26.502  1.00  0.00     0.042 C 
BRANCH  24  25
ATOM     25  C   UNL A   1      32.498  32.813  27.253  1.00  0.00     0.118 C 
BRANCH  25  26
ATOM     26  N   UNL A   1      32.360  34.216  27.626  1.00  0.00    -0.352 N 
ATOM     27  C   UNL A   1      32.997  34.943  28.600  1.00  0.00     0.251 C 
ATOM     28  H   UNL A   1      31.704  34.723  27.094  1.00  0.00     0.163 HD
ATOM     29  O   UNL A   1      32.575  36.055  28.895  1.00  0.00    -0.269 OA
BRANCH  27  30
ATOM     30  C   UNL A   1      34.172  34.388  29.301  1.00  0.00     0.039 A 
ATOM     31  C   UNL A   1      33.974  33.692  30.496  1.00  0.00     0.014 A 
ATOM     32  C   UNL A   1      35.466  34.580  28.808  1.00  0.00     0.014 A 
ATOM     33  C   UNL A   1      35.067  33.140  31.165  1.00  0.00     0.010 A 
ATOM     34  C   UNL A   1      36.542  33.954  29.425  1.00  0.00     0.010 A 
ATOM     35  C   UNL A   1      36.355  33.237  30.616  1.00  0.00    -0.014 A 
BRANCH  35  36
ATOM     36  C   UNL A   1      37.522  32.604  31.275  1.00  0.00     0.031 A 
ATOM     37  C   UNL A   1      38.208  31.432  30.632  1.00  0.00     0.074 A 
ATOM     38  C   UNL A   1      37.917  33.045  32.485  1.00  0.00     0.049 A 
ATOM     39  N   UNL A   1      39.193  30.700  31.085  1.00  0.00    -0.248 NA
ATOM     40  C   UNL A   1      37.700  31.005  29.317  1.00  0.00     0.031 C 
ATOM     41  C   UNL A   1      37.296  34.144  33.229  1.00  0.00     0.029 A 
ATOM     42  N   UNL A   1      38.929  32.618  33.306  1.00  0.00    -0.354 N 
ATOM     43  C   UNL A   1      39.411  29.722  30.122  1.00  0.00     0.074 A 
ATOM     44  C   UNL A   1      38.419  29.916  29.089  1.00  0.00     0.031 C 
ATOM     45  C   UNL A   1      37.957  34.320  34.385  1.00  0.00     0.029 A 
ATOM     46  C   UNL A   1      39.016  33.323  34.483  1.00  0.00     0.049 A 
ATOM     47  H   UNL A   1      39.535  31.877  33.075  1.00  0.00     0.167 HD
ATOM     48  C   UNL A   1      40.369  28.765  30.091  1.00  0.00     0.037 A 
ATOM     49  C   UNL A   1      39.852  33.173  35.527  1.00  0.00     0.037 A 
ATOM     50  C   UNL A   1      41.366  28.594  31.114  1.00  0.00     0.049 A 
ATOM     51  C   UNL A   1      40.901  32.097  35.471  1.00  0.00     0.074 A 
ATOM     52  C   UNL A   1      42.416  27.693  31.151  1.00  0.00     0.029 A 
ATOM     53  N   UNL A   1      41.433  29.338  32.283  1.00  0.00    -0.354 N 
ATOM     54  N   UNL A   1      41.141  31.224  34.523  1.00  0.00    -0.248 NA
ATOM     55  C   UNL A   1      41.799  31.988  36.628  1.00  0.00     0.031 C 
ATOM     56  C   UNL A   1      43.088  27.859  32.368  1.00  0.00     0.029 A 
ATOM     57  C   UNL A   1      42.493  28.900  33.061  1.00  0.00     0.049 A 
ATOM     58  H   UNL A   1      40.819  30.068  32.524  1.00  0.00     0.167 HD
ATOM     59  C   UNL A   1      42.235  30.485  34.953  1.00  0.00     0.074 A 
ATOM     60  C   UNL A   1      42.620  31.022  36.242  1.00  0.00     0.031 C 
ATOM     61  C   UNL A   1      42.865  29.454  34.338  1.00  0.00     0.037 A 
BRANCH  48  62
ATOM     62  C   UNL A   1      40.383  27.833  28.913  1.00  0.00     0.057 A 
ATOM     63  C   UNL A   1      41.145  28.098  27.767  1.00  0.00     0.134 A 
ATOM     64  C   UNL A   1      39.651  26.638  28.938  1.00  0.00     0.134 A 
ATOM     65  F   UNL A   1      41.859  29.230  27.671  1.00  0.00    -0.206 F 
ATOM     66  C   UNL A   1      41.158  27.223  26.679  1.00  0.00     0.040 A 
ATOM     67  C   UNL A   1      39.681  25.742  27.869  1.00  0.00     0.040 A 
ATOM     68  F   UNL A   1      38.904  26.319  30.005  1.00  0.00    -0.206 F 
ATOM     69  C   UNL A   1      40.431  26.036  26.732  1.00  0.00     0.006 A 
ENDBRANCH  48  62
BRANCH  49  70
ATOM     70  C   UNL A   1      39.747  34.076  36.701  1.00  0.00     0.057 A 
ATOM     71  C   UNL A   1      40.399  35.315  36.721  1.00  0.00     0.134 A 
ATOM     72  C   UNL A   1      39.000  33.724  37.831  1.00  0.00     0.134 A 
ATOM     73  F   UNL A   1      41.143  35.702  35.674  1.00  0.00    -0.206 F 
ATOM     74  C   UNL A   1      40.333  36.159  37.830  1.00  0.00     0.040 A 
ATOM     75  C   UNL A   1      38.902  34.571  38.936  1.00  0.00     0.040 A 
ATOM     76  F   UNL A   1      38.339  32.557  37.871  1.00  0.00    -0.206 F 
ATOM     77  C   UNL A   1      39.578  35.790  38.940  1.00  0.00     0.006 A 
ENDBRANCH  49  70
BRANCH  61  78
ATOM     78  C   UNL A   1      44.061  28.870  35.030  1.00  0.00     0.057 A 
ATOM     79  C   UNL A   1      43.945  27.839  35.970  1.00  0.00     0.134 A 
ATOM     80  C   UNL A   1      45.351  29.319  34.719  1.00  0.00     0.134 A 
ATOM     81  F   UNL A   1      42.737  27.371  36.322  1.00  0.00    -0.206 F 
ATOM     82  C   UNL A   1      45.067  27.293  36.596  1.00  0.00     0.040 A 
ATOM     83  C   UNL A   1      46.482  28.761  35.315  1.00  0.00     0.040 A 
ATOM     84  F   UNL A   1      45.534  30.298  33.820  1.00  0.00    -0.206 F 
ATOM     85  C   UNL A   1      46.341  27.749  36.263  1.00  0.00     0.006 A 
ENDBRANCH  61  78
ENDBRANCH  35  36
ENDBRANCH  27  30
ENDBRANCH  25  26
ENDBRANCH  24  25
ENDBRANCH   1  24
TORSDOF 13
ENDMDL
MODEL 2
REMARK VINA RESULT:     -11.7      0.805      6.227
REMARK SMILES Cc1cnc(NC(=O)NC[C@H]2CC[C@H](C(=O)NCCCNC(=O)c3ccc(-c4c5nc(c(-c6c(F)cccc6F)c6ccc([nH]6)c(-c6c(F)cccc6F)c6nc(c(-c7c(F)cccc7F)c7ccc4[nH]7)C=C6)C=C5)cc3)O2)s1
REMARK SMILES IDX 18 1 17 2 15 3 16 4 14 6 11 7 12 8 78 9 13 10 10 11 9 12
REMARK SMILES IDX 6 13 7 14 8 16 5 18 1 19 2 20 3 21 79 22 4 23 19 24 20 25
REMARK SMILES IDX 21 26 22 27 23 29 24 30 25 31 77 32 26 33 76 34 27 35 28 36
REMARK SMILES IDX 29 37 70 38 30 39 75 40 69 41 71 42 31 43 74 44 68 45 67 46
REMARK SMILES IDX 32 48 58 49 41 50 57 51 42 52 45 53 56 54 72 55 43 56 44 57
REMARK SMILES IDX 55 59 73 60 46 61 33 62 34 63 39 64 35 65 36 66 38 67 40 68
REMARK SMILES IDX 37 69 59 70 60 71 65 72 61 73 62 74 64 75 66 76 63 77 47 78
REMARK SMILES IDX 48 79 53 80 49 81 50 82 52 83 54 84 51 85
REMARK H PARENT 17 5 6 15 9 17 21 28 71 47 45 58
REMARK Flexibility Score: inf
ROOT
ATOM      1  C   UNL A   1      31.599  30.901  26.255  1.00  0.00     0.117 C 
ENDROOT
BRANCH   1   2
ATOM      2  N   UNL A   1      32.901  30.367  26.576  1.00  0.00    -0.354 N 
ATOM      3  C   UNL A   1      33.474  29.176  26.242  1.00  0.00     0.249 C 
ATOM      4  O   UNL A   1      34.636  28.994  26.625  1.00  0.00    -0.272 OA
ATOM      5  H   UNL A   1      33.466  30.957  27.125  1.00  0.00     0.163 HD
BRANCH   3   6
ATOM      6  C   UNL A   1      32.703  28.050  25.506  1.00  0.00     0.207 C 
ATOM      7  C   UNL A   1      31.677  26.118  26.351  1.00  0.00     0.138 C 
ATOM      8  C   UNL A   1      33.091  25.740  25.976  1.00  0.00     0.037 C 
ATOM      9  O   UNL A   1      31.526  27.527  26.124  1.00  0.00    -0.363 OA
ATOM     10  C   UNL A   1      33.616  26.887  25.163  1.00  0.00     0.045 C 
BRANCH   7  11
ATOM     11  C   UNL A   1      30.522  25.303  25.755  1.00  0.00     0.149 C 
BRANCH  11  12
ATOM     12  N   UNL A   1      29.911  24.281  26.587  1.00  0.00    -0.335 N 
ATOM     13  N   UNL A   1      30.818  22.081  26.314  1.00  0.00    -0.284 N 
ATOM     14  C   UNL A   1      30.036  22.992  26.891  1.00  0.00     0.321 C 
ATOM     15  H   UNL A   1      30.596  21.164  26.599  1.00  0.00     0.174 HD
ATOM     16  O   UNL A   1      29.238  22.575  27.743  1.00  0.00    -0.248 OA
ATOM     17  H   UNL A   1      29.159  24.669  27.091  1.00  0.00     0.165 HD
BRANCH  13  18
ATOM     18  C   UNL A   1      31.844  22.107  25.428  1.00  0.00     0.190 A 
ATOM     19  C   UNL A   1      35.420  22.664  24.228  1.00  0.00     0.058 C 
ATOM     20  C   UNL A   1      33.985  22.334  24.394  1.00  0.00     0.023 A 
ATOM     21  C   UNL A   1      32.907  22.649  23.590  1.00  0.00     0.128 A 
ATOM     22  S   UNL A   1      33.398  21.519  25.788  1.00  0.00    -0.102 S 
ATOM     23  N   UNL A   1      31.670  22.458  24.175  1.00  0.00    -0.228 NA
ENDBRANCH  13  18
ENDBRANCH  11  12
ENDBRANCH   7  11
ENDBRANCH   3   6
ENDBRANCH   1   2
BRANCH   1  24
ATOM     24  C   UNL A   1      31.393  32.302  26.822  1.00  0.00     0.042 C 
BRANCH  24  25
ATOM     25  C   UNL A   1      32.697  33.062  27.010  1.00  0.00     0.118 C 
BRANCH  25  26
ATOM     26  N   UNL A   1      32.483  34.349  27.661  1.00  0.00    -0.352 N 
ATOM     27  C   UNL A   1      33.087  34.898  28.763  1.00  0.00     0.251 C 
ATOM     28  H   UNL A   1      31.796  34.916  27.241  1.00  0.00     0.163 HD
ATOM     29  O   UNL A   1      32.606  35.902  29.278  1.00  0.00    -0.269 OA
BRANCH  27  30
ATOM     30  C   UNL A   1      34.297  34.280  29.341  1.00  0.00     0.039 A 
ATOM     31  C   UNL A   1      34.161  33.455  30.460  1.00  0.00     0.014 A 
ATOM     32  C   UNL A   1      35.564  34.536  28.810  1.00  0.00     0.014 A 
ATOM     33  C   UNL A   1      35.287  32.843  31.010  1.00  0.00     0.010 A 
ATOM     34  C   UNL A   1      36.672  33.855  29.300  1.00  0.00     0.010 A 
ATOM     35  C   UNL A   1      36.546  33.011  30.412  1.00  0.00    -0.014 A 
BRANCH  35  36
ATOM     36  C   UNL A   1      37.747  32.319  30.940  1.00  0.00     0.031 A 
ATOM     37  C   UNL A   1      38.434  32.835  32.172  1.00  0.00     0.074 A 
ATOM     38  C   UNL A   1      38.253  31.268  30.266  1.00  0.00     0.049 A 
ATOM     39  N   UNL A   1      39.533  32.413  32.744  1.00  0.00    -0.248 NA
ATOM     40  C   UNL A   1      37.822  33.999  32.836  1.00  0.00     0.031 C 
ATOM     41  C   UNL A   1      37.699  30.709  29.030  1.00  0.00     0.029 A 
ATOM     42  N   UNL A   1      39.352  30.488  30.520  1.00  0.00    -0.354 N 
ATOM     43  C   UNL A   1      39.751  33.266  33.819  1.00  0.00     0.074 A 
ATOM     44  C   UNL A   1      38.705  34.263  33.787  1.00  0.00     0.031 C 
ATOM     45  C   UNL A   1      38.447  29.661  28.648  1.00  0.00     0.029 A 
ATOM     46  C   UNL A   1      39.553  29.501  29.585  1.00  0.00     0.049 A 
ATOM     47  H   UNL A   1      39.940  30.622  31.298  1.00  0.00     0.167 HD
ATOM     48  C   UNL A   1      40.721  33.206  34.761  1.00  0.00     0.037 A 
ATOM     49  C   UNL A   1      40.528  28.578  29.490  1.00  0.00     0.037 A 
ATOM     50  C   UNL A   1      41.745  32.196  34.797  1.00  0.00     0.049 A 
ATOM     51  C   UNL A   1      41.599  28.539  30.545  1.00  0.00     0.074 A 
ATOM     52  C   UNL A   1      42.740  32.011  35.741  1.00  0.00     0.029 A 
ATOM     53  N   UNL A   1      41.907  31.203  33.842  1.00  0.00    -0.354 N 
ATOM     54  N   UNL A   1      41.753  29.308  31.596  1.00  0.00    -0.248 NA
ATOM     55  C   UNL A   1      42.628  27.500  30.405  1.00  0.00     0.031 C 
ATOM     56  C   UNL A   1      43.536  30.935  35.329  1.00  0.00     0.029 A 
ATOM     57  C   UNL A   1      43.002  30.415  34.162  1.00  0.00     0.049 A 
ATOM     58  H   UNL A   1      41.330  31.076  33.055  1.00  0.00     0.167 HD
ATOM     59  C   UNL A   1      42.875  28.827  32.258  1.00  0.00     0.074 A 
ATOM     60  C   UNL A   1      43.354  27.691  31.497  1.00  0.00     0.031 C 
ATOM     61  C   UNL A   1      43.457  29.284  33.394  1.00  0.00     0.037 A 
BRANCH  48  62
ATOM     62  C   UNL A   1      40.718  34.261  35.831  1.00  0.00     0.057 A 
ATOM     63  C   UNL A   1      41.399  35.477  35.675  1.00  0.00     0.134 A 
ATOM     64  C   UNL A   1      39.998  34.074  37.018  1.00  0.00     0.134 A 
ATOM     65  F   UNL A   1      42.119  35.716  34.569  1.00  0.00    -0.206 F 
ATOM     66  C   UNL A   1      41.386  36.455  36.671  1.00  0.00     0.040 A 
ATOM     67  C   UNL A   1      39.952  35.058  38.007  1.00  0.00     0.040 A 
ATOM     68  F   UNL A   1      39.319  32.937  37.231  1.00  0.00    -0.206 F 
ATOM     69  C   UNL A   1      40.653  36.250  37.838  1.00  0.00     0.006 A 
ENDBRANCH  48  62
BRANCH  49  70
ATOM     70  C   UNL A   1      40.525  27.604  28.370  1.00  0.00     0.057 A 
ATOM     71  C   UNL A   1      41.252  27.847  27.199  1.00  0.00     0.134 A 
ATOM     72  C   UNL A   1      39.793  26.412  28.437  1.00  0.00     0.134 A 
ATOM     73  F   UNL A   1      41.960  28.978  27.068  1.00  0.00    -0.206 F 
ATOM     74  C   UNL A   1      41.233  26.954  26.126  1.00  0.00     0.040 A 
ATOM     75  C   UNL A   1      39.788  25.496  27.384  1.00  0.00     0.040 A 
ATOM     76  F   UNL A   1      39.085  26.112  29.537  1.00  0.00    -0.206 F 
ATOM     77  C   UNL A   1      40.503  25.772  26.219  1.00  0.00     0.006 A 
ENDBRANCH  49  70
BRANCH  61  78
ATOM     78  C   UNL A   1      44.649  28.529  33.905  1.00  0.00     0.057 A 
ATOM     79  C   UNL A   1      44.520  27.427  34.759  1.00  0.00     0.134 A 
ATOM     80  C   UNL A   1      45.942  28.887  33.502  1.00  0.00     0.134 A 
ATOM     81  F   UNL A   1      43.311  27.040  35.193  1.00  0.00    -0.206 F 
ATOM     82  C   UNL A   1      45.637  26.724  35.215  1.00  0.00     0.040 A 
ATOM     83  C   UNL A   1      47.064  28.174  33.926  1.00  0.00     0.040 A 
ATOM     84  F   UNL A   1      46.136  29.928  32.677  1.00  0.00    -0.206 F 
ATOM     85  C   UNL A   1      46.912  27.092  34.792  1.00  0.00     0.006 A 
ENDBRANCH  61  78
ENDBRANCH  35  36
ENDBRANCH  27  30
ENDBRANCH  25  26
ENDBRANCH  24  25
ENDBRANCH   1  24
TORSDOF 13
ENDMDL
MODEL 3
REMARK VINA RESULT:     -11.6      4.671      9.216
REMARK SMILES Cc1cnc(NC(=O)NC[C@H]2CC[C@H](C(=O)NCCCNC(=O)c3ccc(-c4c5nc(c(-c6c(F)cccc6F)c6ccc([nH]6)c(-c6c(F)cccc6F)c6nc(c(-c7c(F)cccc7F)c7ccc4[nH]7)C=C6)C=C5)cc3)O2)s1
REMARK SMILES IDX 18 1 17 2 15 3 16 4 14 6 11 7 12 8 78 9 13 10 10 11 9 12
REMARK SMILES IDX 6 13 7 14 8 16 5 18 1 19 2 20 3 21 79 22 4 23 19 24 20 25
REMARK SMILES IDX 21 26 22 27 23 29 24 30 25 31 77 32 26 33 76 34 27 35 28 36
REMARK SMILES IDX 29 37 70 38 30 39 75 40 69 41 71 42 31 43 74 44 68 45 67 46
REMARK SMILES IDX 32 48 58 49 41 50 57 51 42 52 45 53 56 54 72 55 43 56 44 57
REMARK SMILES IDX 55 59 73 60 46 61 33 62 34 63 39 64 35 65 36 66 38 67 40 68
REMARK SMILES IDX 37 69 59 70 60 71 65 72 61 73 62 74 64 75 66 76 63 77 47 78
REMARK SMILES IDX 48 79 53 80 49 81 50 82 52 83 54 84 51 85
REMARK H PARENT 17 5 6 15 9 17 21 28 71 47 45 58
REMARK Flexibility Score: inf
ROOT
ATOM      1  C   UNL A   1      36.474  20.247  25.007  1.00  0.00     0.117 C 
ENDROOT
BRANCH   1   2
ATOM      2  N   UNL A   1      36.637  21.628  25.395  1.00  0.00    -0.354 N 
ATOM      3  C   UNL A   1      35.791  22.689  25.263  1.00  0.00     0.249 C 
ATOM      4  O   UNL A   1      36.178  23.767  25.728  1.00  0.00    -0.272 OA
ATOM      5  H   UNL A   1      37.498  21.838  25.823  1.00  0.00     0.163 HD
BRANCH   3   6
ATOM      6  C   UNL A   1      34.449  22.602  24.491  1.00  0.00     0.207 C 
ATOM      7  C   UNL A   1      32.765  24.207  24.202  1.00  0.00     0.138 C 
ATOM      8  C   UNL A   1      32.401  23.401  25.426  1.00  0.00     0.037 C 
ATOM      9  O   UNL A   1      34.037  23.738  23.731  1.00  0.00    -0.363 OA
ATOM     10  C   UNL A   1      33.308  22.205  25.409  1.00  0.00     0.045 C 
BRANCH   7  11
ATOM     11  C   UNL A   1      31.732  24.325  23.074  1.00  0.00     0.149 C 
BRANCH  11  12
ATOM     12  N   UNL A   1      32.216  24.627  21.738  1.00  0.00    -0.335 N 
ATOM     13  N   UNL A   1      32.833  26.914  21.379  1.00  0.00    -0.284 N 
ATOM     14  C   UNL A   1      32.726  25.633  21.030  1.00  0.00     0.321 C 
ATOM     15  H   UNL A   1      33.076  27.489  20.617  1.00  0.00     0.174 HD
ATOM     16  O   UNL A   1      33.031  25.350  19.863  1.00  0.00    -0.248 OA
ATOM     17  H   UNL A   1      32.145  23.826  21.170  1.00  0.00     0.165 HD
BRANCH  13  18
ATOM     18  C   UNL A   1      32.687  27.621  22.527  1.00  0.00     0.190 A 
ATOM     19  C   UNL A   1      33.690  29.016  25.931  1.00  0.00     0.058 C 
ATOM     20  C   UNL A   1      33.036  28.659  24.650  1.00  0.00     0.023 A 
ATOM     21  C   UNL A   1      31.741  28.249  24.401  1.00  0.00     0.128 A 
ATOM     22  S   UNL A   1      33.910  28.612  23.170  1.00  0.00    -0.102 S 
ATOM     23  N   UNL A   1      31.534  27.704  23.149  1.00  0.00    -0.228 NA
ENDBRANCH  13  18
ENDBRANCH  11  12
ENDBRANCH   7  11
ENDBRANCH   3   6
ENDBRANCH   1   2
BRANCH   1  24
ATOM     24  C   UNL A   1      37.810  19.529  24.851  1.00  0.00     0.042 C 
BRANCH  24  25
ATOM     25  C   UNL A   1      38.914  20.139  25.702  1.00  0.00     0.118 C 
BRANCH  25  26
ATOM     26  N   UNL A   1      40.072  19.259  25.797  1.00  0.00    -0.352 N 
ATOM     27  C   UNL A   1      41.381  19.544  26.092  1.00  0.00     0.251 C 
ATOM     28  H   UNL A   1      39.885  18.309  25.622  1.00  0.00     0.163 HD
ATOM     29  O   UNL A   1      42.242  18.691  25.903  1.00  0.00    -0.269 OA
BRANCH  27  30
ATOM     30  C   UNL A   1      41.760  20.872  26.617  1.00  0.00     0.039 A 
ATOM     31  C   UNL A   1      42.207  21.845  25.720  1.00  0.00     0.014 A 
ATOM     32  C   UNL A   1      41.711  21.149  27.985  1.00  0.00     0.014 A 
ATOM     33  C   UNL A   1      42.550  23.113  26.190  1.00  0.00     0.010 A 
ATOM     34  C   UNL A   1      41.964  22.437  28.441  1.00  0.00     0.010 A 
ATOM     35  C   UNL A   1      42.397  23.429  27.549  1.00  0.00    -0.014 A 
BRANCH  35  36
ATOM     36  C   UNL A   1      42.694  24.789  28.061  1.00  0.00     0.031 A 
ATOM     37  C   UNL A   1      44.093  25.153  28.470  1.00  0.00     0.074 A 
ATOM     38  C   UNL A   1      41.686  25.669  28.220  1.00  0.00     0.049 A 
ATOM     39  N   UNL A   1      44.536  26.261  29.006  1.00  0.00    -0.248 NA
ATOM     40  C   UNL A   1      45.130  24.124  28.277  1.00  0.00     0.031 C 
ATOM     41  C   UNL A   1      40.279  25.410  27.904  1.00  0.00     0.029 A 
ATOM     42  N   UNL A   1      41.688  26.955  28.696  1.00  0.00    -0.354 N 
ATOM     43  C   UNL A   1      45.892  26.057  29.228  1.00  0.00     0.074 A 
ATOM     44  C   UNL A   1      46.189  24.701  28.824  1.00  0.00     0.031 C 
ATOM     45  C   UNL A   1      39.559  26.512  28.171  1.00  0.00     0.029 A 
ATOM     46  C   UNL A   1      40.443  27.536  28.715  1.00  0.00     0.049 A 
ATOM     47  H   UNL A   1      42.504  27.417  28.995  1.00  0.00     0.167 HD
ATOM     48  C   UNL A   1      46.811  26.931  29.704  1.00  0.00     0.037 A 
ATOM     49  C   UNL A   1      40.059  28.755  29.134  1.00  0.00     0.037 A 
ATOM     50  C   UNL A   1      46.510  28.287  30.082  1.00  0.00     0.049 A 
ATOM     51  C   UNL A   1      41.098  29.704  29.666  1.00  0.00     0.074 A 
ATOM     52  C   UNL A   1      47.377  29.272  30.520  1.00  0.00     0.029 A 
ATOM     53  N   UNL A   1      45.240  28.845  30.073  1.00  0.00    -0.354 N 
ATOM     54  N   UNL A   1      42.389  29.523  29.806  1.00  0.00    -0.248 NA
ATOM     55  C   UNL A   1      40.628  31.029  30.093  1.00  0.00     0.031 C 
ATOM     56  C   UNL A   1      46.624  30.411  30.824  1.00  0.00     0.029 A 
ATOM     57  C   UNL A   1      45.297  30.155  30.520  1.00  0.00     0.049 A 
ATOM     58  H   UNL A   1      44.420  28.379  29.789  1.00  0.00     0.167 HD
ATOM     59  C   UNL A   1      42.889  30.718  30.305  1.00  0.00     0.074 A 
ATOM     60  C   UNL A   1      41.764  31.621  30.430  1.00  0.00     0.031 C 
ATOM     61  C   UNL A   1      44.165  31.040  30.630  1.00  0.00     0.037 A 
BRANCH  48  62
ATOM     62  C   UNL A   1      48.227  26.448  29.837  1.00  0.00     0.057 A 
ATOM     63  C   UNL A   1      49.169  26.622  28.813  1.00  0.00     0.134 A 
ATOM     64  C   UNL A   1      48.664  25.830  31.016  1.00  0.00     0.134 A 
ATOM     65  F   UNL A   1      48.815  27.193  27.652  1.00  0.00    -0.206 F 
ATOM     66  C   UNL A   1      50.485  26.175  28.947  1.00  0.00     0.040 A 
ATOM     67  C   UNL A   1      49.985  25.408  31.173  1.00  0.00     0.040 A 
ATOM     68  F   UNL A   1      47.817  25.637  32.038  1.00  0.00    -0.206 F 
ATOM     69  C   UNL A   1      50.899  25.574  30.134  1.00  0.00     0.006 A 
ENDBRANCH  48  62
BRANCH  49  70
ATOM     70  C   UNL A   1      38.632  29.157  29.049  1.00  0.00     0.057 A 
ATOM     71  C   UNL A   1      38.081  29.617  27.847  1.00  0.00     0.134 A 
ATOM     72  C   UNL A   1      37.786  29.096  30.163  1.00  0.00     0.134 A 
ATOM     73  F   UNL A   1      38.844  29.712  26.749  1.00  0.00    -0.206 F 
ATOM     74  C   UNL A   1      36.749  30.026  27.762  1.00  0.00     0.040 A 
ATOM     75  C   UNL A   1      36.445  29.475  30.085  1.00  0.00     0.040 A 
ATOM     76  F   UNL A   1      38.247  28.651  31.342  1.00  0.00    -0.206 F 
ATOM     77  C   UNL A   1      35.925  29.950  28.882  1.00  0.00     0.006 A 
ENDBRANCH  49  70
BRANCH  61  78
ATOM     78  C   UNL A   1      44.418  32.439  31.111  1.00  0.00     0.057 A 
ATOM     79  C   UNL A   1      44.400  32.770  32.471  1.00  0.00     0.134 A 
ATOM     80  C   UNL A   1      44.725  33.458  30.201  1.00  0.00     0.134 A 
ATOM     81  F   UNL A   1      44.101  31.843  33.394  1.00  0.00    -0.206 F 
ATOM     82  C   UNL A   1      44.652  34.072  32.908  1.00  0.00     0.040 A 
ATOM     83  C   UNL A   1      45.009  34.757  30.626  1.00  0.00     0.040 A 
ATOM     84  F   UNL A   1      44.767  33.206  28.884  1.00  0.00    -0.206 F 
ATOM     85  C   UNL A   1      44.966  35.068  31.984  1.00  0.00     0.006 A 
ENDBRANCH  61  78
ENDBRANCH  35  36
ENDBRANCH  27  30
ENDBRANCH  25  26
ENDBRANCH  24  25
ENDBRANCH   1  24
TORSDOF 13
ENDMDL
