MODEL 1
REMARK VINA RESULT:     -13.2      0.000      0.000
REMARK SMILES C[C@@H]1CC[C@H](C)[N@H+]1Cc1cc2c(cc1Cl)C=C(C(=O)NCCCNC(=O)c1ccc(-c3c4nc(c(-c5c(F)cccc5F)c5ccc([nH]5)c(-c5c(F)cccc5F)c5nc(c(-c6c(F)cccc6F)c6ccc3[nH]6)C=C5)C=C4)cc1)[C@@H](C(F)(F)F)O2
REMARK SMILES IDX 22 1 21 2 20 3 18 4 19 5 17 7 9 8 10 9 14 10 11 11 13 12
REMARK SMILES IDX 15 13 12 14 86 15 16 16 81 17 8 18 7 19 6 20 5 21 4 22 3 23
REMARK SMILES IDX 2 24 1 26 82 27 83 28 84 29 85 30 23 31 24 32 25 33 26 35
REMARK SMILES IDX 27 36 28 37 80 38 29 39 79 40 30 41 31 42 32 43 73 44 33 45
REMARK SMILES IDX 78 46 72 47 74 48 34 49 77 50 71 51 70 52 35 54 61 55 44 56
REMARK SMILES IDX 60 57 45 58 48 59 59 60 75 61 46 62 47 63 58 65 76 66 49 67
REMARK SMILES IDX 36 68 37 69 42 70 38 71 39 72 41 73 43 74 40 75 62 76 63 77
REMARK SMILES IDX 68 78 64 79 65 80 67 81 69 82 66 83 50 84 51 85 56 86 52 87
REMARK SMILES IDX 53 88 55 89 57 90 54 91
REMARK H PARENT 20 6 7 25 24 34 74 53 48 64
REMARK Flexibility Score: inf
ROOT
ATOM      1  C   UNL A   1      31.026  32.088  25.944  1.00  0.00     0.042 C 
ENDROOT
BRANCH   1   2
ATOM      2  C   UNL A   1      31.035  30.664  25.414  1.00  0.00     0.118 C 
BRANCH   2   3
ATOM      3  N   UNL A   1      30.240  30.543  24.203  1.00  0.00    -0.352 N 
ATOM      4  C   UNL A   1      30.069  29.632  23.220  1.00  0.00     0.251 C 
ATOM      5  O   UNL A   1      29.286  29.967  22.325  1.00  0.00    -0.270 OA
ATOM      6  H   UNL A   1      29.676  31.338  24.061  1.00  0.00     0.163 HD
BRANCH   4   7
ATOM      7  C   UNL A   1      30.737  28.306  23.160  1.00  0.00     0.067 C 
ATOM      8  C   UNL A   1      31.848  23.407  23.593  1.00  0.00     0.029 A 
ATOM      9  C   UNL A   1      32.207  24.425  22.690  1.00  0.00     0.058 A 
ATOM     10  C   UNL A   1      31.031  23.757  24.684  1.00  0.00     0.050 A 
ATOM     11  C   UNL A   1      31.684  25.707  22.819  1.00  0.00     0.128 A 
ATOM     12  C   UNL A   1      30.444  25.026  24.762  1.00  0.00     0.033 A 
ATOM     13  Cl  UNL A   1      30.762  22.708  26.031  1.00  0.00    -0.084 Cl
ATOM     14  C   UNL A   1      30.751  25.996  23.814  1.00  0.00     0.019 A 
ATOM     15  O   UNL A   1      32.106  26.655  21.927  1.00  0.00    -0.475 OA
ATOM     16  C   UNL A   1      30.126  27.311  23.830  1.00  0.00     0.025 C 
ATOM     17  C   UNL A   1      32.025  28.018  22.440  1.00  0.00     0.314 C 
BRANCH   8  18
ATOM     18  C   UNL A   1      32.333  21.996  23.310  1.00  0.00     0.301 C 
BRANCH  18  19
ATOM     19  N   UNL A   1      33.604  21.597  23.941  1.00  0.00    -0.327 N 
ATOM     20  C   UNL A   1      33.685  19.214  24.614  1.00  0.00     0.075 C 
ATOM     21  C   UNL A   1      33.514  20.656  25.070  1.00  0.00     0.181 C 
ATOM     22  C   UNL A   1      34.615  21.078  26.040  1.00  0.00     0.071 C 
ATOM     23  C   UNL A   1      34.714  22.570  25.808  1.00  0.00     0.071 C 
ATOM     24  C   UNL A   1      34.494  22.706  24.308  1.00  0.00     0.181 C 
ATOM     25  H   UNL A   1      34.022  21.086  23.165  1.00  0.00     0.348 HD
ATOM     26  C   UNL A   1      35.794  22.578  23.514  1.00  0.00     0.075 C 
ENDBRANCH  18  19
ENDBRANCH   8  18
BRANCH  17  27
ATOM     27  C   UNL A   1      33.262  28.346  23.306  1.00  0.00     0.429 C 
ATOM     28  F   UNL A   1      33.567  29.664  23.216  1.00  0.00    -0.167 F 
ATOM     29  F   UNL A   1      33.051  28.088  24.621  1.00  0.00    -0.167 F 
ATOM     30  F   UNL A   1      34.363  27.649  22.949  1.00  0.00    -0.167 F 
ENDBRANCH  17  27
ENDBRANCH   4   7
ENDBRANCH   2   3
ENDBRANCH   1   2
BRANCH   1  31
ATOM     31  C   UNL A   1      32.027  32.287  27.072  1.00  0.00     0.118 C 
BRANCH  31  32
ATOM     32  N   UNL A   1      32.158  33.693  27.446  1.00  0.00    -0.352 N 
ATOM     33  C   UNL A   1      33.073  34.316  28.264  1.00  0.00     0.251 C 
ATOM     34  H   UNL A   1      31.483  34.292  27.051  1.00  0.00     0.163 HD
ATOM     35  O   UNL A   1      32.871  35.457  28.654  1.00  0.00    -0.269 OA
BRANCH  33  36
ATOM     36  C   UNL A   1      34.290  33.590  28.681  1.00  0.00     0.039 A 
ATOM     37  C   UNL A   1      34.198  32.274  29.135  1.00  0.00     0.014 A 
ATOM     38  C   UNL A   1      35.530  34.230  28.627  1.00  0.00     0.014 A 
ATOM     39  C   UNL A   1      35.298  31.678  29.730  1.00  0.00     0.010 A 
ATOM     40  C   UNL A   1      36.665  33.578  29.118  1.00  0.00     0.010 A 
ATOM     41  C   UNL A   1      36.547  32.319  29.726  1.00  0.00    -0.014 A 
BRANCH  41  42
ATOM     42  C   UNL A   1      37.701  31.644  30.371  1.00  0.00     0.031 A 
ATOM     43  C   UNL A   1      38.015  31.877  31.825  1.00  0.00     0.074 A 
ATOM     44  C   UNL A   1      38.422  30.758  29.657  1.00  0.00     0.049 A 
ATOM     45  N   UNL A   1      38.973  31.362  32.554  1.00  0.00    -0.248 NA
ATOM     46  C   UNL A   1      37.146  32.813  32.555  1.00  0.00     0.031 C 
ATOM     47  C   UNL A   1      38.203  30.434  28.244  1.00  0.00     0.029 A 
ATOM     48  N   UNL A   1      39.459  29.940  30.024  1.00  0.00    -0.354 N 
ATOM     49  C   UNL A   1      38.838  31.930  33.816  1.00  0.00     0.074 A 
ATOM     50  C   UNL A   1      37.723  32.848  33.749  1.00  0.00     0.031 C 
ATOM     51  C   UNL A   1      39.030  29.444  27.884  1.00  0.00     0.029 A 
ATOM     52  C   UNL A   1      39.891  29.116  29.013  1.00  0.00     0.049 A 
ATOM     53  H   UNL A   1      39.855  29.943  30.925  1.00  0.00     0.167 HD
ATOM     54  C   UNL A   1      39.572  31.698  34.931  1.00  0.00     0.037 A 
ATOM     55  C   UNL A   1      40.886  28.212  28.990  1.00  0.00     0.037 A 
ATOM     56  C   UNL A   1      40.666  30.763  35.000  1.00  0.00     0.049 A 
ATOM     57  C   UNL A   1      41.709  28.009  30.228  1.00  0.00     0.074 A 
ATOM     58  C   UNL A   1      41.465  30.447  36.085  1.00  0.00     0.029 A 
ATOM     59  N   UNL A   1      41.112  29.991  33.938  1.00  0.00    -0.354 N 
ATOM     60  N   UNL A   1      41.573  28.558  31.411  1.00  0.00    -0.248 NA
ATOM     61  C   UNL A   1      42.834  27.071  30.123  1.00  0.00     0.031 C 
ATOM     62  C   UNL A   1      42.418  29.510  35.668  1.00  0.00     0.029 A 
ATOM     63  C   UNL A   1      42.186  29.212  34.336  1.00  0.00     0.049 A 
ATOM     64  H   UNL A   1      40.722  29.997  33.033  1.00  0.00     0.167 HD
ATOM     65  C   UNL A   1      42.587  28.025  32.194  1.00  0.00     0.074 A 
ATOM     66  C   UNL A   1      43.312  27.089  31.359  1.00  0.00     0.031 C 
ATOM     67  C   UNL A   1      42.893  28.288  33.488  1.00  0.00     0.037 A 
BRANCH  54  68
ATOM     68  C   UNL A   1      39.228  32.485  36.162  1.00  0.00     0.057 A 
ATOM     69  C   UNL A   1      38.328  31.973  37.106  1.00  0.00     0.134 A 
ATOM     70  C   UNL A   1      39.762  33.758  36.404  1.00  0.00     0.134 A 
ATOM     71  F   UNL A   1      37.776  30.763  36.935  1.00  0.00    -0.206 F 
ATOM     72  C   UNL A   1      37.971  32.699  38.245  1.00  0.00     0.040 A 
ATOM     73  C   UNL A   1      39.431  34.483  37.551  1.00  0.00     0.040 A 
ATOM     74  F   UNL A   1      40.642  34.299  35.549  1.00  0.00    -0.206 F 
ATOM     75  C   UNL A   1      38.528  33.956  38.473  1.00  0.00     0.006 A 
ENDBRANCH  54  68
BRANCH  55  76
ATOM     76  C   UNL A   1      41.173  27.451  27.750  1.00  0.00     0.057 A 
ATOM     77  C   UNL A   1      40.614  26.187  27.525  1.00  0.00     0.134 A 
ATOM     78  C   UNL A   1      42.006  27.974  26.755  1.00  0.00     0.134 A 
ATOM     79  F   UNL A   1      39.811  25.628  28.443  1.00  0.00    -0.206 F 
ATOM     80  C   UNL A   1      40.881  25.466  26.362  1.00  0.00     0.040 A 
ATOM     81  C   UNL A   1      42.258  27.277  25.573  1.00  0.00     0.040 A 
ATOM     82  F   UNL A   1      42.557  29.188  26.905  1.00  0.00    -0.206 F 
ATOM     83  C   UNL A   1      41.699  26.015  25.376  1.00  0.00     0.006 A 
ENDBRANCH  55  76
BRANCH  67  84
ATOM     84  C   UNL A   1      44.045  27.530  34.074  1.00  0.00     0.057 A 
ATOM     85  C   UNL A   1      43.846  26.281  34.674  1.00  0.00     0.134 A 
ATOM     86  C   UNL A   1      45.351  28.039  34.050  1.00  0.00     0.134 A 
ATOM     87  F   UNL A   1      42.620  25.742  34.733  1.00  0.00    -0.206 F 
ATOM     88  C   UNL A   1      44.905  25.563  35.228  1.00  0.00     0.040 A 
ATOM     89  C   UNL A   1      46.422  27.318  34.579  1.00  0.00     0.040 A 
ATOM     90  F   UNL A   1      45.608  29.223  33.473  1.00  0.00    -0.206 F 
ATOM     91  C   UNL A   1      46.199  26.078  35.174  1.00  0.00     0.006 A 
ENDBRANCH  67  84
ENDBRANCH  41  42
ENDBRANCH  33  36
ENDBRANCH  31  32
ENDBRANCH   1  31
TORSDOF 13
ENDMDL
MODEL 2
REMARK VINA RESULT:     -13.1      4.815     10.088
REMARK SMILES C[C@@H]1CC[C@H](C)[N@H+]1Cc1cc2c(cc1Cl)C=C(C(=O)NCCCNC(=O)c1ccc(-c3c4nc(c(-c5c(F)cccc5F)c5ccc([nH]5)c(-c5c(F)cccc5F)c5nc(c(-c6c(F)cccc6F)c6ccc3[nH]6)C=C5)C=C4)cc1)[C@@H](C(F)(F)F)O2
REMARK SMILES IDX 22 1 21 2 20 3 18 4 19 5 17 7 9 8 10 9 14 10 11 11 13 12
REMARK SMILES IDX 15 13 12 14 86 15 16 16 81 17 8 18 7 19 6 20 5 21 4 22 3 23
REMARK SMILES IDX 2 24 1 26 82 27 83 28 84 29 85 30 23 31 24 32 25 33 26 35
REMARK SMILES IDX 27 36 28 37 80 38 29 39 79 40 30 41 31 42 32 43 73 44 33 45
REMARK SMILES IDX 78 46 72 47 74 48 34 49 77 50 71 51 70 52 35 54 61 55 44 56
REMARK SMILES IDX 60 57 45 58 48 59 59 60 75 61 46 62 47 63 58 65 76 66 49 67
REMARK SMILES IDX 36 68 37 69 42 70 38 71 39 72 41 73 43 74 40 75 62 76 63 77
REMARK SMILES IDX 68 78 64 79 65 80 67 81 69 82 66 83 50 84 51 85 56 86 52 87
REMARK SMILES IDX 53 88 55 89 57 90 54 91
REMARK H PARENT 20 6 7 25 24 34 74 53 48 64
REMARK Flexibility Score: inf
ROOT
ATOM      1  C   UNL A   1      37.989  19.810  24.752  1.00  0.00     0.042 C 
ENDROOT
BRANCH   1   2
ATOM      2  C   UNL A   1      36.670  20.493  25.076  1.00  0.00     0.118 C 
BRANCH   2   3
ATOM      3  N   UNL A   1      35.558  19.560  25.001  1.00  0.00    -0.352 N 
ATOM      4  C   UNL A   1      34.209  19.629  24.999  1.00  0.00     0.251 C 
ATOM      5  O   UNL A   1      33.628  18.540  24.954  1.00  0.00    -0.270 OA
ATOM      6  H   UNL A   1      35.872  18.629  24.936  1.00  0.00     0.163 HD
BRANCH   4   7
ATOM      7  C   UNL A   1      33.419  20.888  25.040  1.00  0.00     0.067 C 
ATOM      8  C   UNL A   1      30.744  24.982  23.813  1.00  0.00     0.029 A 
ATOM      9  C   UNL A   1      30.805  24.143  24.942  1.00  0.00     0.058 A 
ATOM     10  C   UNL A   1      31.632  24.718  22.753  1.00  0.00     0.050 A 
ATOM     11  C   UNL A   1      31.642  23.034  24.959  1.00  0.00     0.128 A 
ATOM     12  C   UNL A   1      32.412  23.556  22.743  1.00  0.00     0.033 A 
ATOM     13  Cl  UNL A   1      31.894  25.825  21.451  1.00  0.00    -0.084 Cl
ATOM     14  C   UNL A   1      32.399  22.698  23.838  1.00  0.00     0.019 A 
ATOM     15  O   UNL A   1      31.677  22.285  26.104  1.00  0.00    -0.475 OA
ATOM     16  C   UNL A   1      33.157  21.454  23.848  1.00  0.00     0.025 C 
ATOM     17  C   UNL A   1      32.929  21.560  26.291  1.00  0.00     0.314 C 
BRANCH   8  18
ATOM     18  C   UNL A   1      29.702  26.086  23.798  1.00  0.00     0.301 C 
BRANCH  18  19
ATOM     19  N   UNL A   1      30.183  27.450  24.081  1.00  0.00    -0.327 N 
ATOM     20  C   UNL A   1      28.806  29.234  23.051  1.00  0.00     0.075 C 
ATOM     21  C   UNL A   1      30.093  28.424  22.979  1.00  0.00     0.181 C 
ATOM     22  C   UNL A   1      31.328  29.311  23.119  1.00  0.00     0.071 C 
ATOM     23  C   UNL A   1      32.349  28.373  23.727  1.00  0.00     0.071 C 
ATOM     24  C   UNL A   1      31.520  27.528  24.684  1.00  0.00     0.181 C 
ATOM     25  H   UNL A   1      29.493  27.729  24.777  1.00  0.00     0.348 HD
ATOM     26  C   UNL A   1      31.399  28.164  26.069  1.00  0.00     0.075 C 
ENDBRANCH  18  19
ENDBRANCH   8  18
BRANCH  17  27
ATOM     27  C   UNL A   1      34.001  22.482  26.915  1.00  0.00     0.429 C 
ATOM     28  F   UNL A   1      33.414  23.513  27.573  1.00  0.00    -0.167 F 
ATOM     29  F   UNL A   1      34.771  21.833  27.823  1.00  0.00    -0.167 F 
ATOM     30  F   UNL A   1      34.846  23.012  26.003  1.00  0.00    -0.167 F 
ENDBRANCH  17  27
ENDBRANCH   4   7
ENDBRANCH   2   3
ENDBRANCH   1   2
BRANCH   1  31
ATOM     31  C   UNL A   1      39.084  20.176  25.743  1.00  0.00     0.118 C 
BRANCH  31  32
ATOM     32  N   UNL A   1      40.080  19.116  25.875  1.00  0.00    -0.352 N 
ATOM     33  C   UNL A   1      41.444  19.191  26.038  1.00  0.00     0.251 C 
ATOM     34  H   UNL A   1      39.718  18.201  25.840  1.00  0.00     0.163 HD
ATOM     35  O   UNL A   1      42.138  18.197  25.878  1.00  0.00    -0.269 OA
BRANCH  33  36
ATOM     36  C   UNL A   1      42.066  20.484  26.390  1.00  0.00     0.039 A 
ATOM     37  C   UNL A   1      42.211  20.849  27.728  1.00  0.00     0.014 A 
ATOM     38  C   UNL A   1      42.500  21.342  25.376  1.00  0.00     0.014 A 
ATOM     39  C   UNL A   1      42.587  22.144  28.046  1.00  0.00     0.010 A 
ATOM     40  C   UNL A   1      42.993  22.608  25.707  1.00  0.00     0.010 A 
ATOM     41  C   UNL A   1      42.987  23.039  27.042  1.00  0.00    -0.014 A 
BRANCH  41  42
ATOM     42  C   UNL A   1      43.384  24.418  27.426  1.00  0.00     0.031 A 
ATOM     43  C   UNL A   1      44.809  24.877  27.279  1.00  0.00     0.074 A 
ATOM     44  C   UNL A   1      42.434  25.280  27.837  1.00  0.00     0.049 A 
ATOM     45  N   UNL A   1      45.330  26.048  27.551  1.00  0.00    -0.248 NA
ATOM     46  C   UNL A   1      45.779  23.897  26.766  1.00  0.00     0.031 C 
ATOM     47  C   UNL A   1      41.013  24.956  28.003  1.00  0.00     0.029 A 
ATOM     48  N   UNL A   1      42.506  26.611  28.156  1.00  0.00    -0.354 N 
ATOM     49  C   UNL A   1      46.686  25.936  27.268  1.00  0.00     0.074 A 
ATOM     50  C   UNL A   1      46.915  24.577  26.829  1.00  0.00     0.031 C 
ATOM     51  C   UNL A   1      40.341  26.068  28.326  1.00  0.00     0.029 A 
ATOM     52  C   UNL A   1      41.289  27.166  28.469  1.00  0.00     0.049 A 
ATOM     53  H   UNL A   1      43.349  27.119  28.161  1.00  0.00     0.167 HD
ATOM     54  C   UNL A   1      47.651  26.883  27.359  1.00  0.00     0.037 A 
ATOM     55  C   UNL A   1      40.973  28.417  28.849  1.00  0.00     0.037 A 
ATOM     56  C   UNL A   1      47.414  28.243  27.773  1.00  0.00     0.049 A 
ATOM     57  C   UNL A   1      42.069  29.432  28.982  1.00  0.00     0.074 A 
ATOM     58  C   UNL A   1      48.320  29.282  27.886  1.00  0.00     0.029 A 
ATOM     59  N   UNL A   1      46.176  28.751  28.139  1.00  0.00    -0.354 N 
ATOM     60  N   UNL A   1      43.347  29.309  28.717  1.00  0.00    -0.248 NA
ATOM     61  C   UNL A   1      41.681  30.758  29.481  1.00  0.00     0.031 C 
ATOM     62  C   UNL A   1      47.637  30.410  28.356  1.00  0.00     0.029 A 
ATOM     63  C   UNL A   1      46.298  30.084  28.495  1.00  0.00     0.049 A 
ATOM     64  H   UNL A   1      45.335  28.239  28.145  1.00  0.00     0.167 HD
ATOM     65  C   UNL A   1      43.914  30.542  29.007  1.00  0.00     0.074 A 
ATOM     66  C   UNL A   1      42.835  31.406  29.441  1.00  0.00     0.031 C 
ATOM     67  C   UNL A   1      45.211  30.925  28.925  1.00  0.00     0.037 A 
BRANCH  54  68
ATOM     68  C   UNL A   1      49.056  26.475  27.022  1.00  0.00     0.057 A 
ATOM     69  C   UNL A   1      49.531  26.575  25.708  1.00  0.00     0.134 A 
ATOM     70  C   UNL A   1      49.932  25.959  27.987  1.00  0.00     0.134 A 
ATOM     71  F   UNL A   1      48.745  27.055  24.734  1.00  0.00    -0.206 F 
ATOM     72  C   UNL A   1      50.826  26.175  25.366  1.00  0.00     0.040 A 
ATOM     73  C   UNL A   1      51.235  25.579  27.662  1.00  0.00     0.040 A 
ATOM     74  F   UNL A   1      49.545  25.853  29.267  1.00  0.00    -0.206 F 
ATOM     75  C   UNL A   1      51.683  25.680  26.346  1.00  0.00     0.006 A 
ENDBRANCH  54  68
BRANCH  55  76
ATOM     76  C   UNL A   1      39.565  28.769  29.155  1.00  0.00     0.057 A 
ATOM     77  C   UNL A   1      38.707  29.265  28.166  1.00  0.00     0.134 A 
ATOM     78  C   UNL A   1      39.041  28.609  30.442  1.00  0.00     0.134 A 
ATOM     79  F   UNL A   1      39.151  29.447  26.913  1.00  0.00    -0.206 F 
ATOM     80  C   UNL A   1      37.383  29.600  28.447  1.00  0.00     0.040 A 
ATOM     81  C   UNL A   1      37.710  28.912  30.732  1.00  0.00     0.040 A 
ATOM     82  F   UNL A   1      39.809  28.121  31.428  1.00  0.00    -0.206 F 
ATOM     83  C   UNL A   1      36.877  29.414  29.732  1.00  0.00     0.006 A 
ENDBRANCH  55  76
BRANCH  67  84
ATOM     84  C   UNL A   1      45.518  32.346  29.288  1.00  0.00     0.057 A 
ATOM     85  C   UNL A   1      45.484  33.354  28.316  1.00  0.00     0.134 A 
ATOM     86  C   UNL A   1      45.853  32.716  30.597  1.00  0.00     0.134 A 
ATOM     87  F   UNL A   1      45.174  33.064  27.045  1.00  0.00    -0.206 F 
ATOM     88  C   UNL A   1      45.770  34.681  28.635  1.00  0.00     0.040 A 
ATOM     89  C   UNL A   1      46.117  34.045  30.932  1.00  0.00     0.040 A 
ATOM     90  F   UNL A   1      45.885  31.799  31.575  1.00  0.00    -0.206 F 
ATOM     91  C   UNL A   1      46.079  35.031  29.948  1.00  0.00     0.006 A 
ENDBRANCH  67  84
ENDBRANCH  41  42
ENDBRANCH  33  36
ENDBRANCH  31  32
ENDBRANCH   1  31
TORSDOF 13
ENDMDL
MODEL 3
REMARK VINA RESULT:     -13.1      1.560      6.383
REMARK SMILES C[C@@H]1CC[C@H](C)[N@H+]1Cc1cc2c(cc1Cl)C=C(C(=O)NCCCNC(=O)c1ccc(-c3c4nc(c(-c5c(F)cccc5F)c5ccc([nH]5)c(-c5c(F)cccc5F)c5nc(c(-c6c(F)cccc6F)c6ccc3[nH]6)C=C5)C=C4)cc1)[C@@H](C(F)(F)F)O2
REMARK SMILES IDX 22 1 21 2 20 3 18 4 19 5 17 7 9 8 10 9 14 10 11 11 13 12
REMARK SMILES IDX 15 13 12 14 86 15 16 16 81 17 8 18 7 19 6 20 5 21 4 22 3 23
REMARK SMILES IDX 2 24 1 26 82 27 83 28 84 29 85 30 23 31 24 32 25 33 26 35
REMARK SMILES IDX 27 36 28 37 80 38 29 39 79 40 30 41 31 42 32 43 73 44 33 45
REMARK SMILES IDX 78 46 72 47 74 48 34 49 77 50 71 51 70 52 35 54 61 55 44 56
REMARK SMILES IDX 60 57 45 58 48 59 59 60 75 61 46 62 47 63 58 65 76 66 49 67
REMARK SMILES IDX 36 68 37 69 42 70 38 71 39 72 41 73 43 74 40 75 62 76 63 77
REMARK SMILES IDX 68 78 64 79 65 80 67 81 69 82 66 83 50 84 51 85 56 86 52 87
REMARK SMILES IDX 53 88 55 89 57 90 54 91
REMARK H PARENT 20 6 7 25 24 34 74 53 48 64
REMARK Flexibility Score: inf
ROOT
ATOM      1  C   UNL A   1      31.432  32.126  26.635  1.00  0.00     0.042 C 
ENDROOT
BRANCH   1   2
ATOM      2  C   UNL A   1      31.671  30.670  26.270  1.00  0.00     0.118 C 
BRANCH   2   3
ATOM      3  N   UNL A   1      31.208  30.378  24.923  1.00  0.00    -0.352 N 
ATOM      4  C   UNL A   1      31.143  29.300  24.112  1.00  0.00     0.251 C 
ATOM      5  O   UNL A   1      30.688  29.518  22.985  1.00  0.00    -0.270 OA
ATOM      6  H   UNL A   1      30.846  31.183  24.484  1.00  0.00     0.163 HD
BRANCH   4   7
ATOM      7  C   UNL A   1      31.565  27.925  24.486  1.00  0.00     0.067 C 
ATOM      8  C   UNL A   1      31.636  23.048  25.765  1.00  0.00     0.029 A 
ATOM      9  C   UNL A   1      32.523  23.904  25.086  1.00  0.00     0.058 A 
ATOM     10  C   UNL A   1      30.452  23.608  26.281  1.00  0.00     0.050 A 
ATOM     11  C   UNL A   1      32.187  25.232  24.847  1.00  0.00     0.128 A 
ATOM     12  C   UNL A   1      30.083  24.921  25.967  1.00  0.00     0.033 A 
ATOM     13  Cl  UNL A   1      29.425  22.771  27.391  1.00  0.00    -0.084 Cl
ATOM     14  C   UNL A   1      30.941  25.728  25.227  1.00  0.00     0.019 A 
ATOM     15  O   UNL A   1      33.113  26.015  24.214  1.00  0.00    -0.475 OA
ATOM     16  C   UNL A   1      30.575  27.083  24.837  1.00  0.00     0.025 C 
ATOM     17  C   UNL A   1      32.986  27.435  24.519  1.00  0.00     0.314 C 
BRANCH   8  18
ATOM     18  C   UNL A   1      31.996  21.576  25.861  1.00  0.00     0.301 C 
BRANCH  18  19
ATOM     19  N   UNL A   1      32.879  21.044  24.808  1.00  0.00    -0.327 N 
ATOM     20  C   UNL A   1      31.912  21.169  22.529  1.00  0.00     0.075 C 
ATOM     21  C   UNL A   1      32.231  20.282  23.725  1.00  0.00     0.181 C 
ATOM     22  C   UNL A   1      33.218  19.175  23.362  1.00  0.00     0.071 C 
ATOM     23  C   UNL A   1      33.924  18.909  24.674  1.00  0.00     0.071 C 
ATOM     24  C   UNL A   1      34.046  20.295  25.291  1.00  0.00     0.181 C 
ATOM     25  H   UNL A   1      33.199  21.921  24.399  1.00  0.00     0.348 HD
ATOM     26  C   UNL A   1      35.315  21.022  24.847  1.00  0.00     0.075 C 
ENDBRANCH  18  19
ENDBRANCH   8  18
BRANCH  17  27
ATOM     27  C   UNL A   1      33.685  27.767  25.857  1.00  0.00     0.429 C 
ATOM     28  F   UNL A   1      34.620  26.829  26.148  1.00  0.00    -0.167 F 
ATOM     29  F   UNL A   1      34.333  28.957  25.816  1.00  0.00    -0.167 F 
ATOM     30  F   UNL A   1      32.833  27.829  26.904  1.00  0.00    -0.167 F 
ENDBRANCH  17  27
ENDBRANCH   4   7
ENDBRANCH   2   3
ENDBRANCH   1   2
BRANCH   1  31
ATOM     31  C   UNL A   1      32.631  32.745  27.338  1.00  0.00     0.118 C 
BRANCH  31  32
ATOM     32  N   UNL A   1      32.443  34.172  27.586  1.00  0.00    -0.352 N 
ATOM     33  C   UNL A   1      32.980  34.986  28.558  1.00  0.00     0.251 C 
ATOM     34  H   UNL A   1      31.834  34.625  26.958  1.00  0.00     0.163 HD
ATOM     35  O   UNL A   1      32.511  36.097  28.756  1.00  0.00    -0.269 OA
BRANCH  33  36
ATOM     36  C   UNL A   1      34.113  34.500  29.371  1.00  0.00     0.039 A 
ATOM     37  C   UNL A   1      35.414  34.581  28.875  1.00  0.00     0.014 A 
ATOM     38  C   UNL A   1      33.875  33.952  30.633  1.00  0.00     0.014 A 
ATOM     39  C   UNL A   1      36.440  33.928  29.538  1.00  0.00     0.010 A 
ATOM     40  C   UNL A   1      34.936  33.399  31.357  1.00  0.00     0.010 A 
ATOM     41  C   UNL A   1      36.217  33.332  30.789  1.00  0.00    -0.014 A 
BRANCH  41  42
ATOM     42  C   UNL A   1      37.344  32.645  31.468  1.00  0.00     0.031 A 
ATOM     43  C   UNL A   1      38.060  31.500  30.804  1.00  0.00     0.074 A 
ATOM     44  C   UNL A   1      37.770  33.110  32.659  1.00  0.00     0.049 A 
ATOM     45  N   UNL A   1      39.073  30.795  31.243  1.00  0.00    -0.248 NA
ATOM     46  C   UNL A   1      37.577  31.088  29.477  1.00  0.00     0.031 C 
ATOM     47  C   UNL A   1      37.167  34.226  33.395  1.00  0.00     0.029 A 
ATOM     48  N   UNL A   1      38.827  32.731  33.445  1.00  0.00    -0.354 N 
ATOM     49  C   UNL A   1      39.327  29.843  30.263  1.00  0.00     0.074 A 
ATOM     50  C   UNL A   1      38.349  30.042  29.216  1.00  0.00     0.031 C 
ATOM     51  C   UNL A   1      37.901  34.483  34.486  1.00  0.00     0.029 A 
ATOM     52  C   UNL A   1      38.977  33.505  34.571  1.00  0.00     0.049 A 
ATOM     53  H   UNL A   1      39.422  31.979  33.224  1.00  0.00     0.167 HD
ATOM     54  C   UNL A   1      40.296  28.896  30.234  1.00  0.00     0.037 A 
ATOM     55  C   UNL A   1      39.870  33.421  35.573  1.00  0.00     0.037 A 
ATOM     56  C   UNL A   1      41.284  28.717  31.267  1.00  0.00     0.049 A 
ATOM     57  C   UNL A   1      40.903  32.334  35.535  1.00  0.00     0.074 A 
ATOM     58  C   UNL A   1      42.315  27.795  31.327  1.00  0.00     0.029 A 
ATOM     59  N   UNL A   1      41.366  29.482  32.421  1.00  0.00    -0.354 N 
ATOM     60  N   UNL A   1      41.127  31.439  34.604  1.00  0.00    -0.248 NA
ATOM     61  C   UNL A   1      41.799  32.238  36.694  1.00  0.00     0.031 C 
ATOM     62  C   UNL A   1      42.997  27.979  32.535  1.00  0.00     0.029 A 
ATOM     63  C   UNL A   1      42.418  29.042  33.208  1.00  0.00     0.049 A 
ATOM     64  H   UNL A   1      40.764  30.228  32.647  1.00  0.00     0.167 HD
ATOM     65  C   UNL A   1      42.195  30.679  35.059  1.00  0.00     0.074 A 
ATOM     66  C   UNL A   1      42.591  31.238  36.336  1.00  0.00     0.031 C 
ATOM     67  C   UNL A   1      42.793  29.612  34.476  1.00  0.00     0.037 A 
BRANCH  54  68
ATOM     68  C   UNL A   1      40.319  27.965  29.056  1.00  0.00     0.057 A 
ATOM     69  C   UNL A   1      41.063  28.282  27.912  1.00  0.00     0.134 A 
ATOM     70  C   UNL A   1      39.588  26.770  29.038  1.00  0.00     0.134 A 
ATOM     71  F   UNL A   1      41.783  29.413  27.860  1.00  0.00    -0.206 F 
ATOM     72  C   UNL A   1      41.078  27.446  26.794  1.00  0.00     0.040 A 
ATOM     73  C   UNL A   1      39.613  25.914  27.935  1.00  0.00     0.040 A 
ATOM     74  F   UNL A   1      38.867  26.398  30.107  1.00  0.00    -0.206 F 
ATOM     75  C   UNL A   1      40.356  26.255  26.806  1.00  0.00     0.006 A 
ENDBRANCH  54  68
BRANCH  55  76
ATOM     76  C   UNL A   1      39.810  34.377  36.706  1.00  0.00     0.057 A 
ATOM     77  C   UNL A   1      40.454  35.619  36.646  1.00  0.00     0.134 A 
ATOM     78  C   UNL A   1      39.098  34.075  37.872  1.00  0.00     0.134 A 
ATOM     79  F   UNL A   1      41.157  35.966  35.557  1.00  0.00    -0.206 F 
ATOM     80  C   UNL A   1      40.402  36.522  37.708  1.00  0.00     0.040 A 
ATOM     81  C   UNL A   1      39.013  34.980  38.930  1.00  0.00     0.040 A 
ATOM     82  F   UNL A   1      38.446  32.908  37.982  1.00  0.00    -0.206 F 
ATOM     83  C   UNL A   1      39.672  36.207  38.852  1.00  0.00     0.006 A 
ENDBRANCH  55  76
BRANCH  67  84
ATOM     84  C   UNL A   1      43.952  29.006  35.208  1.00  0.00     0.057 A 
ATOM     85  C   UNL A   1      45.258  29.452  34.969  1.00  0.00     0.134 A 
ATOM     86  C   UNL A   1      43.776  27.978  36.144  1.00  0.00     0.134 A 
ATOM     87  F   UNL A   1      45.493  30.429  34.083  1.00  0.00    -0.206 F 
ATOM     88  C   UNL A   1      46.348  28.897  35.638  1.00  0.00     0.040 A 
ATOM     89  C   UNL A   1      44.858  27.433  36.837  1.00  0.00     0.040 A 
ATOM     90  F   UNL A   1      42.547  27.521  36.428  1.00  0.00    -0.206 F 
ATOM     91  C   UNL A   1      46.149  27.891  36.581  1.00  0.00     0.006 A 
ENDBRANCH  67  84
ENDBRANCH  41  42
ENDBRANCH  33  36
ENDBRANCH  31  32
ENDBRANCH   1  31
TORSDOF 13
ENDMDL
