MODEL 1
REMARK VINA RESULT:     -11.2      0.000      0.000
REMARK SMILES CCCCCCNC(=O)Oc1cccc(-c2ccc([C@@H](C)C(=O)NCCCNC(=O)c3ccc(-c4c5nc(c(-c6c(F)cccc6F)c6ccc([nH]6)c(-c6c(F)cccc6F)c6nc(c(-c7c(F)cccc7F)c7ccc4[nH]7)C=C6)C=C5)cc3)cc2)c1
REMARK SMILES IDX 16 1 17 2 18 3 19 4 85 5 86 6 15 7 11 8 12 9 87 10 13 11
REMARK SMILES IDX 14 12 10 13 8 14 7 15 9 17 6 18 5 19 4 20 3 21 2 22 1 23
REMARK SMILES IDX 20 24 21 25 22 26 23 27 24 28 25 30 26 31 27 32 28 33 29 34
REMARK SMILES IDX 30 36 31 37 32 38 84 39 33 40 83 41 34 42 35 43 36 44 77 45
REMARK SMILES IDX 37 46 82 47 76 48 78 49 38 50 81 51 75 52 74 53 39 55 65 56
REMARK SMILES IDX 48 57 64 58 49 59 52 60 63 61 79 62 50 63 51 64 62 66 80 67
REMARK SMILES IDX 53 68 40 69 41 70 46 71 42 72 43 73 45 74 47 75 44 76 66 77
REMARK SMILES IDX 67 78 72 79 68 80 69 81 71 82 73 83 70 84 54 85 55 86 60 87
REMARK SMILES IDX 56 88 57 89 59 90 61 91 58 92
REMARK H PARENT 7 16 24 29 28 35 78 54 52 65
REMARK Flexibility Score: inf
ROOT
ATOM      1  C   UNL A   1      33.651  28.589  27.031  1.00  0.00    -0.018 A 
ATOM      2  C   UNL A   1      32.339  28.525  27.525  1.00  0.00     0.009 A 
ATOM      3  C   UNL A   1      31.458  27.506  27.140  1.00  0.00     0.005 A 
ATOM      4  C   UNL A   1      31.837  26.546  26.199  1.00  0.00    -0.036 A 
ATOM      5  C   UNL A   1      33.158  26.577  25.731  1.00  0.00     0.005 A 
ATOM      6  C   UNL A   1      34.051  27.568  26.156  1.00  0.00     0.009 A 
ENDROOT
BRANCH   1   7
ATOM      7  C   UNL A   1      34.560  29.701  27.390  1.00  0.00    -0.015 A 
ATOM      8  C   UNL A   1      34.960  32.077  27.756  1.00  0.00     0.133 A 
ATOM      9  C   UNL A   1      36.287  31.837  28.095  1.00  0.00     0.047 A 
ATOM     10  C   UNL A   1      34.104  31.032  27.402  1.00  0.00     0.056 A 
ATOM     11  C   UNL A   1      36.757  30.528  28.099  1.00  0.00     0.004 A 
ATOM     12  C   UNL A   1      35.904  29.476  27.743  1.00  0.00     0.009 A 
BRANCH   8  13
ATOM     13  O   UNL A   1      34.557  33.418  27.653  1.00  0.00    -0.410 OA
BRANCH  13  14
ATOM     14  C   UNL A   1      33.330  33.780  28.191  1.00  0.00     0.412 C 
ATOM     15  N   UNL A   1      33.421  34.202  29.489  1.00  0.00    -0.321 N 
ATOM     16  H   UNL A   1      32.577  34.444  29.935  1.00  0.00     0.167 HD
ATOM     17  O   UNL A   1      32.249  33.741  27.616  1.00  0.00    -0.224 OA
BRANCH  15  18
ATOM     18  C   UNL A   1      34.630  34.330  30.278  1.00  0.00     0.119 C 
BRANCH  18  19
ATOM     19  C   UNL A   1      34.355  34.171  31.774  1.00  0.00     0.021 C 
BRANCH  19  20
ATOM     20  C   UNL A   1      34.409  35.473  32.581  1.00  0.00     0.002 C 
BRANCH  20  21
ATOM     21  C   UNL A   1      34.767  35.317  34.064  1.00  0.00    -0.000 C 
BRANCH  21  22
ATOM     22  C   UNL A   1      35.387  33.973  34.452  1.00  0.00    -0.003 C 
ATOM     23  C   UNL A   1      36.818  34.093  34.956  1.00  0.00     0.004 C 
ENDBRANCH  21  22
ENDBRANCH  20  21
ENDBRANCH  19  20
ENDBRANCH  18  19
ENDBRANCH  15  18
ENDBRANCH  13  14
ENDBRANCH   8  13
ENDBRANCH   1   7
BRANCH   4  24
ATOM     24  C   UNL A   1      30.876  25.517  25.625  1.00  0.00     0.105 C 
ATOM     25  C   UNL A   1      30.903  25.347  24.108  1.00  0.00     0.023 C 
BRANCH  24  26
ATOM     26  C   UNL A   1      30.856  24.202  26.421  1.00  0.00     0.227 C 
ATOM     27  O   UNL A   1      29.892  23.936  27.150  1.00  0.00    -0.274 OA
ATOM     28  N   UNL A   1      31.852  23.276  26.385  1.00  0.00    -0.356 N 
ATOM     29  H   UNL A   1      31.668  22.467  26.916  1.00  0.00     0.163 HD
BRANCH  28  30
ATOM     30  C   UNL A   1      33.133  23.260  25.710  1.00  0.00     0.117 C 
BRANCH  30  31
ATOM     31  C   UNL A   1      34.128  22.303  26.363  1.00  0.00     0.042 C 
BRANCH  31  32
ATOM     32  C   UNL A   1      35.579  22.763  26.288  1.00  0.00     0.118 C 
BRANCH  32  33
ATOM     33  N   UNL A   1      36.479  21.689  25.897  1.00  0.00    -0.352 N 
ATOM     34  C   UNL A   1      37.845  21.648  25.788  1.00  0.00     0.251 C 
ATOM     35  H   UNL A   1      36.028  20.843  25.673  1.00  0.00     0.163 HD
ATOM     36  O   UNL A   1      38.361  20.679  25.233  1.00  0.00    -0.269 OA
BRANCH  34  37
ATOM     37  C   UNL A   1      38.712  22.729  26.313  1.00  0.00     0.039 A 
ATOM     38  C   UNL A   1      38.409  24.049  25.958  1.00  0.00     0.014 A 
ATOM     39  C   UNL A   1      39.856  22.471  27.071  1.00  0.00     0.014 A 
ATOM     40  C   UNL A   1      39.228  25.098  26.383  1.00  0.00     0.010 A 
ATOM     41  C   UNL A   1      40.625  23.523  27.568  1.00  0.00     0.010 A 
ATOM     42  C   UNL A   1      40.334  24.847  27.210  1.00  0.00    -0.014 A 
BRANCH  42  43
ATOM     43  C   UNL A   1      41.200  25.960  27.677  1.00  0.00     0.031 A 
ATOM     44  C   UNL A   1      40.681  26.970  28.664  1.00  0.00     0.074 A 
ATOM     45  C   UNL A   1      42.452  26.075  27.193  1.00  0.00     0.049 A 
ATOM     46  N   UNL A   1      41.293  28.004  29.189  1.00  0.00    -0.248 NA
ATOM     47  C   UNL A   1      39.285  26.817  29.101  1.00  0.00     0.031 C 
ATOM     48  C   UNL A   1      43.055  25.195  26.190  1.00  0.00     0.029 A 
ATOM     49  N   UNL A   1      43.443  26.980  27.479  1.00  0.00    -0.354 N 
ATOM     50  C   UNL A   1      40.353  28.626  30.003  1.00  0.00     0.074 A 
ATOM     51  C   UNL A   1      39.117  27.888  29.862  1.00  0.00     0.031 C 
ATOM     52  C   UNL A   1      44.321  25.582  25.969  1.00  0.00     0.029 A 
ATOM     53  C   UNL A   1      44.611  26.752  26.791  1.00  0.00     0.049 A 
ATOM     54  H   UNL A   1      43.329  27.721  28.116  1.00  0.00     0.167 HD
ATOM     55  C   UNL A   1      40.512  29.700  30.814  1.00  0.00     0.037 A 
ATOM     56  C   UNL A   1      45.784  27.411  26.824  1.00  0.00     0.037 A 
ATOM     57  C   UNL A   1      41.749  30.419  30.974  1.00  0.00     0.049 A 
ATOM     58  C   UNL A   1      45.942  28.585  27.749  1.00  0.00     0.074 A 
ATOM     59  C   UNL A   1      42.029  31.482  31.814  1.00  0.00     0.029 A 
ATOM     60  N   UNL A   1      42.916  30.143  30.276  1.00  0.00    -0.354 N 
ATOM     61  N   UNL A   1      45.067  29.117  28.568  1.00  0.00    -0.248 NA
ATOM     62  C   UNL A   1      47.257  29.242  27.763  1.00  0.00     0.031 C 
ATOM     63  C   UNL A   1      43.354  31.875  31.598  1.00  0.00     0.029 A 
ATOM     64  C   UNL A   1      43.913  31.027  30.656  1.00  0.00     0.049 A 
ATOM     65  H   UNL A   1      43.020  29.427  29.609  1.00  0.00     0.167 HD
ATOM     66  C   UNL A   1      45.730  30.153  29.211  1.00  0.00     0.074 A 
ATOM     67  C   UNL A   1      47.086  30.161  28.702  1.00  0.00     0.031 C 
ATOM     68  C   UNL A   1      45.258  31.021  30.139  1.00  0.00     0.037 A 
BRANCH  55  69
ATOM     69  C   UNL A   1      39.315  30.159  31.597  1.00  0.00     0.057 A 
ATOM     70  C   UNL A   1      38.913  29.517  32.777  1.00  0.00     0.134 A 
ATOM     71  C   UNL A   1      38.572  31.274  31.185  1.00  0.00     0.134 A 
ATOM     72  F   UNL A   1      39.574  28.437  33.221  1.00  0.00    -0.206 F 
ATOM     73  C   UNL A   1      37.802  29.949  33.502  1.00  0.00     0.040 A 
ATOM     74  C   UNL A   1      37.475  31.731  31.917  1.00  0.00     0.040 A 
ATOM     75  F   UNL A   1      38.904  31.940  30.069  1.00  0.00    -0.206 F 
ATOM     76  C   UNL A   1      37.082  31.063  33.075  1.00  0.00     0.006 A 
ENDBRANCH  55  69
BRANCH  56  77
ATOM     77  C   UNL A   1      46.916  26.949  25.983  1.00  0.00     0.057 A 
ATOM     78  C   UNL A   1      47.061  27.389  24.662  1.00  0.00     0.134 A 
ATOM     79  C   UNL A   1      47.877  26.056  26.474  1.00  0.00     0.134 A 
ATOM     80  F   UNL A   1      46.162  28.230  24.130  1.00  0.00    -0.206 F 
ATOM     81  C   UNL A   1      48.109  26.947  23.854  1.00  0.00     0.040 A 
ATOM     82  C   UNL A   1      48.945  25.625  25.686  1.00  0.00     0.040 A 
ATOM     83  F   UNL A   1      47.798  25.602  27.734  1.00  0.00    -0.206 F 
ATOM     84  C   UNL A   1      49.059  26.066  24.368  1.00  0.00     0.006 A 
ENDBRANCH  56  77
BRANCH  68  85
ATOM     85  C   UNL A   1      46.226  32.030  30.683  1.00  0.00     0.057 A 
ATOM     86  C   UNL A   1      47.020  31.763  31.806  1.00  0.00     0.134 A 
ATOM     87  C   UNL A   1      46.377  33.278  30.064  1.00  0.00     0.134 A 
ATOM     88  F   UNL A   1      46.913  30.593  32.452  1.00  0.00    -0.206 F 
ATOM     89  C   UNL A   1      47.909  32.713  32.311  1.00  0.00     0.040 A 
ATOM     90  C   UNL A   1      47.282  34.225  30.545  1.00  0.00     0.040 A 
ATOM     91  F   UNL A   1      45.653  33.593  28.980  1.00  0.00    -0.206 F 
ATOM     92  C   UNL A   1      48.046  33.947  31.676  1.00  0.00     0.006 A 
ENDBRANCH  68  85
ENDBRANCH  42  43
ENDBRANCH  34  37
ENDBRANCH  32  33
ENDBRANCH  31  32
ENDBRANCH  30  31
ENDBRANCH  28  30
ENDBRANCH  24  26
ENDBRANCH   4  24
TORSDOF 19
ENDMDL
MODEL 2
REMARK VINA RESULT:     -11.1      3.201      7.427
REMARK SMILES CCCCCCNC(=O)Oc1cccc(-c2ccc([C@@H](C)C(=O)NCCCNC(=O)c3ccc(-c4c5nc(c(-c6c(F)cccc6F)c6ccc([nH]6)c(-c6c(F)cccc6F)c6nc(c(-c7c(F)cccc7F)c7ccc4[nH]7)C=C6)C=C5)cc3)cc2)c1
REMARK SMILES IDX 16 1 17 2 18 3 19 4 85 5 86 6 15 7 11 8 12 9 87 10 13 11
REMARK SMILES IDX 14 12 10 13 8 14 7 15 9 17 6 18 5 19 4 20 3 21 2 22 1 23
REMARK SMILES IDX 20 24 21 25 22 26 23 27 24 28 25 30 26 31 27 32 28 33 29 34
REMARK SMILES IDX 30 36 31 37 32 38 84 39 33 40 83 41 34 42 35 43 36 44 77 45
REMARK SMILES IDX 37 46 82 47 76 48 78 49 38 50 81 51 75 52 74 53 39 55 65 56
REMARK SMILES IDX 48 57 64 58 49 59 52 60 63 61 79 62 50 63 51 64 62 66 80 67
REMARK SMILES IDX 53 68 40 69 41 70 46 71 42 72 43 73 45 74 47 75 44 76 66 77
REMARK SMILES IDX 67 78 72 79 68 80 69 81 71 82 73 83 70 84 54 85 55 86 60 87
REMARK SMILES IDX 56 88 57 89 59 90 61 91 58 92
REMARK H PARENT 7 16 24 29 28 35 78 54 52 65
REMARK Flexibility Score: inf
ROOT
ATOM      1  C   UNL A   1      33.104  26.039  26.253  1.00  0.00    -0.018 A 
ATOM      2  C   UNL A   1      32.269  25.009  26.715  1.00  0.00     0.009 A 
ATOM      3  C   UNL A   1      32.695  23.674  26.741  1.00  0.00     0.005 A 
ATOM      4  C   UNL A   1      33.950  23.310  26.248  1.00  0.00    -0.036 A 
ATOM      5  C   UNL A   1      34.806  24.336  25.822  1.00  0.00     0.005 A 
ATOM      6  C   UNL A   1      34.396  25.674  25.844  1.00  0.00     0.009 A 
ENDROOT
BRANCH   1   7
ATOM      7  C   UNL A   1      32.630  27.439  26.167  1.00  0.00    -0.015 A 
ATOM      8  C   UNL A   1      31.272  29.155  25.095  1.00  0.00     0.133 A 
ATOM      9  C   UNL A   1      31.702  30.113  26.007  1.00  0.00     0.047 A 
ATOM     10  C   UNL A   1      31.729  27.837  25.164  1.00  0.00     0.056 A 
ATOM     11  C   UNL A   1      32.587  29.740  27.013  1.00  0.00     0.004 A 
ATOM     12  C   UNL A   1      33.049  28.420  27.086  1.00  0.00     0.009 A 
BRANCH   8  13
ATOM     13  O   UNL A   1      30.472  29.597  24.030  1.00  0.00    -0.410 OA
BRANCH  13  14
ATOM     14  C   UNL A   1      30.103  28.677  23.059  1.00  0.00     0.412 C 
ATOM     15  N   UNL A   1      31.115  28.388  22.187  1.00  0.00    -0.321 N 
ATOM     16  H   UNL A   1      30.904  27.763  21.456  1.00  0.00     0.167 HD
ATOM     17  O   UNL A   1      29.003  28.152  22.942  1.00  0.00    -0.224 OA
BRANCH  15  18
ATOM     18  C   UNL A   1      32.469  28.906  22.224  1.00  0.00     0.119 C 
BRANCH  18  19
ATOM     19  C   UNL A   1      33.503  27.790  22.373  1.00  0.00     0.021 C 
BRANCH  19  20
ATOM     20  C   UNL A   1      33.159  26.489  21.637  1.00  0.00     0.002 C 
BRANCH  20  21
ATOM     21  C   UNL A   1      32.905  25.271  22.533  1.00  0.00    -0.000 C 
BRANCH  21  22
ATOM     22  C   UNL A   1      31.434  24.936  22.787  1.00  0.00    -0.003 C 
ATOM     23  C   UNL A   1      31.233  23.613  23.510  1.00  0.00     0.004 C 
ENDBRANCH  21  22
ENDBRANCH  20  21
ENDBRANCH  19  20
ENDBRANCH  18  19
ENDBRANCH  15  18
ENDBRANCH  13  14
ENDBRANCH   8  13
ENDBRANCH   1   7
BRANCH   4  24
ATOM     24  C   UNL A   1      34.401  21.866  26.102  1.00  0.00     0.105 C 
ATOM     25  C   UNL A   1      33.501  20.814  26.746  1.00  0.00     0.023 C 
BRANCH  24  26
ATOM     26  C   UNL A   1      34.876  21.525  24.680  1.00  0.00     0.227 C 
ATOM     27  O   UNL A   1      34.049  21.401  23.766  1.00  0.00    -0.274 OA
ATOM     28  N   UNL A   1      36.180  21.344  24.336  1.00  0.00    -0.356 N 
ATOM     29  H   UNL A   1      36.322  21.177  23.375  1.00  0.00     0.163 HD
BRANCH  28  30
ATOM     30  C   UNL A   1      37.396  21.353  25.121  1.00  0.00     0.117 C 
BRANCH  30  31
ATOM     31  C   UNL A   1      38.276  20.133  24.852  1.00  0.00     0.042 C 
BRANCH  31  32
ATOM     32  C   UNL A   1      38.985  19.591  26.087  1.00  0.00     0.118 C 
BRANCH  32  33
ATOM     33  N   UNL A   1      40.305  19.062  25.777  1.00  0.00    -0.352 N 
ATOM     34  C   UNL A   1      41.546  19.645  25.819  1.00  0.00     0.251 C 
ATOM     35  H   UNL A   1      40.307  18.122  25.486  1.00  0.00     0.163 HD
ATOM     36  O   UNL A   1      42.492  19.050  25.305  1.00  0.00    -0.269 OA
BRANCH  34  37
ATOM     37  C   UNL A   1      41.777  20.961  26.460  1.00  0.00     0.039 A 
ATOM     38  C   UNL A   1      42.131  22.041  25.642  1.00  0.00     0.014 A 
ATOM     39  C   UNL A   1      41.739  21.136  27.845  1.00  0.00     0.014 A 
ATOM     40  C   UNL A   1      42.413  23.287  26.206  1.00  0.00     0.010 A 
ATOM     41  C   UNL A   1      41.936  22.401  28.402  1.00  0.00     0.010 A 
ATOM     42  C   UNL A   1      42.298  23.485  27.591  1.00  0.00    -0.014 A 
BRANCH  42  43
ATOM     43  C   UNL A   1      42.584  24.812  28.194  1.00  0.00     0.031 A 
ATOM     44  C   UNL A   1      43.977  25.166  28.641  1.00  0.00     0.074 A 
ATOM     45  C   UNL A   1      41.580  25.695  28.363  1.00  0.00     0.049 A 
ATOM     46  N   UNL A   1      44.416  26.275  29.182  1.00  0.00    -0.248 NA
ATOM     47  C   UNL A   1      45.009  24.129  28.483  1.00  0.00     0.031 C 
ATOM     48  C   UNL A   1      40.176  25.453  28.024  1.00  0.00     0.029 A 
ATOM     49  N   UNL A   1      41.586  26.973  28.861  1.00  0.00    -0.354 N 
ATOM     50  C   UNL A   1      45.765  26.063  29.440  1.00  0.00     0.074 A 
ATOM     51  C   UNL A   1      46.062  24.703  29.046  1.00  0.00     0.031 C 
ATOM     52  C   UNL A   1      39.462  26.557  28.293  1.00  0.00     0.029 A 
ATOM     53  C   UNL A   1      40.350  27.574  28.848  1.00  0.00     0.049 A 
ATOM     54  H   UNL A   1      42.398  27.418  29.195  1.00  0.00     0.167 HD
ATOM     55  C   UNL A   1      46.681  26.930  29.936  1.00  0.00     0.037 A 
ATOM     56  C   UNL A   1      39.977  28.808  29.236  1.00  0.00     0.037 A 
ATOM     57  C   UNL A   1      46.391  28.292  30.303  1.00  0.00     0.049 A 
ATOM     58  C   UNL A   1      41.016  29.758  29.761  1.00  0.00     0.074 A 
ATOM     59  C   UNL A   1      47.261  29.268  30.759  1.00  0.00     0.029 A 
ATOM     60  N   UNL A   1      45.131  28.870  30.255  1.00  0.00    -0.354 N 
ATOM     61  N   UNL A   1      42.302  29.569  29.930  1.00  0.00    -0.248 NA
ATOM     62  C   UNL A   1      40.551  31.101  30.138  1.00  0.00     0.031 C 
ATOM     63  C   UNL A   1      46.520  30.425  31.022  1.00  0.00     0.029 A 
ATOM     64  C   UNL A   1      45.198  30.184  30.687  1.00  0.00     0.049 A 
ATOM     65  H   UNL A   1      44.311  28.414  29.958  1.00  0.00     0.167 HD
ATOM     66  C   UNL A   1      42.804  30.771  30.408  1.00  0.00     0.074 A 
ATOM     67  C   UNL A   1      41.687  31.690  30.483  1.00  0.00     0.031 C 
ATOM     68  C   UNL A   1      44.076  31.086  30.755  1.00  0.00     0.037 A 
BRANCH  55  69
ATOM     69  C   UNL A   1      48.087  26.430  30.104  1.00  0.00     0.057 A 
ATOM     70  C   UNL A   1      48.520  25.827  31.293  1.00  0.00     0.134 A 
ATOM     71  C   UNL A   1      49.013  26.525  29.056  1.00  0.00     0.134 A 
ATOM     72  F   UNL A   1      47.688  25.715  32.339  1.00  0.00    -0.206 F 
ATOM     73  C   UNL A   1      49.827  25.362  31.443  1.00  0.00     0.040 A 
ATOM     74  C   UNL A   1      50.315  26.038  29.185  1.00  0.00     0.040 A 
ATOM     75  F   UNL A   1      48.664  27.084  27.887  1.00  0.00    -0.206 F 
ATOM     76  C   UNL A   1      50.728  25.462  30.384  1.00  0.00     0.006 A 
ENDBRANCH  55  69
BRANCH  56  77
ATOM     77  C   UNL A   1      38.560  29.228  29.103  1.00  0.00     0.057 A 
ATOM     78  C   UNL A   1      37.690  29.191  30.199  1.00  0.00     0.134 A 
ATOM     79  C   UNL A   1      38.040  29.674  27.882  1.00  0.00     0.134 A 
ATOM     80  F   UNL A   1      38.126  28.755  31.391  1.00  0.00    -0.206 F 
ATOM     81  C   UNL A   1      36.351  29.564  30.084  1.00  0.00     0.040 A 
ATOM     82  C   UNL A   1      36.709  30.075  27.757  1.00  0.00     0.040 A 
ATOM     83  F   UNL A   1      38.824  29.740  26.795  1.00  0.00    -0.206 F 
ATOM     84  C   UNL A   1      35.857  30.013  28.860  1.00  0.00     0.006 A 
ENDBRANCH  56  77
BRANCH  68  85
ATOM     85  C   UNL A   1      44.328  32.490  31.218  1.00  0.00     0.057 A 
ATOM     86  C   UNL A   1      44.252  32.847  32.571  1.00  0.00     0.134 A 
ATOM     87  C   UNL A   1      44.667  33.494  30.301  1.00  0.00     0.134 A 
ATOM     88  F   UNL A   1      43.919  31.937  33.497  1.00  0.00    -0.206 F 
ATOM     89  C   UNL A   1      44.477  34.159  32.991  1.00  0.00     0.040 A 
ATOM     90  C   UNL A   1      44.919  34.803  30.713  1.00  0.00     0.040 A 
ATOM     91  F   UNL A   1      44.764  33.217  28.992  1.00  0.00    -0.206 F 
ATOM     92  C   UNL A   1      44.816  35.141  32.061  1.00  0.00     0.006 A 
ENDBRANCH  68  85
ENDBRANCH  42  43
ENDBRANCH  34  37
ENDBRANCH  32  33
ENDBRANCH  31  32
ENDBRANCH  30  31
ENDBRANCH  28  30
ENDBRANCH  24  26
ENDBRANCH   4  24
TORSDOF 19
ENDMDL
MODEL 3
REMARK VINA RESULT:     -11.0      4.071      9.470
REMARK SMILES CCCCCCNC(=O)Oc1cccc(-c2ccc([C@@H](C)C(=O)NCCCNC(=O)c3ccc(-c4c5nc(c(-c6c(F)cccc6F)c6ccc([nH]6)c(-c6c(F)cccc6F)c6nc(c(-c7c(F)cccc7F)c7ccc4[nH]7)C=C6)C=C5)cc3)cc2)c1
REMARK SMILES IDX 16 1 17 2 18 3 19 4 85 5 86 6 15 7 11 8 12 9 87 10 13 11
REMARK SMILES IDX 14 12 10 13 8 14 7 15 9 17 6 18 5 19 4 20 3 21 2 22 1 23
REMARK SMILES IDX 20 24 21 25 22 26 23 27 24 28 25 30 26 31 27 32 28 33 29 34
REMARK SMILES IDX 30 36 31 37 32 38 84 39 33 40 83 41 34 42 35 43 36 44 77 45
REMARK SMILES IDX 37 46 82 47 76 48 78 49 38 50 81 51 75 52 74 53 39 55 65 56
REMARK SMILES IDX 48 57 64 58 49 59 52 60 63 61 79 62 50 63 51 64 62 66 80 67
REMARK SMILES IDX 53 68 40 69 41 70 46 71 42 72 43 73 45 74 47 75 44 76 66 77
REMARK SMILES IDX 67 78 72 79 68 80 69 81 71 82 73 83 70 84 54 85 55 86 60 87
REMARK SMILES IDX 56 88 57 89 59 90 61 91 58 92
REMARK H PARENT 7 16 24 29 28 35 78 54 52 65
REMARK Flexibility Score: inf
ROOT
ATOM      1  C   UNL A   1      44.670  24.454  29.954  1.00  0.00    -0.018 A 
ATOM      2  C   UNL A   1      43.379  23.970  29.697  1.00  0.00     0.009 A 
ATOM      3  C   UNL A   1      43.041  23.399  28.463  1.00  0.00     0.005 A 
ATOM      4  C   UNL A   1      43.966  23.347  27.417  1.00  0.00    -0.036 A 
ATOM      5  C   UNL A   1      45.270  23.791  27.678  1.00  0.00     0.005 A 
ATOM      6  C   UNL A   1      45.618  24.315  28.928  1.00  0.00     0.009 A 
ENDROOT
BRANCH   1   7
ATOM      7  C   UNL A   1      45.008  25.114  31.236  1.00  0.00    -0.015 A 
ATOM      8  C   UNL A   1      44.859  25.226  33.666  1.00  0.00     0.133 A 
ATOM      9  C   UNL A   1      45.667  26.358  33.698  1.00  0.00     0.047 A 
ATOM     10  C   UNL A   1      44.526  24.611  32.457  1.00  0.00     0.056 A 
ATOM     11  C   UNL A   1      46.163  26.868  32.503  1.00  0.00     0.004 A 
ATOM     12  C   UNL A   1      45.831  26.256  31.287  1.00  0.00     0.009 A 
BRANCH   8  13
ATOM     13  O   UNL A   1      44.286  24.813  34.878  1.00  0.00    -0.410 OA
BRANCH  13  14
ATOM     14  C   UNL A   1      42.934  24.500  34.896  1.00  0.00     0.412 C 
ATOM     15  N   UNL A   1      42.139  25.588  35.126  1.00  0.00    -0.321 N 
ATOM     16  H   UNL A   1      41.169  25.423  35.179  1.00  0.00     0.167 HD
ATOM     17  O   UNL A   1      42.449  23.387  34.734  1.00  0.00    -0.224 OA
BRANCH  15  18
ATOM     18  C   UNL A   1      42.572  26.960  35.301  1.00  0.00     0.119 C 
BRANCH  18  19
ATOM     19  C   UNL A   1      42.226  27.827  34.090  1.00  0.00     0.021 C 
BRANCH  19  20
ATOM     20  C   UNL A   1      41.125  28.866  34.336  1.00  0.00     0.002 C 
BRANCH  20  21
ATOM     21  C   UNL A   1      40.320  29.280  33.098  1.00  0.00    -0.000 C 
BRANCH  21  22
ATOM     22  C   UNL A   1      39.688  28.131  32.310  1.00  0.00    -0.003 C 
ATOM     23  C   UNL A   1      38.192  27.989  32.548  1.00  0.00     0.004 C 
ENDBRANCH  21  22
ENDBRANCH  20  21
ENDBRANCH  19  20
ENDBRANCH  18  19
ENDBRANCH  15  18
ENDBRANCH  13  14
ENDBRANCH   8  13
ENDBRANCH   1   7
BRANCH   4  24
ATOM     24  C   UNL A   1      43.610  22.889  26.012  1.00  0.00     0.105 C 
ATOM     25  C   UNL A   1      43.677  23.955  24.922  1.00  0.00     0.023 C 
BRANCH  24  26
ATOM     26  C   UNL A   1      44.252  21.543  25.638  1.00  0.00     0.227 C 
ATOM     27  O   UNL A   1      45.452  21.494  25.337  1.00  0.00    -0.274 OA
ATOM     28  N   UNL A   1      43.579  20.360  25.612  1.00  0.00    -0.356 N 
ATOM     29  H   UNL A   1      44.144  19.582  25.397  1.00  0.00     0.163 HD
BRANCH  28  30
ATOM     30  C   UNL A   1      42.187  20.034  25.841  1.00  0.00     0.117 C 
BRANCH  30  31
ATOM     31  C   UNL A   1      41.815  20.063  27.322  1.00  0.00     0.042 C 
BRANCH  31  32
ATOM     32  C   UNL A   1      40.851  21.180  27.702  1.00  0.00     0.118 C 
BRANCH  32  33
ATOM     33  N   UNL A   1      39.859  21.428  26.666  1.00  0.00    -0.352 N 
ATOM     34  C   UNL A   1      39.194  22.572  26.306  1.00  0.00     0.251 C 
ATOM     35  H   UNL A   1      39.625  20.636  26.131  1.00  0.00     0.163 HD
ATOM     36  O   UNL A   1      38.243  22.479  25.531  1.00  0.00    -0.269 OA
BRANCH  34  37
ATOM     37  C   UNL A   1      39.583  23.906  26.821  1.00  0.00     0.039 A 
ATOM     38  C   UNL A   1      40.205  24.799  25.939  1.00  0.00     0.014 A 
ATOM     39  C   UNL A   1      39.430  24.265  28.162  1.00  0.00     0.014 A 
ATOM     40  C   UNL A   1      40.640  26.047  26.392  1.00  0.00     0.010 A 
ATOM     41  C   UNL A   1      39.786  25.543  28.595  1.00  0.00     0.010 A 
ATOM     42  C   UNL A   1      40.416  26.440  27.721  1.00  0.00    -0.014 A 
BRANCH  42  43
ATOM     43  C   UNL A   1      40.864  27.771  28.204  1.00  0.00     0.031 A 
ATOM     44  C   UNL A   1      42.323  28.140  28.186  1.00  0.00     0.074 A 
ATOM     45  C   UNL A   1      39.956  28.643  28.684  1.00  0.00     0.049 A 
ATOM     46  N   UNL A   1      42.899  29.255  28.562  1.00  0.00    -0.248 NA
ATOM     47  C   UNL A   1      43.263  27.114  27.707  1.00  0.00     0.031 C 
ATOM     48  C   UNL A   1      38.520  28.386  28.809  1.00  0.00     0.029 A 
ATOM     49  N   UNL A   1      40.107  29.923  29.157  1.00  0.00    -0.354 N 
ATOM     50  C   UNL A   1      44.263  29.058  28.377  1.00  0.00     0.074 A 
ATOM     51  C   UNL A   1      44.433  27.700  27.907  1.00  0.00     0.031 C 
ATOM     52  C   UNL A   1      37.917  29.483  29.292  1.00  0.00     0.029 A 
ATOM     53  C   UNL A   1      38.924  30.510  29.538  1.00  0.00     0.049 A 
ATOM     54  H   UNL A   1      40.978  30.376  29.217  1.00  0.00     0.167 HD
ATOM     55  C   UNL A   1      45.279  29.936  28.558  1.00  0.00     0.037 A 
ATOM     56  C   UNL A   1      38.681  31.740  30.025  1.00  0.00     0.037 A 
ATOM     57  C   UNL A   1      45.107  31.295  29.000  1.00  0.00     0.049 A 
ATOM     58  C   UNL A   1      39.822  32.703  30.195  1.00  0.00     0.074 A 
ATOM     59  C   UNL A   1      46.065  32.281  29.158  1.00  0.00     0.029 A 
ATOM     60  N   UNL A   1      43.891  31.859  29.355  1.00  0.00    -0.354 N 
ATOM     61  N   UNL A   1      41.097  32.527  29.947  1.00  0.00    -0.248 NA
ATOM     62  C   UNL A   1      39.487  34.042  30.702  1.00  0.00     0.031 C 
ATOM     63  C   UNL A   1      45.435  33.431  29.644  1.00  0.00     0.029 A 
ATOM     64  C   UNL A   1      44.077  33.175  29.746  1.00  0.00     0.049 A 
ATOM     65  H   UNL A   1      43.023  31.394  29.333  1.00  0.00     0.167 HD
ATOM     66  C   UNL A   1      41.712  33.736  30.242  1.00  0.00     0.074 A 
ATOM     67  C   UNL A   1      40.667  34.643  30.669  1.00  0.00     0.031 C 
ATOM     68  C   UNL A   1      43.025  34.065  30.167  1.00  0.00     0.037 A 
BRANCH  55  69
ATOM     69  C   UNL A   1      46.671  29.451  28.270  1.00  0.00     0.057 A 
ATOM     70  C   UNL A   1      47.167  29.363  26.961  1.00  0.00     0.134 A 
ATOM     71  C   UNL A   1      47.538  29.096  29.312  1.00  0.00     0.134 A 
ATOM     72  F   UNL A   1      46.386  29.677  25.917  1.00  0.00    -0.206 F 
ATOM     73  C   UNL A   1      48.462  28.915  26.699  1.00  0.00     0.040 A 
ATOM     74  C   UNL A   1      48.845  28.672  29.063  1.00  0.00     0.040 A 
ATOM     75  F   UNL A   1      47.132  29.163  30.588  1.00  0.00    -0.206 F 
ATOM     76  C   UNL A   1      49.308  28.573  27.752  1.00  0.00     0.006 A 
ENDBRANCH  55  69
BRANCH  56  77
ATOM     77  C   UNL A   1      37.290  32.146  30.350  1.00  0.00     0.057 A 
ATOM     78  C   UNL A   1      36.495  32.814  29.411  1.00  0.00     0.134 A 
ATOM     79  C   UNL A   1      36.723  31.880  31.602  1.00  0.00     0.134 A 
ATOM     80  F   UNL A   1      36.989  33.113  28.201  1.00  0.00    -0.206 F 
ATOM     81  C   UNL A   1      35.194  33.219  29.710  1.00  0.00     0.040 A 
ATOM     82  C   UNL A   1      35.414  32.256  31.907  1.00  0.00     0.040 A 
ATOM     83  F   UNL A   1      37.430  31.237  32.543  1.00  0.00    -0.206 F 
ATOM     84  C   UNL A   1      34.647  32.935  30.960  1.00  0.00     0.006 A 
ENDBRANCH  56  77
BRANCH  68  85
ATOM     85  C   UNL A   1      43.396  35.473  30.529  1.00  0.00     0.057 A 
ATOM     86  C   UNL A   1      43.750  35.832  31.836  1.00  0.00     0.134 A 
ATOM     87  C   UNL A   1      43.416  36.478  29.553  1.00  0.00     0.134 A 
ATOM     88  F   UNL A   1      43.738  34.920  32.819  1.00  0.00    -0.206 F 
ATOM     89  C   UNL A   1      44.082  37.147  32.165  1.00  0.00     0.040 A 
ATOM     90  C   UNL A   1      43.771  37.790  29.866  1.00  0.00     0.040 A 
ATOM     91  F   UNL A   1      43.095  36.200  28.281  1.00  0.00    -0.206 F 
ATOM     92  C   UNL A   1      44.099  38.130  31.177  1.00  0.00     0.006 A 
ENDBRANCH  68  85
ENDBRANCH  42  43
ENDBRANCH  34  37
ENDBRANCH  32  33
ENDBRANCH  31  32
ENDBRANCH  30  31
ENDBRANCH  28  30
ENDBRANCH  24  26
ENDBRANCH   4  24
TORSDOF 19
ENDMDL
