MODEL 1
REMARK VINA RESULT:     -11.2      0.000      0.000
REMARK SMILES C[C@@H](Nc1ccc(C(=O)NCCCNC(=O)c2ccc(-c3c4nc(c(-c5c(F)cccc5F)c5ccc([nH]5)c(-c5c(F)cccc5F)c5nc(c(-c6c(F)cccc6F)c6ccc3[nH]6)C=C5)C=C4)cc2)cc1)C1CC[NH+](C)CC1
REMARK SMILES IDX 11 1 10 2 8 3 9 4 7 6 4 7 5 8 72 9 6 10 71 11 3 12 2 14 1 15
REMARK SMILES IDX 73 16 74 17 79 18 75 19 78 20 76 21 77 22 12 24 13 25 14 26
REMARK SMILES IDX 15 27 16 29 17 30 18 31 70 32 19 33 69 34 20 35 21 36 22 37
REMARK SMILES IDX 63 38 23 39 68 40 62 41 64 42 24 43 67 44 61 45 60 46 25 48
REMARK SMILES IDX 51 49 34 50 50 51 35 52 38 53 49 54 65 55 36 56 37 57 48 59
REMARK SMILES IDX 66 60 39 61 26 62 27 63 32 64 28 65 29 66 31 67 33 68 30 69
REMARK SMILES IDX 52 70 53 71 58 72 54 73 55 74 57 75 59 76 56 77 40 78 41 79
REMARK SMILES IDX 46 80 42 81 43 82 45 83 47 84 44 85
REMARK H PARENT 10 5 3 13 76 23 14 28 64 47 38 58
REMARK Flexibility Score: inf
ROOT
ATOM      1  C   UNL A   1      37.352  20.696  24.778  1.00  0.00     0.118 C 
ENDROOT
BRANCH   1   2
ATOM      2  N   UNL A   1      37.939  21.924  25.281  1.00  0.00    -0.352 N 
ATOM      3  C   UNL A   1      37.403  23.164  25.519  1.00  0.00     0.251 C 
ATOM      4  O   UNL A   1      38.134  24.034  25.989  1.00  0.00    -0.269 OA
ATOM      5  H   UNL A   1      38.899  21.855  25.490  1.00  0.00     0.163 HD
BRANCH   3   6
ATOM      6  C   UNL A   1      35.963  23.456  25.318  1.00  0.00     0.039 A 
ATOM      7  C   UNL A   1      33.329  24.315  24.791  1.00  0.00     0.034 A 
ATOM      8  C   UNL A   1      34.253  24.152  23.753  1.00  0.00     0.026 A 
ATOM      9  C   UNL A   1      33.711  23.919  26.076  1.00  0.00     0.026 A 
ATOM     10  C   UNL A   1      35.558  23.733  24.010  1.00  0.00     0.016 A 
ATOM     11  C   UNL A   1      35.015  23.478  26.339  1.00  0.00     0.016 A 
BRANCH   7  12
ATOM     12  N   UNL A   1      32.159  24.986  24.507  1.00  0.00    -0.382 N 
ATOM     13  H   UNL A   1      31.538  24.540  23.889  1.00  0.00     0.160 HD
BRANCH  12  14
ATOM     14  C   UNL A   1      31.740  26.293  25.025  1.00  0.00     0.079 C 
ATOM     15  C   UNL A   1      30.206  26.276  25.009  1.00  0.00     0.031 C 
BRANCH  14  16
ATOM     16  C   UNL A   1      32.402  27.476  24.237  1.00  0.00     0.022 C 
ATOM     17  C   UNL A   1      33.836  27.761  24.710  1.00  0.00     0.067 C 
ATOM     18  C   UNL A   1      31.619  28.794  24.158  1.00  0.00     0.067 C 
ATOM     19  C   UNL A   1      33.888  28.608  25.974  1.00  0.00     0.262 C 
ATOM     20  C   UNL A   1      31.786  29.708  25.375  1.00  0.00     0.262 C 
ATOM     21  N   UNL A   1      33.183  29.878  25.789  1.00  0.00    -0.337 N 
ATOM     22  C   UNL A   1      33.252  30.674  27.017  1.00  0.00     0.332 C 
ATOM     23  H   UNL A   1      33.657  30.369  25.030  1.00  0.00     0.347 HD
ENDBRANCH  14  16
ENDBRANCH  12  14
ENDBRANCH   7  12
ENDBRANCH   3   6
ENDBRANCH   1   2
BRANCH   1  24
ATOM     24  C   UNL A   1      38.302  19.515  24.979  1.00  0.00     0.042 C 
BRANCH  24  25
ATOM     25  C   UNL A   1      39.295  19.719  26.122  1.00  0.00     0.118 C 
BRANCH  25  26
ATOM     26  N   UNL A   1      40.557  19.039  25.884  1.00  0.00    -0.352 N 
ATOM     27  C   UNL A   1      41.839  19.530  25.892  1.00  0.00     0.251 C 
ATOM     28  H   UNL A   1      40.480  18.078  25.685  1.00  0.00     0.163 HD
ATOM     29  O   UNL A   1      42.754  18.827  25.473  1.00  0.00    -0.269 OA
BRANCH  27  30
ATOM     30  C   UNL A   1      42.132  20.895  26.386  1.00  0.00     0.039 A 
ATOM     31  C   UNL A   1      42.138  21.114  27.767  1.00  0.00     0.014 A 
ATOM     32  C   UNL A   1      42.336  21.967  25.512  1.00  0.00     0.014 A 
ATOM     33  C   UNL A   1      42.383  22.394  28.271  1.00  0.00     0.010 A 
ATOM     34  C   UNL A   1      42.642  23.231  26.016  1.00  0.00     0.010 A 
ATOM     35  C   UNL A   1      42.656  23.460  27.400  1.00  0.00    -0.014 A 
BRANCH  35  36
ATOM     36  C   UNL A   1      42.935  24.820  27.927  1.00  0.00     0.031 A 
ATOM     37  C   UNL A   1      44.345  25.239  28.239  1.00  0.00     0.074 A 
ATOM     38  C   UNL A   1      41.914  25.669  28.157  1.00  0.00     0.049 A 
ATOM     39  N   UNL A   1      44.781  26.368  28.741  1.00  0.00    -0.248 NA
ATOM     40  C   UNL A   1      45.404  24.254  27.972  1.00  0.00     0.031 C 
ATOM     41  C   UNL A   1      40.498  25.372  27.931  1.00  0.00     0.029 A 
ATOM     42  N   UNL A   1      41.910  26.955  28.638  1.00  0.00    -0.354 N 
ATOM     43  C   UNL A   1      46.158  26.223  28.859  1.00  0.00     0.074 A 
ATOM     44  C   UNL A   1      46.481  24.882  28.421  1.00  0.00     0.031 C 
ATOM     45  C   UNL A   1      39.767  26.451  28.252  1.00  0.00     0.029 A 
ATOM     46  C   UNL A   1      40.655  27.504  28.735  1.00  0.00     0.049 A 
ATOM     47  H   UNL A   1      42.730  27.438  28.890  1.00  0.00     0.167 HD
ATOM     48  C   UNL A   1      47.073  27.132  29.274  1.00  0.00     0.037 A 
ATOM     49  C   UNL A   1      40.265  28.718  29.165  1.00  0.00     0.037 A 
ATOM     50  C   UNL A   1      46.757  28.475  29.684  1.00  0.00     0.049 A 
ATOM     51  C   UNL A   1      41.301  29.707  29.619  1.00  0.00     0.074 A 
ATOM     52  C   UNL A   1      47.620  29.483  30.076  1.00  0.00     0.029 A 
ATOM     53  N   UNL A   1      45.474  28.997  29.752  1.00  0.00    -0.354 N 
ATOM     54  N   UNL A   1      42.604  29.574  29.672  1.00  0.00    -0.248 NA
ATOM     55  C   UNL A   1      40.812  31.020  30.067  1.00  0.00     0.031 C 
ATOM     56  C   UNL A   1      46.856  30.607  30.409  1.00  0.00     0.029 A 
ATOM     57  C   UNL A   1      45.522  30.310  30.189  1.00  0.00     0.049 A 
ATOM     58  H   UNL A   1      44.652  28.507  29.521  1.00  0.00     0.167 HD
ATOM     59  C   UNL A   1      43.092  30.790  30.132  1.00  0.00     0.074 A 
ATOM     60  C   UNL A   1      41.945  31.654  30.331  1.00  0.00     0.031 C 
ATOM     61  C   UNL A   1      44.373  31.159  30.369  1.00  0.00     0.037 A 
BRANCH  48  62
ATOM     62  C   UNL A   1      48.511  26.706  29.295  1.00  0.00     0.057 A 
ATOM     63  C   UNL A   1      49.365  26.949  28.211  1.00  0.00     0.134 A 
ATOM     64  C   UNL A   1      49.061  26.088  30.425  1.00  0.00     0.134 A 
ATOM     65  F   UNL A   1      48.897  27.527  27.094  1.00  0.00    -0.206 F 
ATOM     66  C   UNL A   1      50.709  26.575  28.242  1.00  0.00     0.040 A 
ATOM     67  C   UNL A   1      50.410  25.730  30.477  1.00  0.00     0.040 A 
ATOM     68  F   UNL A   1      48.301  25.832  31.499  1.00  0.00    -0.206 F 
ATOM     69  C   UNL A   1      51.236  25.969  29.381  1.00  0.00     0.006 A 
ENDBRANCH  48  62
BRANCH  49  70
ATOM     70  C   UNL A   1      38.825  29.080  29.167  1.00  0.00     0.057 A 
ATOM     71  C   UNL A   1      38.202  29.559  28.008  1.00  0.00     0.134 A 
ATOM     72  C   UNL A   1      38.045  28.975  30.324  1.00  0.00     0.134 A 
ATOM     73  F   UNL A   1      38.904  29.700  26.874  1.00  0.00    -0.206 F 
ATOM     74  C   UNL A   1      36.860  29.940  28.005  1.00  0.00     0.040 A 
ATOM     75  C   UNL A   1      36.696  29.331  30.329  1.00  0.00     0.040 A 
ATOM     76  F   UNL A   1      38.583  28.516  31.463  1.00  0.00    -0.206 F 
ATOM     77  C   UNL A   1      36.102  29.822  29.169  1.00  0.00     0.006 A 
ENDBRANCH  49  70
BRANCH  61  78
ATOM     78  C   UNL A   1      44.606  32.565  30.836  1.00  0.00     0.057 A 
ATOM     79  C   UNL A   1      44.784  33.621  29.936  1.00  0.00     0.134 A 
ATOM     80  C   UNL A   1      44.616  32.867  32.203  1.00  0.00     0.134 A 
ATOM     81  F   UNL A   1      44.798  33.393  28.613  1.00  0.00    -0.206 F 
ATOM     82  C   UNL A   1      44.986  34.929  30.379  1.00  0.00     0.040 A 
ATOM     83  C   UNL A   1      44.794  34.174  32.659  1.00  0.00     0.040 A 
ATOM     84  F   UNL A   1      44.444  31.900  33.116  1.00  0.00    -0.206 F 
ATOM     85  C   UNL A   1      44.984  35.209  31.745  1.00  0.00     0.006 A 
ENDBRANCH  61  78
ENDBRANCH  35  36
ENDBRANCH  27  30
ENDBRANCH  25  26
ENDBRANCH  24  25
ENDBRANCH   1  24
TORSDOF 13
ENDMDL
MODEL 2
REMARK VINA RESULT:     -11.2      0.150      1.617
REMARK SMILES C[C@@H](Nc1ccc(C(=O)NCCCNC(=O)c2ccc(-c3c4nc(c(-c5c(F)cccc5F)c5ccc([nH]5)c(-c5c(F)cccc5F)c5nc(c(-c6c(F)cccc6F)c6ccc3[nH]6)C=C5)C=C4)cc2)cc1)C1CC[NH+](C)CC1
REMARK SMILES IDX 11 1 10 2 8 3 9 4 7 6 4 7 5 8 72 9 6 10 71 11 3 12 2 14 1 15
REMARK SMILES IDX 73 16 74 17 79 18 75 19 78 20 76 21 77 22 12 24 13 25 14 26
REMARK SMILES IDX 15 27 16 29 17 30 18 31 70 32 19 33 69 34 20 35 21 36 22 37
REMARK SMILES IDX 63 38 23 39 68 40 62 41 64 42 24 43 67 44 61 45 60 46 25 48
REMARK SMILES IDX 51 49 34 50 50 51 35 52 38 53 49 54 65 55 36 56 37 57 48 59
REMARK SMILES IDX 66 60 39 61 26 62 27 63 32 64 28 65 29 66 31 67 33 68 30 69
REMARK SMILES IDX 52 70 53 71 58 72 54 73 55 74 57 75 59 76 56 77 40 78 41 79
REMARK SMILES IDX 46 80 42 81 43 82 45 83 47 84 44 85
REMARK H PARENT 10 5 3 13 76 23 14 28 64 47 38 58
REMARK Flexibility Score: inf
ROOT
ATOM      1  C   UNL A   1      37.376  20.738  24.721  1.00  0.00     0.118 C 
ENDROOT
BRANCH   1   2
ATOM      2  N   UNL A   1      37.959  21.961  25.242  1.00  0.00    -0.352 N 
ATOM      3  C   UNL A   1      37.431  23.207  25.459  1.00  0.00     0.251 C 
ATOM      4  O   UNL A   1      38.155  24.069  25.953  1.00  0.00    -0.269 OA
ATOM      5  H   UNL A   1      38.911  21.880  25.484  1.00  0.00     0.163 HD
BRANCH   3   6
ATOM      6  C   UNL A   1      36.002  23.516  25.207  1.00  0.00     0.039 A 
ATOM      7  C   UNL A   1      33.401  24.393  24.563  1.00  0.00     0.034 A 
ATOM      8  C   UNL A   1      34.339  24.132  23.560  1.00  0.00     0.026 A 
ATOM      9  C   UNL A   1      33.748  24.086  25.881  1.00  0.00     0.026 A 
ATOM     10  C   UNL A   1      35.629  23.703  23.874  1.00  0.00     0.016 A 
ATOM     11  C   UNL A   1      35.035  23.636  26.204  1.00  0.00     0.016 A 
BRANCH   7  12
ATOM     12  N   UNL A   1      32.253  25.067  24.206  1.00  0.00    -0.382 N 
ATOM     13  H   UNL A   1      31.714  24.664  23.488  1.00  0.00     0.160 HD
BRANCH  12  14
ATOM     14  C   UNL A   1      31.747  26.320  24.778  1.00  0.00     0.079 C 
ATOM     15  C   UNL A   1      30.217  26.211  24.737  1.00  0.00     0.031 C 
BRANCH  14  16
ATOM     16  C   UNL A   1      32.346  27.577  24.057  1.00  0.00     0.022 C 
ATOM     17  C   UNL A   1      33.786  27.874  24.504  1.00  0.00     0.067 C 
ATOM     18  C   UNL A   1      31.521  28.871  24.099  1.00  0.00     0.067 C 
ATOM     19  C   UNL A   1      33.856  28.630  25.824  1.00  0.00     0.262 C 
ATOM     20  C   UNL A   1      31.702  29.701  25.373  1.00  0.00     0.262 C 
ATOM     21  N   UNL A   1      33.107  29.886  25.754  1.00  0.00    -0.337 N 
ATOM     22  C   UNL A   1      33.193  30.594  27.034  1.00  0.00     0.332 C 
ATOM     23  H   UNL A   1      33.539  30.445  25.018  1.00  0.00     0.347 HD
ENDBRANCH  14  16
ENDBRANCH  12  14
ENDBRANCH   7  12
ENDBRANCH   3   6
ENDBRANCH   1   2
BRANCH   1  24
ATOM     24  C   UNL A   1      38.283  19.539  24.998  1.00  0.00     0.042 C 
BRANCH  24  25
ATOM     25  C   UNL A   1      39.282  19.779  26.128  1.00  0.00     0.118 C 
BRANCH  25  26
ATOM     26  N   UNL A   1      40.544  19.092  25.903  1.00  0.00    -0.352 N 
ATOM     27  C   UNL A   1      41.826  19.578  25.912  1.00  0.00     0.251 C 
ATOM     28  H   UNL A   1      40.464  18.129  25.715  1.00  0.00     0.163 HD
ATOM     29  O   UNL A   1      42.741  18.867  25.506  1.00  0.00    -0.269 OA
BRANCH  27  30
ATOM     30  C   UNL A   1      42.123  20.947  26.391  1.00  0.00     0.039 A 
ATOM     31  C   UNL A   1      42.112  21.185  27.770  1.00  0.00     0.014 A 
ATOM     32  C   UNL A   1      42.345  22.006  25.506  1.00  0.00     0.014 A 
ATOM     33  C   UNL A   1      42.359  22.469  28.260  1.00  0.00     0.010 A 
ATOM     34  C   UNL A   1      42.653  23.275  25.998  1.00  0.00     0.010 A 
ATOM     35  C   UNL A   1      42.651  23.522  27.378  1.00  0.00    -0.014 A 
BRANCH  35  36
ATOM     36  C   UNL A   1      42.932  24.888  27.891  1.00  0.00     0.031 A 
ATOM     37  C   UNL A   1      44.345  25.314  28.181  1.00  0.00     0.074 A 
ATOM     38  C   UNL A   1      41.911  25.734  28.129  1.00  0.00     0.049 A 
ATOM     39  N   UNL A   1      44.784  26.448  28.667  1.00  0.00    -0.248 NA
ATOM     40  C   UNL A   1      45.404  24.330  27.906  1.00  0.00     0.031 C 
ATOM     41  C   UNL A   1      40.494  25.430  27.925  1.00  0.00     0.029 A 
ATOM     42  N   UNL A   1      41.910  27.024  28.600  1.00  0.00    -0.354 N 
ATOM     43  C   UNL A   1      46.162  26.309  28.767  1.00  0.00     0.074 A 
ATOM     44  C   UNL A   1      46.484  24.966  28.335  1.00  0.00     0.031 C 
ATOM     45  C   UNL A   1      39.762  26.509  28.248  1.00  0.00     0.029 A 
ATOM     46  C   UNL A   1      40.654  27.569  28.710  1.00  0.00     0.049 A 
ATOM     47  H   UNL A   1      42.731  27.512  28.837  1.00  0.00     0.167 HD
ATOM     48  C   UNL A   1      47.080  27.224  29.162  1.00  0.00     0.037 A 
ATOM     49  C   UNL A   1      40.265  28.785  29.136  1.00  0.00     0.037 A 
ATOM     50  C   UNL A   1      46.764  28.569  29.566  1.00  0.00     0.049 A 
ATOM     51  C   UNL A   1      41.304  29.781  29.568  1.00  0.00     0.074 A 
ATOM     52  C   UNL A   1      47.629  29.584  29.938  1.00  0.00     0.029 A 
ATOM     53  N   UNL A   1      45.481  29.087  29.648  1.00  0.00    -0.354 N 
ATOM     54  N   UNL A   1      42.608  29.654  29.604  1.00  0.00    -0.248 NA
ATOM     55  C   UNL A   1      40.817  31.096  30.013  1.00  0.00     0.031 C 
ATOM     56  C   UNL A   1      46.866  30.707  30.274  1.00  0.00     0.029 A 
ATOM     57  C   UNL A   1      45.530  30.403  30.075  1.00  0.00     0.049 A 
ATOM     58  H   UNL A   1      44.657  28.593  29.433  1.00  0.00     0.167 HD
ATOM     59  C   UNL A   1      43.097  30.875  30.047  1.00  0.00     0.074 A 
ATOM     60  C   UNL A   1      41.951  31.736  30.255  1.00  0.00     0.031 C 
ATOM     61  C   UNL A   1      44.381  31.250  30.264  1.00  0.00     0.037 A 
BRANCH  48  62
ATOM     62  C   UNL A   1      48.519  26.804  29.166  1.00  0.00     0.057 A 
ATOM     63  C   UNL A   1      49.101  26.186  30.281  1.00  0.00     0.134 A 
ATOM     64  C   UNL A   1      49.321  26.975  28.031  1.00  0.00     0.134 A 
ATOM     65  F   UNL A   1      48.391  26.003  31.404  1.00  0.00    -0.206 F 
ATOM     66  C   UNL A   1      50.434  25.772  30.274  1.00  0.00     0.040 A 
ATOM     67  C   UNL A   1      50.649  26.544  28.003  1.00  0.00     0.040 A 
ATOM     68  F   UNL A   1      48.825  27.553  26.928  1.00  0.00    -0.206 F 
ATOM     69  C   UNL A   1      51.210  25.945  29.129  1.00  0.00     0.006 A 
ENDBRANCH  48  62
BRANCH  49  70
ATOM     70  C   UNL A   1      38.825  29.142  29.155  1.00  0.00     0.057 A 
ATOM     71  C   UNL A   1      38.072  29.038  30.332  1.00  0.00     0.134 A 
ATOM     72  C   UNL A   1      38.163  29.577  28.002  1.00  0.00     0.134 A 
ATOM     73  F   UNL A   1      38.648  28.608  31.465  1.00  0.00    -0.206 F 
ATOM     74  C   UNL A   1      36.709  29.333  30.356  1.00  0.00     0.040 A 
ATOM     75  C   UNL A   1      36.805  29.897  28.016  1.00  0.00     0.040 A 
ATOM     76  F   UNL A   1      38.830  29.703  26.846  1.00  0.00    -0.206 F 
ATOM     77  C   UNL A   1      36.072  29.768  29.195  1.00  0.00     0.006 A 
ENDBRANCH  49  70
BRANCH  61  78
ATOM     78  C   UNL A   1      44.615  32.660  30.717  1.00  0.00     0.057 A 
ATOM     79  C   UNL A   1      44.712  32.993  32.072  1.00  0.00     0.134 A 
ATOM     80  C   UNL A   1      44.782  33.689  29.782  1.00  0.00     0.134 A 
ATOM     81  F   UNL A   1      44.547  32.054  33.017  1.00  0.00    -0.206 F 
ATOM     82  C   UNL A   1      44.944  34.306  32.485  1.00  0.00     0.040 A 
ATOM     83  C   UNL A   1      45.037  35.002  30.181  1.00  0.00     0.040 A 
ATOM     84  F   UNL A   1      44.708  33.433  28.467  1.00  0.00    -0.206 F 
ATOM     85  C   UNL A   1      45.115  35.313  31.536  1.00  0.00     0.006 A 
ENDBRANCH  61  78
ENDBRANCH  35  36
ENDBRANCH  27  30
ENDBRANCH  25  26
ENDBRANCH  24  25
ENDBRANCH   1  24
TORSDOF 13
ENDMDL
MODEL 3
REMARK VINA RESULT:     -11.1      3.272      8.931
REMARK SMILES C[C@@H](Nc1ccc(C(=O)NCCCNC(=O)c2ccc(-c3c4nc(c(-c5c(F)cccc5F)c5ccc([nH]5)c(-c5c(F)cccc5F)c5nc(c(-c6c(F)cccc6F)c6ccc3[nH]6)C=C5)C=C4)cc2)cc1)C1CC[NH+](C)CC1
REMARK SMILES IDX 11 1 10 2 8 3 9 4 7 6 4 7 5 8 72 9 6 10 71 11 3 12 2 14 1 15
REMARK SMILES IDX 73 16 74 17 79 18 75 19 78 20 76 21 77 22 12 24 13 25 14 26
REMARK SMILES IDX 15 27 16 29 17 30 18 31 70 32 19 33 69 34 20 35 21 36 22 37
REMARK SMILES IDX 63 38 23 39 68 40 62 41 64 42 24 43 67 44 61 45 60 46 25 48
REMARK SMILES IDX 51 49 34 50 50 51 35 52 38 53 49 54 65 55 36 56 37 57 48 59
REMARK SMILES IDX 66 60 39 61 26 62 27 63 32 64 28 65 29 66 31 67 33 68 30 69
REMARK SMILES IDX 52 70 53 71 58 72 54 73 55 74 57 75 59 76 56 77 40 78 41 79
REMARK SMILES IDX 46 80 42 81 43 82 45 83 47 84 44 85
REMARK H PARENT 10 5 3 13 76 23 14 28 64 47 38 58
REMARK Flexibility Score: inf
ROOT
ATOM      1  C   UNL A   1      31.689  30.675  26.522  1.00  0.00     0.118 C 
ENDROOT
BRANCH   1   2
ATOM      2  N   UNL A   1      32.920  30.263  27.172  1.00  0.00    -0.352 N 
ATOM      3  C   UNL A   1      33.626  29.088  27.133  1.00  0.00     0.251 C 
ATOM      4  O   UNL A   1      34.678  29.019  27.766  1.00  0.00    -0.269 OA
ATOM      5  H   UNL A   1      33.323  30.954  27.747  1.00  0.00     0.163 HD
BRANCH   3   6
ATOM      6  C   UNL A   1      33.213  27.944  26.284  1.00  0.00     0.039 A 
ATOM      7  C   UNL A   1      32.496  25.565  24.950  1.00  0.00     0.034 A 
ATOM      8  C   UNL A   1      31.827  25.967  26.110  1.00  0.00     0.026 A 
ATOM      9  C   UNL A   1      33.440  26.438  24.402  1.00  0.00     0.026 A 
ATOM     10  C   UNL A   1      32.182  27.140  26.777  1.00  0.00     0.016 A 
ATOM     11  C   UNL A   1      33.789  27.628  25.054  1.00  0.00     0.016 A 
BRANCH   7  12
ATOM     12  N   UNL A   1      32.286  24.278  24.503  1.00  0.00    -0.382 N 
ATOM     13  H   UNL A   1      31.352  24.021  24.332  1.00  0.00     0.160 HD
BRANCH  12  14
ATOM     14  C   UNL A   1      33.302  23.250  24.256  1.00  0.00     0.079 C 
ATOM     15  C   UNL A   1      32.751  22.382  23.117  1.00  0.00     0.031 C 
BRANCH  14  16
ATOM     16  C   UNL A   1      33.679  22.472  25.565  1.00  0.00     0.022 C 
ATOM     17  C   UNL A   1      34.618  23.280  26.473  1.00  0.00     0.067 C 
ATOM     18  C   UNL A   1      34.227  21.047  25.402  1.00  0.00     0.067 C 
ATOM     19  C   UNL A   1      36.076  23.205  26.041  1.00  0.00     0.262 C 
ATOM     20  C   UNL A   1      35.727  20.971  25.104  1.00  0.00     0.262 C 
ATOM     21  N   UNL A   1      36.540  21.817  25.985  1.00  0.00    -0.337 N 
ATOM     22  C   UNL A   1      37.944  21.774  25.570  1.00  0.00     0.332 C 
ATOM     23  H   UNL A   1      36.444  21.438  26.927  1.00  0.00     0.347 HD
ENDBRANCH  14  16
ENDBRANCH  12  14
ENDBRANCH   7  12
ENDBRANCH   3   6
ENDBRANCH   1   2
BRANCH   1  24
ATOM     24  C   UNL A   1      31.405  32.154  26.783  1.00  0.00     0.042 C 
BRANCH  24  25
ATOM     25  C   UNL A   1      32.667  33.001  26.931  1.00  0.00     0.118 C 
BRANCH  25  26
ATOM     26  N   UNL A   1      32.454  34.164  27.777  1.00  0.00    -0.352 N 
ATOM     27  C   UNL A   1      33.139  34.581  28.891  1.00  0.00     0.251 C 
ATOM     28  H   UNL A   1      31.703  34.741  27.510  1.00  0.00     0.163 HD
ATOM     29  O   UNL A   1      32.677  35.489  29.575  1.00  0.00    -0.269 OA
BRANCH  27  30
ATOM     30  C   UNL A   1      34.418  33.947  29.285  1.00  0.00     0.039 A 
ATOM     31  C   UNL A   1      35.563  34.244  28.539  1.00  0.00     0.014 A 
ATOM     32  C   UNL A   1      34.491  33.022  30.330  1.00  0.00     0.014 A 
ATOM     33  C   UNL A   1      36.783  33.644  28.862  1.00  0.00     0.010 A 
ATOM     34  C   UNL A   1      35.721  32.471  30.692  1.00  0.00     0.010 A 
ATOM     35  C   UNL A   1      36.876  32.767  29.954  1.00  0.00    -0.014 A 
BRANCH  35  36
ATOM     36  C   UNL A   1      38.172  32.138  30.316  1.00  0.00     0.031 A 
ATOM     37  C   UNL A   1      39.104  32.820  31.279  1.00  0.00     0.074 A 
ATOM     38  C   UNL A   1      38.526  30.966  29.751  1.00  0.00     0.049 A 
ATOM     39  N   UNL A   1      40.292  32.447  31.686  1.00  0.00    -0.248 NA
ATOM     40  C   UNL A   1      38.653  34.101  31.844  1.00  0.00     0.031 C 
ATOM     41  C   UNL A   1      37.728  30.222  28.776  1.00  0.00     0.029 A 
ATOM     42  N   UNL A   1      39.653  30.199  29.914  1.00  0.00    -0.354 N 
ATOM     43  C   UNL A   1      40.732  33.448  32.542  1.00  0.00     0.074 A 
ATOM     44  C   UNL A   1      39.705  34.468  32.561  1.00  0.00     0.031 C 
ATOM     45  C   UNL A   1      38.380  29.096  28.444  1.00  0.00     0.029 A 
ATOM     46  C   UNL A   1      39.653  29.053  29.157  1.00  0.00     0.049 A 
ATOM     47  H   UNL A   1      40.391  30.447  30.516  1.00  0.00     0.167 HD
ATOM     48  C   UNL A   1      41.876  33.504  33.264  1.00  0.00     0.037 A 
ATOM     49  C   UNL A   1      40.576  28.079  29.049  1.00  0.00     0.037 A 
ATOM     50  C   UNL A   1      42.886  32.478  33.267  1.00  0.00     0.049 A 
ATOM     51  C   UNL A   1      41.837  28.166  29.863  1.00  0.00     0.074 A 
ATOM     52  C   UNL A   1      44.058  32.423  34.002  1.00  0.00     0.029 A 
ATOM     53  N   UNL A   1      42.840  31.325  32.500  1.00  0.00    -0.354 N 
ATOM     54  N   UNL A   1      42.212  29.092  30.711  1.00  0.00    -0.248 NA
ATOM     55  C   UNL A   1      42.800  27.066  29.710  1.00  0.00     0.031 C 
ATOM     56  C   UNL A   1      44.735  31.249  33.656  1.00  0.00     0.029 A 
ATOM     57  C   UNL A   1      43.968  30.557  32.734  1.00  0.00     0.049 A 
ATOM     58  H   UNL A   1      42.113  31.087  31.880  1.00  0.00     0.167 HD
ATOM     59  C   UNL A   1      43.439  28.676  31.211  1.00  0.00     0.074 A 
ATOM     60  C   UNL A   1      43.739  27.406  30.582  1.00  0.00     0.031 C 
ATOM     61  C   UNL A   1      44.245  29.290  32.110  1.00  0.00     0.037 A 
BRANCH  48  62
ATOM     62  C   UNL A   1      42.094  34.714  34.123  1.00  0.00     0.057 A 
ATOM     63  C   UNL A   1      42.679  35.881  33.614  1.00  0.00     0.134 A 
ATOM     64  C   UNL A   1      41.676  34.731  35.460  1.00  0.00     0.134 A 
ATOM     65  F   UNL A   1      43.111  35.926  32.345  1.00  0.00    -0.206 F 
ATOM     66  C   UNL A   1      42.857  37.015  34.408  1.00  0.00     0.040 A 
ATOM     67  C   UNL A   1      41.828  35.867  36.258  1.00  0.00     0.040 A 
ATOM     68  F   UNL A   1      41.104  33.649  36.008  1.00  0.00    -0.206 F 
ATOM     69  C   UNL A   1      42.425  37.011  35.733  1.00  0.00     0.006 A 
ENDBRANCH  48  62
BRANCH  49  70
ATOM     70  C   UNL A   1      40.336  26.921  28.153  1.00  0.00     0.057 A 
ATOM     71  C   UNL A   1      40.891  26.877  26.869  1.00  0.00     0.134 A 
ATOM     72  C   UNL A   1      39.535  25.844  28.548  1.00  0.00     0.134 A 
ATOM     73  F   UNL A   1      41.651  27.891  26.428  1.00  0.00    -0.206 F 
ATOM     74  C   UNL A   1      40.642  25.813  26.001  1.00  0.00     0.040 A 
ATOM     75  C   UNL A   1      39.296  24.762  27.699  1.00  0.00     0.040 A 
ATOM     76  F   UNL A   1      38.980  25.824  29.769  1.00  0.00    -0.206 F 
ATOM     77  C   UNL A   1      39.845  24.749  26.418  1.00  0.00     0.006 A 
ENDBRANCH  49  70
BRANCH  61  78
ATOM     78  C   UNL A   1      45.510  28.580  32.492  1.00  0.00     0.057 A 
ATOM     79  C   UNL A   1      46.714  28.806  31.817  1.00  0.00     0.134 A 
ATOM     80  C   UNL A   1      45.527  27.689  33.571  1.00  0.00     0.134 A 
ATOM     81  F   UNL A   1      46.760  29.639  30.765  1.00  0.00    -0.206 F 
ATOM     82  C   UNL A   1      47.890  28.152  32.187  1.00  0.00     0.040 A 
ATOM     83  C   UNL A   1      46.701  27.047  33.967  1.00  0.00     0.040 A 
ATOM     84  F   UNL A   1      44.406  27.436  34.264  1.00  0.00    -0.206 F 
ATOM     85  C   UNL A   1      47.886  27.275  33.271  1.00  0.00     0.006 A 
ENDBRANCH  61  78
ENDBRANCH  35  36
ENDBRANCH  27  30
ENDBRANCH  25  26
ENDBRANCH  24  25
ENDBRANCH   1  24
TORSDOF 13
ENDMDL
