MODEL 1
REMARK VINA RESULT:     -10.9      0.000      0.000
REMARK SMILES Cc1nc(Nc2ccc(F)cc2)nc(OCC(=O)NCCCNC(=O)c2ccc(-c3c4nc(c(-c5c(F)cccc5F)c5ccc([nH]5)c(-c5c(F)cccc5F)c5nc(c(-c6c(F)cccc6F)c6ccc3[nH]6)C=C5)C=C4)cc2)c1CCO
REMARK SMILES IDX 17 1 18 2 19 3 16 5 15 6 14 7 1 8 2 9 3 10 80 11 4 12 13 13
REMARK SMILES IDX 81 14 82 15 83 16 5 18 6 20 7 21 12 22 8 23 11 24 9 25 10 26
REMARK SMILES IDX 20 27 21 28 22 29 23 30 24 31 25 33 26 34 27 35 79 36 28 37
REMARK SMILES IDX 78 38 29 39 30 40 31 41 72 42 32 43 77 44 71 45 73 46 33 47
REMARK SMILES IDX 76 48 70 49 69 50 34 52 60 53 43 54 59 55 44 56 47 57 58 58
REMARK SMILES IDX 74 59 45 60 46 61 57 63 75 64 48 65 35 66 36 67 41 68 37 69
REMARK SMILES IDX 38 70 40 71 42 72 39 73 61 74 62 75 67 76 63 77 64 78 66 79
REMARK SMILES IDX 68 80 65 81 49 82 50 83 55 84 51 85 52 86 54 87 56 88 53 89
REMARK H PARENT 19 4 83 17 5 19 23 32 73 51 47 62
REMARK Flexibility Score: inf
ROOT
ATOM      1  C   UNL A   1      30.793  26.886  24.518  1.00  0.00     0.258 C 
ATOM      2  O   UNL A   1      29.855  26.321  25.083  1.00  0.00    -0.271 OA
ATOM      3  N   UNL A   1      30.817  28.243  24.552  1.00  0.00    -0.353 N 
ATOM      4  H   UNL A   1      30.070  28.670  25.033  1.00  0.00     0.163 HD
ENDROOT
BRANCH   1   5
ATOM      5  C   UNL A   1      31.946  26.116  23.860  1.00  0.00     0.331 C 
BRANCH   5   6
ATOM      6  O   UNL A   1      32.899  25.421  24.632  1.00  0.00    -0.467 OA
BRANCH   6   7
ATOM      7  C   UNL A   1      33.207  24.107  24.468  1.00  0.00     0.222 A 
ATOM      8  C   UNL A   1      32.323  20.444  24.401  1.00  0.00     0.067 C 
ATOM      9  C   UNL A   1      32.994  21.783  24.325  1.00  0.00     0.050 A 
ATOM     10  N   UNL A   1      34.279  21.691  23.938  1.00  0.00    -0.218 NA
ATOM     11  C   UNL A   1      32.409  22.991  24.700  1.00  0.00     0.038 A 
ATOM     12  C   UNL A   1      35.031  22.788  23.929  1.00  0.00     0.230 A 
ATOM     13  N   UNL A   1      34.519  24.002  24.140  1.00  0.00    -0.177 NA
BRANCH  11  14
ATOM     14  C   UNL A   1      31.075  23.002  25.401  1.00  0.00     0.071 C 
BRANCH  14  15
ATOM     15  C   UNL A   1      31.127  23.387  26.885  1.00  0.00     0.161 C 
BRANCH  15  16
ATOM     16  O   UNL A   1      30.290  22.592  27.710  1.00  0.00    -0.396 OA
ATOM     17  H   UNL A   1      30.157  21.725  27.297  1.00  0.00     0.210 HD
ENDBRANCH  15  16
ENDBRANCH  14  15
ENDBRANCH  11  14
BRANCH  12  18
ATOM     18  N   UNL A   1      36.418  22.654  23.830  1.00  0.00    -0.324 N 
ATOM     19  H   UNL A   1      36.786  22.568  22.921  1.00  0.00     0.170 HD
BRANCH  18  20
ATOM     20  C   UNL A   1      37.343  22.630  24.885  1.00  0.00     0.041 A 
ATOM     21  C   UNL A   1      37.643  23.796  25.608  1.00  0.00     0.029 A 
ATOM     22  C   UNL A   1      38.095  21.475  25.144  1.00  0.00     0.029 A 
ATOM     23  C   UNL A   1      38.658  23.812  26.568  1.00  0.00     0.041 A 
ATOM     24  C   UNL A   1      39.127  21.493  26.090  1.00  0.00     0.041 A 
ATOM     25  C   UNL A   1      39.399  22.661  26.792  1.00  0.00     0.123 A 
ATOM     26  F   UNL A   1      40.397  22.683  27.684  1.00  0.00    -0.207 F 
ENDBRANCH  18  20
ENDBRANCH  12  18
ENDBRANCH   6   7
ENDBRANCH   5   6
ENDBRANCH   1   5
BRANCH   3  27
ATOM     27  C   UNL A   1      31.790  29.147  23.981  1.00  0.00     0.117 C 
BRANCH  27  28
ATOM     28  C   UNL A   1      32.747  29.684  25.035  1.00  0.00     0.042 C 
BRANCH  28  29
ATOM     29  C   UNL A   1      32.075  30.048  26.356  1.00  0.00     0.118 C 
BRANCH  29  30
ATOM     30  N   UNL A   1      31.953  31.488  26.555  1.00  0.00    -0.352 N 
ATOM     31  C   UNL A   1      32.720  32.353  27.289  1.00  0.00     0.251 C 
ATOM     32  H   UNL A   1      31.195  31.906  26.086  1.00  0.00     0.163 HD
ATOM     33  O   UNL A   1      32.323  33.502  27.487  1.00  0.00    -0.269 OA
BRANCH  31  34
ATOM     34  C   UNL A   1      34.005  31.912  27.859  1.00  0.00     0.039 A 
ATOM     35  C   UNL A   1      35.025  32.850  28.034  1.00  0.00     0.014 A 
ATOM     36  C   UNL A   1      34.214  30.574  28.205  1.00  0.00     0.014 A 
ATOM     37  C   UNL A   1      36.229  32.458  28.616  1.00  0.00     0.010 A 
ATOM     38  C   UNL A   1      35.377  30.206  28.872  1.00  0.00     0.010 A 
ATOM     39  C   UNL A   1      36.401  31.141  29.075  1.00  0.00    -0.014 A 
BRANCH  39  40
ATOM     40  C   UNL A   1      37.649  30.726  29.761  1.00  0.00     0.031 A 
ATOM     41  C   UNL A   1      37.916  31.161  31.175  1.00  0.00     0.074 A 
ATOM     42  C   UNL A   1      38.560  29.993  29.093  1.00  0.00     0.049 A 
ATOM     43  N   UNL A   1      38.958  30.920  31.929  1.00  0.00    -0.248 NA
ATOM     44  C   UNL A   1      36.892  31.999  31.821  1.00  0.00     0.031 C 
ATOM     45  C   UNL A   1      38.436  29.555  27.702  1.00  0.00     0.029 A 
ATOM     46  N   UNL A   1      39.769  29.484  29.495  1.00  0.00    -0.354 N 
ATOM     47  C   UNL A   1      38.719  31.580  33.127  1.00  0.00     0.074 A 
ATOM     48  C   UNL A   1      37.465  32.283  32.981  1.00  0.00     0.031 C 
ATOM     49  C   UNL A   1      39.504  28.808  27.379  1.00  0.00     0.029 A 
ATOM     50  C   UNL A   1      40.407  28.749  28.524  1.00  0.00     0.049 A 
ATOM     51  H   UNL A   1      40.144  29.631  30.393  1.00  0.00     0.167 HD
ATOM     52  C   UNL A   1      39.462  31.572  34.258  1.00  0.00     0.037 A 
ATOM     53  C   UNL A   1      41.584  28.096  28.555  1.00  0.00     0.037 A 
ATOM     54  C   UNL A   1      40.698  30.849  34.405  1.00  0.00     0.049 A 
ATOM     55  C   UNL A   1      42.392  28.105  29.822  1.00  0.00     0.074 A 
ATOM     56  C   UNL A   1      41.501  30.740  35.526  1.00  0.00     0.029 A 
ATOM     57  N   UNL A   1      41.307  30.112  33.401  1.00  0.00    -0.354 N 
ATOM     58  N   UNL A   1      42.126  28.686  30.967  1.00  0.00    -0.248 NA
ATOM     59  C   UNL A   1      43.658  27.361  29.806  1.00  0.00     0.031 C 
ATOM     60  C   UNL A   1      42.621  29.979  35.186  1.00  0.00     0.029 A 
ATOM     61  C   UNL A   1      42.486  29.560  33.872  1.00  0.00     0.049 A 
ATOM     62  H   UNL A   1      40.954  29.998  32.489  1.00  0.00     0.167 HD
ATOM     63  C   UNL A   1      43.174  28.355  31.815  1.00  0.00     0.074 A 
ATOM     64  C   UNL A   1      44.075  27.512  31.056  1.00  0.00     0.031 C 
ATOM     65  C   UNL A   1      43.370  28.716  33.107  1.00  0.00     0.037 A 
BRANCH  52  66
ATOM     66  C   UNL A   1      38.954  32.356  35.433  1.00  0.00     0.057 A 
ATOM     67  C   UNL A   1      39.281  33.709  35.589  1.00  0.00     0.134 A 
ATOM     68  C   UNL A   1      38.193  31.756  36.446  1.00  0.00     0.134 A 
ATOM     69  F   UNL A   1      40.009  34.345  34.660  1.00  0.00    -0.206 F 
ATOM     70  C   UNL A   1      38.881  34.432  36.713  1.00  0.00     0.040 A 
ATOM     71  C   UNL A   1      37.762  32.477  37.561  1.00  0.00     0.040 A 
ATOM     72  F   UNL A   1      37.833  30.467  36.353  1.00  0.00    -0.206 F 
ATOM     73  C   UNL A   1      38.116  33.817  37.703  1.00  0.00     0.006 A 
ENDBRANCH  52  66
BRANCH  53  74
ATOM     74  C   UNL A   1      42.036  27.343  27.359  1.00  0.00     0.057 A 
ATOM     75  C   UNL A   1      42.697  27.977  26.299  1.00  0.00     0.134 A 
ATOM     76  C   UNL A   1      41.783  25.972  27.232  1.00  0.00     0.134 A 
ATOM     77  F   UNL A   1      42.960  29.290  26.353  1.00  0.00    -0.206 F 
ATOM     78  C   UNL A   1      43.074  27.279  25.150  1.00  0.00     0.040 A 
ATOM     79  C   UNL A   1      42.176  25.256  26.100  1.00  0.00     0.040 A 
ATOM     80  F   UNL A   1      41.168  25.307  28.220  1.00  0.00    -0.206 F 
ATOM     81  C   UNL A   1      42.817  25.913  25.051  1.00  0.00     0.006 A 
ENDBRANCH  53  74
BRANCH  65  82
ATOM     82  C   UNL A   1      44.586  28.178  33.803  1.00  0.00     0.057 A 
ATOM     83  C   UNL A   1      44.513  26.990  34.545  1.00  0.00     0.134 A 
ATOM     84  C   UNL A   1      45.806  28.864  33.802  1.00  0.00     0.134 A 
ATOM     85  F   UNL A   1      43.370  26.289  34.598  1.00  0.00    -0.206 F 
ATOM     86  C   UNL A   1      45.604  26.514  35.271  1.00  0.00     0.040 A 
ATOM     87  C   UNL A   1      46.914  28.381  34.500  1.00  0.00     0.040 A 
ATOM     88  F   UNL A   1      45.946  30.002  33.105  1.00  0.00    -0.206 F 
ATOM     89  C   UNL A   1      46.812  27.207  35.245  1.00  0.00     0.006 A 
ENDBRANCH  65  82
ENDBRANCH  39  40
ENDBRANCH  31  34
ENDBRANCH  29  30
ENDBRANCH  28  29
ENDBRANCH  27  28
ENDBRANCH   3  27
TORSDOF 17
ENDMDL
MODEL 2
REMARK VINA RESULT:     -10.8      4.124      8.339
REMARK SMILES Cc1nc(Nc2ccc(F)cc2)nc(OCC(=O)NCCCNC(=O)c2ccc(-c3c4nc(c(-c5c(F)cccc5F)c5ccc([nH]5)c(-c5c(F)cccc5F)c5nc(c(-c6c(F)cccc6F)c6ccc3[nH]6)C=C5)C=C4)cc2)c1CCO
REMARK SMILES IDX 17 1 18 2 19 3 16 5 15 6 14 7 1 8 2 9 3 10 80 11 4 12 13 13
REMARK SMILES IDX 81 14 82 15 83 16 5 18 6 20 7 21 12 22 8 23 11 24 9 25 10 26
REMARK SMILES IDX 20 27 21 28 22 29 23 30 24 31 25 33 26 34 27 35 79 36 28 37
REMARK SMILES IDX 78 38 29 39 30 40 31 41 72 42 32 43 77 44 71 45 73 46 33 47
REMARK SMILES IDX 76 48 70 49 69 50 34 52 60 53 43 54 59 55 44 56 47 57 58 58
REMARK SMILES IDX 74 59 45 60 46 61 57 63 75 64 48 65 35 66 36 67 41 68 37 69
REMARK SMILES IDX 38 70 40 71 42 72 39 73 61 74 62 75 67 76 63 77 64 78 66 79
REMARK SMILES IDX 68 80 65 81 49 82 50 83 55 84 51 85 52 86 54 87 56 88 53 89
REMARK H PARENT 19 4 83 17 5 19 23 32 73 51 47 62
REMARK Flexibility Score: inf
ROOT
ATOM      1  C   UNL A   1      35.735  32.693  33.184  1.00  0.00     0.258 C 
ATOM      2  O   UNL A   1      35.672  33.403  34.189  1.00  0.00    -0.271 OA
ATOM      3  N   UNL A   1      34.851  32.944  32.184  1.00  0.00    -0.353 N 
ATOM      4  H   UNL A   1      34.222  33.685  32.349  1.00  0.00     0.163 HD
ENDROOT
BRANCH   1   5
ATOM      5  C   UNL A   1      36.807  31.610  33.003  1.00  0.00     0.331 C 
BRANCH   5   6
ATOM      6  O   UNL A   1      38.181  31.923  33.052  1.00  0.00    -0.467 OA
BRANCH   6   7
ATOM      7  C   UNL A   1      38.917  31.965  34.193  1.00  0.00     0.222 A 
ATOM      8  C   UNL A   1      40.684  33.796  36.973  1.00  0.00     0.067 C 
ATOM      9  C   UNL A   1      40.078  32.780  36.052  1.00  0.00     0.050 A 
ATOM     10  N   UNL A   1      40.268  31.520  36.483  1.00  0.00    -0.218 NA
ATOM     11  C   UNL A   1      39.469  33.071  34.832  1.00  0.00     0.038 A 
ATOM     12  C   UNL A   1      39.878  30.509  35.714  1.00  0.00     0.230 A 
ATOM     13  N   UNL A   1      39.167  30.696  34.601  1.00  0.00    -0.177 NA
BRANCH  11  14
ATOM     14  C   UNL A   1      39.544  34.463  34.260  1.00  0.00     0.071 C 
BRANCH  14  15
ATOM     15  C   UNL A   1      40.252  34.566  32.903  1.00  0.00     0.161 C 
BRANCH  15  16
ATOM     16  O   UNL A   1      39.372  34.475  31.793  1.00  0.00    -0.396 OA
ATOM     17  H   UNL A   1      39.674  33.772  31.197  1.00  0.00     0.210 HD
ENDBRANCH  15  16
ENDBRANCH  14  15
ENDBRANCH  11  14
BRANCH  12  18
ATOM     18  N   UNL A   1      40.341  29.222  36.005  1.00  0.00    -0.324 N 
ATOM     19  H   UNL A   1      39.787  28.685  36.617  1.00  0.00     0.170 HD
BRANCH  18  20
ATOM     20  C   UNL A   1      41.508  28.613  35.519  1.00  0.00     0.041 A 
ATOM     21  C   UNL A   1      42.651  28.495  36.327  1.00  0.00     0.029 A 
ATOM     22  C   UNL A   1      41.605  28.238  34.171  1.00  0.00     0.029 A 
ATOM     23  C   UNL A   1      43.856  28.013  35.811  1.00  0.00     0.041 A 
ATOM     24  C   UNL A   1      42.817  27.774  33.645  1.00  0.00     0.041 A 
ATOM     25  C   UNL A   1      43.930  27.666  34.470  1.00  0.00     0.123 A 
ATOM     26  F   UNL A   1      45.093  27.239  33.962  1.00  0.00    -0.207 F 
ENDBRANCH  18  20
ENDBRANCH  12  18
ENDBRANCH   6   7
ENDBRANCH   5   6
ENDBRANCH   1   5
BRANCH   3  27
ATOM     27  C   UNL A   1      34.707  32.275  30.911  1.00  0.00     0.117 C 
BRANCH  27  28
ATOM     28  C   UNL A   1      34.517  33.265  29.772  1.00  0.00     0.042 C 
BRANCH  28  29
ATOM     29  C   UNL A   1      34.791  32.680  28.389  1.00  0.00     0.118 C 
BRANCH  29  30
ATOM     30  N   UNL A   1      34.127  31.400  28.171  1.00  0.00    -0.352 N 
ATOM     31  C   UNL A   1      34.644  30.137  28.057  1.00  0.00     0.251 C 
ATOM     32  H   UNL A   1      33.147  31.452  28.091  1.00  0.00     0.163 HD
ATOM     33  O   UNL A   1      33.924  29.216  27.671  1.00  0.00    -0.269 OA
BRANCH  31  34
ATOM     34  C   UNL A   1      36.060  29.878  28.375  1.00  0.00     0.039 A 
ATOM     35  C   UNL A   1      36.393  29.399  29.643  1.00  0.00     0.014 A 
ATOM     36  C   UNL A   1      37.062  30.122  27.431  1.00  0.00     0.014 A 
ATOM     37  C   UNL A   1      37.722  29.104  29.942  1.00  0.00     0.010 A 
ATOM     38  C   UNL A   1      38.371  29.737  27.697  1.00  0.00     0.010 A 
ATOM     39  C   UNL A   1      38.717  29.235  28.959  1.00  0.00    -0.014 A 
BRANCH  39  40
ATOM     40  C   UNL A   1      40.123  28.857  29.239  1.00  0.00     0.031 A 
ATOM     41  C   UNL A   1      41.001  29.757  30.062  1.00  0.00     0.074 A 
ATOM     42  C   UNL A   1      40.621  27.720  28.713  1.00  0.00     0.049 A 
ATOM     43  N   UNL A   1      42.259  29.609  30.389  1.00  0.00    -0.248 NA
ATOM     44  C   UNL A   1      40.396  31.004  30.561  1.00  0.00     0.031 C 
ATOM     45  C   UNL A   1      39.881  26.791  27.857  1.00  0.00     0.029 A 
ATOM     46  N   UNL A   1      41.864  27.151  28.825  1.00  0.00    -0.354 N 
ATOM     47  C   UNL A   1      42.595  30.739  31.122  1.00  0.00     0.074 A 
ATOM     48  C   UNL A   1      41.431  31.595  31.139  1.00  0.00     0.031 C 
ATOM     49  C   UNL A   1      40.670  25.749  27.555  1.00  0.00     0.029 A 
ATOM     50  C   UNL A   1      41.982  25.954  28.161  1.00  0.00     0.049 A 
ATOM     51  H   UNL A   1      42.600  27.561  29.332  1.00  0.00     0.167 HD
ATOM     52  C   UNL A   1      43.759  31.022  31.752  1.00  0.00     0.037 A 
ATOM     53  C   UNL A   1      43.028  25.113  28.056  1.00  0.00     0.037 A 
ATOM     54  C   UNL A   1      44.907  30.153  31.751  1.00  0.00     0.049 A 
ATOM     55  C   UNL A   1      44.311  25.450  28.762  1.00  0.00     0.074 A 
ATOM     56  C   UNL A   1      46.117  30.327  32.399  1.00  0.00     0.029 A 
ATOM     57  N   UNL A   1      44.985  28.946  31.072  1.00  0.00    -0.354 N 
ATOM     58  N   UNL A   1      44.598  26.495  29.500  1.00  0.00    -0.248 NA
ATOM     59  C   UNL A   1      45.414  24.488  28.631  1.00  0.00     0.031 C 
ATOM     60  C   UNL A   1      46.945  29.252  32.070  1.00  0.00     0.029 A 
ATOM     61  C   UNL A   1      46.231  28.375  31.271  1.00  0.00     0.049 A 
ATOM     62  H   UNL A   1      44.263  28.555  30.530  1.00  0.00     0.167 HD
ATOM     63  C   UNL A   1      45.899  26.305  29.944  1.00  0.00     0.074 A 
ATOM     64  C   UNL A   1      46.343  25.037  29.401  1.00  0.00     0.031 C 
ATOM     65  C   UNL A   1      46.656  27.108  30.731  1.00  0.00     0.037 A 
BRANCH  52  66
ATOM     66  C   UNL A   1      43.849  32.315  32.508  1.00  0.00     0.057 A 
ATOM     67  C   UNL A   1      43.381  32.410  33.826  1.00  0.00     0.134 A 
ATOM     68  C   UNL A   1      44.339  33.485  31.912  1.00  0.00     0.134 A 
ATOM     69  F   UNL A   1      42.896  31.331  34.456  1.00  0.00    -0.206 F 
ATOM     70  C   UNL A   1      43.387  33.622  34.517  1.00  0.00     0.040 A 
ATOM     71  C   UNL A   1      44.376  34.698  32.604  1.00  0.00     0.040 A 
ATOM     72  F   UNL A   1      44.813  33.462  30.658  1.00  0.00    -0.206 F 
ATOM     73  C   UNL A   1      43.889  34.770  33.907  1.00  0.00     0.006 A 
ENDBRANCH  52  66
BRANCH  53  74
ATOM     74  C   UNL A   1      42.880  23.850  27.290  1.00  0.00     0.057 A 
ATOM     75  C   UNL A   1      43.162  23.786  25.919  1.00  0.00     0.134 A 
ATOM     76  C   UNL A   1      42.417  22.683  27.907  1.00  0.00     0.134 A 
ATOM     77  F   UNL A   1      43.599  24.872  25.266  1.00  0.00    -0.206 F 
ATOM     78  C   UNL A   1      42.970  22.613  25.187  1.00  0.00     0.040 A 
ATOM     79  C   UNL A   1      42.245  21.495  27.193  1.00  0.00     0.040 A 
ATOM     80  F   UNL A   1      42.145  22.677  29.220  1.00  0.00    -0.206 F 
ATOM     81  C   UNL A   1      42.514  21.461  25.826  1.00  0.00     0.006 A 
ENDBRANCH  53  74
BRANCH  65  82
ATOM     82  C   UNL A   1      48.034  26.632  31.089  1.00  0.00     0.057 A 
ATOM     83  C   UNL A   1      49.127  26.933  30.263  1.00  0.00     0.134 A 
ATOM     84  C   UNL A   1      48.272  25.819  32.204  1.00  0.00     0.134 A 
ATOM     85  F   UNL A   1      48.966  27.697  29.172  1.00  0.00    -0.206 F 
ATOM     86  C   UNL A   1      50.401  26.432  30.527  1.00  0.00     0.040 A 
ATOM     87  C   UNL A   1      49.549  25.337  32.494  1.00  0.00     0.040 A 
ATOM     88  F   UNL A   1      47.271  25.501  33.039  1.00  0.00    -0.206 F 
ATOM     89  C   UNL A   1      50.616  25.635  31.650  1.00  0.00     0.006 A 
ENDBRANCH  65  82
ENDBRANCH  39  40
ENDBRANCH  31  34
ENDBRANCH  29  30
ENDBRANCH  28  29
ENDBRANCH  27  28
ENDBRANCH   3  27
TORSDOF 17
ENDMDL
MODEL 3
REMARK VINA RESULT:     -10.7      1.944      6.833
REMARK SMILES Cc1nc(Nc2ccc(F)cc2)nc(OCC(=O)NCCCNC(=O)c2ccc(-c3c4nc(c(-c5c(F)cccc5F)c5ccc([nH]5)c(-c5c(F)cccc5F)c5nc(c(-c6c(F)cccc6F)c6ccc3[nH]6)C=C5)C=C4)cc2)c1CCO
REMARK SMILES IDX 17 1 18 2 19 3 16 5 15 6 14 7 1 8 2 9 3 10 80 11 4 12 13 13
REMARK SMILES IDX 81 14 82 15 83 16 5 18 6 20 7 21 12 22 8 23 11 24 9 25 10 26
REMARK SMILES IDX 20 27 21 28 22 29 23 30 24 31 25 33 26 34 27 35 79 36 28 37
REMARK SMILES IDX 78 38 29 39 30 40 31 41 72 42 32 43 77 44 71 45 73 46 33 47
REMARK SMILES IDX 76 48 70 49 69 50 34 52 60 53 43 54 59 55 44 56 47 57 58 58
REMARK SMILES IDX 74 59 45 60 46 61 57 63 75 64 48 65 35 66 36 67 41 68 37 69
REMARK SMILES IDX 38 70 40 71 42 72 39 73 61 74 62 75 67 76 63 77 64 78 66 79
REMARK SMILES IDX 68 80 65 81 49 82 50 83 55 84 51 85 52 86 54 87 56 88 53 89
REMARK H PARENT 19 4 83 17 5 19 23 32 73 51 47 62
REMARK Flexibility Score: inf
ROOT
ATOM      1  C   UNL A   1      31.783  25.309  23.120  1.00  0.00     0.258 C 
ATOM      2  O   UNL A   1      30.747  24.752  22.752  1.00  0.00    -0.271 OA
ATOM      3  N   UNL A   1      31.716  26.078  24.237  1.00  0.00    -0.353 N 
ATOM      4  H   UNL A   1      30.830  26.128  24.667  1.00  0.00     0.163 HD
ENDROOT
BRANCH   1   5
ATOM      5  C   UNL A   1      33.129  25.102  22.413  1.00  0.00     0.331 C 
BRANCH   5   6
ATOM      6  O   UNL A   1      33.877  23.921  22.592  1.00  0.00    -0.467 OA
BRANCH   6   7
ATOM      7  C   UNL A   1      33.734  23.076  23.647  1.00  0.00     0.222 A 
ATOM      8  C   UNL A   1      34.245  22.104  27.253  1.00  0.00     0.067 C 
ATOM      9  C   UNL A   1      33.855  22.188  25.807  1.00  0.00     0.050 A 
ATOM     10  N   UNL A   1      33.097  21.147  25.420  1.00  0.00    -0.218 NA
ATOM     11  C   UNL A   1      34.293  23.168  24.918  1.00  0.00     0.038 A 
ATOM     12  C   UNL A   1      32.765  21.032  24.138  1.00  0.00     0.230 A 
ATOM     13  N   UNL A   1      33.024  21.992  23.247  1.00  0.00    -0.177 NA
BRANCH  11  14
ATOM     14  C   UNL A   1      35.371  24.138  25.329  1.00  0.00     0.071 C 
BRANCH  14  15
ATOM     15  C   UNL A   1      36.805  23.637  25.122  1.00  0.00     0.161 C 
BRANCH  15  16
ATOM     16  O   UNL A   1      37.113  23.332  23.770  1.00  0.00    -0.396 OA
ATOM     17  H   UNL A   1      37.854  22.708  23.739  1.00  0.00     0.210 HD
ENDBRANCH  15  16
ENDBRANCH  14  15
ENDBRANCH  11  14
BRANCH  12  18
ATOM     18  N   UNL A   1      32.251  19.816  23.680  1.00  0.00    -0.324 N 
ATOM     19  H   UNL A   1      31.515  19.868  23.028  1.00  0.00     0.170 HD
BRANCH  18  20
ATOM     20  C   UNL A   1      32.669  18.528  24.048  1.00  0.00     0.041 A 
ATOM     21  C   UNL A   1      32.404  18.022  25.332  1.00  0.00     0.029 A 
ATOM     22  C   UNL A   1      33.486  17.775  23.193  1.00  0.00     0.029 A 
ATOM     23  C   UNL A   1      32.932  16.798  25.751  1.00  0.00     0.041 A 
ATOM     24  C   UNL A   1      34.034  16.558  23.617  1.00  0.00     0.041 A 
ATOM     25  C   UNL A   1      33.751  16.082  24.892  1.00  0.00     0.123 A 
ATOM     26  F   UNL A   1      34.290  14.927  25.303  1.00  0.00    -0.207 F 
ENDBRANCH  18  20
ENDBRANCH  12  18
ENDBRANCH   6   7
ENDBRANCH   5   6
ENDBRANCH   1   5
BRANCH   3  27
ATOM     27  C   UNL A   1      32.766  26.832  24.883  1.00  0.00     0.117 C 
BRANCH  27  28
ATOM     28  C   UNL A   1      32.264  28.175  25.393  1.00  0.00     0.042 C 
BRANCH  28  29
ATOM     29  C   UNL A   1      33.279  29.306  25.264  1.00  0.00     0.118 C 
BRANCH  29  30
ATOM     30  N   UNL A   1      32.793  30.572  25.802  1.00  0.00    -0.352 N 
ATOM     31  C   UNL A   1      33.209  31.296  26.888  1.00  0.00     0.251 C 
ATOM     32  H   UNL A   1      32.043  30.970  25.305  1.00  0.00     0.163 HD
ATOM     33  O   UNL A   1      32.528  32.240  27.288  1.00  0.00    -0.269 OA
BRANCH  31  34
ATOM     34  C   UNL A   1      34.454  30.940  27.591  1.00  0.00     0.039 A 
ATOM     35  C   UNL A   1      35.390  31.941  27.859  1.00  0.00     0.014 A 
ATOM     36  C   UNL A   1      34.709  29.619  27.971  1.00  0.00     0.014 A 
ATOM     37  C   UNL A   1      36.550  31.628  28.565  1.00  0.00     0.010 A 
ATOM     38  C   UNL A   1      35.818  29.329  28.758  1.00  0.00     0.010 A 
ATOM     39  C   UNL A   1      36.756  30.327  29.054  1.00  0.00    -0.014 A 
BRANCH  39  40
ATOM     40  C   UNL A   1      37.950  29.995  29.868  1.00  0.00     0.031 A 
ATOM     41  C   UNL A   1      39.008  29.076  29.324  1.00  0.00     0.074 A 
ATOM     42  C   UNL A   1      38.058  30.490  31.117  1.00  0.00     0.049 A 
ATOM     43  N   UNL A   1      40.105  28.651  29.896  1.00  0.00    -0.248 NA
ATOM     44  C   UNL A   1      38.793  28.541  27.969  1.00  0.00     0.031 C 
ATOM     45  C   UNL A   1      37.072  31.350  31.773  1.00  0.00     0.029 A 
ATOM     46  N   UNL A   1      39.048  30.343  32.056  1.00  0.00    -0.354 N 
ATOM     47  C   UNL A   1      40.704  27.799  28.979  1.00  0.00     0.074 A 
ATOM     48  C   UNL A   1      39.821  27.714  27.838  1.00  0.00     0.031 C 
ATOM     49  C   UNL A   1      37.524  31.688  32.990  1.00  0.00     0.029 A 
ATOM     50  C   UNL A   1      38.811  31.038  33.218  1.00  0.00     0.049 A 
ATOM     51  H   UNL A   1      39.850  29.792  31.911  1.00  0.00     0.167 HD
ATOM     52  C   UNL A   1      41.898  27.169  29.066  1.00  0.00     0.037 A 
ATOM     53  C   UNL A   1      39.550  31.143  34.338  1.00  0.00     0.037 A 
ATOM     54  C   UNL A   1      42.785  27.277  30.195  1.00  0.00     0.049 A 
ATOM     55  C   UNL A   1      40.871  30.433  34.412  1.00  0.00     0.074 A 
ATOM     56  C   UNL A   1      44.039  26.716  30.359  1.00  0.00     0.029 A 
ATOM     57  N   UNL A   1      42.512  27.996  31.349  1.00  0.00    -0.354 N 
ATOM     58  N   UNL A   1      41.453  29.675  33.514  1.00  0.00    -0.248 NA
ATOM     59  C   UNL A   1      41.645  30.598  35.649  1.00  0.00     0.031 C 
ATOM     60  C   UNL A   1      44.503  27.053  31.633  1.00  0.00     0.029 A 
ATOM     61  C   UNL A   1      43.567  27.876  32.238  1.00  0.00     0.049 A 
ATOM     62  H   UNL A   1      41.691  28.513  31.512  1.00  0.00     0.167 HD
ATOM     63  C   UNL A   1      42.670  29.297  34.063  1.00  0.00     0.074 A 
ATOM     64  C   UNL A   1      42.749  29.919  35.369  1.00  0.00     0.031 C 
ATOM     65  C   UNL A   1      43.636  28.507  33.532  1.00  0.00     0.037 A 
BRANCH  52  66
ATOM     66  C   UNL A   1      42.327  26.319  27.906  1.00  0.00     0.057 A 
ATOM     67  C   UNL A   1      41.946  24.973  27.822  1.00  0.00     0.134 A 
ATOM     68  C   UNL A   1      43.171  26.813  26.901  1.00  0.00     0.134 A 
ATOM     69  F   UNL A   1      41.143  24.434  28.751  1.00  0.00    -0.206 F 
ATOM     70  C   UNL A   1      42.398  24.149  26.791  1.00  0.00     0.040 A 
ATOM     71  C   UNL A   1      43.606  26.005  25.849  1.00  0.00     0.040 A 
ATOM     72  F   UNL A   1      43.563  28.096  26.913  1.00  0.00    -0.206 F 
ATOM     73  C   UNL A   1      43.228  24.665  25.798  1.00  0.00     0.006 A 
ENDBRANCH  52  66
BRANCH  53  74
ATOM     74  C   UNL A   1      39.070  31.995  35.455  1.00  0.00     0.057 A 
ATOM     75  C   UNL A   1      38.273  31.477  36.483  1.00  0.00     0.134 A 
ATOM     76  C   UNL A   1      39.370  33.362  35.499  1.00  0.00     0.134 A 
ATOM     77  F   UNL A   1      37.940  30.179  36.494  1.00  0.00    -0.206 F 
ATOM     78  C   UNL A   1      37.777  32.290  37.504  1.00  0.00     0.040 A 
ATOM     79  C   UNL A   1      38.902  34.182  36.527  1.00  0.00     0.040 A 
ATOM     80  F   UNL A   1      40.142  33.913  34.551  1.00  0.00    -0.206 F 
ATOM     81  C   UNL A   1      38.095  33.647  37.530  1.00  0.00     0.006 A 
ENDBRANCH  53  74
BRANCH  65  82
ATOM     82  C   UNL A   1      44.882  28.293  34.341  1.00  0.00     0.057 A 
ATOM     83  C   UNL A   1      44.960  27.238  35.261  1.00  0.00     0.134 A 
ATOM     84  C   UNL A   1      45.975  29.165  34.265  1.00  0.00     0.134 A 
ATOM     85  F   UNL A   1      43.943  26.372  35.392  1.00  0.00    -0.206 F 
ATOM     86  C   UNL A   1      46.071  27.067  36.085  1.00  0.00     0.040 A 
ATOM     87  C   UNL A   1      47.105  28.987  35.063  1.00  0.00     0.040 A 
ATOM     88  F   UNL A   1      45.968  30.189  33.399  1.00  0.00    -0.206 F 
ATOM     89  C   UNL A   1      47.152  27.941  35.984  1.00  0.00     0.006 A 
ENDBRANCH  65  82
ENDBRANCH  39  40
ENDBRANCH  31  34
ENDBRANCH  29  30
ENDBRANCH  28  29
ENDBRANCH  27  28
ENDBRANCH   3  27
TORSDOF 17
ENDMDL
