MODEL 1
REMARK VINA RESULT:     -11.0      0.000      0.000
REMARK SMILES COc1ccccc1-c1nnc(SCCC(=O)NCCCNC(=O)c2ccc(-c3c4nc(c(-c5c(F)cccc5F)c5ccc([nH]5)c(-c5c(F)cccc5F)c5nc(c(-c6c(F)cccc6F)c6ccc3[nH]6)C=C5)C=C4)cc2)o1
REMARK SMILES IDX 16 1 17 2 18 3 15 5 14 6 13 7 12 8 9 9 10 10 79 11 11 12
REMARK SMILES IDX 8 13 3 14 4 15 5 16 7 17 6 18 2 19 1 20 19 21 20 22 21 23
REMARK SMILES IDX 22 24 23 25 24 27 25 28 26 29 78 30 27 31 77 32 28 33 29 34
REMARK SMILES IDX 30 35 71 36 31 37 76 38 70 39 72 40 32 41 75 42 69 43 68 44
REMARK SMILES IDX 33 46 59 47 42 48 58 49 43 50 46 51 57 52 73 53 44 54 45 55
REMARK SMILES IDX 56 57 74 58 47 59 34 60 35 61 40 62 36 63 37 64 39 65 41 66
REMARK SMILES IDX 38 67 60 68 61 69 66 70 62 71 63 72 65 73 67 74 64 75 48 76
REMARK SMILES IDX 49 77 54 78 50 79 51 80 53 81 55 82 52 83
REMARK H PARENT 18 4 22 26 72 45 46 56
REMARK Flexibility Score: inf
ROOT
ATOM      1  C   UNL A   1      33.793  28.911  26.931  1.00  0.00     0.220 C 
ATOM      2  O   UNL A   1      34.962  28.959  27.316  1.00  0.00    -0.275 OA
ATOM      3  N   UNL A   1      32.934  29.902  27.288  1.00  0.00    -0.356 N 
ATOM      4  H   UNL A   1      33.210  30.417  28.081  1.00  0.00     0.163 HD
ENDROOT
BRANCH   1   5
ATOM      5  C   UNL A   1      33.306  27.723  26.156  1.00  0.00     0.111 C 
BRANCH   5   6
ATOM      6  C   UNL A   1      33.705  27.883  24.690  1.00  0.00     0.090 C 
BRANCH   6   7
ATOM      7  S   UNL A   1      32.496  27.217  23.516  1.00  0.00    -0.065 SA
BRANCH   7   8
ATOM      8  C   UNL A   1      33.026  25.594  23.174  1.00  0.00     0.276 A 
ATOM      9  C   UNL A   1      33.452  23.499  23.203  1.00  0.00     0.252 A 
ATOM     10  N   UNL A   1      33.894  23.958  22.048  1.00  0.00    -0.107 NA
ATOM     11  O   UNL A   1      32.898  24.488  23.983  1.00  0.00    -0.411 OA
ATOM     12  N   UNL A   1      33.602  25.300  22.024  1.00  0.00    -0.101 NA
BRANCH   9  13
ATOM     13  C   UNL A   1      33.581  22.148  23.734  1.00  0.00     0.081 A 
ATOM     14  C   UNL A   1      34.664  21.692  24.501  1.00  0.00     0.131 A 
ATOM     15  C   UNL A   1      34.734  20.345  24.890  1.00  0.00     0.047 A 
ATOM     16  C   UNL A   1      33.673  19.478  24.641  1.00  0.00     0.004 A 
ATOM     17  C   UNL A   1      32.505  21.263  23.521  1.00  0.00     0.018 A 
ATOM     18  C   UNL A   1      32.543  19.945  23.982  1.00  0.00     0.001 A 
BRANCH  14  19
ATOM     19  O   UNL A   1      35.657  22.562  24.868  1.00  0.00    -0.496 OA
ATOM     20  C   UNL A   1      36.880  22.346  24.157  1.00  0.00     0.278 C 
ENDBRANCH  14  19
ENDBRANCH   9  13
ENDBRANCH   7   8
ENDBRANCH   6   7
ENDBRANCH   5   6
ENDBRANCH   1   5
BRANCH   3  21
ATOM     21  C   UNL A   1      31.678  30.330  26.698  1.00  0.00     0.117 C 
BRANCH  21  22
ATOM     22  C   UNL A   1      31.423  31.835  26.750  1.00  0.00     0.042 C 
BRANCH  22  23
ATOM     23  C   UNL A   1      32.662  32.715  26.917  1.00  0.00     0.118 C 
BRANCH  23  24
ATOM     24  N   UNL A   1      32.406  33.974  27.595  1.00  0.00    -0.352 N 
ATOM     25  C   UNL A   1      33.114  34.580  28.604  1.00  0.00     0.251 C 
ATOM     26  H   UNL A   1      31.610  34.464  27.287  1.00  0.00     0.163 HD
ATOM     27  O   UNL A   1      32.698  35.641  29.075  1.00  0.00    -0.269 OA
BRANCH  25  28
ATOM     28  C   UNL A   1      34.338  33.968  29.175  1.00  0.00     0.039 A 
ATOM     29  C   UNL A   1      34.192  33.111  30.272  1.00  0.00     0.014 A 
ATOM     30  C   UNL A   1      35.619  34.247  28.687  1.00  0.00     0.014 A 
ATOM     31  C   UNL A   1      35.312  32.496  30.840  1.00  0.00     0.010 A 
ATOM     32  C   UNL A   1      36.735  33.597  29.230  1.00  0.00     0.010 A 
ATOM     33  C   UNL A   1      36.593  32.711  30.309  1.00  0.00    -0.014 A 
BRANCH  33  34
ATOM     34  C   UNL A   1      37.767  31.986  30.871  1.00  0.00     0.031 A 
ATOM     35  C   UNL A   1      38.290  32.297  32.247  1.00  0.00     0.074 A 
ATOM     36  C   UNL A   1      38.377  31.035  30.134  1.00  0.00     0.049 A 
ATOM     37  N   UNL A   1      39.277  31.738  32.903  1.00  0.00    -0.248 NA
ATOM     38  C   UNL A   1      37.621  33.383  32.979  1.00  0.00     0.031 C 
ATOM     39  C   UNL A   1      37.998  30.652  28.774  1.00  0.00     0.029 A 
ATOM     40  N   UNL A   1      39.443  30.219  30.425  1.00  0.00    -0.354 N 
ATOM     41  C   UNL A   1      39.348  32.400  34.122  1.00  0.00     0.074 A 
ATOM     42  C   UNL A   1      38.333  33.432  34.098  1.00  0.00     0.031 C 
ATOM     43  C   UNL A   1      38.803  29.661  28.356  1.00  0.00     0.029 A 
ATOM     44  C   UNL A   1      39.775  29.360  29.404  1.00  0.00     0.049 A 
ATOM     45  H   UNL A   1      39.924  30.245  31.283  1.00  0.00     0.167 HD
ATOM     46  C   UNL A   1      40.171  32.161  35.173  1.00  0.00     0.037 A 
ATOM     47  C   UNL A   1      40.753  28.439  29.315  1.00  0.00     0.037 A 
ATOM     48  C   UNL A   1      41.183  31.135  35.205  1.00  0.00     0.049 A 
ATOM     49  C   UNL A   1      41.674  28.214  30.483  1.00  0.00     0.074 A 
ATOM     50  C   UNL A   1      42.028  30.789  36.247  1.00  0.00     0.029 A 
ATOM     51  N   UNL A   1      41.498  30.298  34.145  1.00  0.00    -0.354 N 
ATOM     52  N   UNL A   1      41.679  28.797  31.657  1.00  0.00    -0.248 NA
ATOM     53  C   UNL A   1      42.725  27.200  30.314  1.00  0.00     0.031 C 
ATOM     54  C   UNL A   1      42.887  29.780  35.801  1.00  0.00     0.029 A 
ATOM     55  C   UNL A   1      42.544  29.458  34.499  1.00  0.00     0.049 A 
ATOM     56  H   UNL A   1      41.047  30.300  33.270  1.00  0.00     0.167 HD
ATOM     57  C   UNL A   1      42.708  28.202  32.374  1.00  0.00     0.074 A 
ATOM     58  C   UNL A   1      43.298  27.202  31.509  1.00  0.00     0.031 C 
ATOM     59  C   UNL A   1      43.126  28.461  33.637  1.00  0.00     0.037 A 
BRANCH  46  60
ATOM     60  C   UNL A   1      40.015  33.031  36.388  1.00  0.00     0.057 A 
ATOM     61  C   UNL A   1      39.086  32.733  37.394  1.00  0.00     0.134 A 
ATOM     62  C   UNL A   1      40.836  34.148  36.580  1.00  0.00     0.134 A 
ATOM     63  F   UNL A   1      38.265  31.678  37.271  1.00  0.00    -0.206 F 
ATOM     64  C   UNL A   1      38.963  33.528  38.534  1.00  0.00     0.040 A 
ATOM     65  C   UNL A   1      40.742  34.937  37.729  1.00  0.00     0.040 A 
ATOM     66  F   UNL A   1      41.756  34.485  35.662  1.00  0.00    -0.206 F 
ATOM     67  C   UNL A   1      39.798  34.630  38.706  1.00  0.00     0.006 A 
ENDBRANCH  46  60
BRANCH  47  68
ATOM     68  C   UNL A   1      40.909  27.639  28.073  1.00  0.00     0.057 A 
ATOM     69  C   UNL A   1      41.665  28.113  26.995  1.00  0.00     0.134 A 
ATOM     70  C   UNL A   1      40.290  26.392  27.928  1.00  0.00     0.134 A 
ATOM     71  F   UNL A   1      42.262  29.312  27.064  1.00  0.00    -0.206 F 
ATOM     72  C   UNL A   1      41.785  27.385  25.810  1.00  0.00     0.040 A 
ATOM     73  C   UNL A   1      40.424  25.641  26.759  1.00  0.00     0.040 A 
ATOM     74  F   UNL A   1      39.554  25.880  28.925  1.00  0.00    -0.206 F 
ATOM     75  C   UNL A   1      41.167  26.142  25.693  1.00  0.00     0.006 A 
ENDBRANCH  47  68
BRANCH  59  76
ATOM     76  C   UNL A   1      44.256  27.631  34.177  1.00  0.00     0.057 A 
ATOM     77  C   UNL A   1      45.590  28.048  34.087  1.00  0.00     0.134 A 
ATOM     78  C   UNL A   1      44.002  26.414  34.823  1.00  0.00     0.134 A 
ATOM     79  F   UNL A   1      45.905  29.195  33.469  1.00  0.00    -0.206 F 
ATOM     80  C   UNL A   1      46.633  27.273  34.601  1.00  0.00     0.040 A 
ATOM     81  C   UNL A   1      45.033  25.644  35.364  1.00  0.00     0.040 A 
ATOM     82  F   UNL A   1      42.746  25.959  34.951  1.00  0.00    -0.206 F 
ATOM     83  C   UNL A   1      46.355  26.071  35.248  1.00  0.00     0.006 A 
ENDBRANCH  59  76
ENDBRANCH  33  34
ENDBRANCH  25  28
ENDBRANCH  23  24
ENDBRANCH  22  23
ENDBRANCH  21  22
ENDBRANCH   3  21
TORSDOF 15
ENDMDL
MODEL 2
REMARK VINA RESULT:     -11.0      1.232      6.497
REMARK SMILES COc1ccccc1-c1nnc(SCCC(=O)NCCCNC(=O)c2ccc(-c3c4nc(c(-c5c(F)cccc5F)c5ccc([nH]5)c(-c5c(F)cccc5F)c5nc(c(-c6c(F)cccc6F)c6ccc3[nH]6)C=C5)C=C4)cc2)o1
REMARK SMILES IDX 16 1 17 2 18 3 15 5 14 6 13 7 12 8 9 9 10 10 79 11 11 12
REMARK SMILES IDX 8 13 3 14 4 15 5 16 7 17 6 18 2 19 1 20 19 21 20 22 21 23
REMARK SMILES IDX 22 24 23 25 24 27 25 28 26 29 78 30 27 31 77 32 28 33 29 34
REMARK SMILES IDX 30 35 71 36 31 37 76 38 70 39 72 40 32 41 75 42 69 43 68 44
REMARK SMILES IDX 33 46 59 47 42 48 58 49 43 50 46 51 57 52 73 53 44 54 45 55
REMARK SMILES IDX 56 57 74 58 47 59 34 60 35 61 40 62 36 63 37 64 39 65 41 66
REMARK SMILES IDX 38 67 60 68 61 69 66 70 62 71 63 72 65 73 67 74 64 75 48 76
REMARK SMILES IDX 49 77 54 78 50 79 51 80 53 81 55 82 52 83
REMARK H PARENT 18 4 22 26 72 45 46 56
REMARK Flexibility Score: inf
ROOT
ATOM      1  C   UNL A   1      30.456  29.333  24.074  1.00  0.00     0.220 C 
ATOM      2  O   UNL A   1      29.711  29.442  23.099  1.00  0.00    -0.275 OA
ATOM      3  N   UNL A   1      30.974  30.452  24.643  1.00  0.00    -0.356 N 
ATOM      4  H   UNL A   1      30.981  31.244  24.057  1.00  0.00     0.163 HD
ENDROOT
BRANCH   1   5
ATOM      5  C   UNL A   1      30.856  27.973  24.565  1.00  0.00     0.111 C 
BRANCH   5   6
ATOM      6  C   UNL A   1      32.159  27.558  23.885  1.00  0.00     0.090 C 
BRANCH   6   7
ATOM      7  S   UNL A   1      31.939  26.865  22.225  1.00  0.00    -0.065 SA
BRANCH   7   8
ATOM      8  C   UNL A   1      32.819  25.362  22.229  1.00  0.00     0.276 A 
ATOM      9  C   UNL A   1      33.943  23.614  22.734  1.00  0.00     0.252 A 
ATOM     10  N   UNL A   1      33.648  23.516  21.452  1.00  0.00    -0.107 NA
ATOM     11  O   UNL A   1      33.460  24.775  23.295  1.00  0.00    -0.411 OA
ATOM     12  N   UNL A   1      32.909  24.630  21.134  1.00  0.00    -0.101 NA
BRANCH   9  13
ATOM     13  C   UNL A   1      34.766  22.715  23.531  1.00  0.00     0.081 A 
ATOM     14  C   UNL A   1      34.278  21.614  24.252  1.00  0.00     0.131 A 
ATOM     15  C   UNL A   1      35.145  20.862  25.060  1.00  0.00     0.047 A 
ATOM     16  C   UNL A   1      36.516  21.109  25.054  1.00  0.00     0.004 A 
ATOM     17  C   UNL A   1      36.159  22.927  23.514  1.00  0.00     0.018 A 
ATOM     18  C   UNL A   1      37.028  22.124  24.256  1.00  0.00     0.001 A 
BRANCH  14  19
ATOM     19  O   UNL A   1      32.954  21.274  24.169  1.00  0.00    -0.496 OA
ATOM     20  C   UNL A   1      32.211  21.633  25.338  1.00  0.00     0.278 C 
ENDBRANCH  14  19
ENDBRANCH   9  13
ENDBRANCH   7   8
ENDBRANCH   6   7
ENDBRANCH   5   6
ENDBRANCH   1   5
BRANCH   3  21
ATOM     21  C   UNL A   1      31.519  30.680  25.970  1.00  0.00     0.117 C 
BRANCH  21  22
ATOM     22  C   UNL A   1      31.345  32.102  26.502  1.00  0.00     0.042 C 
BRANCH  22  23
ATOM     23  C   UNL A   1      32.604  32.760  27.067  1.00  0.00     0.118 C 
BRANCH  23  24
ATOM     24  N   UNL A   1      32.380  34.083  27.622  1.00  0.00    -0.352 N 
ATOM     25  C   UNL A   1      33.082  34.749  28.598  1.00  0.00     0.251 C 
ATOM     26  H   UNL A   1      31.616  34.575  27.244  1.00  0.00     0.163 HD
ATOM     27  O   UNL A   1      32.696  35.864  28.958  1.00  0.00    -0.269 OA
BRANCH  25  28
ATOM     28  C   UNL A   1      34.260  34.143  29.263  1.00  0.00     0.039 A 
ATOM     29  C   UNL A   1      34.030  33.253  30.319  1.00  0.00     0.014 A 
ATOM     30  C   UNL A   1      35.574  34.457  28.903  1.00  0.00     0.014 A 
ATOM     31  C   UNL A   1      35.105  32.641  30.972  1.00  0.00     0.010 A 
ATOM     32  C   UNL A   1      36.648  33.811  29.529  1.00  0.00     0.010 A 
ATOM     33  C   UNL A   1      36.425  32.893  30.567  1.00  0.00    -0.014 A 
BRANCH  33  34
ATOM     34  C   UNL A   1      37.557  32.173  31.216  1.00  0.00     0.031 A 
ATOM     35  C   UNL A   1      38.273  31.053  30.511  1.00  0.00     0.074 A 
ATOM     36  C   UNL A   1      37.947  32.526  32.457  1.00  0.00     0.049 A 
ATOM     37  N   UNL A   1      39.299  30.343  30.914  1.00  0.00    -0.248 NA
ATOM     38  C   UNL A   1      37.766  30.674  29.184  1.00  0.00     0.031 C 
ATOM     39  C   UNL A   1      37.324  33.571  33.270  1.00  0.00     0.029 A 
ATOM     40  N   UNL A   1      38.959  32.045  33.253  1.00  0.00    -0.354 N 
ATOM     41  C   UNL A   1      39.562  29.438  29.894  1.00  0.00     0.074 A 
ATOM     42  C   UNL A   1      38.560  29.658  28.872  1.00  0.00     0.031 C 
ATOM     43  C   UNL A   1      37.980  33.669  34.438  1.00  0.00     0.029 A 
ATOM     44  C   UNL A   1      39.048  32.673  34.472  1.00  0.00     0.049 A 
ATOM     45  H   UNL A   1      39.564  31.321  32.975  1.00  0.00     0.167 HD
ATOM     46  C   UNL A   1      40.555  28.520  29.807  1.00  0.00     0.037 A 
ATOM     47  C   UNL A   1      39.888  32.471  35.505  1.00  0.00     0.037 A 
ATOM     48  C   UNL A   1      41.557  28.297  30.820  1.00  0.00     0.049 A 
ATOM     49  C   UNL A   1      40.962  31.423  35.397  1.00  0.00     0.074 A 
ATOM     50  C   UNL A   1      42.630  27.422  30.793  1.00  0.00     0.029 A 
ATOM     51  N   UNL A   1      41.602  28.942  32.047  1.00  0.00    -0.354 N 
ATOM     52  N   UNL A   1      41.245  30.628  34.394  1.00  0.00    -0.248 NA
ATOM     53  C   UNL A   1      41.839  31.248  36.565  1.00  0.00     0.031 C 
ATOM     54  C   UNL A   1      43.294  27.501  32.022  1.00  0.00     0.029 A 
ATOM     55  C   UNL A   1      42.667  28.464  32.795  1.00  0.00     0.049 A 
ATOM     56  H   UNL A   1      40.971  29.637  32.343  1.00  0.00     0.167 HD
ATOM     57  C   UNL A   1      42.344  29.882  34.797  1.00  0.00     0.074 A 
ATOM     58  C   UNL A   1      42.689  30.328  36.130  1.00  0.00     0.031 C 
ATOM     59  C   UNL A   1      43.009  28.913  34.121  1.00  0.00     0.037 A 
BRANCH  46  60
ATOM     60  C   UNL A   1      40.612  27.676  28.566  1.00  0.00     0.057 A 
ATOM     61  C   UNL A   1      41.421  28.021  27.475  1.00  0.00     0.134 A 
ATOM     62  C   UNL A   1      39.893  26.478  28.481  1.00  0.00     0.134 A 
ATOM     63  F   UNL A   1      42.133  29.159  27.490  1.00  0.00    -0.206 F 
ATOM     64  C   UNL A   1      41.492  27.219  26.335  1.00  0.00     0.040 A 
ATOM     65  C   UNL A   1      39.976  25.653  27.356  1.00  0.00     0.040 A 
ATOM     66  F   UNL A   1      39.108  26.079  29.494  1.00  0.00    -0.206 F 
ATOM     67  C   UNL A   1      40.772  26.028  26.277  1.00  0.00     0.006 A 
ENDBRANCH  46  60
BRANCH  47  68
ATOM     68  C   UNL A   1      39.761  33.290  36.737  1.00  0.00     0.057 A 
ATOM     69  C   UNL A   1      38.877  32.928  37.761  1.00  0.00     0.134 A 
ATOM     70  C   UNL A   1      40.506  34.462  36.912  1.00  0.00     0.134 A 
ATOM     71  F   UNL A   1      38.119  31.829  37.641  1.00  0.00    -0.206 F 
ATOM     72  C   UNL A   1      38.724  33.713  38.905  1.00  0.00     0.040 A 
ATOM     73  C   UNL A   1      40.382  35.241  38.064  1.00  0.00     0.040 A 
ATOM     74  F   UNL A   1      41.372  34.862  35.969  1.00  0.00    -0.206 F 
ATOM     75  C   UNL A   1      39.483  34.871  39.060  1.00  0.00     0.006 A 
ENDBRANCH  47  68
BRANCH  59  76
ATOM     76  C   UNL A   1      44.198  28.290  34.795  1.00  0.00     0.057 A 
ATOM     77  C   UNL A   1      45.485  28.832  34.677  1.00  0.00     0.134 A 
ATOM     78  C   UNL A   1      44.048  27.154  35.600  1.00  0.00     0.134 A 
ATOM     79  F   UNL A   1      45.702  29.911  33.911  1.00  0.00    -0.206 F 
ATOM     80  C   UNL A   1      46.583  28.251  35.316  1.00  0.00     0.040 A 
ATOM     81  C   UNL A   1      45.133  26.580  36.266  1.00  0.00     0.040 A 
ATOM     82  F   UNL A   1      42.843  26.588  35.764  1.00  0.00    -0.206 F 
ATOM     83  C   UNL A   1      46.407  27.125  36.119  1.00  0.00     0.006 A 
ENDBRANCH  59  76
ENDBRANCH  33  34
ENDBRANCH  25  28
ENDBRANCH  23  24
ENDBRANCH  22  23
ENDBRANCH  21  22
ENDBRANCH   3  21
TORSDOF 15
ENDMDL
MODEL 3
REMARK VINA RESULT:     -11.0      4.846     10.163
REMARK SMILES COc1ccccc1-c1nnc(SCCC(=O)NCCCNC(=O)c2ccc(-c3c4nc(c(-c5c(F)cccc5F)c5ccc([nH]5)c(-c5c(F)cccc5F)c5nc(c(-c6c(F)cccc6F)c6ccc3[nH]6)C=C5)C=C4)cc2)o1
REMARK SMILES IDX 16 1 17 2 18 3 15 5 14 6 13 7 12 8 9 9 10 10 79 11 11 12
REMARK SMILES IDX 8 13 3 14 4 15 5 16 7 17 6 18 2 19 1 20 19 21 20 22 21 23
REMARK SMILES IDX 22 24 23 25 24 27 25 28 26 29 78 30 27 31 77 32 28 33 29 34
REMARK SMILES IDX 30 35 71 36 31 37 76 38 70 39 72 40 32 41 75 42 69 43 68 44
REMARK SMILES IDX 33 46 59 47 42 48 58 49 43 50 46 51 57 52 73 53 44 54 45 55
REMARK SMILES IDX 56 57 74 58 47 59 34 60 35 61 40 62 36 63 37 64 39 65 41 66
REMARK SMILES IDX 38 67 60 68 61 69 66 70 62 71 63 72 65 73 67 74 64 75 48 76
REMARK SMILES IDX 49 77 54 78 50 79 51 80 53 81 55 82 52 83
REMARK H PARENT 18 4 22 26 72 45 46 56
REMARK Flexibility Score: inf
ROOT
ATOM      1  C   UNL A   1      35.734  22.803  25.407  1.00  0.00     0.220 C 
ATOM      2  O   UNL A   1      35.979  23.782  26.114  1.00  0.00    -0.275 OA
ATOM      3  N   UNL A   1      36.611  21.767  25.381  1.00  0.00    -0.356 N 
ATOM      4  H   UNL A   1      37.525  21.995  25.671  1.00  0.00     0.163 HD
ENDROOT
BRANCH   1   5
ATOM      5  C   UNL A   1      34.526  22.802  24.518  1.00  0.00     0.111 C 
BRANCH   5   6
ATOM      6  C   UNL A   1      33.514  21.789  25.048  1.00  0.00     0.090 C 
BRANCH   6   7
ATOM      7  S   UNL A   1      32.958  22.115  26.742  1.00  0.00    -0.065 SA
BRANCH   7   8
ATOM      8  C   UNL A   1      32.062  23.606  26.660  1.00  0.00     0.276 A 
ATOM      9  C   UNL A   1      31.408  25.623  26.387  1.00  0.00     0.252 A 
ATOM     10  N   UNL A   1      30.351  24.931  26.767  1.00  0.00    -0.107 NA
ATOM     11  O   UNL A   1      32.542  24.847  26.312  1.00  0.00    -0.411 OA
ATOM     12  N   UNL A   1      30.769  23.632  26.923  1.00  0.00    -0.101 NA
BRANCH   9  13
ATOM     13  C   UNL A   1      31.498  27.059  26.156  1.00  0.00     0.081 A 
ATOM     14  C   UNL A   1      31.191  27.693  24.943  1.00  0.00     0.131 A 
ATOM     15  C   UNL A   1      31.396  29.073  24.799  1.00  0.00     0.047 A 
ATOM     16  C   UNL A   1      31.774  29.854  25.888  1.00  0.00     0.004 A 
ATOM     17  C   UNL A   1      31.848  27.870  27.254  1.00  0.00     0.018 A 
ATOM     18  C   UNL A   1      31.971  29.255  27.126  1.00  0.00     0.001 A 
BRANCH  14  19
ATOM     19  O   UNL A   1      30.693  26.962  23.896  1.00  0.00    -0.496 OA
ATOM     20  C   UNL A   1      29.526  27.550  23.310  1.00  0.00     0.278 C 
ENDBRANCH  14  19
ENDBRANCH   9  13
ENDBRANCH   7   8
ENDBRANCH   6   7
ENDBRANCH   5   6
ENDBRANCH   1   5
BRANCH   3  21
ATOM     21  C   UNL A   1      36.431  20.377  24.997  1.00  0.00     0.117 C 
BRANCH  21  22
ATOM     22  C   UNL A   1      37.725  19.584  24.828  1.00  0.00     0.042 C 
BRANCH  22  23
ATOM     23  C   UNL A   1      38.864  19.956  25.778  1.00  0.00     0.118 C 
BRANCH  23  24
ATOM     24  N   UNL A   1      39.977  19.022  25.760  1.00  0.00    -0.352 N 
ATOM     25  C   UNL A   1      41.299  19.237  26.067  1.00  0.00     0.251 C 
ATOM     26  H   UNL A   1      39.752  18.103  25.490  1.00  0.00     0.163 HD
ATOM     27  O   UNL A   1      42.101  18.308  25.945  1.00  0.00    -0.269 OA
BRANCH  25  28
ATOM     28  C   UNL A   1      41.795  20.568  26.492  1.00  0.00     0.039 A 
ATOM     29  C   UNL A   1      42.186  21.471  25.496  1.00  0.00     0.014 A 
ATOM     30  C   UNL A   1      41.923  20.931  27.837  1.00  0.00     0.014 A 
ATOM     31  C   UNL A   1      42.648  22.745  25.841  1.00  0.00     0.010 A 
ATOM     32  C   UNL A   1      42.345  22.222  28.180  1.00  0.00     0.010 A 
ATOM     33  C   UNL A   1      42.708  23.145  27.186  1.00  0.00    -0.014 A 
BRANCH  33  34
ATOM     34  C   UNL A   1      43.123  24.532  27.536  1.00  0.00     0.031 A 
ATOM     35  C   UNL A   1      44.565  24.956  27.460  1.00  0.00     0.074 A 
ATOM     36  C   UNL A   1      42.193  25.425  27.930  1.00  0.00     0.049 A 
ATOM     37  N   UNL A   1      45.095  26.132  27.695  1.00  0.00    -0.248 NA
ATOM     38  C   UNL A   1      45.539  23.923  27.080  1.00  0.00     0.031 C 
ATOM     39  C   UNL A   1      40.765  25.144  28.080  1.00  0.00     0.029 A 
ATOM     40  N   UNL A   1      42.309  26.749  28.279  1.00  0.00    -0.354 N 
ATOM     41  C   UNL A   1      46.460  25.983  27.490  1.00  0.00     0.074 A 
ATOM     42  C   UNL A   1      46.683  24.592  27.155  1.00  0.00     0.031 C 
ATOM     43  C   UNL A   1      40.135  26.265  28.466  1.00  0.00     0.029 A 
ATOM     44  C   UNL A   1      41.115  27.336  28.625  1.00  0.00     0.049 A 
ATOM     45  H   UNL A   1      43.166  27.233  28.280  1.00  0.00     0.167 HD
ATOM     46  C   UNL A   1      47.437  26.920  27.557  1.00  0.00     0.037 A 
ATOM     47  C   UNL A   1      40.838  28.590  29.029  1.00  0.00     0.037 A 
ATOM     48  C   UNL A   1      47.223  28.306  27.888  1.00  0.00     0.049 A 
ATOM     49  C   UNL A   1      41.945  29.604  29.127  1.00  0.00     0.074 A 
ATOM     50  C   UNL A   1      48.148  29.336  27.930  1.00  0.00     0.029 A 
ATOM     51  N   UNL A   1      46.001  28.857  28.247  1.00  0.00    -0.354 N 
ATOM     52  N   UNL A   1      43.220  29.466  28.855  1.00  0.00    -0.248 NA
ATOM     53  C   UNL A   1      41.573  30.951  29.583  1.00  0.00     0.031 C 
ATOM     54  C   UNL A   1      47.497  30.496  28.363  1.00  0.00     0.029 A 
ATOM     55  C   UNL A   1      46.155  30.203  28.540  1.00  0.00     0.049 A 
ATOM     56  H   UNL A   1      45.150  28.363  28.289  1.00  0.00     0.167 HD
ATOM     57  C   UNL A   1      43.794  30.710  29.079  1.00  0.00     0.074 A 
ATOM     58  C   UNL A   1      42.728  31.596  29.495  1.00  0.00     0.031 C 
ATOM     59  C   UNL A   1      45.091  31.083  28.950  1.00  0.00     0.037 A 
BRANCH  46  60
ATOM     60  C   UNL A   1      48.843  26.478  27.266  1.00  0.00     0.057 A 
ATOM     61  C   UNL A   1      49.699  26.027  28.280  1.00  0.00     0.134 A 
ATOM     62  C   UNL A   1      49.329  26.452  25.953  1.00  0.00     0.134 A 
ATOM     63  F   UNL A   1      49.298  26.029  29.560  1.00  0.00    -0.206 F 
ATOM     64  C   UNL A   1      50.996  25.591  28.001  1.00  0.00     0.040 A 
ATOM     65  C   UNL A   1      50.615  25.993  25.658  1.00  0.00     0.040 A 
ATOM     66  F   UNL A   1      48.559  26.858  24.932  1.00  0.00    -0.206 F 
ATOM     67  C   UNL A   1      51.454  25.567  26.686  1.00  0.00     0.006 A 
ENDBRANCH  46  60
BRANCH  47  68
ATOM     68  C   UNL A   1      39.441  28.971  29.361  1.00  0.00     0.057 A 
ATOM     69  C   UNL A   1      38.939  28.825  30.660  1.00  0.00     0.134 A 
ATOM     70  C   UNL A   1      38.571  29.471  28.386  1.00  0.00     0.134 A 
ATOM     71  F   UNL A   1      39.717  28.329  31.633  1.00  0.00    -0.206 F 
ATOM     72  C   UNL A   1      37.617  29.145  30.973  1.00  0.00     0.040 A 
ATOM     73  C   UNL A   1      37.254  29.820  28.691  1.00  0.00     0.040 A 
ATOM     74  F   UNL A   1      38.991  29.636  27.123  1.00  0.00    -0.206 F 
ATOM     75  C   UNL A   1      36.772  29.650  29.986  1.00  0.00     0.006 A 
ENDBRANCH  47  68
BRANCH  59  76
ATOM     76  C   UNL A   1      45.428  32.520  29.230  1.00  0.00     0.057 A 
ATOM     77  C   UNL A   1      45.883  32.944  30.486  1.00  0.00     0.134 A 
ATOM     78  C   UNL A   1      45.327  33.487  28.221  1.00  0.00     0.134 A 
ATOM     79  F   UNL A   1      45.989  32.073  31.501  1.00  0.00    -0.206 F 
ATOM     80  C   UNL A   1      46.203  34.281  30.733  1.00  0.00     0.040 A 
ATOM     81  C   UNL A   1      45.670  34.821  28.449  1.00  0.00     0.040 A 
ATOM     82  F   UNL A   1      44.906  33.149  26.993  1.00  0.00    -0.206 F 
ATOM     83  C   UNL A   1      46.104  35.222  29.711  1.00  0.00     0.006 A 
ENDBRANCH  59  76
ENDBRANCH  33  34
ENDBRANCH  25  28
ENDBRANCH  23  24
ENDBRANCH  22  23
ENDBRANCH  21  22
ENDBRANCH   3  21
TORSDOF 15
ENDMDL
