MODEL 1
REMARK VINA RESULT:      -9.8      0.000      0.000
REMARK SMILES C[N@@H+](CC(=O)NCCCNC(=O)c1ccc(-c2c3nc(c(-c4c(F)cccc4F)c4ccc([nH]4)c(-c4c(F)cccc4F)c4nc(c(-c5c(F)cccc5F)c5ccc2[nH]5)C=C4)C=C3)cc1)Cc1cccc2c1OCCO2
REMARK SMILES IDX 7 1 6 2 4 3 5 4 3 6 2 7 1 8 67 10 68 11 69 12 73 13 70 14
REMARK SMILES IDX 72 15 74 16 71 17 77 18 75 19 76 20 8 21 9 22 10 23 11 24
REMARK SMILES IDX 12 26 13 27 14 28 66 29 15 30 65 31 16 32 17 33 18 34 59 35
REMARK SMILES IDX 19 36 64 37 58 38 60 39 20 40 63 41 57 42 56 43 21 45 47 46
REMARK SMILES IDX 30 47 46 48 31 49 34 50 45 51 61 52 32 53 33 54 44 56 62 57
REMARK SMILES IDX 35 58 22 59 23 60 28 61 24 62 25 63 27 64 29 65 26 66 48 67
REMARK SMILES IDX 49 68 54 69 50 70 51 71 53 72 55 73 52 74 36 75 37 76 42 77
REMARK SMILES IDX 38 78 39 79 41 80 43 81 40 82
REMARK H PARENT 6 5 2 9 10 25 60 44 34 55
REMARK Flexibility Score: inf
ROOT
ATOM      1  C   UNL A   1      42.593  19.219  25.835  1.00  0.00     0.118 C 
ENDROOT
BRANCH   1   2
ATOM      2  N   UNL A   1      43.994  18.816  25.763  1.00  0.00    -0.351 N 
ATOM      3  C   UNL A   1      45.054  19.242  25.006  1.00  0.00     0.275 C 
ATOM      4  O   UNL A   1      46.158  18.757  25.288  1.00  0.00    -0.269 OA
ATOM      5  H   UNL A   1      44.224  18.090  26.386  1.00  0.00     0.163 HD
BRANCH   3   6
ATOM      6  C   UNL A   1      44.930  20.304  23.914  1.00  0.00     0.363 C 
BRANCH   6   7
ATOM      7  N   UNL A   1      44.990  21.689  24.367  1.00  0.00    -0.326 N 
ATOM      8  C   UNL A   1      43.823  22.510  24.164  1.00  0.00     0.333 C 
ATOM      9  H   UNL A   1      44.889  21.458  25.356  1.00  0.00     0.348 HD
BRANCH   7  10
ATOM     10  C   UNL A   1      46.271  22.332  24.656  1.00  0.00     0.303 C 
BRANCH  10  11
ATOM     11  C   UNL A   1      46.436  23.521  25.590  1.00  0.00     0.052 A 
ATOM     12  C   UNL A   1      47.190  24.625  25.139  1.00  0.00     0.014 A 
ATOM     13  C   UNL A   1      45.994  23.604  26.906  1.00  0.00     0.170 A 
ATOM     14  C   UNL A   1      47.513  25.706  25.979  1.00  0.00     0.005 A 
ATOM     15  C   UNL A   1      46.408  24.630  27.791  1.00  0.00     0.161 A 
ATOM     16  O   UNL A   1      44.985  22.769  27.303  1.00  0.00    -0.486 OA
ATOM     17  C   UNL A   1      47.164  25.687  27.324  1.00  0.00     0.050 A 
ATOM     18  O   UNL A   1      45.994  24.714  29.106  1.00  0.00    -0.486 OA
ATOM     19  C   UNL A   1      44.143  23.570  28.122  1.00  0.00     0.271 C 
ATOM     20  C   UNL A   1      44.914  23.818  29.390  1.00  0.00     0.271 C 
ENDBRANCH  10  11
ENDBRANCH   7  10
ENDBRANCH   6   7
ENDBRANCH   3   6
ENDBRANCH   1   2
BRANCH   1  21
ATOM     21  C   UNL A   1      42.205  20.128  27.021  1.00  0.00     0.042 C 
BRANCH  21  22
ATOM     22  C   UNL A   1      41.462  21.446  26.748  1.00  0.00     0.118 C 
BRANCH  22  23
ATOM     23  N   UNL A   1      40.034  21.430  26.562  1.00  0.00    -0.352 N 
ATOM     24  C   UNL A   1      39.232  22.537  26.336  1.00  0.00     0.251 C 
ATOM     25  H   UNL A   1      39.588  20.554  26.600  1.00  0.00     0.163 HD
ATOM     26  O   UNL A   1      38.117  22.391  25.850  1.00  0.00    -0.269 OA
BRANCH  24  27
ATOM     27  C   UNL A   1      39.662  23.902  26.757  1.00  0.00     0.039 A 
ATOM     28  C   UNL A   1      39.662  24.165  28.128  1.00  0.00     0.014 A 
ATOM     29  C   UNL A   1      40.007  24.925  25.868  1.00  0.00     0.014 A 
ATOM     30  C   UNL A   1      40.048  25.423  28.609  1.00  0.00     0.010 A 
ATOM     31  C   UNL A   1      40.451  26.172  26.357  1.00  0.00     0.010 A 
ATOM     32  C   UNL A   1      40.477  26.441  27.738  1.00  0.00    -0.014 A 
BRANCH  32  33
ATOM     33  C   UNL A   1      40.946  27.745  28.313  1.00  0.00     0.031 A 
ATOM     34  C   UNL A   1      42.401  28.145  28.309  1.00  0.00     0.074 A 
ATOM     35  C   UNL A   1      40.047  28.620  28.814  1.00  0.00     0.049 A 
ATOM     36  N   UNL A   1      42.945  29.297  28.631  1.00  0.00    -0.248 NA
ATOM     37  C   UNL A   1      43.373  27.120  27.910  1.00  0.00     0.031 C 
ATOM     38  C   UNL A   1      38.613  28.368  28.949  1.00  0.00     0.029 A 
ATOM     39  N   UNL A   1      40.202  29.905  29.285  1.00  0.00    -0.354 N 
ATOM     40  C   UNL A   1      44.316  29.134  28.473  1.00  0.00     0.074 A 
ATOM     41  C   UNL A   1      44.524  27.755  28.081  1.00  0.00     0.031 C 
ATOM     42  C   UNL A   1      38.013  29.472  29.422  1.00  0.00     0.029 A 
ATOM     43  C   UNL A   1      39.020  30.506  29.655  1.00  0.00     0.049 A 
ATOM     44  H   UNL A   1      41.076  30.352  29.352  1.00  0.00     0.167 HD
ATOM     45  C   UNL A   1      45.312  30.046  28.615  1.00  0.00     0.037 A 
ATOM     46  C   UNL A   1      38.761  31.745  30.120  1.00  0.00     0.037 A 
ATOM     47  C   UNL A   1      45.121  31.423  29.000  1.00  0.00     0.049 A 
ATOM     48  C   UNL A   1      39.877  32.743  30.270  1.00  0.00     0.074 A 
ATOM     49  C   UNL A   1      46.067  32.433  29.089  1.00  0.00     0.029 A 
ATOM     50  N   UNL A   1      43.911  31.982  29.380  1.00  0.00    -0.354 N 
ATOM     51  N   UNL A   1      41.152  32.602  30.005  1.00  0.00    -0.248 NA
ATOM     52  C   UNL A   1      39.513  34.078  30.770  1.00  0.00     0.031 C 
ATOM     53  C   UNL A   1      45.442  33.582  29.585  1.00  0.00     0.029 A 
ATOM     54  C   UNL A   1      44.093  33.309  29.743  1.00  0.00     0.049 A 
ATOM     55  H   UNL A   1      43.048  31.508  29.392  1.00  0.00     0.167 HD
ATOM     56  C   UNL A   1      41.739  33.831  30.289  1.00  0.00     0.074 A 
ATOM     57  C   UNL A   1      40.677  34.711  30.726  1.00  0.00     0.031 C 
ATOM     58  C   UNL A   1      43.043  34.190  30.193  1.00  0.00     0.037 A 
BRANCH  45  59
ATOM     59  C   UNL A   1      46.720  29.575  28.363  1.00  0.00     0.057 A 
ATOM     60  C   UNL A   1      47.532  29.071  29.388  1.00  0.00     0.134 A 
ATOM     61  C   UNL A   1      47.262  29.602  27.070  1.00  0.00     0.134 A 
ATOM     62  F   UNL A   1      47.076  29.015  30.649  1.00  0.00    -0.206 F 
ATOM     63  C   UNL A   1      48.842  28.653  29.148  1.00  0.00     0.040 A 
ATOM     64  C   UNL A   1      48.561  29.157  26.811  1.00  0.00     0.040 A 
ATOM     65  F   UNL A   1      46.537  30.054  26.036  1.00  0.00    -0.206 F 
ATOM     66  C   UNL A   1      49.359  28.693  27.854  1.00  0.00     0.006 A 
ENDBRANCH  45  59
BRANCH  46  67
ATOM     67  C   UNL A   1      37.364  32.119  30.464  1.00  0.00     0.057 A 
ATOM     68  C   UNL A   1      36.524  32.742  29.533  1.00  0.00     0.134 A 
ATOM     69  C   UNL A   1      36.835  31.853  31.733  1.00  0.00     0.134 A 
ATOM     70  F   UNL A   1      36.979  33.046  28.309  1.00  0.00    -0.206 F 
ATOM     71  C   UNL A   1      35.211  33.092  29.854  1.00  0.00     0.040 A 
ATOM     72  C   UNL A   1      35.515  32.172  32.058  1.00  0.00     0.040 A 
ATOM     73  F   UNL A   1      37.588  31.256  32.668  1.00  0.00    -0.206 F 
ATOM     74  C   UNL A   1      34.701  32.798  31.117  1.00  0.00     0.006 A 
ENDBRANCH  46  67
BRANCH  58  75
ATOM     75  C   UNL A   1      43.403  35.606  30.550  1.00  0.00     0.057 A 
ATOM     76  C   UNL A   1      43.757  35.976  31.855  1.00  0.00     0.134 A 
ATOM     77  C   UNL A   1      43.430  36.608  29.570  1.00  0.00     0.134 A 
ATOM     78  F   UNL A   1      43.742  35.072  32.847  1.00  0.00    -0.206 F 
ATOM     79  C   UNL A   1      44.100  37.292  32.176  1.00  0.00     0.040 A 
ATOM     80  C   UNL A   1      43.799  37.920  29.873  1.00  0.00     0.040 A 
ATOM     81  F   UNL A   1      43.111  36.325  28.298  1.00  0.00    -0.206 F 
ATOM     82  C   UNL A   1      44.128  38.268  31.181  1.00  0.00     0.006 A 
ENDBRANCH  58  75
ENDBRANCH  32  33
ENDBRANCH  24  27
ENDBRANCH  22  23
ENDBRANCH  21  22
ENDBRANCH   1  21
TORSDOF 13
ENDMDL
MODEL 2
REMARK VINA RESULT:      -9.8      4.315      9.743
REMARK SMILES C[N@@H+](CC(=O)NCCCNC(=O)c1ccc(-c2c3nc(c(-c4c(F)cccc4F)c4ccc([nH]4)c(-c4c(F)cccc4F)c4nc(c(-c5c(F)cccc5F)c5ccc2[nH]5)C=C4)C=C3)cc1)Cc1cccc2c1OCCO2
REMARK SMILES IDX 7 1 6 2 4 3 5 4 3 6 2 7 1 8 67 10 68 11 69 12 73 13 70 14
REMARK SMILES IDX 72 15 74 16 71 17 77 18 75 19 76 20 8 21 9 22 10 23 11 24
REMARK SMILES IDX 12 26 13 27 14 28 66 29 15 30 65 31 16 32 17 33 18 34 59 35
REMARK SMILES IDX 19 36 64 37 58 38 60 39 20 40 63 41 57 42 56 43 21 45 47 46
REMARK SMILES IDX 30 47 46 48 31 49 34 50 45 51 61 52 32 53 33 54 44 56 62 57
REMARK SMILES IDX 35 58 22 59 23 60 28 61 24 62 25 63 27 64 29 65 26 66 48 67
REMARK SMILES IDX 49 68 54 69 50 70 51 71 53 72 55 73 52 74 36 75 37 76 42 77
REMARK SMILES IDX 38 78 39 79 41 80 43 81 40 82
REMARK H PARENT 6 5 2 9 10 25 60 44 34 55
REMARK Flexibility Score: inf
ROOT
ATOM      1  C   UNL A   1      33.354  27.247  24.836  1.00  0.00     0.118 C 
ENDROOT
BRANCH   1   2
ATOM      2  N   UNL A   1      33.727  27.105  23.433  1.00  0.00    -0.351 N 
ATOM      3  C   UNL A   1      33.092  26.565  22.343  1.00  0.00     0.275 C 
ATOM      4  O   UNL A   1      33.653  26.720  21.251  1.00  0.00    -0.269 OA
ATOM      5  H   UNL A   1      34.617  27.471  23.226  1.00  0.00     0.163 HD
BRANCH   3   6
ATOM      6  C   UNL A   1      31.735  25.867  22.427  1.00  0.00     0.363 C 
BRANCH   6   7
ATOM      7  N   UNL A   1      31.776  24.427  22.656  1.00  0.00    -0.326 N 
ATOM      8  C   UNL A   1      30.759  23.856  23.502  1.00  0.00     0.333 C 
ATOM      9  H   UNL A   1      31.413  24.185  21.734  1.00  0.00     0.348 HD
BRANCH   7  10
ATOM     10  C   UNL A   1      32.985  23.654  22.375  1.00  0.00     0.303 C 
BRANCH  10  11
ATOM     11  C   UNL A   1      33.854  23.013  23.446  1.00  0.00     0.052 A 
ATOM     12  C   UNL A   1      34.841  23.805  24.068  1.00  0.00     0.014 A 
ATOM     13  C   UNL A   1      33.844  21.674  23.823  1.00  0.00     0.170 A 
ATOM     14  C   UNL A   1      35.781  23.266  24.966  1.00  0.00     0.005 A 
ATOM     15  C   UNL A   1      34.854  21.099  24.635  1.00  0.00     0.161 A 
ATOM     16  O   UNL A   1      32.728  20.932  23.548  1.00  0.00    -0.486 OA
ATOM     17  C   UNL A   1      35.819  21.899  25.213  1.00  0.00     0.050 A 
ATOM     18  O   UNL A   1      34.869  19.767  25.001  1.00  0.00    -0.486 OA
ATOM     19  C   UNL A   1      32.527  20.126  24.702  1.00  0.00     0.271 C 
ATOM     20  C   UNL A   1      33.636  19.109  24.694  1.00  0.00     0.271 C 
ENDBRANCH  10  11
ENDBRANCH   7  10
ENDBRANCH   6   7
ENDBRANCH   3   6
ENDBRANCH   1   2
BRANCH   1  21
ATOM     21  C   UNL A   1      33.795  28.554  25.530  1.00  0.00     0.042 C 
BRANCH  21  22
ATOM     22  C   UNL A   1      33.955  28.578  27.058  1.00  0.00     0.118 C 
BRANCH  22  23
ATOM     23  N   UNL A   1      33.792  29.819  27.769  1.00  0.00    -0.352 N 
ATOM     24  C   UNL A   1      34.816  30.634  28.227  1.00  0.00     0.251 C 
ATOM     25  H   UNL A   1      32.871  30.116  27.947  1.00  0.00     0.163 HD
ATOM     26  O   UNL A   1      34.586  31.806  28.495  1.00  0.00    -0.269 OA
BRANCH  24  27
ATOM     27  C   UNL A   1      36.179  30.088  28.489  1.00  0.00     0.039 A 
ATOM     28  C   UNL A   1      37.104  30.180  27.447  1.00  0.00     0.014 A 
ATOM     29  C   UNL A   1      36.555  29.456  29.678  1.00  0.00     0.014 A 
ATOM     30  C   UNL A   1      38.406  29.689  27.608  1.00  0.00     0.010 A 
ATOM     31  C   UNL A   1      37.884  29.014  29.859  1.00  0.00     0.010 A 
ATOM     32  C   UNL A   1      38.831  29.122  28.824  1.00  0.00    -0.014 A 
BRANCH  32  33
ATOM     33  C   UNL A   1      40.256  28.677  28.963  1.00  0.00     0.031 A 
ATOM     34  C   UNL A   1      40.703  27.289  28.577  1.00  0.00     0.074 A 
ATOM     35  C   UNL A   1      41.191  29.546  29.405  1.00  0.00     0.049 A 
ATOM     36  N   UNL A   1      41.921  26.802  28.497  1.00  0.00    -0.248 NA
ATOM     37  C   UNL A   1      39.653  26.316  28.254  1.00  0.00     0.031 C 
ATOM     38  C   UNL A   1      40.921  30.904  29.876  1.00  0.00     0.029 A 
ATOM     39  N   UNL A   1      42.559  29.426  29.512  1.00  0.00    -0.354 N 
ATOM     40  C   UNL A   1      41.782  25.472  28.116  1.00  0.00     0.074 A 
ATOM     41  C   UNL A   1      40.359  25.215  28.036  1.00  0.00     0.031 C 
ATOM     42  C   UNL A   1      42.083  31.506  30.177  1.00  0.00     0.029 A 
ATOM     43  C   UNL A   1      43.183  30.571  29.951  1.00  0.00     0.049 A 
ATOM     44  H   UNL A   1      43.045  28.598  29.296  1.00  0.00     0.167 HD
ATOM     45  C   UNL A   1      42.741  24.554  27.836  1.00  0.00     0.037 A 
ATOM     46  C   UNL A   1      44.488  30.853  30.145  1.00  0.00     0.037 A 
ATOM     47  C   UNL A   1      44.161  24.796  27.906  1.00  0.00     0.049 A 
ATOM     48  C   UNL A   1      45.537  29.823  29.827  1.00  0.00     0.074 A 
ATOM     49  C   UNL A   1      45.199  23.944  27.561  1.00  0.00     0.029 A 
ATOM     50  N   UNL A   1      44.747  25.963  28.371  1.00  0.00    -0.354 N 
ATOM     51  N   UNL A   1      45.388  28.609  29.358  1.00  0.00    -0.248 NA
ATOM     52  C   UNL A   1      46.939  30.210  30.052  1.00  0.00     0.031 C 
ATOM     53  C   UNL A   1      46.410  24.571  27.878  1.00  0.00     0.029 A 
ATOM     54  C   UNL A   1      46.129  25.839  28.360  1.00  0.00     0.049 A 
ATOM     55  H   UNL A   1      44.255  26.763  28.666  1.00  0.00     0.167 HD
ATOM     56  C   UNL A   1      46.672  28.094  29.217  1.00  0.00     0.074 A 
ATOM     57  C   UNL A   1      47.589  29.135  29.628  1.00  0.00     0.031 C 
ATOM     58  C   UNL A   1      47.050  26.867  28.781  1.00  0.00     0.037 A 
BRANCH  45  59
ATOM     59  C   UNL A   1      42.282  23.178  27.432  1.00  0.00     0.057 A 
ATOM     60  C   UNL A   1      41.930  22.203  28.376  1.00  0.00     0.134 A 
ATOM     61  C   UNL A   1      42.164  22.831  26.079  1.00  0.00     0.134 A 
ATOM     62  F   UNL A   1      42.018  22.467  29.689  1.00  0.00    -0.206 F 
ATOM     63  C   UNL A   1      41.522  20.924  27.993  1.00  0.00     0.040 A 
ATOM     64  C   UNL A   1      41.726  21.565  25.683  1.00  0.00     0.040 A 
ATOM     65  F   UNL A   1      42.465  23.718  25.119  1.00  0.00    -0.206 F 
ATOM     66  C   UNL A   1      41.416  20.603  26.641  1.00  0.00     0.006 A 
ENDBRANCH  45  59
BRANCH  46  67
ATOM     67  C   UNL A   1      44.878  32.193  30.657  1.00  0.00     0.057 A 
ATOM     68  C   UNL A   1      45.179  33.248  29.787  1.00  0.00     0.134 A 
ATOM     69  C   UNL A   1      44.950  32.450  32.031  1.00  0.00     0.134 A 
ATOM     70  F   UNL A   1      45.152  33.059  28.460  1.00  0.00    -0.206 F 
ATOM     71  C   UNL A   1      45.543  34.508  30.266  1.00  0.00     0.040 A 
ATOM     72  C   UNL A   1      45.285  33.713  32.524  1.00  0.00     0.040 A 
ATOM     73  F   UNL A   1      44.672  31.482  32.916  1.00  0.00    -0.206 F 
ATOM     74  C   UNL A   1      45.587  34.745  31.638  1.00  0.00     0.006 A 
ENDBRANCH  46  67
BRANCH  58  75
ATOM     75  C   UNL A   1      48.524  26.577  28.708  1.00  0.00     0.057 A 
ATOM     76  C   UNL A   1      49.289  26.894  27.578  1.00  0.00     0.134 A 
ATOM     77  C   UNL A   1      49.196  26.003  29.796  1.00  0.00     0.134 A 
ATOM     78  F   UNL A   1      48.710  27.435  26.494  1.00  0.00    -0.206 F 
ATOM     79  C   UNL A   1      50.661  26.630  27.523  1.00  0.00     0.040 A 
ATOM     80  C   UNL A   1      50.571  25.761  29.764  1.00  0.00     0.040 A 
ATOM     81  F   UNL A   1      48.530  25.680  30.915  1.00  0.00    -0.206 F 
ATOM     82  C   UNL A   1      51.307  26.068  28.622  1.00  0.00     0.006 A 
ENDBRANCH  58  75
ENDBRANCH  32  33
ENDBRANCH  24  27
ENDBRANCH  22  23
ENDBRANCH  21  22
ENDBRANCH   1  21
TORSDOF 13
ENDMDL
MODEL 3
REMARK VINA RESULT:      -9.8      4.034     10.033
REMARK SMILES C[N@@H+](CC(=O)NCCCNC(=O)c1ccc(-c2c3nc(c(-c4c(F)cccc4F)c4ccc([nH]4)c(-c4c(F)cccc4F)c4nc(c(-c5c(F)cccc5F)c5ccc2[nH]5)C=C4)C=C3)cc1)Cc1cccc2c1OCCO2
REMARK SMILES IDX 7 1 6 2 4 3 5 4 3 6 2 7 1 8 67 10 68 11 69 12 73 13 70 14
REMARK SMILES IDX 72 15 74 16 71 17 77 18 75 19 76 20 8 21 9 22 10 23 11 24
REMARK SMILES IDX 12 26 13 27 14 28 66 29 15 30 65 31 16 32 17 33 18 34 59 35
REMARK SMILES IDX 19 36 64 37 58 38 60 39 20 40 63 41 57 42 56 43 21 45 47 46
REMARK SMILES IDX 30 47 46 48 31 49 34 50 45 51 61 52 32 53 33 54 44 56 62 57
REMARK SMILES IDX 35 58 22 59 23 60 28 61 24 62 25 63 27 64 29 65 26 66 48 67
REMARK SMILES IDX 49 68 54 69 50 70 51 71 53 72 55 73 52 74 36 75 37 76 42 77
REMARK SMILES IDX 38 78 39 79 41 80 43 81 40 82
REMARK H PARENT 6 5 2 9 10 25 60 44 34 55
REMARK Flexibility Score: inf
ROOT
ATOM      1  C   UNL A   1      33.366  28.204  24.709  1.00  0.00     0.118 C 
ENDROOT
BRANCH   1   2
ATOM      2  N   UNL A   1      32.124  27.714  24.121  1.00  0.00    -0.351 N 
ATOM      3  C   UNL A   1      31.679  26.462  23.778  1.00  0.00     0.275 C 
ATOM      4  O   UNL A   1      30.502  26.384  23.405  1.00  0.00    -0.269 OA
ATOM      5  H   UNL A   1      31.473  28.426  23.931  1.00  0.00     0.163 HD
BRANCH   3   6
ATOM      6  C   UNL A   1      32.539  25.205  23.905  1.00  0.00     0.363 C 
BRANCH   6   7
ATOM      7  N   UNL A   1      32.892  24.813  25.265  1.00  0.00    -0.326 N 
ATOM      8  C   UNL A   1      31.849  24.832  26.258  1.00  0.00     0.333 C 
ATOM      9  H   UNL A   1      32.937  23.815  25.056  1.00  0.00     0.348 HD
BRANCH   7  10
ATOM     10  C   UNL A   1      34.288  24.776  25.699  1.00  0.00     0.303 C 
BRANCH  10  11
ATOM     11  C   UNL A   1      35.167  23.536  25.638  1.00  0.00     0.052 A 
ATOM     12  C   UNL A   1      36.553  23.689  25.848  1.00  0.00     0.014 A 
ATOM     13  C   UNL A   1      34.758  22.251  25.299  1.00  0.00     0.170 A 
ATOM     14  C   UNL A   1      37.460  22.628  25.674  1.00  0.00     0.005 A 
ATOM     15  C   UNL A   1      35.671  21.206  25.011  1.00  0.00     0.161 A 
ATOM     16  O   UNL A   1      33.431  21.940  25.424  1.00  0.00    -0.486 OA
ATOM     17  C   UNL A   1      37.025  21.395  25.206  1.00  0.00     0.050 A 
ATOM     18  O   UNL A   1      35.280  19.931  24.653  1.00  0.00    -0.486 OA
ATOM     19  C   UNL A   1      33.408  20.625  25.964  1.00  0.00     0.271 C 
ATOM     20  C   UNL A   1      33.880  19.717  24.861  1.00  0.00     0.271 C 
ENDBRANCH  10  11
ENDBRANCH   7  10
ENDBRANCH   6   7
ENDBRANCH   3   6
ENDBRANCH   1   2
BRANCH   1  21
ATOM     21  C   UNL A   1      33.377  28.365  26.244  1.00  0.00     0.042 C 
BRANCH  21  22
ATOM     22  C   UNL A   1      34.620  28.952  26.931  1.00  0.00     0.118 C 
BRANCH  22  23
ATOM     23  N   UNL A   1      34.458  29.876  28.024  1.00  0.00    -0.352 N 
ATOM     24  C   UNL A   1      35.481  30.509  28.712  1.00  0.00     0.251 C 
ATOM     25  H   UNL A   1      33.537  30.074  28.309  1.00  0.00     0.163 HD
ATOM     26  O   UNL A   1      35.241  31.516  29.366  1.00  0.00    -0.269 OA
BRANCH  24  27
ATOM     27  C   UNL A   1      36.858  29.937  28.747  1.00  0.00     0.039 A 
ATOM     28  C   UNL A   1      37.596  30.001  27.565  1.00  0.00     0.014 A 
ATOM     29  C   UNL A   1      37.416  29.308  29.865  1.00  0.00     0.014 A 
ATOM     30  C   UNL A   1      38.897  29.484  27.511  1.00  0.00     0.010 A 
ATOM     31  C   UNL A   1      38.747  28.840  29.825  1.00  0.00     0.010 A 
ATOM     32  C   UNL A   1      39.509  28.919  28.645  1.00  0.00    -0.014 A 
BRANCH  32  33
ATOM     33  C   UNL A   1      40.929  28.444  28.548  1.00  0.00     0.031 A 
ATOM     34  C   UNL A   1      41.275  27.018  28.201  1.00  0.00     0.074 A 
ATOM     35  C   UNL A   1      41.942  29.319  28.731  1.00  0.00     0.049 A 
ATOM     36  N   UNL A   1      42.449  26.491  27.934  1.00  0.00    -0.248 NA
ATOM     37  C   UNL A   1      40.169  26.053  28.166  1.00  0.00     0.031 C 
ATOM     38  C   UNL A   1      41.786  30.717  29.129  1.00  0.00     0.029 A 
ATOM     39  N   UNL A   1      43.304  29.168  28.586  1.00  0.00    -0.354 N 
ATOM     40  C   UNL A   1      42.221  25.140  27.698  1.00  0.00     0.074 A 
ATOM     41  C   UNL A   1      40.806  24.919  27.911  1.00  0.00     0.031 C 
ATOM     42  C   UNL A   1      42.991  31.307  29.153  1.00  0.00     0.029 A 
ATOM     43  C   UNL A   1      44.016  30.325  28.802  1.00  0.00     0.049 A 
ATOM     44  H   UNL A   1      43.728  28.311  28.352  1.00  0.00     0.167 HD
ATOM     45  C   UNL A   1      43.097  24.175  27.319  1.00  0.00     0.037 A 
ATOM     46  C   UNL A   1      45.337  30.584  28.721  1.00  0.00     0.037 A 
ATOM     47  C   UNL A   1      44.507  24.380  27.099  1.00  0.00     0.049 A 
ATOM     48  C   UNL A   1      46.292  29.502  28.296  1.00  0.00     0.074 A 
ATOM     49  C   UNL A   1      45.449  23.474  26.636  1.00  0.00     0.029 A 
ATOM     50  N   UNL A   1      45.187  25.563  27.345  1.00  0.00    -0.354 N 
ATOM     51  N   UNL A   1      46.040  28.259  27.968  1.00  0.00    -0.248 NA
ATOM     52  C   UNL A   1      47.717  29.865  28.219  1.00  0.00     0.031 C 
ATOM     53  C   UNL A   1      46.706  24.089  26.664  1.00  0.00     0.029 A 
ATOM     54  C   UNL A   1      46.540  25.398  27.083  1.00  0.00     0.049 A 
ATOM     55  H   UNL A   1      44.771  26.398  27.660  1.00  0.00     0.167 HD
ATOM     56  C   UNL A   1      47.266  27.698  27.629  1.00  0.00     0.074 A 
ATOM     57  C   UNL A   1      48.259  28.741  27.771  1.00  0.00     0.031 C 
ATOM     58  C   UNL A   1      47.538  26.429  27.234  1.00  0.00     0.037 A 
BRANCH  45  59
ATOM     59  C   UNL A   1      42.550  22.785  27.126  1.00  0.00     0.057 A 
ATOM     60  C   UNL A   1      42.193  21.968  28.208  1.00  0.00     0.134 A 
ATOM     61  C   UNL A   1      42.353  22.265  25.839  1.00  0.00     0.134 A 
ATOM     62  F   UNL A   1      42.354  22.401  29.468  1.00  0.00    -0.206 F 
ATOM     63  C   UNL A   1      41.704  20.674  28.020  1.00  0.00     0.040 A 
ATOM     64  C   UNL A   1      41.834  20.984  25.638  1.00  0.00     0.040 A 
ATOM     65  F   UNL A   1      42.654  22.997  24.755  1.00  0.00    -0.206 F 
ATOM     66  C   UNL A   1      41.520  20.180  26.730  1.00  0.00     0.006 A 
ENDBRANCH  45  59
BRANCH  46  67
ATOM     67  C   UNL A   1      45.836  31.949  29.035  1.00  0.00     0.057 A 
ATOM     68  C   UNL A   1      46.243  32.298  30.329  1.00  0.00     0.134 A 
ATOM     69  C   UNL A   1      45.925  32.933  28.044  1.00  0.00     0.134 A 
ATOM     70  F   UNL A   1      46.158  31.407  31.328  1.00  0.00    -0.206 F 
ATOM     71  C   UNL A   1      46.714  33.578  30.626  1.00  0.00     0.040 A 
ATOM     72  C   UNL A   1      46.421  34.209  28.321  1.00  0.00     0.040 A 
ATOM     73  F   UNL A   1      45.553  32.661  26.785  1.00  0.00    -0.206 F 
ATOM     74  C   UNL A   1      46.813  34.535  29.618  1.00  0.00     0.006 A 
ENDBRANCH  46  67
BRANCH  58  75
ATOM     75  C   UNL A   1      48.967  26.092  26.908  1.00  0.00     0.057 A 
ATOM     76  C   UNL A   1      49.495  26.262  25.621  1.00  0.00     0.134 A 
ATOM     77  C   UNL A   1      49.836  25.622  27.901  1.00  0.00     0.134 A 
ATOM     78  F   UNL A   1      48.717  26.698  24.618  1.00  0.00    -0.206 F 
ATOM     79  C   UNL A   1      50.827  25.955  25.330  1.00  0.00     0.040 A 
ATOM     80  C   UNL A   1      51.176  25.338  27.628  1.00  0.00     0.040 A 
ATOM     81  F   UNL A   1      49.402  25.441  29.157  1.00  0.00    -0.206 F 
ATOM     82  C   UNL A   1      51.674  25.498  26.338  1.00  0.00     0.006 A 
ENDBRANCH  58  75
ENDBRANCH  32  33
ENDBRANCH  24  27
ENDBRANCH  22  23
ENDBRANCH  21  22
ENDBRANCH   1  21
TORSDOF 13
ENDMDL
