MODEL 1
REMARK VINA RESULT:     -11.7      0.000      0.000
REMARK SMILES CCn1cc(C)c(C(=O)NCCCNC(=O)c2ccc(-c3c4nc(c(-c5c(F)cccc5F)c5ccc([nH]5)c(-c5c(F)cccc5F)c5nc(c(-c6c(F)cccc6F)c6ccc3[nH]6)C=C5)C=C4)cc2)c1CC(=O)N1CC[NH+](C)CC1
REMARK SMILES IDX 12 1 11 2 10 3 8 4 9 5 7 7 3 8 4 9 71 10 5 11 6 12 2 13 1 14
REMARK SMILES IDX 72 15 73 16 74 17 75 18 76 19 81 20 77 21 80 22 78 23 79 24
REMARK SMILES IDX 13 26 14 27 15 28 16 30 17 31 18 32 70 33 19 34 69 35 20 36
REMARK SMILES IDX 21 37 22 38 63 39 23 40 68 41 62 42 64 43 24 44 67 45 61 46
REMARK SMILES IDX 60 47 25 49 51 50 34 51 50 52 35 53 38 54 49 55 65 56 36 57
REMARK SMILES IDX 37 58 48 60 66 61 39 62 26 63 27 64 32 65 28 66 29 67 31 68
REMARK SMILES IDX 33 69 30 70 52 71 53 72 58 73 54 74 55 75 57 76 59 77 56 78
REMARK SMILES IDX 40 79 41 80 46 81 42 82 43 83 45 84 47 85 44 86
REMARK H PARENT 10 6 78 25 14 29 64 48 38 59
REMARK Flexibility Score: inf
ROOT
ATOM      1  C   UNL A   1      34.020  31.085  27.382  1.00  0.00     0.042 C 
ENDROOT
BRANCH   1   2
ATOM      2  C   UNL A   1      34.194  29.567  27.408  1.00  0.00     0.118 C 
BRANCH   2   3
ATOM      3  N   UNL A   1      32.961  28.903  27.781  1.00  0.00    -0.352 N 
ATOM      4  C   UNL A   1      32.116  28.044  27.131  1.00  0.00     0.253 C 
ATOM      5  O   UNL A   1      31.194  27.616  27.834  1.00  0.00    -0.269 OA
ATOM      6  H   UNL A   1      32.669  29.114  28.697  1.00  0.00     0.163 HD
BRANCH   4   7
ATOM      7  C   UNL A   1      32.250  27.615  25.721  1.00  0.00     0.064 A 
ATOM      8  N   UNL A   1      32.620  26.592  23.764  1.00  0.00    -0.350 N 
ATOM      9  C   UNL A   1      31.845  27.671  23.468  1.00  0.00     0.090 A 
ATOM     10  C   UNL A   1      33.105  26.706  25.061  1.00  0.00     0.040 A 
ATOM     11  C   UNL A   1      31.636  28.369  24.633  1.00  0.00    -0.020 A 
ATOM     12  C   UNL A   1      30.951  29.691  24.711  1.00  0.00     0.047 C 
BRANCH   8  13
ATOM     13  C   UNL A   1      32.927  25.562  22.779  1.00  0.00     0.118 C 
ATOM     14  C   UNL A   1      32.280  25.833  21.432  1.00  0.00     0.027 C 
ENDBRANCH   8  13
BRANCH  10  15
ATOM     15  C   UNL A   1      34.313  25.904  25.445  1.00  0.00     0.155 C 
BRANCH  15  16
ATOM     16  C   UNL A   1      34.271  24.398  25.747  1.00  0.00     0.228 C 
ATOM     17  O   UNL A   1      33.318  24.042  26.465  1.00  0.00    -0.274 OA
ATOM     18  N   UNL A   1      35.212  23.454  25.381  1.00  0.00    -0.331 N 
ATOM     19  C   UNL A   1      35.239  22.194  26.142  1.00  0.00     0.181 C 
ATOM     20  C   UNL A   1      36.359  23.660  24.506  1.00  0.00     0.181 C 
ATOM     21  C   UNL A   1      35.748  20.986  25.333  1.00  0.00     0.283 C 
ATOM     22  C   UNL A   1      36.861  22.408  23.768  1.00  0.00     0.283 C 
ATOM     23  N   UNL A   1      37.008  21.205  24.602  1.00  0.00    -0.334 N 
ATOM     24  C   UNL A   1      38.163  21.299  25.494  1.00  0.00     0.332 C 
ATOM     25  H   UNL A   1      37.191  20.397  24.006  1.00  0.00     0.347 HD
ENDBRANCH  15  16
ENDBRANCH  10  15
ENDBRANCH   4   7
ENDBRANCH   2   3
ENDBRANCH   1   2
BRANCH   1  26
ATOM     26  C   UNL A   1      35.177  31.857  27.955  1.00  0.00     0.118 C 
BRANCH  26  27
ATOM     27  N   UNL A   1      34.907  32.473  29.252  1.00  0.00    -0.352 N 
ATOM     28  C   UNL A   1      35.374  32.066  30.499  1.00  0.00     0.251 C 
ATOM     29  H   UNL A   1      34.328  33.269  29.244  1.00  0.00     0.163 HD
ATOM     30  O   UNL A   1      34.845  32.448  31.524  1.00  0.00    -0.269 OA
BRANCH  28  31
ATOM     31  C   UNL A   1      36.531  31.143  30.542  1.00  0.00     0.039 A 
ATOM     32  C   UNL A   1      36.411  29.753  30.564  1.00  0.00     0.014 A 
ATOM     33  C   UNL A   1      37.789  31.723  30.502  1.00  0.00     0.014 A 
ATOM     34  C   UNL A   1      37.582  28.993  30.523  1.00  0.00     0.010 A 
ATOM     35  C   UNL A   1      38.844  31.001  30.053  1.00  0.00     0.010 A 
ATOM     36  C   UNL A   1      38.800  29.645  30.274  1.00  0.00    -0.014 A 
BRANCH  36  37
ATOM     37  C   UNL A   1      40.079  28.969  30.174  1.00  0.00     0.031 A 
ATOM     38  C   UNL A   1      40.738  28.789  31.480  1.00  0.00     0.074 A 
ATOM     39  C   UNL A   1      40.499  28.339  29.051  1.00  0.00     0.049 A 
ATOM     40  N   UNL A   1      41.751  29.442  31.934  1.00  0.00    -0.248 NA
ATOM     41  C   UNL A   1      40.077  27.931  32.477  1.00  0.00     0.031 C 
ATOM     42  C   UNL A   1      39.787  28.121  27.782  1.00  0.00     0.029 A 
ATOM     43  N   UNL A   1      41.659  27.660  28.847  1.00  0.00    -0.354 N 
ATOM     44  C   UNL A   1      42.014  28.892  33.180  1.00  0.00     0.074 A 
ATOM     45  C   UNL A   1      40.831  28.163  33.553  1.00  0.00     0.031 C 
ATOM     46  C   UNL A   1      40.429  27.183  27.048  1.00  0.00     0.029 A 
ATOM     47  C   UNL A   1      41.680  26.862  27.704  1.00  0.00     0.049 A 
ATOM     48  H   UNL A   1      42.425  27.725  29.461  1.00  0.00     0.167 HD
ATOM     49  C   UNL A   1      43.289  28.840  33.650  1.00  0.00     0.037 A 
ATOM     50  C   UNL A   1      42.661  25.986  27.361  1.00  0.00     0.037 A 
ATOM     51  C   UNL A   1      44.154  29.716  32.890  1.00  0.00     0.049 A 
ATOM     52  C   UNL A   1      43.870  26.359  28.142  1.00  0.00     0.074 A 
ATOM     53  C   UNL A   1      44.135  31.066  32.585  1.00  0.00     0.029 A 
ATOM     54  N   UNL A   1      44.990  29.143  31.960  1.00  0.00    -0.354 N 
ATOM     55  N   UNL A   1      44.543  27.460  27.949  1.00  0.00    -0.248 NA
ATOM     56  C   UNL A   1      44.022  25.756  29.458  1.00  0.00     0.031 C 
ATOM     57  C   UNL A   1      44.527  31.139  31.214  1.00  0.00     0.029 A 
ATOM     58  C   UNL A   1      44.853  29.850  30.791  1.00  0.00     0.049 A 
ATOM     59  H   UNL A   1      45.578  28.367  32.106  1.00  0.00     0.167 HD
ATOM     60  C   UNL A   1      44.835  27.923  29.224  1.00  0.00     0.074 A 
ATOM     61  C   UNL A   1      44.547  26.797  30.112  1.00  0.00     0.031 C 
ATOM     62  C   UNL A   1      44.981  29.258  29.479  1.00  0.00     0.037 A 
BRANCH  49  63
ATOM     63  C   UNL A   1      43.830  27.713  34.496  1.00  0.00     0.057 A 
ATOM     64  C   UNL A   1      44.497  28.031  35.692  1.00  0.00     0.134 A 
ATOM     65  C   UNL A   1      43.981  26.378  34.066  1.00  0.00     0.134 A 
ATOM     66  F   UNL A   1      44.439  29.269  36.204  1.00  0.00    -0.206 F 
ATOM     67  C   UNL A   1      45.323  27.116  36.356  1.00  0.00     0.040 A 
ATOM     68  C   UNL A   1      44.759  25.443  34.751  1.00  0.00     0.040 A 
ATOM     69  F   UNL A   1      43.477  25.925  32.913  1.00  0.00    -0.206 F 
ATOM     70  C   UNL A   1      45.463  25.820  35.881  1.00  0.00     0.006 A 
ENDBRANCH  49  63
BRANCH  50  71
ATOM     71  C   UNL A   1      42.550  24.681  26.667  1.00  0.00     0.057 A 
ATOM     72  C   UNL A   1      43.202  24.451  25.445  1.00  0.00     0.134 A 
ATOM     73  C   UNL A   1      42.054  23.541  27.322  1.00  0.00     0.134 A 
ATOM     74  F   UNL A   1      43.742  25.469  24.760  1.00  0.00    -0.206 F 
ATOM     75  C   UNL A   1      43.382  23.161  24.924  1.00  0.00     0.040 A 
ATOM     76  C   UNL A   1      42.223  22.248  26.812  1.00  0.00     0.040 A 
ATOM     77  F   UNL A   1      41.472  23.634  28.526  1.00  0.00    -0.206 F 
ATOM     78  C   UNL A   1      42.905  22.052  25.617  1.00  0.00     0.006 A 
ENDBRANCH  50  71
BRANCH  62  79
ATOM     79  C   UNL A   1      45.062  30.201  28.305  1.00  0.00     0.057 A 
ATOM     80  C   UNL A   1      43.956  30.828  27.707  1.00  0.00     0.134 A 
ATOM     81  C   UNL A   1      46.324  30.595  27.850  1.00  0.00     0.134 A 
ATOM     82  F   UNL A   1      42.709  30.602  28.138  1.00  0.00    -0.206 F 
ATOM     83  C   UNL A   1      44.102  31.759  26.671  1.00  0.00     0.040 A 
ATOM     84  C   UNL A   1      46.485  31.550  26.843  1.00  0.00     0.040 A 
ATOM     85  F   UNL A   1      47.434  30.085  28.410  1.00  0.00    -0.206 F 
ATOM     86  C   UNL A   1      45.372  32.126  26.240  1.00  0.00     0.006 A 
ENDBRANCH  62  79
ENDBRANCH  36  37
ENDBRANCH  28  31
ENDBRANCH  26  27
ENDBRANCH   1  26
TORSDOF 13
ENDMDL
MODEL 2
REMARK VINA RESULT:     -11.5      2.544      8.096
REMARK SMILES CCn1cc(C)c(C(=O)NCCCNC(=O)c2ccc(-c3c4nc(c(-c5c(F)cccc5F)c5ccc([nH]5)c(-c5c(F)cccc5F)c5nc(c(-c6c(F)cccc6F)c6ccc3[nH]6)C=C5)C=C4)cc2)c1CC(=O)N1CC[NH+](C)CC1
REMARK SMILES IDX 12 1 11 2 10 3 8 4 9 5 7 7 3 8 4 9 71 10 5 11 6 12 2 13 1 14
REMARK SMILES IDX 72 15 73 16 74 17 75 18 76 19 81 20 77 21 80 22 78 23 79 24
REMARK SMILES IDX 13 26 14 27 15 28 16 30 17 31 18 32 70 33 19 34 69 35 20 36
REMARK SMILES IDX 21 37 22 38 63 39 23 40 68 41 62 42 64 43 24 44 67 45 61 46
REMARK SMILES IDX 60 47 25 49 51 50 34 51 50 52 35 53 38 54 49 55 65 56 36 57
REMARK SMILES IDX 37 58 48 60 66 61 39 62 26 63 27 64 32 65 28 66 29 67 31 68
REMARK SMILES IDX 33 69 30 70 52 71 53 72 58 73 54 74 55 75 57 76 59 77 56 78
REMARK SMILES IDX 40 79 41 80 46 81 42 82 43 83 45 84 47 85 44 86
REMARK H PARENT 10 6 78 25 14 29 64 48 38 59
REMARK Flexibility Score: inf
ROOT
ATOM      1  C   UNL A   1      38.559  22.274  25.917  1.00  0.00     0.042 C 
ENDROOT
BRANCH   1   2
ATOM      2  C   UNL A   1      37.872  23.553  25.438  1.00  0.00     0.118 C 
BRANCH   2   3
ATOM      3  N   UNL A   1      37.225  23.353  24.156  1.00  0.00    -0.352 N 
ATOM      4  C   UNL A   1      35.933  23.108  23.778  1.00  0.00     0.253 C 
ATOM      5  O   UNL A   1      35.761  23.089  22.554  1.00  0.00    -0.269 OA
ATOM      6  H   UNL A   1      37.847  23.408  23.395  1.00  0.00     0.163 HD
BRANCH   4   7
ATOM      7  C   UNL A   1      34.797  22.891  24.702  1.00  0.00     0.064 A 
ATOM      8  N   UNL A   1      32.996  22.996  26.029  1.00  0.00    -0.350 N 
ATOM      9  C   UNL A   1      33.263  21.669  25.883  1.00  0.00     0.090 A 
ATOM     10  C   UNL A   1      34.071  23.743  25.563  1.00  0.00     0.040 A 
ATOM     11  C   UNL A   1      34.399  21.551  25.121  1.00  0.00    -0.020 A 
ATOM     12  C   UNL A   1      35.101  20.264  24.850  1.00  0.00     0.047 C 
BRANCH   8  13
ATOM     13  C   UNL A   1      31.782  23.479  26.675  1.00  0.00     0.118 C 
ATOM     14  C   UNL A   1      30.536  22.769  26.178  1.00  0.00     0.027 C 
ENDBRANCH   8  13
BRANCH  10  15
ATOM     15  C   UNL A   1      34.208  25.164  26.025  1.00  0.00     0.155 C 
BRANCH  15  16
ATOM     16  C   UNL A   1      33.693  26.370  25.226  1.00  0.00     0.228 C 
ATOM     17  O   UNL A   1      33.864  26.285  23.995  1.00  0.00    -0.274 OA
ATOM     18  N   UNL A   1      33.157  27.536  25.739  1.00  0.00    -0.331 N 
ATOM     19  C   UNL A   1      33.162  28.724  24.871  1.00  0.00     0.181 C 
ATOM     20  C   UNL A   1      32.829  27.804  27.134  1.00  0.00     0.181 C 
ATOM     21  C   UNL A   1      32.018  29.714  25.159  1.00  0.00     0.283 C 
ATOM     22  C   UNL A   1      31.720  28.843  27.364  1.00  0.00     0.283 C 
ATOM     23  N   UNL A   1      31.845  30.079  26.576  1.00  0.00    -0.334 N 
ATOM     24  C   UNL A   1      32.924  30.933  27.069  1.00  0.00     0.332 C 
ATOM     25  H   UNL A   1      30.994  30.634  26.674  1.00  0.00     0.347 HD
ENDBRANCH  15  16
ENDBRANCH  10  15
ENDBRANCH   4   7
ENDBRANCH   2   3
ENDBRANCH   1   2
BRANCH   1  26
ATOM     26  C   UNL A   1      39.720  22.498  26.845  1.00  0.00     0.118 C 
BRANCH  26  27
ATOM     27  N   UNL A   1      41.030  22.265  26.241  1.00  0.00    -0.352 N 
ATOM     28  C   UNL A   1      41.967  23.219  25.850  1.00  0.00     0.251 C 
ATOM     29  H   UNL A   1      41.279  21.325  26.092  1.00  0.00     0.163 HD
ATOM     30  O   UNL A   1      42.867  22.938  25.083  1.00  0.00    -0.269 OA
BRANCH  28  31
ATOM     31  C   UNL A   1      41.831  24.591  26.389  1.00  0.00     0.039 A 
ATOM     32  C   UNL A   1      41.076  25.591  25.774  1.00  0.00     0.014 A 
ATOM     33  C   UNL A   1      42.453  24.847  27.599  1.00  0.00     0.014 A 
ATOM     34  C   UNL A   1      40.963  26.821  26.426  1.00  0.00     0.010 A 
ATOM     35  C   UNL A   1      42.002  25.855  28.383  1.00  0.00     0.010 A 
ATOM     36  C   UNL A   1      41.446  26.934  27.739  1.00  0.00    -0.014 A 
BRANCH  36  37
ATOM     37  C   UNL A   1      41.360  28.143  28.537  1.00  0.00     0.031 A 
ATOM     38  C   UNL A   1      42.444  29.100  28.248  1.00  0.00     0.074 A 
ATOM     39  C   UNL A   1      40.269  28.473  29.267  1.00  0.00     0.049 A 
ATOM     40  N   UNL A   1      43.468  29.356  28.985  1.00  0.00    -0.248 NA
ATOM     41  C   UNL A   1      42.505  29.691  26.901  1.00  0.00     0.031 C 
ATOM     42  C   UNL A   1      38.967  27.792  29.360  1.00  0.00     0.029 A 
ATOM     43  N   UNL A   1      40.066  29.579  30.030  1.00  0.00    -0.354 N 
ATOM     44  C   UNL A   1      44.173  30.338  28.304  1.00  0.00     0.074 A 
ATOM     45  C   UNL A   1      43.681  30.320  26.952  1.00  0.00     0.031 C 
ATOM     46  C   UNL A   1      38.059  28.612  29.938  1.00  0.00     0.029 A 
ATOM     47  C   UNL A   1      38.744  29.796  30.413  1.00  0.00     0.049 A 
ATOM     48  H   UNL A   1      40.799  30.183  30.292  1.00  0.00     0.167 HD
ATOM     49  C   UNL A   1      44.880  31.275  28.992  1.00  0.00     0.037 A 
ATOM     50  C   UNL A   1      38.268  30.898  31.052  1.00  0.00     0.037 A 
ATOM     51  C   UNL A   1      45.069  30.869  30.368  1.00  0.00     0.049 A 
ATOM     52  C   UNL A   1      39.437  31.587  31.660  1.00  0.00     0.074 A 
ATOM     53  C   UNL A   1      45.614  29.754  30.980  1.00  0.00     0.029 A 
ATOM     54  N   UNL A   1      44.281  31.463  31.326  1.00  0.00    -0.354 N 
ATOM     55  N   UNL A   1      40.130  31.094  32.651  1.00  0.00    -0.248 NA
ATOM     56  C   UNL A   1      40.132  32.567  30.838  1.00  0.00     0.031 C 
ATOM     57  C   UNL A   1      44.733  29.463  32.065  1.00  0.00     0.029 A 
ATOM     58  C   UNL A   1      43.763  30.464  32.112  1.00  0.00     0.049 A 
ATOM     59  H   UNL A   1      44.117  32.429  31.428  1.00  0.00     0.167 HD
ATOM     60  C   UNL A   1      41.452  31.352  32.319  1.00  0.00     0.074 A 
ATOM     61  C   UNL A   1      41.388  32.321  31.225  1.00  0.00     0.031 C 
ATOM     62  C   UNL A   1      42.462  30.533  32.740  1.00  0.00     0.037 A 
BRANCH  49  63
ATOM     63  C   UNL A   1      45.030  32.710  28.550  1.00  0.00     0.057 A 
ATOM     64  C   UNL A   1      43.870  33.486  28.379  1.00  0.00     0.134 A 
ATOM     65  C   UNL A   1      46.208  33.273  28.014  1.00  0.00     0.134 A 
ATOM     66  F   UNL A   1      42.684  33.059  28.837  1.00  0.00    -0.206 F 
ATOM     67  C   UNL A   1      43.868  34.683  27.654  1.00  0.00     0.040 A 
ATOM     68  C   UNL A   1      46.226  34.493  27.336  1.00  0.00     0.040 A 
ATOM     69  F   UNL A   1      47.385  32.638  28.020  1.00  0.00    -0.206 F 
ATOM     70  C   UNL A   1      45.047  35.186  27.122  1.00  0.00     0.006 A 
ENDBRANCH  49  63
BRANCH  50  71
ATOM     71  C   UNL A   1      36.953  31.566  30.912  1.00  0.00     0.057 A 
ATOM     72  C   UNL A   1      36.112  31.752  32.021  1.00  0.00     0.134 A 
ATOM     73  C   UNL A   1      36.620  32.299  29.760  1.00  0.00     0.134 A 
ATOM     74  F   UNL A   1      36.365  31.127  33.179  1.00  0.00    -0.206 F 
ATOM     75  C   UNL A   1      35.027  32.641  31.997  1.00  0.00     0.040 A 
ATOM     76  C   UNL A   1      35.537  33.186  29.720  1.00  0.00     0.040 A 
ATOM     77  F   UNL A   1      37.389  32.250  28.663  1.00  0.00    -0.206 F 
ATOM     78  C   UNL A   1      34.746  33.373  30.847  1.00  0.00     0.006 A 
ENDBRANCH  50  71
BRANCH  62  79
ATOM     79  C   UNL A   1      42.143  29.484  33.774  1.00  0.00     0.057 A 
ATOM     80  C   UNL A   1      41.738  28.171  33.480  1.00  0.00     0.134 A 
ATOM     81  C   UNL A   1      42.386  29.775  35.119  1.00  0.00     0.134 A 
ATOM     82  F   UNL A   1      41.579  27.756  32.217  1.00  0.00    -0.206 F 
ATOM     83  C   UNL A   1      41.535  27.215  34.483  1.00  0.00     0.040 A 
ATOM     84  C   UNL A   1      42.223  28.821  36.127  1.00  0.00     0.040 A 
ATOM     85  F   UNL A   1      42.831  30.991  35.478  1.00  0.00    -0.206 F 
ATOM     86  C   UNL A   1      41.783  27.539  35.813  1.00  0.00     0.006 A 
ENDBRANCH  62  79
ENDBRANCH  36  37
ENDBRANCH  28  31
ENDBRANCH  26  27
ENDBRANCH   1  26
TORSDOF 13
ENDMDL
MODEL 3
REMARK VINA RESULT:     -11.2      2.916      8.061
REMARK SMILES CCn1cc(C)c(C(=O)NCCCNC(=O)c2ccc(-c3c4nc(c(-c5c(F)cccc5F)c5ccc([nH]5)c(-c5c(F)cccc5F)c5nc(c(-c6c(F)cccc6F)c6ccc3[nH]6)C=C5)C=C4)cc2)c1CC(=O)N1CC[NH+](C)CC1
REMARK SMILES IDX 12 1 11 2 10 3 8 4 9 5 7 7 3 8 4 9 71 10 5 11 6 12 2 13 1 14
REMARK SMILES IDX 72 15 73 16 74 17 75 18 76 19 81 20 77 21 80 22 78 23 79 24
REMARK SMILES IDX 13 26 14 27 15 28 16 30 17 31 18 32 70 33 19 34 69 35 20 36
REMARK SMILES IDX 21 37 22 38 63 39 23 40 68 41 62 42 64 43 24 44 67 45 61 46
REMARK SMILES IDX 60 47 25 49 51 50 34 51 50 52 35 53 38 54 49 55 65 56 36 57
REMARK SMILES IDX 37 58 48 60 66 61 39 62 26 63 27 64 32 65 28 66 29 67 31 68
REMARK SMILES IDX 33 69 30 70 52 71 53 72 58 73 54 74 55 75 57 76 59 77 56 78
REMARK SMILES IDX 40 79 41 80 46 81 42 82 43 83 45 84 47 85 44 86
REMARK H PARENT 10 6 78 25 14 29 64 48 38 59
REMARK Flexibility Score: inf
ROOT
ATOM      1  C   UNL A   1      39.140  22.155  26.373  1.00  0.00     0.042 C 
ENDROOT
BRANCH   1   2
ATOM      2  C   UNL A   1      38.193  23.337  26.166  1.00  0.00     0.118 C 
BRANCH   2   3
ATOM      3  N   UNL A   1      37.799  23.457  24.777  1.00  0.00    -0.352 N 
ATOM      4  C   UNL A   1      36.788  22.915  24.030  1.00  0.00     0.253 C 
ATOM      5  O   UNL A   1      36.731  23.343  22.872  1.00  0.00    -0.269 OA
ATOM      6  H   UNL A   1      38.383  24.058  24.259  1.00  0.00     0.163 HD
BRANCH   4   7
ATOM      7  C   UNL A   1      35.809  21.916  24.513  1.00  0.00     0.064 A 
ATOM      8  N   UNL A   1      34.030  20.728  25.175  1.00  0.00    -0.350 N 
ATOM      9  C   UNL A   1      35.041  19.826  25.046  1.00  0.00     0.090 A 
ATOM     10  C   UNL A   1      34.546  22.018  25.135  1.00  0.00     0.040 A 
ATOM     11  C   UNL A   1      36.176  20.515  24.696  1.00  0.00    -0.020 A 
ATOM     12  C   UNL A   1      37.534  19.907  24.596  1.00  0.00     0.047 C 
BRANCH   8  13
ATOM     13  C   UNL A   1      32.650  20.321  25.412  1.00  0.00     0.118 C 
ATOM     14  C   UNL A   1      32.447  18.826  25.243  1.00  0.00     0.027 C 
ENDBRANCH   8  13
BRANCH  10  15
ATOM     15  C   UNL A   1      33.720  23.135  25.701  1.00  0.00     0.155 C 
BRANCH  15  16
ATOM     16  C   UNL A   1      32.526  23.764  24.966  1.00  0.00     0.228 C 
ATOM     17  O   UNL A   1      31.413  23.446  25.424  1.00  0.00    -0.274 OA
ATOM     18  N   UNL A   1      32.575  24.552  23.831  1.00  0.00    -0.331 N 
ATOM     19  C   UNL A   1      31.345  24.661  23.030  1.00  0.00     0.181 C 
ATOM     20  C   UNL A   1      33.771  25.073  23.182  1.00  0.00     0.181 C 
ATOM     21  C   UNL A   1      31.218  25.987  22.257  1.00  0.00     0.283 C 
ATOM     22  C   UNL A   1      33.575  26.368  22.377  1.00  0.00     0.283 C 
ATOM     23  N   UNL A   1      32.408  26.377  21.480  1.00  0.00    -0.334 N 
ATOM     24  C   UNL A   1      32.614  25.527  20.308  1.00  0.00     0.332 C 
ATOM     25  H   UNL A   1      32.270  27.318  21.111  1.00  0.00     0.347 HD
ENDBRANCH  15  16
ENDBRANCH  10  15
ENDBRANCH   4   7
ENDBRANCH   2   3
ENDBRANCH   1   2
BRANCH   1  26
ATOM     26  C   UNL A   1      40.400  22.488  27.123  1.00  0.00     0.118 C 
BRANCH  26  27
ATOM     27  N   UNL A   1      41.619  22.403  26.322  1.00  0.00    -0.352 N 
ATOM     28  C   UNL A   1      42.359  23.455  25.787  1.00  0.00     0.251 C 
ATOM     29  H   UNL A   1      41.957  21.497  26.139  1.00  0.00     0.163 HD
ATOM     30  O   UNL A   1      43.157  23.269  24.889  1.00  0.00    -0.269 OA
BRANCH  28  31
ATOM     31  C   UNL A   1      42.138  24.812  26.337  1.00  0.00     0.039 A 
ATOM     32  C   UNL A   1      41.221  25.721  25.807  1.00  0.00     0.014 A 
ATOM     33  C   UNL A   1      42.857  25.145  27.473  1.00  0.00     0.014 A 
ATOM     34  C   UNL A   1      41.051  26.939  26.466  1.00  0.00     0.010 A 
ATOM     35  C   UNL A   1      42.389  26.109  28.301  1.00  0.00     0.010 A 
ATOM     36  C   UNL A   1      41.658  27.118  27.720  1.00  0.00    -0.014 A 
BRANCH  36  37
ATOM     37  C   UNL A   1      41.532  28.320  28.522  1.00  0.00     0.031 A 
ATOM     38  C   UNL A   1      42.610  29.294  28.271  1.00  0.00     0.074 A 
ATOM     39  C   UNL A   1      40.415  28.631  29.222  1.00  0.00     0.049 A 
ATOM     40  N   UNL A   1      43.608  29.559  29.039  1.00  0.00    -0.248 NA
ATOM     41  C   UNL A   1      42.702  29.894  26.930  1.00  0.00     0.031 C 
ATOM     42  C   UNL A   1      39.121  27.931  29.273  1.00  0.00     0.029 A 
ATOM     43  N   UNL A   1      40.174  29.729  29.985  1.00  0.00    -0.354 N 
ATOM     44  C   UNL A   1      44.319  30.555  28.385  1.00  0.00     0.074 A 
ATOM     45  C   UNL A   1      43.867  30.539  27.019  1.00  0.00     0.031 C 
ATOM     46  C   UNL A   1      38.185  28.735  29.829  1.00  0.00     0.029 A 
ATOM     47  C   UNL A   1      38.839  29.926  30.331  1.00  0.00     0.049 A 
ATOM     48  H   UNL A   1      40.891  30.341  30.272  1.00  0.00     0.167 HD
ATOM     49  C   UNL A   1      44.993  31.497  29.099  1.00  0.00     0.037 A 
ATOM     50  C   UNL A   1      38.330  31.016  30.961  1.00  0.00     0.037 A 
ATOM     51  C   UNL A   1      45.147  31.085  30.477  1.00  0.00     0.049 A 
ATOM     52  C   UNL A   1      39.471  31.717  31.608  1.00  0.00     0.074 A 
ATOM     53  C   UNL A   1      45.690  29.973  31.098  1.00  0.00     0.029 A 
ATOM     54  N   UNL A   1      44.323  31.662  31.415  1.00  0.00    -0.354 N 
ATOM     55  N   UNL A   1      40.141  31.228  32.616  1.00  0.00    -0.248 NA
ATOM     56  C   UNL A   1      40.176  32.712  30.813  1.00  0.00     0.031 C 
ATOM     57  C   UNL A   1      44.782  29.664  32.155  1.00  0.00     0.029 A 
ATOM     58  C   UNL A   1      43.797  30.651  32.180  1.00  0.00     0.049 A 
ATOM     59  H   UNL A   1      44.143  32.625  31.518  1.00  0.00     0.167 HD
ATOM     60  C   UNL A   1      41.468  31.506  32.324  1.00  0.00     0.074 A 
ATOM     61  C   UNL A   1      41.423  32.481  31.234  1.00  0.00     0.031 C 
ATOM     62  C   UNL A   1      42.477  30.699  32.770  1.00  0.00     0.037 A 
BRANCH  49  63
ATOM     63  C   UNL A   1      45.136  32.937  28.669  1.00  0.00     0.057 A 
ATOM     64  C   UNL A   1      46.418  33.513  28.666  1.00  0.00     0.134 A 
ATOM     65  C   UNL A   1      44.070  33.853  28.540  1.00  0.00     0.134 A 
ATOM     66  F   UNL A   1      47.515  32.751  28.789  1.00  0.00    -0.206 F 
ATOM     67  C   UNL A   1      46.618  34.898  28.628  1.00  0.00     0.040 A 
ATOM     68  C   UNL A   1      44.262  35.232  28.447  1.00  0.00     0.040 A 
ATOM     69  F   UNL A   1      42.786  33.487  28.599  1.00  0.00    -0.206 F 
ATOM     70  C   UNL A   1      45.538  35.763  28.527  1.00  0.00     0.006 A 
ENDBRANCH  49  63
BRANCH  50  71
ATOM     71  C   UNL A   1      37.010  31.668  30.788  1.00  0.00     0.057 A 
ATOM     72  C   UNL A   1      36.069  31.690  31.829  1.00  0.00     0.134 A 
ATOM     73  C   UNL A   1      36.755  32.535  29.711  1.00  0.00     0.134 A 
ATOM     74  F   UNL A   1      36.240  30.926  32.917  1.00  0.00    -0.206 F 
ATOM     75  C   UNL A   1      34.960  32.550  31.818  1.00  0.00     0.040 A 
ATOM     76  C   UNL A   1      35.651  33.395  29.685  1.00  0.00     0.040 A 
ATOM     77  F   UNL A   1      37.620  32.645  28.692  1.00  0.00    -0.206 F 
ATOM     78  C   UNL A   1      34.757  33.418  30.749  1.00  0.00     0.006 A 
ENDBRANCH  50  71
BRANCH  62  79
ATOM     79  C   UNL A   1      42.142  29.638  33.787  1.00  0.00     0.057 A 
ATOM     80  C   UNL A   1      41.770  28.320  33.475  1.00  0.00     0.134 A 
ATOM     81  C   UNL A   1      42.337  29.927  35.142  1.00  0.00     0.134 A 
ATOM     82  F   UNL A   1      41.659  27.910  32.205  1.00  0.00    -0.206 F 
ATOM     83  C   UNL A   1      41.551  27.356  34.466  1.00  0.00     0.040 A 
ATOM     84  C   UNL A   1      42.157  28.964  36.139  1.00  0.00     0.040 A 
ATOM     85  F   UNL A   1      42.749  31.148  35.520  1.00  0.00    -0.206 F 
ATOM     86  C   UNL A   1      41.749  27.677  35.804  1.00  0.00     0.006 A 
ENDBRANCH  62  79
ENDBRANCH  36  37
ENDBRANCH  28  31
ENDBRANCH  26  27
ENDBRANCH   1  26
TORSDOF 13
ENDMDL
