MODEL 1
REMARK VINA RESULT:     -13.2      0.000      0.000
REMARK SMILES Cc1ccc(C)c(N2C(=O)S[C@H](CC(=O)Nc3ccc(C(=O)NCCCNC(=O)c4ccc(-c5c6nc(c(-c7c(F)cccc7F)c7ccc([nH]7)c(-c7c(F)cccc7F)c7nc(c(-c8c(F)cccc8F)c8ccc5[nH]8)C=C7)C=C6)cc4)c(O)c3)C2=O)c1
REMARK SMILES IDX 24 1 23 2 21 3 22 4 20 6 17 7 18 8 86 9 19 10 84 11 16 12
REMARK SMILES IDX 14 13 15 14 13 16 12 17 8 18 9 19 87 20 10 21 11 22 88 23
REMARK SMILES IDX 7 24 1 25 2 26 3 27 89 28 4 29 5 30 6 31 85 32 25 34 26 35
REMARK SMILES IDX 27 36 28 37 29 39 30 40 31 41 83 42 32 43 82 44 33 45 34 46
REMARK SMILES IDX 35 47 76 48 36 49 81 50 75 51 77 52 37 53 80 54 74 55 73 56
REMARK SMILES IDX 38 58 64 59 47 60 63 61 48 62 51 63 62 64 78 65 49 66 50 67
REMARK SMILES IDX 61 69 79 70 52 71 39 72 40 73 45 74 41 75 42 76 44 77 46 78
REMARK SMILES IDX 43 79 65 80 66 81 71 82 67 83 68 84 70 85 72 86 69 87 53 88
REMARK SMILES IDX 54 89 59 90 55 91 56 92 58 93 60 94 57 95
REMARK H PARENT 23 5 16 15 85 33 27 38 77 57 51 68
REMARK Flexibility Score: inf
ROOT
ATOM      1  C   UNL A   1      32.804  29.842  26.226  1.00  0.00     0.118 C 
ENDROOT
BRANCH   1   2
ATOM      2  N   UNL A   1      33.276  29.687  24.866  1.00  0.00    -0.352 N 
ATOM      3  C   UNL A   1      32.889  28.791  23.896  1.00  0.00     0.255 C 
ATOM      4  O   UNL A   1      33.354  28.935  22.765  1.00  0.00    -0.269 OA
ATOM      5  H   UNL A   1      33.979  30.319  24.593  1.00  0.00     0.163 HD
BRANCH   3   6
ATOM      6  C   UNL A   1      32.043  27.600  24.193  1.00  0.00     0.081 A 
ATOM      7  C   UNL A   1      30.582  25.549  25.438  1.00  0.00     0.044 A 
ATOM      8  C   UNL A   1      31.967  25.502  25.368  1.00  0.00     0.027 A 
ATOM      9  C   UNL A   1      29.923  26.470  24.637  1.00  0.00     0.073 A 
ATOM     10  C   UNL A   1      32.703  26.544  24.818  1.00  0.00     0.020 A 
ATOM     11  C   UNL A   1      30.669  27.448  23.965  1.00  0.00     0.130 A 
BRANCH   7  12
ATOM     12  N   UNL A   1      29.875  24.640  26.240  1.00  0.00    -0.326 N 
ATOM     13  C   UNL A   1      30.314  23.425  26.722  1.00  0.00     0.226 C 
ATOM     14  O   UNL A   1      29.499  22.587  27.112  1.00  0.00    -0.275 OA
ATOM     15  H   UNL A   1      28.958  24.900  26.488  1.00  0.00     0.169 HD
BRANCH  13  16
ATOM     16  C   UNL A   1      31.806  23.224  26.968  1.00  0.00     0.125 C 
BRANCH  16  17
ATOM     17  C   UNL A   1      32.418  21.981  26.328  1.00  0.00     0.156 C 
ATOM     18  N   UNL A   1      34.679  22.467  25.689  1.00  0.00    -0.240 N 
ATOM     19  C   UNL A   1      34.058  22.735  24.503  1.00  0.00     0.293 C 
ATOM     20  C   UNL A   1      33.895  21.931  26.698  1.00  0.00     0.248 C 
ATOM     21  O   UNL A   1      34.484  23.364  23.536  1.00  0.00    -0.261 OA
ATOM     22  S   UNL A   1      32.456  22.021  24.510  1.00  0.00    -0.050 SA
ATOM     23  O   UNL A   1      34.291  21.489  27.772  1.00  0.00    -0.273 OA
BRANCH  18  24
ATOM     24  C   UNL A   1      36.090  22.471  25.773  1.00  0.00     0.056 A 
ATOM     25  C   UNL A   1      38.913  24.845  26.784  1.00  0.00     0.044 C 
ATOM     26  C   UNL A   1      38.161  23.629  26.325  1.00  0.00    -0.049 A 
ATOM     27  C   UNL A   1      38.879  22.486  25.957  1.00  0.00     0.004 A 
ATOM     28  C   UNL A   1      36.760  23.609  26.253  1.00  0.00     0.030 A 
ATOM     29  C   UNL A   1      38.217  21.358  25.476  1.00  0.00     0.006 A 
ATOM     30  C   UNL A   1      36.820  21.337  25.367  1.00  0.00    -0.027 A 
ATOM     31  C   UNL A   1      36.184  20.079  24.838  1.00  0.00     0.046 C 
ENDBRANCH  18  24
ENDBRANCH  16  17
ENDBRANCH  13  16
ENDBRANCH   7  12
BRANCH  11  32
ATOM     32  O   UNL A   1      29.978  28.183  23.040  1.00  0.00    -0.507 OA
ATOM     33  H   UNL A   1      29.194  27.840  22.661  1.00  0.00     0.293 HD
ENDBRANCH  11  32
ENDBRANCH   3   6
ENDBRANCH   1   2
BRANCH   1  34
ATOM     34  C   UNL A   1      33.570  29.080  27.285  1.00  0.00     0.042 C 
BRANCH  34  35
ATOM     35  C   UNL A   1      35.060  29.350  27.325  1.00  0.00     0.118 C 
BRANCH  35  36
ATOM     36  N   UNL A   1      35.533  30.196  28.422  1.00  0.00    -0.352 N 
ATOM     37  C   UNL A   1      36.797  30.168  29.001  1.00  0.00     0.251 C 
ATOM     38  H   UNL A   1      34.892  30.849  28.785  1.00  0.00     0.163 HD
ATOM     39  O   UNL A   1      37.139  30.976  29.854  1.00  0.00    -0.269 OA
BRANCH  37  40
ATOM     40  C   UNL A   1      37.748  29.170  28.474  1.00  0.00     0.039 A 
ATOM     41  C   UNL A   1      38.209  28.174  29.337  1.00  0.00     0.014 A 
ATOM     42  C   UNL A   1      38.434  29.485  27.308  1.00  0.00     0.014 A 
ATOM     43  C   UNL A   1      39.507  27.695  29.175  1.00  0.00     0.010 A 
ATOM     44  C   UNL A   1      39.747  29.073  27.205  1.00  0.00     0.010 A 
ATOM     45  C   UNL A   1      40.324  28.250  28.185  1.00  0.00    -0.014 A 
BRANCH  45  46
ATOM     46  C   UNL A   1      41.762  27.961  28.141  1.00  0.00     0.031 A 
ATOM     47  C   UNL A   1      42.163  26.719  27.435  1.00  0.00     0.074 A 
ATOM     48  C   UNL A   1      42.764  28.815  28.430  1.00  0.00     0.049 A 
ATOM     49  N   UNL A   1      42.316  25.536  27.932  1.00  0.00    -0.248 NA
ATOM     50  C   UNL A   1      42.229  26.775  25.966  1.00  0.00     0.031 C 
ATOM     51  C   UNL A   1      42.720  30.253  28.684  1.00  0.00     0.029 A 
ATOM     52  N   UNL A   1      44.102  28.531  28.466  1.00  0.00    -0.354 N 
ATOM     53  C   UNL A   1      42.646  24.732  26.847  1.00  0.00     0.074 A 
ATOM     54  C   UNL A   1      42.245  25.473  25.684  1.00  0.00     0.031 C 
ATOM     55  C   UNL A   1      43.986  30.740  28.705  1.00  0.00     0.029 A 
ATOM     56  C   UNL A   1      44.929  29.635  28.583  1.00  0.00     0.049 A 
ATOM     57  H   UNL A   1      44.449  27.611  28.413  1.00  0.00     0.167 HD
ATOM     58  C   UNL A   1      43.478  23.657  26.950  1.00  0.00     0.037 A 
ATOM     59  C   UNL A   1      46.285  29.624  28.551  1.00  0.00     0.037 A 
ATOM     60  C   UNL A   1      43.811  23.397  28.333  1.00  0.00     0.049 A 
ATOM     61  C   UNL A   1      46.739  28.230  28.789  1.00  0.00     0.074 A 
ATOM     62  C   UNL A   1      43.123  23.077  29.486  1.00  0.00     0.029 A 
ATOM     63  N   UNL A   1      45.063  23.788  28.744  1.00  0.00    -0.354 N 
ATOM     64  N   UNL A   1      46.664  27.615  29.935  1.00  0.00    -0.248 NA
ATOM     65  C   UNL A   1      47.004  27.370  27.644  1.00  0.00     0.031 C 
ATOM     66  C   UNL A   1      43.852  23.691  30.550  1.00  0.00     0.029 A 
ATOM     67  C   UNL A   1      44.949  24.346  29.990  1.00  0.00     0.049 A 
ATOM     68  H   UNL A   1      45.897  23.686  28.233  1.00  0.00     0.167 HD
ATOM     69  C   UNL A   1      46.460  26.282  29.613  1.00  0.00     0.074 A 
ATOM     70  C   UNL A   1      46.831  26.173  28.209  1.00  0.00     0.031 C 
ATOM     71  C   UNL A   1      45.737  25.471  30.438  1.00  0.00     0.037 A 
BRANCH  58  72
ATOM     72  C   UNL A   1      44.310  23.067  25.819  1.00  0.00     0.057 A 
ATOM     73  C   UNL A   1      44.243  21.677  25.592  1.00  0.00     0.134 A 
ATOM     74  C   UNL A   1      45.332  23.720  25.100  1.00  0.00     0.134 A 
ATOM     75  F   UNL A   1      43.311  20.923  26.195  1.00  0.00    -0.206 F 
ATOM     76  C   UNL A   1      45.170  20.989  24.799  1.00  0.00     0.040 A 
ATOM     77  C   UNL A   1      46.227  23.051  24.257  1.00  0.00     0.040 A 
ATOM     78  F   UNL A   1      45.604  25.022  25.223  1.00  0.00    -0.206 F 
ATOM     79  C   UNL A   1      46.174  21.675  24.134  1.00  0.00     0.006 A 
ENDBRANCH  58  72
BRANCH  59  80
ATOM     80  C   UNL A   1      47.250  30.694  28.217  1.00  0.00     0.057 A 
ATOM     81  C   UNL A   1      47.206  31.360  26.981  1.00  0.00     0.134 A 
ATOM     82  C   UNL A   1      48.092  31.259  29.189  1.00  0.00     0.134 A 
ATOM     83  F   UNL A   1      46.403  30.924  25.998  1.00  0.00    -0.206 F 
ATOM     84  C   UNL A   1      47.939  32.526  26.732  1.00  0.00     0.040 A 
ATOM     85  C   UNL A   1      48.848  32.408  28.943  1.00  0.00     0.040 A 
ATOM     86  F   UNL A   1      48.137  30.765  30.435  1.00  0.00    -0.206 F 
ATOM     87  C   UNL A   1      48.761  33.058  27.718  1.00  0.00     0.006 A 
ENDBRANCH  59  80
BRANCH  71  88
ATOM     88  C   UNL A   1      45.522  25.951  31.843  1.00  0.00     0.057 A 
ATOM     89  C   UNL A   1      46.444  25.758  32.882  1.00  0.00     0.134 A 
ATOM     90  C   UNL A   1      44.384  26.710  32.135  1.00  0.00     0.134 A 
ATOM     91  F   UNL A   1      47.607  25.129  32.665  1.00  0.00    -0.206 F 
ATOM     92  C   UNL A   1      46.213  26.246  34.170  1.00  0.00     0.040 A 
ATOM     93  C   UNL A   1      44.158  27.234  33.410  1.00  0.00     0.040 A 
ATOM     94  F   UNL A   1      43.485  26.979  31.174  1.00  0.00    -0.206 F 
ATOM     95  C   UNL A   1      45.067  26.990  34.436  1.00  0.00     0.006 A 
ENDBRANCH  71  88
ENDBRANCH  45  46
ENDBRANCH  37  40
ENDBRANCH  35  36
ENDBRANCH  34  35
ENDBRANCH   1  34
TORSDOF 15
ENDMDL
MODEL 2
REMARK VINA RESULT:     -13.0      2.545      7.696
REMARK SMILES Cc1ccc(C)c(N2C(=O)S[C@H](CC(=O)Nc3ccc(C(=O)NCCCNC(=O)c4ccc(-c5c6nc(c(-c7c(F)cccc7F)c7ccc([nH]7)c(-c7c(F)cccc7F)c7nc(c(-c8c(F)cccc8F)c8ccc5[nH]8)C=C7)C=C6)cc4)c(O)c3)C2=O)c1
REMARK SMILES IDX 24 1 23 2 21 3 22 4 20 6 17 7 18 8 86 9 19 10 84 11 16 12
REMARK SMILES IDX 14 13 15 14 13 16 12 17 8 18 9 19 87 20 10 21 11 22 88 23
REMARK SMILES IDX 7 24 1 25 2 26 3 27 89 28 4 29 5 30 6 31 85 32 25 34 26 35
REMARK SMILES IDX 27 36 28 37 29 39 30 40 31 41 83 42 32 43 82 44 33 45 34 46
REMARK SMILES IDX 35 47 76 48 36 49 81 50 75 51 77 52 37 53 80 54 74 55 73 56
REMARK SMILES IDX 38 58 64 59 47 60 63 61 48 62 51 63 62 64 78 65 49 66 50 67
REMARK SMILES IDX 61 69 79 70 52 71 39 72 40 73 45 74 41 75 42 76 44 77 46 78
REMARK SMILES IDX 43 79 65 80 66 81 71 82 67 83 68 84 70 85 72 86 69 87 53 88
REMARK SMILES IDX 54 89 59 90 55 91 56 92 58 93 60 94 57 95
REMARK H PARENT 23 5 16 15 85 33 27 38 77 57 51 68
REMARK Flexibility Score: inf
ROOT
ATOM      1  C   UNL A   1      40.285  20.002  26.043  1.00  0.00     0.118 C 
ENDROOT
BRANCH   1   2
ATOM      2  N   UNL A   1      40.061  21.411  26.293  1.00  0.00    -0.352 N 
ATOM      3  C   UNL A   1      38.923  22.165  26.126  1.00  0.00     0.255 C 
ATOM      4  O   UNL A   1      38.943  23.329  26.526  1.00  0.00    -0.269 OA
ATOM      5  H   UNL A   1      40.841  21.904  26.637  1.00  0.00     0.163 HD
BRANCH   3   6
ATOM      6  C   UNL A   1      37.733  21.670  25.376  1.00  0.00     0.081 A 
ATOM      7  C   UNL A   1      35.266  20.557  24.626  1.00  0.00     0.044 A 
ATOM      8  C   UNL A   1      36.342  19.751  24.967  1.00  0.00     0.027 A 
ATOM      9  C   UNL A   1      35.512  21.900  24.385  1.00  0.00     0.073 A 
ATOM     10  C   UNL A   1      37.544  20.290  25.406  1.00  0.00     0.020 A 
ATOM     11  C   UNL A   1      36.772  22.431  24.698  1.00  0.00     0.130 A 
BRANCH   7  12
ATOM     12  N   UNL A   1      33.985  20.008  24.461  1.00  0.00    -0.326 N 
ATOM     13  C   UNL A   1      32.792  20.489  24.960  1.00  0.00     0.226 C 
ATOM     14  O   UNL A   1      31.813  19.744  25.036  1.00  0.00    -0.275 OA
ATOM     15  H   UNL A   1      33.931  19.182  23.927  1.00  0.00     0.169 HD
BRANCH  13  16
ATOM     16  C   UNL A   1      32.645  21.987  25.204  1.00  0.00     0.125 C 
BRANCH  16  17
ATOM     17  C   UNL A   1      31.211  22.501  25.306  1.00  0.00     0.156 C 
ATOM     18  N   UNL A   1      31.195  24.858  24.859  1.00  0.00    -0.240 N 
ATOM     19  C   UNL A   1      31.274  24.898  26.221  1.00  0.00     0.293 C 
ATOM     20  C   UNL A   1      31.028  23.611  24.278  1.00  0.00     0.248 C 
ATOM     21  O   UNL A   1      31.594  25.838  26.946  1.00  0.00    -0.261 OA
ATOM     22  S   UNL A   1      30.828  23.333  26.877  1.00  0.00    -0.050 SA
ATOM     23  O   UNL A   1      30.790  23.382  23.097  1.00  0.00    -0.273 OA
BRANCH  18  24
ATOM     24  C   UNL A   1      31.008  26.047  24.119  1.00  0.00     0.056 A 
ATOM     25  C   UNL A   1      28.170  28.411  23.125  1.00  0.00     0.044 C 
ATOM     26  C   UNL A   1      29.530  27.796  23.284  1.00  0.00    -0.049 A 
ATOM     27  C   UNL A   1      30.628  28.407  22.669  1.00  0.00     0.004 A 
ATOM     28  C   UNL A   1      29.730  26.624  24.030  1.00  0.00     0.030 A 
ATOM     29  C   UNL A   1      31.896  27.834  22.751  1.00  0.00     0.006 A 
ATOM     30  C   UNL A   1      32.103  26.646  23.464  1.00  0.00    -0.027 A 
ATOM     31  C   UNL A   1      33.503  26.094  23.503  1.00  0.00     0.046 C 
ENDBRANCH  18  24
ENDBRANCH  16  17
ENDBRANCH  13  16
ENDBRANCH   7  12
BRANCH  11  32
ATOM     32  O   UNL A   1      37.005  23.700  24.243  1.00  0.00    -0.507 OA
ATOM     33  H   UNL A   1      37.681  23.855  23.615  1.00  0.00     0.293 HD
ENDBRANCH  11  32
ENDBRANCH   3   6
ENDBRANCH   1   2
BRANCH   1  34
ATOM     34  C   UNL A   1      41.640  19.464  26.448  1.00  0.00     0.042 C 
BRANCH  34  35
ATOM     35  C   UNL A   1      42.826  20.129  25.780  1.00  0.00     0.118 C 
BRANCH  35  36
ATOM     36  N   UNL A   1      43.530  19.333  24.774  1.00  0.00    -0.352 N 
ATOM     37  C   UNL A   1      44.637  19.730  24.032  1.00  0.00     0.251 C 
ATOM     38  H   UNL A   1      43.185  18.426  24.606  1.00  0.00     0.163 HD
ATOM     39  O   UNL A   1      45.221  18.965  23.277  1.00  0.00    -0.269 OA
BRANCH  37  40
ATOM     40  C   UNL A   1      45.137  21.099  24.266  1.00  0.00     0.039 A 
ATOM     41  C   UNL A   1      45.955  21.325  25.375  1.00  0.00     0.014 A 
ATOM     42  C   UNL A   1      44.473  22.144  23.637  1.00  0.00     0.014 A 
ATOM     43  C   UNL A   1      45.878  22.555  26.024  1.00  0.00     0.010 A 
ATOM     44  C   UNL A   1      44.335  23.328  24.333  1.00  0.00     0.010 A 
ATOM     45  C   UNL A   1      44.961  23.511  25.577  1.00  0.00    -0.014 A 
BRANCH  45  46
ATOM     46  C   UNL A   1      44.668  24.709  26.372  1.00  0.00     0.031 A 
ATOM     47  C   UNL A   1      45.686  25.786  26.341  1.00  0.00     0.074 A 
ATOM     48  C   UNL A   1      43.477  25.049  26.906  1.00  0.00     0.049 A 
ATOM     49  N   UNL A   1      46.691  25.955  27.136  1.00  0.00    -0.248 NA
ATOM     50  C   UNL A   1      45.679  26.681  25.172  1.00  0.00     0.031 C 
ATOM     51  C   UNL A   1      42.160  24.449  26.708  1.00  0.00     0.029 A 
ATOM     52  N   UNL A   1      43.215  26.123  27.712  1.00  0.00    -0.354 N 
ATOM     53  C   UNL A   1      47.354  27.073  26.644  1.00  0.00     0.074 A 
ATOM     54  C   UNL A   1      46.884  27.236  25.296  1.00  0.00     0.031 C 
ATOM     55  C   UNL A   1      41.217  25.253  27.260  1.00  0.00     0.029 A 
ATOM     56  C   UNL A   1      41.871  26.359  27.948  1.00  0.00     0.049 A 
ATOM     57  H   UNL A   1      43.927  26.684  28.095  1.00  0.00     0.167 HD
ATOM     58  C   UNL A   1      48.012  27.955  27.448  1.00  0.00     0.037 A 
ATOM     59  C   UNL A   1      41.354  27.407  28.637  1.00  0.00     0.037 A 
ATOM     60  C   UNL A   1      48.056  27.472  28.811  1.00  0.00     0.049 A 
ATOM     61  C   UNL A   1      42.447  28.016  29.437  1.00  0.00     0.074 A 
ATOM     62  C   UNL A   1      48.563  26.369  29.467  1.00  0.00     0.029 A 
ATOM     63  N   UNL A   1      47.188  28.064  29.697  1.00  0.00    -0.354 N 
ATOM     64  N   UNL A   1      42.987  27.467  30.487  1.00  0.00    -0.248 NA
ATOM     65  C   UNL A   1      43.189  29.137  28.878  1.00  0.00     0.031 C 
ATOM     66  C   UNL A   1      47.663  26.119  30.548  1.00  0.00     0.029 A 
ATOM     67  C   UNL A   1      46.660  27.087  30.497  1.00  0.00     0.049 A 
ATOM     68  H   UNL A   1      46.981  29.025  29.748  1.00  0.00     0.167 HD
ATOM     69  C   UNL A   1      44.307  27.888  30.473  1.00  0.00     0.074 A 
ATOM     70  C   UNL A   1      44.331  29.023  29.561  1.00  0.00     0.031 C 
ATOM     71  C   UNL A   1      45.296  27.094  30.976  1.00  0.00     0.037 A 
BRANCH  58  72
ATOM     72  C   UNL A   1      48.284  29.418  27.126  1.00  0.00     0.057 A 
ATOM     73  C   UNL A   1      49.608  29.893  27.229  1.00  0.00     0.134 A 
ATOM     74  C   UNL A   1      47.320  30.433  26.951  1.00  0.00     0.134 A 
ATOM     75  F   UNL A   1      50.636  29.044  27.383  1.00  0.00    -0.206 F 
ATOM     76  C   UNL A   1      49.929  31.256  27.254  1.00  0.00     0.040 A 
ATOM     77  C   UNL A   1      47.637  31.796  26.914  1.00  0.00     0.040 A 
ATOM     78  F   UNL A   1      46.006  30.199  26.897  1.00  0.00    -0.206 F 
ATOM     79  C   UNL A   1      48.940  32.215  27.105  1.00  0.00     0.006 A 
ENDBRANCH  58  72
BRANCH  59  80
ATOM     80  C   UNL A   1      40.009  28.021  28.591  1.00  0.00     0.057 A 
ATOM     81  C   UNL A   1      39.139  27.961  29.692  1.00  0.00     0.134 A 
ATOM     82  C   UNL A   1      39.629  28.889  27.555  1.00  0.00     0.134 A 
ATOM     83  F   UNL A   1      39.430  27.192  30.752  1.00  0.00    -0.206 F 
ATOM     84  C   UNL A   1      37.972  28.731  29.767  1.00  0.00     0.040 A 
ATOM     85  C   UNL A   1      38.453  29.643  27.607  1.00  0.00     0.040 A 
ATOM     86  F   UNL A   1      40.431  29.101  26.501  1.00  0.00    -0.206 F 
ATOM     87  C   UNL A   1      37.628  29.582  28.723  1.00  0.00     0.006 A 
ENDBRANCH  59  80
BRANCH  71  88
ATOM     88  C   UNL A   1      44.872  25.968  31.873  1.00  0.00     0.057 A 
ATOM     89  C   UNL A   1      44.528  24.690  31.410  1.00  0.00     0.134 A 
ATOM     90  C   UNL A   1      44.896  26.158  33.258  1.00  0.00     0.134 A 
ATOM     91  F   UNL A   1      44.576  24.392  30.104  1.00  0.00    -0.206 F 
ATOM     92  C   UNL A   1      44.164  23.664  32.285  1.00  0.00     0.040 A 
ATOM     93  C   UNL A   1      44.569  25.131  34.147  1.00  0.00     0.040 A 
ATOM     94  F   UNL A   1      45.267  27.342  33.773  1.00  0.00    -0.206 F 
ATOM     95  C   UNL A   1      44.187  23.883  33.660  1.00  0.00     0.006 A 
ENDBRANCH  71  88
ENDBRANCH  45  46
ENDBRANCH  37  40
ENDBRANCH  35  36
ENDBRANCH  34  35
ENDBRANCH   1  34
TORSDOF 15
ENDMDL
MODEL 3
REMARK VINA RESULT:     -13.0      2.488      7.693
REMARK SMILES Cc1ccc(C)c(N2C(=O)S[C@H](CC(=O)Nc3ccc(C(=O)NCCCNC(=O)c4ccc(-c5c6nc(c(-c7c(F)cccc7F)c7ccc([nH]7)c(-c7c(F)cccc7F)c7nc(c(-c8c(F)cccc8F)c8ccc5[nH]8)C=C7)C=C6)cc4)c(O)c3)C2=O)c1
REMARK SMILES IDX 24 1 23 2 21 3 22 4 20 6 17 7 18 8 86 9 19 10 84 11 16 12
REMARK SMILES IDX 14 13 15 14 13 16 12 17 8 18 9 19 87 20 10 21 11 22 88 23
REMARK SMILES IDX 7 24 1 25 2 26 3 27 89 28 4 29 5 30 6 31 85 32 25 34 26 35
REMARK SMILES IDX 27 36 28 37 29 39 30 40 31 41 83 42 32 43 82 44 33 45 34 46
REMARK SMILES IDX 35 47 76 48 36 49 81 50 75 51 77 52 37 53 80 54 74 55 73 56
REMARK SMILES IDX 38 58 64 59 47 60 63 61 48 62 51 63 62 64 78 65 49 66 50 67
REMARK SMILES IDX 61 69 79 70 52 71 39 72 40 73 45 74 41 75 42 76 44 77 46 78
REMARK SMILES IDX 43 79 65 80 66 81 71 82 67 83 68 84 70 85 72 86 69 87 53 88
REMARK SMILES IDX 54 89 59 90 55 91 56 92 58 93 60 94 57 95
REMARK H PARENT 23 5 16 15 85 33 27 38 77 57 51 68
REMARK Flexibility Score: inf
ROOT
ATOM      1  C   UNL A   1      39.081  21.807  26.282  1.00  0.00     0.118 C 
ENDROOT
BRANCH   1   2
ATOM      2  N   UNL A   1      38.531  22.225  25.009  1.00  0.00    -0.352 N 
ATOM      3  C   UNL A   1      37.231  22.514  24.663  1.00  0.00     0.255 C 
ATOM      4  O   UNL A   1      37.026  22.971  23.539  1.00  0.00    -0.269 OA
ATOM      5  H   UNL A   1      39.186  22.318  24.280  1.00  0.00     0.163 HD
BRANCH   3   6
ATOM      6  C   UNL A   1      36.072  22.180  25.540  1.00  0.00     0.081 A 
ATOM      7  C   UNL A   1      33.565  22.065  26.801  1.00  0.00     0.044 A 
ATOM      8  C   UNL A   1      34.460  23.090  27.077  1.00  0.00     0.027 A 
ATOM      9  C   UNL A   1      34.040  20.955  26.119  1.00  0.00     0.073 A 
ATOM     10  C   UNL A   1      35.673  23.195  26.408  1.00  0.00     0.020 A 
ATOM     11  C   UNL A   1      35.321  20.998  25.553  1.00  0.00     0.130 A 
BRANCH   7  12
ATOM     12  N   UNL A   1      32.242  22.128  27.266  1.00  0.00    -0.326 N 
ATOM     13  C   UNL A   1      31.239  22.974  26.840  1.00  0.00     0.226 C 
ATOM     14  O   UNL A   1      30.250  23.161  27.551  1.00  0.00    -0.275 OA
ATOM     15  H   UNL A   1      32.002  21.493  27.980  1.00  0.00     0.169 HD
BRANCH  13  16
ATOM     16  C   UNL A   1      31.270  23.491  25.406  1.00  0.00     0.125 C 
BRANCH  16  17
ATOM     17  C   UNL A   1      32.234  24.645  25.142  1.00  0.00     0.156 C 
ATOM     18  N   UNL A   1      31.142  26.269  23.753  1.00  0.00    -0.240 N 
ATOM     19  C   UNL A   1      31.782  25.551  22.784  1.00  0.00     0.293 C 
ATOM     20  C   UNL A   1      31.425  25.935  25.068  1.00  0.00     0.248 C 
ATOM     21  O   UNL A   1      31.571  25.536  21.573  1.00  0.00    -0.261 OA
ATOM     22  S   UNL A   1      33.045  24.580  23.516  1.00  0.00    -0.050 SA
ATOM     23  O   UNL A   1      31.073  26.549  26.069  1.00  0.00    -0.273 OA
BRANCH  18  24
ATOM     24  C   UNL A   1      30.459  27.462  23.426  1.00  0.00     0.056 A 
ATOM     25  C   UNL A   1      26.866  28.735  23.106  1.00  0.00     0.044 C 
ATOM     26  C   UNL A   1      28.367  28.674  23.125  1.00  0.00    -0.049 A 
ATOM     27  C   UNL A   1      29.097  29.820  22.793  1.00  0.00     0.004 A 
ATOM     28  C   UNL A   1      29.055  27.499  23.465  1.00  0.00     0.030 A 
ATOM     29  C   UNL A   1      30.490  29.784  22.749  1.00  0.00     0.006 A 
ATOM     30  C   UNL A   1      31.189  28.607  23.052  1.00  0.00    -0.027 A 
ATOM     31  C   UNL A   1      32.691  28.655  22.980  1.00  0.00     0.046 C 
ENDBRANCH  18  24
ENDBRANCH  16  17
ENDBRANCH  13  16
ENDBRANCH   7  12
BRANCH  11  32
ATOM     32  O   UNL A   1      35.796  19.805  25.081  1.00  0.00    -0.507 OA
ATOM     33  H   UNL A   1      36.223  19.208  25.663  1.00  0.00     0.293 HD
ENDBRANCH  11  32
ENDBRANCH   3   6
ENDBRANCH   1   2
BRANCH   1  34
ATOM     34  C   UNL A   1      40.033  20.632  26.239  1.00  0.00     0.042 C 
BRANCH  34  35
ATOM     35  C   UNL A   1      41.501  20.983  26.365  1.00  0.00     0.118 C 
BRANCH  35  36
ATOM     36  N   UNL A   1      42.443  20.048  25.749  1.00  0.00    -0.352 N 
ATOM     37  C   UNL A   1      43.713  20.350  25.270  1.00  0.00     0.251 C 
ATOM     38  H   UNL A   1      42.147  19.112  25.664  1.00  0.00     0.163 HD
ATOM     39  O   UNL A   1      44.472  19.486  24.853  1.00  0.00    -0.269 OA
BRANCH  37  40
ATOM     40  C   UNL A   1      44.144  21.758  25.372  1.00  0.00     0.039 A 
ATOM     41  C   UNL A   1      44.963  22.123  26.444  1.00  0.00     0.014 A 
ATOM     42  C   UNL A   1      43.420  22.707  24.665  1.00  0.00     0.014 A 
ATOM     43  C   UNL A   1      44.830  23.401  26.982  1.00  0.00     0.010 A 
ATOM     44  C   UNL A   1      43.230  23.941  25.255  1.00  0.00     0.010 A 
ATOM     45  C   UNL A   1      43.860  24.265  26.467  1.00  0.00    -0.014 A 
BRANCH  45  46
ATOM     46  C   UNL A   1      43.515  25.513  27.157  1.00  0.00     0.031 A 
ATOM     47  C   UNL A   1      44.388  26.681  26.884  1.00  0.00     0.074 A 
ATOM     48  C   UNL A   1      42.358  25.789  27.793  1.00  0.00     0.049 A 
ATOM     49  N   UNL A   1      45.446  27.050  27.527  1.00  0.00    -0.248 NA
ATOM     50  C   UNL A   1      44.146  27.420  25.634  1.00  0.00     0.031 C 
ATOM     51  C   UNL A   1      41.108  25.032  27.824  1.00  0.00     0.029 A 
ATOM     52  N   UNL A   1      42.059  26.919  28.503  1.00  0.00    -0.354 N 
ATOM     53  C   UNL A   1      45.913  28.165  26.839  1.00  0.00     0.074 A 
ATOM     54  C   UNL A   1      45.282  28.111  25.549  1.00  0.00     0.031 C 
ATOM     55  C   UNL A   1      40.142  25.794  28.397  1.00  0.00     0.029 A 
ATOM     56  C   UNL A   1      40.731  27.038  28.875  1.00  0.00     0.049 A 
ATOM     57  H   UNL A   1      42.737  27.594  28.733  1.00  0.00     0.167 HD
ATOM     58  C   UNL A   1      46.546  29.203  27.456  1.00  0.00     0.037 A 
ATOM     59  C   UNL A   1      40.170  28.102  29.504  1.00  0.00     0.037 A 
ATOM     60  C   UNL A   1      46.795  28.897  28.847  1.00  0.00     0.049 A 
ATOM     61  C   UNL A   1      41.264  28.916  30.093  1.00  0.00     0.074 A 
ATOM     62  C   UNL A   1      47.499  27.942  29.552  1.00  0.00     0.029 A 
ATOM     63  N   UNL A   1      45.965  29.497  29.763  1.00  0.00    -0.354 N 
ATOM     64  N   UNL A   1      41.978  28.559  31.122  1.00  0.00    -0.248 NA
ATOM     65  C   UNL A   1      41.801  30.033  29.328  1.00  0.00     0.031 C 
ATOM     66  C   UNL A   1      46.760  27.732  30.756  1.00  0.00     0.029 A 
ATOM     67  C   UNL A   1      45.648  28.574  30.724  1.00  0.00     0.049 A 
ATOM     68  H   UNL A   1      45.652  30.430  29.734  1.00  0.00     0.167 HD
ATOM     69  C   UNL A   1      43.229  29.113  30.901  1.00  0.00     0.074 A 
ATOM     70  C   UNL A   1      43.016  30.125  29.875  1.00  0.00     0.031 C 
ATOM     71  C   UNL A   1      44.354  28.495  31.362  1.00  0.00     0.037 A 
BRANCH  58  72
ATOM     72  C   UNL A   1      46.605  30.636  26.946  1.00  0.00     0.057 A 
ATOM     73  C   UNL A   1      47.852  31.293  26.935  1.00  0.00     0.134 A 
ATOM     74  C   UNL A   1      45.504  31.481  26.687  1.00  0.00     0.134 A 
ATOM     75  F   UNL A   1      48.990  30.617  27.150  1.00  0.00    -0.206 F 
ATOM     76  C   UNL A   1      47.981  32.680  26.779  1.00  0.00     0.040 A 
ATOM     77  C   UNL A   1      45.628  32.858  26.469  1.00  0.00     0.040 A 
ATOM     78  F   UNL A   1      44.235  31.067  26.715  1.00  0.00    -0.206 F 
ATOM     79  C   UNL A   1      46.865  33.470  26.554  1.00  0.00     0.006 A 
ENDBRANCH  58  72
BRANCH  59  80
ATOM     80  C   UNL A   1      38.765  28.560  29.556  1.00  0.00     0.057 A 
ATOM     81  C   UNL A   1      38.054  28.601  30.767  1.00  0.00     0.134 A 
ATOM     82  C   UNL A   1      38.155  29.196  28.464  1.00  0.00     0.134 A 
ATOM     83  F   UNL A   1      38.567  28.057  31.880  1.00  0.00    -0.206 F 
ATOM     84  C   UNL A   1      36.819  29.250  30.888  1.00  0.00     0.040 A 
ATOM     85  C   UNL A   1      36.911  29.825  28.567  1.00  0.00     0.040 A 
ATOM     86  F   UNL A   1      38.787  29.306  27.286  1.00  0.00    -0.206 F 
ATOM     87  C   UNL A   1      36.246  29.872  29.786  1.00  0.00     0.006 A 
ENDBRANCH  59  80
BRANCH  71  88
ATOM     88  C   UNL A   1      44.168  27.449  32.421  1.00  0.00     0.057 A 
ATOM     89  C   UNL A   1      44.054  26.077  32.151  1.00  0.00     0.134 A 
ATOM     90  C   UNL A   1      44.193  27.832  33.766  1.00  0.00     0.134 A 
ATOM     91  F   UNL A   1      44.121  25.613  30.895  1.00  0.00    -0.206 F 
ATOM     92  C   UNL A   1      43.908  25.136  33.172  1.00  0.00     0.040 A 
ATOM     93  C   UNL A   1      44.084  26.898  34.799  1.00  0.00     0.040 A 
ATOM     94  F   UNL A   1      44.354  29.123  34.099  1.00  0.00    -0.206 F 
ATOM     95  C   UNL A   1      43.926  25.546  34.502  1.00  0.00     0.006 A 
ENDBRANCH  71  88
ENDBRANCH  45  46
ENDBRANCH  37  40
ENDBRANCH  35  36
ENDBRANCH  34  35
ENDBRANCH   1  34
TORSDOF 15
ENDMDL
