MODEL 1
REMARK VINA RESULT:     -11.0      0.000      0.000
REMARK SMILES Cc1noc(C[N@@H+]2CCC[C@H]2C(=O)NCCCNC(=O)c2ccc(-c3c4nc(c(-c5c(F)cccc5F)c5ccc([nH]5)c(-c5c(F)cccc5F)c5nc(c(-c6c(F)cccc6F)c6ccc3[nH]6)C=C5)C=C4)cc2)n1
REMARK SMILES IDX 16 1 15 2 14 3 12 4 13 5 11 7 7 8 8 9 9 11 10 12 6 13 5 14
REMARK SMILES IDX 1 15 2 16 3 17 75 18 4 19 17 20 18 21 19 22 20 24 21 25
REMARK SMILES IDX 22 26 74 27 23 28 73 29 24 30 25 31 26 32 67 33 27 34 72 35
REMARK SMILES IDX 66 36 68 37 28 38 71 39 65 40 64 41 29 43 55 44 38 45 54 46
REMARK SMILES IDX 39 47 42 48 53 49 69 50 40 51 41 52 52 54 70 55 43 56 30 57
REMARK SMILES IDX 31 58 36 59 32 60 33 61 35 62 37 63 34 64 56 65 57 66 62 67
REMARK SMILES IDX 58 68 59 69 61 70 63 71 60 72 44 73 45 74 50 75 46 76 47 77
REMARK SMILES IDX 49 78 51 79 48 80
REMARK H PARENT 14 6 7 10 18 23 68 42 42 53
REMARK Flexibility Score: inf
ROOT
ATOM      1  C   UNL A   1      34.858  33.631  28.317  1.00  0.00     0.042 C 
ENDROOT
BRANCH   1   2
ATOM      2  C   UNL A   1      33.478  34.256  28.133  1.00  0.00     0.118 C 
BRANCH   2   3
ATOM      3  N   UNL A   1      33.489  35.679  28.406  1.00  0.00    -0.351 N 
ATOM      4  C   UNL A   1      33.302  36.342  29.588  1.00  0.00     0.278 C 
ATOM      5  O   UNL A   1      33.320  37.574  29.562  1.00  0.00    -0.268 OA
ATOM      6  H   UNL A   1      33.655  36.255  27.625  1.00  0.00     0.163 HD
BRANCH   4   7
ATOM      7  C   UNL A   1      33.124  35.528  30.890  1.00  0.00     0.274 C 
ATOM      8  N   UNL A   1      34.377  35.657  31.671  1.00  0.00    -0.317 N 
ATOM      9  C   UNL A   1      34.139  36.702  32.673  1.00  0.00     0.263 C 
ATOM     10  H   UNL A   1      35.140  35.926  31.049  1.00  0.00     0.349 HD
ATOM     11  C   UNL A   1      32.654  36.692  32.982  1.00  0.00     0.068 C 
ATOM     12  C   UNL A   1      31.994  36.098  31.751  1.00  0.00     0.081 C 
BRANCH   8  13
ATOM     13  C   UNL A   1      34.894  34.393  32.228  1.00  0.00     0.364 C 
BRANCH  13  14
ATOM     14  C   UNL A   1      36.363  34.336  32.458  1.00  0.00     0.281 A 
ATOM     15  C   UNL A   1      39.765  34.439  31.670  1.00  0.00     0.093 C 
ATOM     16  C   UNL A   1      38.440  34.404  32.311  1.00  0.00     0.169 A 
ATOM     17  N   UNL A   1      38.210  34.883  33.540  1.00  0.00    -0.063 NA
ATOM     18  N   UNL A   1      37.326  34.000  31.629  1.00  0.00    -0.191 NA
ATOM     19  O   UNL A   1      36.818  34.832  33.645  1.00  0.00    -0.333 OA
ENDBRANCH  13  14
ENDBRANCH   8  13
ENDBRANCH   4   7
ENDBRANCH   2   3
ENDBRANCH   1   2
BRANCH   1  20
ATOM     20  C   UNL A   1      34.871  32.414  29.238  1.00  0.00     0.118 C 
BRANCH  20  21
ATOM     21  N   UNL A   1      34.265  31.236  28.630  1.00  0.00    -0.352 N 
ATOM     22  C   UNL A   1      34.838  30.077  28.172  1.00  0.00     0.251 C 
ATOM     23  H   UNL A   1      33.286  31.280  28.532  1.00  0.00     0.163 HD
ATOM     24  O   UNL A   1      34.155  29.273  27.537  1.00  0.00    -0.269 OA
BRANCH  22  25
ATOM     25  C   UNL A   1      36.268  29.793  28.412  1.00  0.00     0.039 A 
ATOM     26  C   UNL A   1      36.653  29.281  29.656  1.00  0.00     0.014 A 
ATOM     27  C   UNL A   1      37.234  30.052  27.437  1.00  0.00     0.014 A 
ATOM     28  C   UNL A   1      37.993  28.964  29.893  1.00  0.00     0.010 A 
ATOM     29  C   UNL A   1      38.555  29.663  27.647  1.00  0.00     0.010 A 
ATOM     30  C   UNL A   1      38.949  29.116  28.877  1.00  0.00    -0.014 A 
BRANCH  30  31
ATOM     31  C   UNL A   1      40.365  28.709  29.077  1.00  0.00     0.031 A 
ATOM     32  C   UNL A   1      41.354  29.675  29.668  1.00  0.00     0.074 A 
ATOM     33  C   UNL A   1      40.776  27.494  28.664  1.00  0.00     0.049 A 
ATOM     34  N   UNL A   1      42.646  29.540  29.834  1.00  0.00    -0.248 NA
ATOM     35  C   UNL A   1      40.827  30.977  30.106  1.00  0.00     0.031 C 
ATOM     36  C   UNL A   1      39.924  26.476  28.046  1.00  0.00     0.029 A 
ATOM     37  N   UNL A   1      42.020  26.914  28.689  1.00  0.00    -0.354 N 
ATOM     38  C   UNL A   1      43.085  30.740  30.381  1.00  0.00     0.074 A 
ATOM     39  C   UNL A   1      41.933  31.611  30.466  1.00  0.00     0.031 C 
ATOM     40  C   UNL A   1      40.666  25.391  27.769  1.00  0.00     0.029 A 
ATOM     41  C   UNL A   1      42.051  25.652  28.146  1.00  0.00     0.049 A 
ATOM     42  H   UNL A   1      42.815  27.359  29.062  1.00  0.00     0.167 HD
ATOM     43  C   UNL A   1      44.330  31.077  30.794  1.00  0.00     0.037 A 
ATOM     44  C   UNL A   1      43.081  24.805  27.959  1.00  0.00     0.037 A 
ATOM     45  C   UNL A   1      45.472  30.203  30.721  1.00  0.00     0.049 A 
ATOM     46  C   UNL A   1      44.462  25.217  28.396  1.00  0.00     0.074 A 
ATOM     47  C   UNL A   1      46.765  30.437  31.157  1.00  0.00     0.029 A 
ATOM     48  N   UNL A   1      45.460  28.930  30.171  1.00  0.00    -0.354 N 
ATOM     49  N   UNL A   1      44.851  26.331  28.966  1.00  0.00    -0.248 NA
ATOM     50  C   UNL A   1      45.544  24.250  28.168  1.00  0.00     0.031 C 
ATOM     51  C   UNL A   1      47.546  29.327  30.822  1.00  0.00     0.029 A 
ATOM     52  C   UNL A   1      46.728  28.376  30.235  1.00  0.00     0.049 A 
ATOM     53  H   UNL A   1      44.668  28.487  29.792  1.00  0.00     0.167 HD
ATOM     54  C   UNL A   1      46.213  26.185  29.198  1.00  0.00     0.074 A 
ATOM     55  C   UNL A   1      46.580  24.871  28.714  1.00  0.00     0.031 C 
ATOM     56  C   UNL A   1      47.080  27.060  29.763  1.00  0.00     0.037 A 
BRANCH  43  57
ATOM     57  C   UNL A   1      44.521  32.455  31.363  1.00  0.00     0.057 A 
ATOM     58  C   UNL A   1      44.364  32.721  32.730  1.00  0.00     0.134 A 
ATOM     59  C   UNL A   1      44.897  33.523  30.539  1.00  0.00     0.134 A 
ATOM     60  F   UNL A   1      43.995  31.745  33.575  1.00  0.00    -0.206 F 
ATOM     61  C   UNL A   1      44.543  34.003  33.252  1.00  0.00     0.040 A 
ATOM     62  C   UNL A   1      45.110  34.804  31.053  1.00  0.00     0.040 A 
ATOM     63  F   UNL A   1      45.075  33.339  29.222  1.00  0.00    -0.206 F 
ATOM     64  C   UNL A   1      44.924  35.048  32.412  1.00  0.00     0.006 A 
ENDBRANCH  43  57
BRANCH  44  65
ATOM     65  C   UNL A   1      42.850  23.474  27.342  1.00  0.00     0.057 A 
ATOM     66  C   UNL A   1      43.025  23.277  25.966  1.00  0.00     0.134 A 
ATOM     67  C   UNL A   1      42.437  22.374  28.101  1.00  0.00     0.134 A 
ATOM     68  F   UNL A   1      43.402  24.298  25.181  1.00  0.00    -0.206 F 
ATOM     69  C   UNL A   1      42.773  22.043  25.365  1.00  0.00     0.040 A 
ATOM     70  C   UNL A   1      42.209  21.125  27.518  1.00  0.00     0.040 A 
ATOM     71  F   UNL A   1      42.259  22.492  29.425  1.00  0.00    -0.206 F 
ATOM     72  C   UNL A   1      42.369  20.961  26.144  1.00  0.00     0.006 A 
ENDBRANCH  44  65
BRANCH  56  73
ATOM     73  C   UNL A   1      48.501  26.609  29.942  1.00  0.00     0.057 A 
ATOM     74  C   UNL A   1      49.505  26.926  29.019  1.00  0.00     0.134 A 
ATOM     75  C   UNL A   1      48.876  25.887  31.083  1.00  0.00     0.134 A 
ATOM     76  F   UNL A   1      49.211  27.603  27.899  1.00  0.00    -0.206 F 
ATOM     77  C   UNL A   1      50.827  26.520  29.212  1.00  0.00     0.040 A 
ATOM     78  C   UNL A   1      50.200  25.503  31.303  1.00  0.00     0.040 A 
ATOM     79  F   UNL A   1      47.966  25.559  32.012  1.00  0.00    -0.206 F 
ATOM     80  C   UNL A   1      51.179  25.814  30.362  1.00  0.00     0.006 A 
ENDBRANCH  56  73
ENDBRANCH  30  31
ENDBRANCH  22  25
ENDBRANCH  20  21
ENDBRANCH   1  20
TORSDOF 12
ENDMDL
MODEL 2
REMARK VINA RESULT:     -10.9      4.482      9.929
REMARK SMILES Cc1noc(C[N@@H+]2CCC[C@H]2C(=O)NCCCNC(=O)c2ccc(-c3c4nc(c(-c5c(F)cccc5F)c5ccc([nH]5)c(-c5c(F)cccc5F)c5nc(c(-c6c(F)cccc6F)c6ccc3[nH]6)C=C5)C=C4)cc2)n1
REMARK SMILES IDX 16 1 15 2 14 3 12 4 13 5 11 7 7 8 8 9 9 11 10 12 6 13 5 14
REMARK SMILES IDX 1 15 2 16 3 17 75 18 4 19 17 20 18 21 19 22 20 24 21 25
REMARK SMILES IDX 22 26 74 27 23 28 73 29 24 30 25 31 26 32 67 33 27 34 72 35
REMARK SMILES IDX 66 36 68 37 28 38 71 39 65 40 64 41 29 43 55 44 38 45 54 46
REMARK SMILES IDX 39 47 42 48 53 49 69 50 40 51 41 52 52 54 70 55 43 56 30 57
REMARK SMILES IDX 31 58 36 59 32 60 33 61 35 62 37 63 34 64 56 65 57 66 62 67
REMARK SMILES IDX 58 68 59 69 61 70 63 71 60 72 44 73 45 74 50 75 46 76 47 77
REMARK SMILES IDX 49 78 51 79 48 80
REMARK H PARENT 14 6 7 10 18 23 68 42 42 53
REMARK Flexibility Score: inf
ROOT
ATOM      1  C   UNL A   1      31.435  32.127  26.464  1.00  0.00     0.042 C 
ENDROOT
BRANCH   1   2
ATOM      2  C   UNL A   1      31.494  30.605  26.378  1.00  0.00     0.118 C 
BRANCH   2   3
ATOM      3  N   UNL A   1      32.430  30.156  25.367  1.00  0.00    -0.351 N 
ATOM      4  C   UNL A   1      32.320  29.128  24.471  1.00  0.00     0.278 C 
ATOM      5  O   UNL A   1      33.279  28.914  23.726  1.00  0.00    -0.268 OA
ATOM      6  H   UNL A   1      33.271  30.666  25.318  1.00  0.00     0.163 HD
BRANCH   4   7
ATOM      7  C   UNL A   1      31.003  28.322  24.406  1.00  0.00     0.274 C 
ATOM      8  N   UNL A   1      30.534  28.349  23.000  1.00  0.00    -0.317 N 
ATOM      9  C   UNL A   1      30.963  27.084  22.391  1.00  0.00     0.263 C 
ATOM     10  H   UNL A   1      30.959  29.140  22.514  1.00  0.00     0.349 HD
ATOM     11  C   UNL A   1      31.025  26.055  23.504  1.00  0.00     0.068 C 
ATOM     12  C   UNL A   1      31.231  26.854  24.777  1.00  0.00     0.081 C 
BRANCH   8  13
ATOM     13  C   UNL A   1      29.099  28.645  22.830  1.00  0.00     0.364 C 
BRANCH  13  14
ATOM     14  C   UNL A   1      28.679  30.036  23.154  1.00  0.00     0.281 A 
ATOM     15  C   UNL A   1      28.695  33.528  23.039  1.00  0.00     0.093 C 
ATOM     16  C   UNL A   1      28.406  32.099  23.247  1.00  0.00     0.169 A 
ATOM     17  N   UNL A   1      27.167  31.623  23.429  1.00  0.00    -0.063 NA
ATOM     18  N   UNL A   1      29.381  31.147  23.130  1.00  0.00    -0.191 NA
ATOM     19  O   UNL A   1      27.347  30.239  23.375  1.00  0.00    -0.333 OA
ENDBRANCH  13  14
ENDBRANCH   8  13
ENDBRANCH   4   7
ENDBRANCH   2   3
ENDBRANCH   1   2
BRANCH   1  20
ATOM     20  C   UNL A   1      32.630  32.755  27.177  1.00  0.00     0.118 C 
BRANCH  20  21
ATOM     21  N   UNL A   1      32.387  34.134  27.581  1.00  0.00    -0.352 N 
ATOM     22  C   UNL A   1      32.997  34.899  28.543  1.00  0.00     0.251 C 
ATOM     23  H   UNL A   1      31.671  34.590  27.083  1.00  0.00     0.163 HD
ATOM     24  O   UNL A   1      32.521  35.996  28.836  1.00  0.00    -0.269 OA
BRANCH  22  25
ATOM     25  C   UNL A   1      34.202  34.413  29.247  1.00  0.00     0.039 A 
ATOM     26  C   UNL A   1      34.053  33.820  30.505  1.00  0.00     0.014 A 
ATOM     27  C   UNL A   1      35.476  34.562  28.694  1.00  0.00     0.014 A 
ATOM     28  C   UNL A   1      35.171  33.313  31.172  1.00  0.00     0.010 A 
ATOM     29  C   UNL A   1      36.577  33.987  29.323  1.00  0.00     0.010 A 
ATOM     30  C   UNL A   1      36.438  33.358  30.569  1.00  0.00    -0.014 A 
BRANCH  30  31
ATOM     31  C   UNL A   1      37.629  32.753  31.222  1.00  0.00     0.031 A 
ATOM     32  C   UNL A   1      38.301  31.555  30.611  1.00  0.00     0.074 A 
ATOM     33  C   UNL A   1      38.064  33.240  32.401  1.00  0.00     0.049 A 
ATOM     34  N   UNL A   1      39.289  30.833  31.076  1.00  0.00    -0.248 NA
ATOM     35  C   UNL A   1      37.777  31.091  29.317  1.00  0.00     0.031 C 
ATOM     36  C   UNL A   1      37.480  34.376  33.116  1.00  0.00     0.029 A 
ATOM     37  N   UNL A   1      39.091  32.829  33.214  1.00  0.00    -0.354 N 
ATOM     38  C   UNL A   1      39.494  29.824  30.141  1.00  0.00     0.074 A 
ATOM     39  C   UNL A   1      38.492  29.995  29.112  1.00  0.00     0.031 C 
ATOM     40  C   UNL A   1      38.169  34.584  34.249  1.00  0.00     0.029 A 
ATOM     41  C   UNL A   1      39.212  33.570  34.365  1.00  0.00     0.049 A 
ATOM     42  H   UNL A   1      39.685  32.076  32.993  1.00  0.00     0.167 HD
ATOM     43  C   UNL A   1      40.443  28.858  30.131  1.00  0.00     0.037 A 
ATOM     44  C   UNL A   1      40.060  33.440  35.404  1.00  0.00     0.037 A 
ATOM     45  C   UNL A   1      41.448  28.700  31.151  1.00  0.00     0.049 A 
ATOM     46  C   UNL A   1      41.084  32.337  35.385  1.00  0.00     0.074 A 
ATOM     47  C   UNL A   1      42.481  27.781  31.205  1.00  0.00     0.029 A 
ATOM     48  N   UNL A   1      41.541  29.475  32.296  1.00  0.00    -0.354 N 
ATOM     49  N   UNL A   1      41.303  31.428  34.467  1.00  0.00    -0.248 NA
ATOM     50  C   UNL A   1      41.981  32.246  36.546  1.00  0.00     0.031 C 
ATOM     51  C   UNL A   1      43.167  27.966  32.410  1.00  0.00     0.029 A 
ATOM     52  C   UNL A   1      42.600  29.040  33.076  1.00  0.00     0.049 A 
ATOM     53  H   UNL A   1      40.944  30.224  32.521  1.00  0.00     0.167 HD
ATOM     54  C   UNL A   1      42.385  30.682  34.920  1.00  0.00     0.074 A 
ATOM     55  C   UNL A   1      42.781  31.251  36.191  1.00  0.00     0.031 C 
ATOM     56  C   UNL A   1      42.995  29.623  34.333  1.00  0.00     0.037 A 
BRANCH  43  57
ATOM     57  C   UNL A   1      40.437  27.894  28.978  1.00  0.00     0.057 A 
ATOM     58  C   UNL A   1      39.646  26.737  28.985  1.00  0.00     0.134 A 
ATOM     59  C   UNL A   1      41.205  28.142  27.834  1.00  0.00     0.134 A 
ATOM     60  F   UNL A   1      38.893  26.434  30.053  1.00  0.00    -0.206 F 
ATOM     61  C   UNL A   1      39.645  25.845  27.911  1.00  0.00     0.040 A 
ATOM     62  C   UNL A   1      41.188  27.275  26.740  1.00  0.00     0.040 A 
ATOM     63  F   UNL A   1      41.978  29.236  27.755  1.00  0.00    -0.206 F 
ATOM     64  C   UNL A   1      40.413  26.118  26.780  1.00  0.00     0.006 A 
ENDBRANCH  43  57
BRANCH  44  65
ATOM     65  C   UNL A   1      39.989  34.385  36.547  1.00  0.00     0.057 A 
ATOM     66  C   UNL A   1      39.204  34.100  37.672  1.00  0.00     0.134 A 
ATOM     67  C   UNL A   1      40.687  35.599  36.541  1.00  0.00     0.134 A 
ATOM     68  F   UNL A   1      38.497  32.962  37.730  1.00  0.00    -0.206 F 
ATOM     69  C   UNL A   1      39.097  34.997  38.736  1.00  0.00     0.040 A 
ATOM     70  C   UNL A   1      40.611  36.493  37.611  1.00  0.00     0.040 A 
ATOM     71  F   UNL A   1      41.462  35.930  35.498  1.00  0.00    -0.206 F 
ATOM     72  C   UNL A   1      39.806  36.195  38.709  1.00  0.00     0.006 A 
ENDBRANCH  44  65
BRANCH  56  73
ATOM     73  C   UNL A   1      44.192  29.042  35.030  1.00  0.00     0.057 A 
ATOM     74  C   UNL A   1      44.079  28.001  35.961  1.00  0.00     0.134 A 
ATOM     75  C   UNL A   1      45.480  29.500  34.726  1.00  0.00     0.134 A 
ATOM     76  F   UNL A   1      42.874  27.525  36.306  1.00  0.00    -0.206 F 
ATOM     77  C   UNL A   1      45.204  27.453  36.581  1.00  0.00     0.040 A 
ATOM     78  C   UNL A   1      46.614  28.940  35.317  1.00  0.00     0.040 A 
ATOM     79  F   UNL A   1      45.661  30.488  33.837  1.00  0.00    -0.206 F 
ATOM     80  C   UNL A   1      46.477  27.917  36.252  1.00  0.00     0.006 A 
ENDBRANCH  56  73
ENDBRANCH  30  31
ENDBRANCH  22  25
ENDBRANCH  20  21
ENDBRANCH   1  20
TORSDOF 12
ENDMDL
MODEL 3
REMARK VINA RESULT:     -10.8      5.235     10.689
REMARK SMILES Cc1noc(C[N@@H+]2CCC[C@H]2C(=O)NCCCNC(=O)c2ccc(-c3c4nc(c(-c5c(F)cccc5F)c5ccc([nH]5)c(-c5c(F)cccc5F)c5nc(c(-c6c(F)cccc6F)c6ccc3[nH]6)C=C5)C=C4)cc2)n1
REMARK SMILES IDX 16 1 15 2 14 3 12 4 13 5 11 7 7 8 8 9 9 11 10 12 6 13 5 14
REMARK SMILES IDX 1 15 2 16 3 17 75 18 4 19 17 20 18 21 19 22 20 24 21 25
REMARK SMILES IDX 22 26 74 27 23 28 73 29 24 30 25 31 26 32 67 33 27 34 72 35
REMARK SMILES IDX 66 36 68 37 28 38 71 39 65 40 64 41 29 43 55 44 38 45 54 46
REMARK SMILES IDX 39 47 42 48 53 49 69 50 40 51 41 52 52 54 70 55 43 56 30 57
REMARK SMILES IDX 31 58 36 59 32 60 33 61 35 62 37 63 34 64 56 65 57 66 62 67
REMARK SMILES IDX 58 68 59 69 61 70 63 71 60 72 44 73 45 74 50 75 46 76 47 77
REMARK SMILES IDX 49 78 51 79 48 80
REMARK H PARENT 14 6 7 10 18 23 68 42 42 53
REMARK Flexibility Score: inf
ROOT
ATOM      1  C   UNL A   1      37.886  19.594  25.018  1.00  0.00     0.042 C 
ENDROOT
BRANCH   1   2
ATOM      2  C   UNL A   1      36.891  20.689  24.649  1.00  0.00     0.118 C 
BRANCH   2   3
ATOM      3  N   UNL A   1      36.132  21.140  25.799  1.00  0.00    -0.351 N 
ATOM      4  C   UNL A   1      34.830  21.552  25.878  1.00  0.00     0.278 C 
ATOM      5  O   UNL A   1      34.415  21.929  26.976  1.00  0.00    -0.268 OA
ATOM      6  H   UNL A   1      36.628  21.152  26.650  1.00  0.00     0.163 HD
BRANCH   4   7
ATOM      7  C   UNL A   1      33.940  21.484  24.616  1.00  0.00     0.274 C 
ATOM      8  N   UNL A   1      32.838  20.534  24.898  1.00  0.00    -0.317 N 
ATOM      9  C   UNL A   1      31.675  21.343  25.283  1.00  0.00     0.263 C 
ATOM     10  H   UNL A   1      33.109  19.914  25.663  1.00  0.00     0.349 HD
ATOM     11  C   UNL A   1      31.813  22.680  24.580  1.00  0.00     0.068 C 
ATOM     12  C   UNL A   1      33.298  22.842  24.315  1.00  0.00     0.081 C 
BRANCH   8  13
ATOM     13  C   UNL A   1      32.568  19.561  23.824  1.00  0.00     0.364 C 
BRANCH  13  14
ATOM     14  C   UNL A   1      33.400  18.327  23.838  1.00  0.00     0.281 A 
ATOM     15  C   UNL A   1      35.282  15.712  25.189  1.00  0.00     0.093 C 
ATOM     16  C   UNL A   1      34.508  16.637  24.345  1.00  0.00     0.169 A 
ATOM     17  N   UNL A   1      33.849  16.246  23.246  1.00  0.00    -0.063 NA
ATOM     18  N   UNL A   1      34.302  17.938  24.712  1.00  0.00    -0.191 NA
ATOM     19  O   UNL A   1      33.111  17.380  22.899  1.00  0.00    -0.333 OA
ENDBRANCH  13  14
ENDBRANCH   8  13
ENDBRANCH   4   7
ENDBRANCH   2   3
ENDBRANCH   1   2
BRANCH   1  20
ATOM     20  C   UNL A   1      39.117  20.099  25.768  1.00  0.00     0.118 C 
BRANCH  20  21
ATOM     21  N   UNL A   1      40.176  19.101  25.855  1.00  0.00    -0.352 N 
ATOM     22  C   UNL A   1      41.515  19.247  26.113  1.00  0.00     0.251 C 
ATOM     23  H   UNL A   1      39.882  18.174  25.705  1.00  0.00     0.163 HD
ATOM     24  O   UNL A   1      42.268  18.282  25.975  1.00  0.00    -0.269 OA
BRANCH  22  25
ATOM     25  C   UNL A   1      42.069  20.551  26.531  1.00  0.00     0.039 A 
ATOM     26  C   UNL A   1      42.585  21.408  25.553  1.00  0.00     0.014 A 
ATOM     27  C   UNL A   1      42.111  20.925  27.876  1.00  0.00     0.014 A 
ATOM     28  C   UNL A   1      43.076  22.665  25.917  1.00  0.00     0.010 A 
ATOM     29  C   UNL A   1      42.527  22.207  28.228  1.00  0.00     0.010 A 
ATOM     30  C   UNL A   1      43.014  23.090  27.253  1.00  0.00    -0.014 A 
BRANCH  30  31
ATOM     31  C   UNL A   1      43.453  24.453  27.653  1.00  0.00     0.031 A 
ATOM     32  C   UNL A   1      42.438  25.498  28.024  1.00  0.00     0.074 A 
ATOM     33  C   UNL A   1      44.762  24.771  27.616  1.00  0.00     0.049 A 
ATOM     34  N   UNL A   1      42.617  26.763  28.309  1.00  0.00    -0.248 NA
ATOM     35  C   UNL A   1      41.030  25.071  28.054  1.00  0.00     0.031 C 
ATOM     36  C   UNL A   1      45.845  23.860  27.241  1.00  0.00     0.029 A 
ATOM     37  N   UNL A   1      45.403  25.956  27.883  1.00  0.00    -0.354 N 
ATOM     38  C   UNL A   1      41.349  27.283  28.538  1.00  0.00     0.074 A 
ATOM     39  C   UNL A   1      40.405  26.212  28.304  1.00  0.00     0.031 C 
ATOM     40  C   UNL A   1      47.017  24.512  27.322  1.00  0.00     0.029 A 
ATOM     41  C   UNL A   1      46.765  25.897  27.707  1.00  0.00     0.049 A 
ATOM     42  H   UNL A   1      44.932  26.769  28.174  1.00  0.00     0.167 HD
ATOM     43  C   UNL A   1      41.003  28.534  28.928  1.00  0.00     0.037 A 
ATOM     44  C   UNL A   1      47.705  26.854  27.830  1.00  0.00     0.037 A 
ATOM     45  C   UNL A   1      41.946  29.594  29.174  1.00  0.00     0.049 A 
ATOM     46  C   UNL A   1      47.292  28.245  28.231  1.00  0.00     0.074 A 
ATOM     47  C   UNL A   1      41.697  30.881  29.618  1.00  0.00     0.029 A 
ATOM     48  N   UNL A   1      43.316  29.493  28.992  1.00  0.00    -0.354 N 
ATOM     49  N   UNL A   1      46.095  28.706  28.502  1.00  0.00    -0.248 NA
ATOM     50  C   UNL A   1      48.362  29.245  28.350  1.00  0.00     0.031 C 
ATOM     51  C   UNL A   1      42.911  31.574  29.652  1.00  0.00     0.029 A 
ATOM     52  C   UNL A   1      43.924  30.701  29.291  1.00  0.00     0.049 A 
ATOM     53  H   UNL A   1      43.788  28.681  28.695  1.00  0.00     0.167 HD
ATOM     54  C   UNL A   1      46.272  30.038  28.857  1.00  0.00     0.074 A 
ATOM     55  C   UNL A   1      47.692  30.306  28.776  1.00  0.00     0.031 C 
ATOM     56  C   UNL A   1      45.341  30.954  29.221  1.00  0.00     0.037 A 
BRANCH  43  57
ATOM     57  C   UNL A   1      39.540  28.822  29.111  1.00  0.00     0.057 A 
ATOM     58  C   UNL A   1      38.903  28.662  30.350  1.00  0.00     0.134 A 
ATOM     59  C   UNL A   1      38.764  29.295  28.046  1.00  0.00     0.134 A 
ATOM     60  F   UNL A   1      39.584  28.204  31.411  1.00  0.00    -0.206 F 
ATOM     61  C   UNL A   1      37.543  28.932  30.513  1.00  0.00     0.040 A 
ATOM     62  C   UNL A   1      37.411  29.599  28.204  1.00  0.00     0.040 A 
ATOM     63  F   UNL A   1      39.311  29.481  26.834  1.00  0.00    -0.206 F 
ATOM     64  C   UNL A   1      36.795  29.409  29.439  1.00  0.00     0.006 A 
ENDBRANCH  43  57
BRANCH  44  65
ATOM     65  C   UNL A   1      49.134  26.532  27.583  1.00  0.00     0.057 A 
ATOM     66  C   UNL A   1      49.686  26.637  26.301  1.00  0.00     0.134 A 
ATOM     67  C   UNL A   1      49.977  26.099  28.613  1.00  0.00     0.134 A 
ATOM     68  F   UNL A   1      48.924  27.029  25.268  1.00  0.00    -0.206 F 
ATOM     69  C   UNL A   1      51.017  26.300  26.046  1.00  0.00     0.040 A 
ATOM     70  C   UNL A   1      51.318  25.786  28.379  1.00  0.00     0.040 A 
ATOM     71  F   UNL A   1      49.514  25.984  29.866  1.00  0.00    -0.206 F 
ATOM     72  C   UNL A   1      51.838  25.878  27.090  1.00  0.00     0.006 A 
ENDBRANCH  44  65
BRANCH  56  73
ATOM     73  C   UNL A   1      45.830  32.319  29.613  1.00  0.00     0.057 A 
ATOM     74  C   UNL A   1      45.908  33.374  28.696  1.00  0.00     0.134 A 
ATOM     75  C   UNL A   1      46.180  32.590  30.942  1.00  0.00     0.134 A 
ATOM     76  F   UNL A   1      45.599  33.177  27.405  1.00  0.00    -0.206 F 
ATOM     77  C   UNL A   1      46.340  34.644  29.081  1.00  0.00     0.040 A 
ATOM     78  C   UNL A   1      46.584  33.864  31.346  1.00  0.00     0.040 A 
ATOM     79  F   UNL A   1      46.119  31.628  31.874  1.00  0.00    -0.206 F 
ATOM     80  C   UNL A   1      46.670  34.894  30.413  1.00  0.00     0.006 A 
ENDBRANCH  56  73
ENDBRANCH  30  31
ENDBRANCH  22  25
ENDBRANCH  20  21
ENDBRANCH   1  20
TORSDOF 12
ENDMDL
