MODEL 1
REMARK VINA RESULT:     -14.0      0.000      0.000
REMARK SMILES O=C(NCCCNC(=O)[C@@H](Cc1c[nH]c2ccccc12)Nc1ncnc2ccccc12)c1ccc(-c2c3nc(c(-c4c(F)cccc4F)c4ccc([nH]4)c(-c4c(F)cccc4F)c4nc(c(-c5c(F)cccc5F)c5ccc2[nH]5)C=C4)C=C3)cc1
REMARK SMILES IDX 5 1 4 2 3 3 1 4 2 5 32 7 33 8 85 9 34 10 84 11 35 12 36 13
REMARK SMILES IDX 37 14 78 15 38 16 83 17 77 18 79 19 39 20 82 21 76 22 75 23
REMARK SMILES IDX 40 25 66 26 49 27 65 28 50 29 53 30 64 31 80 32 51 33 52 34
REMARK SMILES IDX 63 36 81 37 54 38 41 39 42 40 47 41 43 42 44 43 46 44 48 45
REMARK SMILES IDX 45 46 67 47 68 48 73 49 69 50 70 51 72 52 74 53 71 54 55 55
REMARK SMILES IDX 56 56 61 57 57 58 58 59 60 60 62 61 59 62 6 63 7 64 8 65
REMARK SMILES IDX 9 67 10 68 11 69 12 70 13 71 20 72 14 73 15 74 19 75 16 77
REMARK SMILES IDX 18 78 17 79 21 80 22 82 23 83 31 84 24 85 26 86 30 87 25 88
REMARK SMILES IDX 27 89 29 90 28 91
REMARK H PARENT 3 6 79 24 53 35 7 66 14 76 21 81
REMARK Flexibility Score: inf
ROOT
ATOM      1  C   UNL A   1      33.198  29.820  26.170  1.00  0.00     0.042 C 
ENDROOT
BRANCH   1   2
ATOM      2  C   UNL A   1      34.333  29.493  27.421  1.00  0.00     0.118 C 
BRANCH   2   3
ATOM      3  N   UNL A   1      34.683  30.657  28.241  1.00  0.00    -0.352 N 
ATOM      4  O   UNL A   1      35.695  31.740  29.935  1.00  0.00    -0.269 OA
ATOM      5  C   UNL A   1      35.750  30.861  29.080  1.00  0.00     0.251 C 
ATOM      6  H   UNL A   1      34.055  31.412  28.181  1.00  0.00     0.163 HD
BRANCH   5   7
ATOM      7  C   UNL A   1      36.974  30.041  28.945  1.00  0.00     0.039 A 
ATOM      8  C   UNL A   1      37.730  30.103  27.777  1.00  0.00     0.014 A 
ATOM      9  C   UNL A   1      37.437  29.285  30.030  1.00  0.00     0.014 A 
ATOM     10  C   UNL A   1      38.850  29.310  27.626  1.00  0.00     0.010 A 
ATOM     11  C   UNL A   1      38.660  28.611  29.937  1.00  0.00     0.010 A 
ATOM     12  C   UNL A   1      39.377  28.632  28.735  1.00  0.00    -0.014 A 
BRANCH  12  13
ATOM     13  C   UNL A   1      40.776  28.159  28.614  1.00  0.00     0.031 A 
ATOM     14  C   UNL A   1      41.108  26.759  28.219  1.00  0.00     0.074 A 
ATOM     15  C   UNL A   1      41.743  29.091  28.758  1.00  0.00     0.049 A 
ATOM     16  N   UNL A   1      42.278  26.250  27.933  1.00  0.00    -0.248 NA
ATOM     17  C   UNL A   1      39.997  25.798  28.145  1.00  0.00     0.031 C 
ATOM     18  C   UNL A   1      41.508  30.481  29.173  1.00  0.00     0.029 A 
ATOM     19  N   UNL A   1      43.085  29.051  28.499  1.00  0.00    -0.354 N 
ATOM     20  C   UNL A   1      42.053  24.908  27.666  1.00  0.00     0.074 A 
ATOM     21  C   UNL A   1      40.633  24.675  27.836  1.00  0.00     0.031 C 
ATOM     22  C   UNL A   1      42.635  31.185  29.017  1.00  0.00     0.029 A 
ATOM     23  C   UNL A   1      43.692  30.283  28.585  1.00  0.00     0.049 A 
ATOM     24  H   UNL A   1      43.569  28.224  28.274  1.00  0.00     0.167 HD
ATOM     25  C   UNL A   1      42.959  23.963  27.317  1.00  0.00     0.037 A 
ATOM     26  C   UNL A   1      44.962  30.649  28.341  1.00  0.00     0.037 A 
ATOM     27  C   UNL A   1      44.368  24.222  27.154  1.00  0.00     0.049 A 
ATOM     28  C   UNL A   1      45.929  29.588  27.914  1.00  0.00     0.074 A 
ATOM     29  C   UNL A   1      45.380  23.333  26.837  1.00  0.00     0.029 A 
ATOM     30  N   UNL A   1      44.961  25.471  27.288  1.00  0.00    -0.354 N 
ATOM     31  N   UNL A   1      45.704  28.317  27.684  1.00  0.00    -0.248 NA
ATOM     32  C   UNL A   1      47.324  30.002  27.731  1.00  0.00     0.031 C 
ATOM     33  C   UNL A   1      46.589  24.040  26.804  1.00  0.00     0.029 A 
ATOM     34  C   UNL A   1      46.326  25.375  27.064  1.00  0.00     0.049 A 
ATOM     35  H   UNL A   1      44.482  26.302  27.510  1.00  0.00     0.167 HD
ATOM     36  C   UNL A   1      46.932  27.770  27.353  1.00  0.00     0.074 A 
ATOM     37  C   UNL A   1      47.888  28.862  27.358  1.00  0.00     0.031 C 
ATOM     38  C   UNL A   1      47.251  26.479  27.094  1.00  0.00     0.037 A 
BRANCH  25  39
ATOM     39  C   UNL A   1      42.457  22.564  27.117  1.00  0.00     0.057 A 
ATOM     40  C   UNL A   1      42.086  21.752  28.195  1.00  0.00     0.134 A 
ATOM     41  C   UNL A   1      42.315  22.033  25.829  1.00  0.00     0.134 A 
ATOM     42  F   UNL A   1      42.216  22.193  29.456  1.00  0.00    -0.206 F 
ATOM     43  C   UNL A   1      41.604  20.455  28.001  1.00  0.00     0.040 A 
ATOM     44  C   UNL A   1      41.816  20.747  25.620  1.00  0.00     0.040 A 
ATOM     45  F   UNL A   1      42.652  22.759  24.752  1.00  0.00    -0.206 F 
ATOM     46  C   UNL A   1      41.461  19.952  26.709  1.00  0.00     0.006 A 
ENDBRANCH  25  39
BRANCH  26  47
ATOM     47  C   UNL A   1      45.378  32.062  28.518  1.00  0.00     0.057 A 
ATOM     48  C   UNL A   1      45.257  32.995  27.483  1.00  0.00     0.134 A 
ATOM     49  C   UNL A   1      45.885  32.522  29.742  1.00  0.00     0.134 A 
ATOM     50  F   UNL A   1      44.791  32.617  26.284  1.00  0.00    -0.206 F 
ATOM     51  C   UNL A   1      45.632  34.330  27.654  1.00  0.00     0.040 A 
ATOM     52  C   UNL A   1      46.235  33.858  29.936  1.00  0.00     0.040 A 
ATOM     53  F   UNL A   1      46.018  31.680  30.778  1.00  0.00    -0.206 F 
ATOM     54  C   UNL A   1      46.114  34.765  28.887  1.00  0.00     0.006 A 
ENDBRANCH  26  47
BRANCH  38  55
ATOM     55  C   UNL A   1      48.695  26.199  26.816  1.00  0.00     0.057 A 
ATOM     56  C   UNL A   1      49.578  25.841  27.842  1.00  0.00     0.134 A 
ATOM     57  C   UNL A   1      49.206  26.299  25.517  1.00  0.00     0.134 A 
ATOM     58  F   UNL A   1      49.148  25.748  29.108  1.00  0.00    -0.206 F 
ATOM     59  C   UNL A   1      50.931  25.618  27.588  1.00  0.00     0.040 A 
ATOM     60  C   UNL A   1      50.553  26.057  25.249  1.00  0.00     0.040 A 
ATOM     61  F   UNL A   1      48.408  26.637  24.493  1.00  0.00    -0.206 F 
ATOM     62  C   UNL A   1      51.421  25.723  26.288  1.00  0.00     0.006 A 
ENDBRANCH  38  55
ENDBRANCH  12  13
ENDBRANCH   5   7
ENDBRANCH   2   3
ENDBRANCH   1   2
BRANCH   1  63
ATOM     63  C   UNL A   1      33.109  29.329  24.032  1.00  0.00     0.117 C 
BRANCH  63  64
ATOM     64  N   UNL A   1      31.958  28.523  23.168  1.00  0.00    -0.354 N 
ATOM     65  C   UNL A   1      31.732  27.226  22.788  1.00  0.00     0.242 C 
ATOM     66  H   UNL A   1      31.254  29.128  22.842  1.00  0.00     0.163 HD
ATOM     67  O   UNL A   1      31.024  27.061  21.785  1.00  0.00    -0.273 OA
BRANCH  65  68
ATOM     68  C   UNL A   1      32.282  25.994  23.557  1.00  0.00     0.174 C 
BRANCH  68  69
ATOM     69  C   UNL A   1      33.527  25.305  22.939  1.00  0.00     0.072 C 
BRANCH  69  70
ATOM     70  C   UNL A   1      33.317  23.846  22.751  1.00  0.00    -0.020 A 
ATOM     71  C   UNL A   1      32.103  23.165  22.753  1.00  0.00     0.087 A 
ATOM     72  C   UNL A   1      34.360  22.913  22.917  1.00  0.00     0.003 A 
ATOM     73  N   UNL A   1      32.198  21.849  23.196  1.00  0.00    -0.361 N 
ATOM     74  C   UNL A   1      33.470  21.582  23.633  1.00  0.00     0.046 A 
ATOM     75  C   UNL A   1      36.161  22.999  23.129  1.00  0.00     0.010 A 
ATOM     76  H   UNL A   1      31.456  21.202  23.196  1.00  0.00     0.166 HD
ATOM     77  C   UNL A   1      34.280  20.426  24.739  1.00  0.00     0.026 A 
ATOM     78  C   UNL A   1      36.987  21.845  24.268  1.00  0.00     0.001 A 
ATOM     79  C   UNL A   1      36.053  20.520  25.004  1.00  0.00     0.002 A 
ENDBRANCH  69  70
ENDBRANCH  68  69
BRANCH  68  80
ATOM     80  N   UNL A   1      32.444  26.347  24.995  1.00  0.00    -0.358 N 
ATOM     81  H   UNL A   1      32.900  27.158  25.318  1.00  0.00     0.162 HD
BRANCH  80  82
ATOM     82  C   UNL A   1      31.866  25.378  25.834  1.00  0.00     0.137 A 
ATOM     83  N   UNL A   1      30.533  25.445  25.960  1.00  0.00    -0.219 NA
ATOM     84  C   UNL A   1      32.636  24.359  26.403  1.00  0.00     0.043 A 
ATOM     85  C   UNL A   1      29.956  24.423  26.599  1.00  0.00     0.224 A 
ATOM     86  C   UNL A   1      31.916  23.358  27.062  1.00  0.00     0.076 A 
ATOM     87  C   UNL A   1      34.049  24.312  26.357  1.00  0.00     0.014 A 
ATOM     88  N   UNL A   1      30.580  23.374  27.154  1.00  0.00    -0.236 NA
ATOM     89  C   UNL A   1      32.630  22.314  27.637  1.00  0.00     0.029 A 
ATOM     90  C   UNL A   1      34.741  23.266  26.955  1.00  0.00     0.001 A 
ATOM     91  C   UNL A   1      34.028  22.259  27.591  1.00  0.00     0.002 A 
ENDBRANCH  80  82
ENDBRANCH  68  80
ENDBRANCH  65  68
ENDBRANCH  63  64
ENDBRANCH   1  63
TORSDOF 14
ENDMDL
MODEL 2
REMARK VINA RESULT:     -14.0      5.013      9.777
REMARK SMILES O=C(NCCCNC(=O)[C@@H](Cc1c[nH]c2ccccc12)Nc1ncnc2ccccc12)c1ccc(-c2c3nc(c(-c4c(F)cccc4F)c4ccc([nH]4)c(-c4c(F)cccc4F)c4nc(c(-c5c(F)cccc5F)c5ccc2[nH]5)C=C4)C=C3)cc1
REMARK SMILES IDX 5 1 4 2 3 3 1 4 2 5 32 7 33 8 85 9 34 10 84 11 35 12 36 13
REMARK SMILES IDX 37 14 78 15 38 16 83 17 77 18 79 19 39 20 82 21 76 22 75 23
REMARK SMILES IDX 40 25 66 26 49 27 65 28 50 29 53 30 64 31 80 32 51 33 52 34
REMARK SMILES IDX 63 36 81 37 54 38 41 39 42 40 47 41 43 42 44 43 46 44 48 45
REMARK SMILES IDX 45 46 67 47 68 48 73 49 69 50 70 51 72 52 74 53 71 54 55 55
REMARK SMILES IDX 56 56 61 57 57 58 58 59 60 60 62 61 59 62 6 63 7 64 8 65
REMARK SMILES IDX 9 67 10 68 11 69 12 70 13 71 20 72 14 73 15 74 19 75 16 77
REMARK SMILES IDX 18 78 17 79 21 80 22 82 23 83 31 84 24 85 26 86 30 87 25 88
REMARK SMILES IDX 27 89 29 90 28 91
REMARK H PARENT 3 6 79 24 53 35 7 66 14 76 21 81
REMARK Flexibility Score: inf
ROOT
ATOM      1  C   UNL A   1      37.114  22.446  25.039  1.00  0.00     0.042 C 
ENDROOT
BRANCH   1   2
ATOM      2  C   UNL A   1      38.031  23.631  25.886  1.00  0.00     0.118 C 
BRANCH   2   3
ATOM      3  N   UNL A   1      39.428  23.258  26.126  1.00  0.00    -0.352 N 
ATOM      4  O   UNL A   1      41.635  23.628  26.369  1.00  0.00    -0.269 OA
ATOM      5  C   UNL A   1      40.486  24.017  26.558  1.00  0.00     0.251 C 
ATOM      6  H   UNL A   1      39.642  22.313  25.951  1.00  0.00     0.163 HD
BRANCH   5   7
ATOM      7  C   UNL A   1      40.249  25.293  27.269  1.00  0.00     0.039 A 
ATOM      8  C   UNL A   1      39.571  25.299  28.485  1.00  0.00     0.014 A 
ATOM      9  C   UNL A   1      40.801  26.484  26.778  1.00  0.00     0.014 A 
ATOM     10  C   UNL A   1      39.309  26.489  29.134  1.00  0.00     0.010 A 
ATOM     11  C   UNL A   1      40.678  27.665  27.519  1.00  0.00     0.010 A 
ATOM     12  C   UNL A   1      39.940  27.667  28.709  1.00  0.00    -0.014 A 
BRANCH  12  13
ATOM     13  C   UNL A   1      39.955  28.791  29.675  1.00  0.00     0.031 A 
ATOM     14  C   UNL A   1      38.910  29.856  29.666  1.00  0.00     0.074 A 
ATOM     15  C   UNL A   1      40.892  28.740  30.645  1.00  0.00     0.049 A 
ATOM     16  N   UNL A   1      38.717  30.812  30.537  1.00  0.00    -0.248 NA
ATOM     17  C   UNL A   1      37.969  29.868  28.537  1.00  0.00     0.031 C 
ATOM     18  C   UNL A   1      41.973  27.746  30.712  1.00  0.00     0.029 A 
ATOM     19  N   UNL A   1      41.049  29.469  31.792  1.00  0.00    -0.354 N 
ATOM     20  C   UNL A   1      37.648  31.553  30.056  1.00  0.00     0.074 A 
ATOM     21  C   UNL A   1      37.239  30.944  28.807  1.00  0.00     0.031 C 
ATOM     22  C   UNL A   1      42.593  27.846  31.893  1.00  0.00     0.029 A 
ATOM     23  C   UNL A   1      42.022  28.967  32.625  1.00  0.00     0.049 A 
ATOM     24  H   UNL A   1      40.518  30.271  32.001  1.00  0.00     0.167 HD
ATOM     25  C   UNL A   1      37.071  32.645  30.613  1.00  0.00     0.037 A 
ATOM     26  C   UNL A   1      42.413  29.365  33.848  1.00  0.00     0.037 A 
ATOM     27  C   UNL A   1      37.498  33.231  31.859  1.00  0.00     0.049 A 
ATOM     28  C   UNL A   1      41.725  30.549  34.455  1.00  0.00     0.074 A 
ATOM     29  C   UNL A   1      37.008  34.357  32.498  1.00  0.00     0.029 A 
ATOM     30  N   UNL A   1      38.513  32.727  32.661  1.00  0.00    -0.354 N 
ATOM     31  N   UNL A   1      40.726  31.252  33.978  1.00  0.00    -0.248 NA
ATOM     32  C   UNL A   1      42.227  31.008  35.755  1.00  0.00     0.031 C 
ATOM     33  C   UNL A   1      37.745  34.548  33.674  1.00  0.00     0.029 A 
ATOM     34  C   UNL A   1      38.668  33.521  33.787  1.00  0.00     0.049 A 
ATOM     35  H   UNL A   1      39.046  31.924  32.460  1.00  0.00     0.167 HD
ATOM     36  C   UNL A   1      40.493  32.253  34.905  1.00  0.00     0.074 A 
ATOM     37  C   UNL A   1      41.419  32.030  36.000  1.00  0.00     0.031 C 
ATOM     38  C   UNL A   1      39.613  33.281  34.849  1.00  0.00     0.037 A 
BRANCH  25  39
ATOM     39  C   UNL A   1      35.941  33.287  29.865  1.00  0.00     0.057 A 
ATOM     40  C   UNL A   1      34.613  33.173  30.293  1.00  0.00     0.134 A 
ATOM     41  C   UNL A   1      36.187  34.053  28.719  1.00  0.00     0.134 A 
ATOM     42  F   UNL A   1      34.307  32.438  31.373  1.00  0.00    -0.206 F 
ATOM     43  C   UNL A   1      33.567  33.788  29.601  1.00  0.00     0.040 A 
ATOM     44  C   UNL A   1      35.154  34.689  28.029  1.00  0.00     0.040 A 
ATOM     45  F   UNL A   1      37.437  34.202  28.255  1.00  0.00    -0.206 F 
ATOM     46  C   UNL A   1      33.838  34.554  28.468  1.00  0.00     0.006 A 
ENDBRANCH  25  39
BRANCH  26  47
ATOM     47  C   UNL A   1      43.511  28.653  34.548  1.00  0.00     0.057 A 
ATOM     48  C   UNL A   1      43.260  27.545  35.364  1.00  0.00     0.134 A 
ATOM     49  C   UNL A   1      44.847  29.050  34.397  1.00  0.00     0.134 A 
ATOM     50  F   UNL A   1      42.003  27.122  35.562  1.00  0.00    -0.206 F 
ATOM     51  C   UNL A   1      44.294  26.863  36.010  1.00  0.00     0.040 A 
ATOM     52  C   UNL A   1      45.892  28.361  35.010  1.00  0.00     0.040 A 
ATOM     53  F   UNL A   1      45.156  30.100  33.621  1.00  0.00    -0.206 F 
ATOM     54  C   UNL A   1      45.616  27.267  35.826  1.00  0.00     0.006 A 
ENDBRANCH  26  47
BRANCH  38  55
ATOM     55  C   UNL A   1      39.638  34.235  36.002  1.00  0.00     0.057 A 
ATOM     56  C   UNL A   1      38.910  33.984  37.171  1.00  0.00     0.134 A 
ATOM     57  C   UNL A   1      40.386  35.416  35.937  1.00  0.00     0.134 A 
ATOM     58  F   UNL A   1      38.161  32.877  37.282  1.00  0.00    -0.206 F 
ATOM     59  C   UNL A   1      38.903  34.892  38.230  1.00  0.00     0.040 A 
ATOM     60  C   UNL A   1      40.404  36.320  36.999  1.00  0.00     0.040 A 
ATOM     61  F   UNL A   1      41.105  35.710  34.843  1.00  0.00    -0.206 F 
ATOM     62  C   UNL A   1      39.654  36.063  38.146  1.00  0.00     0.006 A 
ENDBRANCH  38  55
ENDBRANCH  12  13
ENDBRANCH   5   7
ENDBRANCH   2   3
ENDBRANCH   1   2
BRANCH   1  63
ATOM     63  C   UNL A   1      35.508  21.066  25.622  1.00  0.00     0.117 C 
BRANCH  63  64
ATOM     64  N   UNL A   1      34.260  21.267  26.681  1.00  0.00    -0.354 N 
ATOM     65  C   UNL A   1      33.442  22.297  27.064  1.00  0.00     0.242 C 
ATOM     66  H   UNL A   1      34.050  20.433  27.161  1.00  0.00     0.163 HD
ATOM     67  O   UNL A   1      32.926  22.203  28.187  1.00  0.00    -0.273 OA
BRANCH  65  68
ATOM     68  C   UNL A   1      33.120  23.522  26.167  1.00  0.00     0.174 C 
BRANCH  68  69
ATOM     69  C   UNL A   1      32.458  24.732  26.875  1.00  0.00     0.072 C 
BRANCH  69  70
ATOM     70  C   UNL A   1      31.219  25.171  26.184  1.00  0.00    -0.020 A 
ATOM     71  C   UNL A   1      30.477  24.450  25.252  1.00  0.00     0.087 A 
ATOM     72  C   UNL A   1      30.845  26.528  26.109  1.00  0.00     0.003 A 
ATOM     73  N   UNL A   1      29.811  25.248  24.326  1.00  0.00    -0.361 N 
ATOM     74  C   UNL A   1      30.149  26.565  24.500  1.00  0.00     0.046 A 
ATOM     75  C   UNL A   1      31.403  28.075  26.877  1.00  0.00     0.010 A 
ATOM     76  H   UNL A   1      29.186  24.913  23.643  1.00  0.00     0.166 HD
ATOM     77  C   UNL A   1      30.171  28.071  23.526  1.00  0.00     0.026 A 
ATOM     78  C   UNL A   1      31.451  29.602  25.888  1.00  0.00     0.001 A 
ATOM     79  C   UNL A   1      30.764  29.605  24.245  1.00  0.00     0.002 A 
ENDBRANCH  69  70
ENDBRANCH  68  69
BRANCH  68  80
ATOM     80  N   UNL A   1      34.330  23.879  25.374  1.00  0.00    -0.358 N 
ATOM     81  H   UNL A   1      35.242  23.919  25.743  1.00  0.00     0.162 HD
BRANCH  80  82
ATOM     82  C   UNL A   1      34.007  24.151  24.033  1.00  0.00     0.137 A 
ATOM     83  N   UNL A   1      33.766  23.078  23.268  1.00  0.00    -0.219 NA
ATOM     84  C   UNL A   1      33.852  25.464  23.577  1.00  0.00     0.043 A 
ATOM     85  C   UNL A   1      33.278  23.328  22.048  1.00  0.00     0.224 A 
ATOM     86  C   UNL A   1      33.353  25.594  22.277  1.00  0.00     0.076 A 
ATOM     87  C   UNL A   1      34.181  26.612  24.335  1.00  0.00     0.014 A 
ATOM     88  N   UNL A   1      33.052  24.536  21.513  1.00  0.00    -0.236 NA
ATOM     89  C   UNL A   1      33.167  26.876  21.776  1.00  0.00     0.029 A 
ATOM     90  C   UNL A   1      34.003  27.884  23.805  1.00  0.00     0.001 A 
ATOM     91  C   UNL A   1      33.487  28.017  22.523  1.00  0.00     0.002 A 
ENDBRANCH  80  82
ENDBRANCH  68  80
ENDBRANCH  65  68
ENDBRANCH  63  64
ENDBRANCH   1  63
TORSDOF 14
ENDMDL
MODEL 3
REMARK VINA RESULT:     -13.8      2.935      7.671
REMARK SMILES O=C(NCCCNC(=O)[C@@H](Cc1c[nH]c2ccccc12)Nc1ncnc2ccccc12)c1ccc(-c2c3nc(c(-c4c(F)cccc4F)c4ccc([nH]4)c(-c4c(F)cccc4F)c4nc(c(-c5c(F)cccc5F)c5ccc2[nH]5)C=C4)C=C3)cc1
REMARK SMILES IDX 5 1 4 2 3 3 1 4 2 5 32 7 33 8 85 9 34 10 84 11 35 12 36 13
REMARK SMILES IDX 37 14 78 15 38 16 83 17 77 18 79 19 39 20 82 21 76 22 75 23
REMARK SMILES IDX 40 25 66 26 49 27 65 28 50 29 53 30 64 31 80 32 51 33 52 34
REMARK SMILES IDX 63 36 81 37 54 38 41 39 42 40 47 41 43 42 44 43 46 44 48 45
REMARK SMILES IDX 45 46 67 47 68 48 73 49 69 50 70 51 72 52 74 53 71 54 55 55
REMARK SMILES IDX 56 56 61 57 57 58 58 59 60 60 62 61 59 62 6 63 7 64 8 65
REMARK SMILES IDX 9 67 10 68 11 69 12 70 13 71 20 72 14 73 15 74 19 75 16 77
REMARK SMILES IDX 18 78 17 79 21 80 22 82 23 83 31 84 24 85 26 86 30 87 25 88
REMARK SMILES IDX 27 89 29 90 28 91
REMARK H PARENT 3 6 79 24 53 35 7 66 14 76 21 81
REMARK Flexibility Score: inf
ROOT
ATOM      1  C   UNL A   1      37.402  20.413  24.747  1.00  0.00     0.042 C 
ENDROOT
BRANCH   1   2
ATOM      2  C   UNL A   1      38.742  20.827  25.744  1.00  0.00     0.118 C 
BRANCH   2   3
ATOM      3  N   UNL A   1      39.747  19.768  25.880  1.00  0.00    -0.352 N 
ATOM      4  O   UNL A   1      41.818  18.888  25.819  1.00  0.00    -0.269 OA
ATOM      5  C   UNL A   1      41.102  19.852  26.075  1.00  0.00     0.251 C 
ATOM      6  H   UNL A   1      39.394  18.851  25.822  1.00  0.00     0.163 HD
BRANCH   5   7
ATOM      7  C   UNL A   1      41.704  21.092  26.613  1.00  0.00     0.039 A 
ATOM      8  C   UNL A   1      42.116  22.100  25.747  1.00  0.00     0.014 A 
ATOM      9  C   UNL A   1      41.759  21.303  27.997  1.00  0.00     0.014 A 
ATOM     10  C   UNL A   1      42.717  23.242  26.238  1.00  0.00     0.010 A 
ATOM     11  C   UNL A   1      42.214  22.529  28.497  1.00  0.00     0.010 A 
ATOM     12  C   UNL A   1      42.685  23.509  27.614  1.00  0.00    -0.014 A 
BRANCH  12  13
ATOM     13  C   UNL A   1      42.956  24.908  28.021  1.00  0.00     0.031 A 
ATOM     14  C   UNL A   1      41.857  25.887  28.271  1.00  0.00     0.074 A 
ATOM     15  C   UNL A   1      44.243  25.224  28.275  1.00  0.00     0.049 A 
ATOM     16  N   UNL A   1      41.941  27.093  28.769  1.00  0.00    -0.248 NA
ATOM     17  C   UNL A   1      40.493  25.477  27.908  1.00  0.00     0.031 C 
ATOM     18  C   UNL A   1      45.386  24.333  28.029  1.00  0.00     0.029 A 
ATOM     19  N   UNL A   1      44.808  26.322  28.863  1.00  0.00    -0.354 N 
ATOM     20  C   UNL A   1      40.649  27.597  28.762  1.00  0.00     0.074 A 
ATOM     21  C   UNL A   1      39.798  26.570  28.197  1.00  0.00     0.031 C 
ATOM     22  C   UNL A   1      46.486  24.864  28.576  1.00  0.00     0.029 A 
ATOM     23  C   UNL A   1      46.150  26.169  29.125  1.00  0.00     0.049 A 
ATOM     24  H   UNL A   1      44.304  27.140  29.078  1.00  0.00     0.167 HD
ATOM     25  C   UNL A   1      40.225  28.812  29.186  1.00  0.00     0.037 A 
ATOM     26  C   UNL A   1      47.017  26.990  29.743  1.00  0.00     0.037 A 
ATOM     27  C   UNL A   1      41.094  29.816  29.745  1.00  0.00     0.049 A 
ATOM     28  C   UNL A   1      46.506  28.307  30.239  1.00  0.00     0.074 A 
ATOM     29  C   UNL A   1      40.778  31.093  30.175  1.00  0.00     0.029 A 
ATOM     30  N   UNL A   1      42.456  29.649  29.961  1.00  0.00    -0.354 N 
ATOM     31  N   UNL A   1      45.282  28.777  30.208  1.00  0.00    -0.248 NA
ATOM     32  C   UNL A   1      47.492  29.213  30.838  1.00  0.00     0.031 C 
ATOM     33  C   UNL A   1      41.952  31.707  30.627  1.00  0.00     0.029 A 
ATOM     34  C   UNL A   1      42.994  30.801  30.514  1.00  0.00     0.049 A 
ATOM     35  H   UNL A   1      42.965  28.833  29.752  1.00  0.00     0.167 HD
ATOM     36  C   UNL A   1      45.352  30.046  30.758  1.00  0.00     0.074 A 
ATOM     37  C   UNL A   1      46.730  30.246  31.167  1.00  0.00     0.031 C 
ATOM     38  C   UNL A   1      44.374  30.974  30.892  1.00  0.00     0.037 A 
BRANCH  25  39
ATOM     39  C   UNL A   1      38.767  29.126  29.035  1.00  0.00     0.057 A 
ATOM     40  C   UNL A   1      37.878  29.047  30.113  1.00  0.00     0.134 A 
ATOM     41  C   UNL A   1      38.250  29.540  27.801  1.00  0.00     0.134 A 
ATOM     42  F   UNL A   1      38.305  28.638  31.318  1.00  0.00    -0.206 F 
ATOM     43  C   UNL A   1      36.524  29.357  29.969  1.00  0.00     0.040 A 
ATOM     44  C   UNL A   1      36.902  29.871  27.647  1.00  0.00     0.040 A 
ATOM     45  F   UNL A   1      39.047  29.637  26.726  1.00  0.00    -0.206 F 
ATOM     46  C   UNL A   1      36.034  29.777  28.733  1.00  0.00     0.006 A 
ENDBRANCH  25  39
BRANCH  26  47
ATOM     47  C   UNL A   1      48.439  26.593  29.896  1.00  0.00     0.057 A 
ATOM     48  C   UNL A   1      48.873  25.839  30.991  1.00  0.00     0.134 A 
ATOM     49  C   UNL A   1      49.397  26.938  28.932  1.00  0.00     0.134 A 
ATOM     50  F   UNL A   1      48.010  25.488  31.955  1.00  0.00    -0.206 F 
ATOM     51  C   UNL A   1      50.208  25.451  31.128  1.00  0.00     0.040 A 
ATOM     52  C   UNL A   1      50.726  26.530  29.040  1.00  0.00     0.040 A 
ATOM     53  F   UNL A   1      49.043  27.652  27.853  1.00  0.00    -0.206 F 
ATOM     54  C   UNL A   1      51.136  25.789  30.145  1.00  0.00     0.006 A 
ENDBRANCH  26  47
BRANCH  38  55
ATOM     55  C   UNL A   1      44.785  32.283  31.489  1.00  0.00     0.057 A 
ATOM     56  C   UNL A   1      44.746  32.497  32.873  1.00  0.00     0.134 A 
ATOM     57  C   UNL A   1      45.211  33.339  30.676  1.00  0.00     0.134 A 
ATOM     58  F   UNL A   1      44.329  31.527  33.699  1.00  0.00    -0.206 F 
ATOM     59  C   UNL A   1      45.092  33.729  33.426  1.00  0.00     0.040 A 
ATOM     60  C   UNL A   1      45.580  34.569  31.220  1.00  0.00     0.040 A 
ATOM     61  F   UNL A   1      45.271  33.194  29.344  1.00  0.00    -0.206 F 
ATOM     62  C   UNL A   1      45.513  34.769  32.599  1.00  0.00     0.006 A 
ENDBRANCH  38  55
ENDBRANCH  12  13
ENDBRANCH   5   7
ENDBRANCH   2   3
ENDBRANCH   1   2
BRANCH   1  63
ATOM     63  C   UNL A   1      35.225  20.575  24.984  1.00  0.00     0.117 C 
BRANCH  63  64
ATOM     64  N   UNL A   1      34.320  20.928  26.316  1.00  0.00    -0.354 N 
ATOM     65  C   UNL A   1      33.751  22.051  26.858  1.00  0.00     0.242 C 
ATOM     66  H   UNL A   1      34.144  20.128  26.862  1.00  0.00     0.163 HD
ATOM     67  O   UNL A   1      33.530  22.023  28.077  1.00  0.00    -0.273 OA
BRANCH  65  68
ATOM     68  C   UNL A   1      33.355  23.303  26.030  1.00  0.00     0.174 C 
BRANCH  68  69
ATOM     69  C   UNL A   1      32.697  24.464  26.820  1.00  0.00     0.072 C 
BRANCH  69  70
ATOM     70  C   UNL A   1      31.428  24.914  26.191  1.00  0.00    -0.020 A 
ATOM     71  C   UNL A   1      30.668  24.226  25.249  1.00  0.00     0.087 A 
ATOM     72  C   UNL A   1      31.029  26.265  26.197  1.00  0.00     0.003 A 
ATOM     73  N   UNL A   1      29.959  25.057  24.386  1.00  0.00    -0.361 N 
ATOM     74  C   UNL A   1      30.280  26.370  24.615  1.00  0.00     0.046 A 
ATOM     75  C   UNL A   1      31.586  27.782  27.024  1.00  0.00     0.010 A 
ATOM     76  H   UNL A   1      29.317  24.745  23.707  1.00  0.00     0.166 HD
ATOM     77  C   UNL A   1      30.244  27.923  23.718  1.00  0.00     0.026 A 
ATOM     78  C   UNL A   1      31.575  29.357  26.113  1.00  0.00     0.001 A 
ATOM     79  C   UNL A   1      30.834  29.430  24.495  1.00  0.00     0.002 A 
ENDBRANCH  69  70
ENDBRANCH  68  69
BRANCH  68  80
ATOM     80  N   UNL A   1      34.517  23.726  25.198  1.00  0.00    -0.358 N 
ATOM     81  H   UNL A   1      35.442  23.787  25.529  1.00  0.00     0.162 HD
BRANCH  80  82
ATOM     82  C   UNL A   1      34.127  24.028  23.881  1.00  0.00     0.137 A 
ATOM     83  N   UNL A   1      33.890  22.971  23.093  1.00  0.00    -0.219 NA
ATOM     84  C   UNL A   1      33.907  25.348  23.475  1.00  0.00     0.043 A 
ATOM     85  C   UNL A   1      33.342  23.241  21.903  1.00  0.00     0.224 A 
ATOM     86  C   UNL A   1      33.348  25.499  22.202  1.00  0.00     0.076 A 
ATOM     87  C   UNL A   1      34.229  26.483  24.255  1.00  0.00     0.014 A 
ATOM     88  N   UNL A   1      33.050  24.455  21.417  1.00  0.00    -0.236 NA
ATOM     89  C   UNL A   1      33.096  26.789  21.751  1.00  0.00     0.029 A 
ATOM     90  C   UNL A   1      33.984  27.763  23.774  1.00  0.00     0.001 A 
ATOM     91  C   UNL A   1      33.408  27.917  22.521  1.00  0.00     0.002 A 
ENDBRANCH  80  82
ENDBRANCH  68  80
ENDBRANCH  65  68
ENDBRANCH  63  64
ENDBRANCH   1  63
TORSDOF 14
ENDMDL
