MODEL 1
REMARK VINA RESULT:     -11.4      0.000      0.000
REMARK SMILES CC[C@](C)(Nc1cccc(Br)c1)C(=O)NCCCNC(=O)c1ccc(-c2c3nc(c(-c4c(F)cccc4F)c4ccc([nH]4)c(-c4c(F)cccc4F)c4nc(c(-c5c(F)cccc5F)c5ccc2[nH]5)C=C4)C=C3)cc1
REMARK SMILES IDX 17 1 16 2 15 3 13 4 14 5 3 7 4 8 2 9 1 10 5 11 6 13 7 14
REMARK SMILES IDX 12 15 8 16 10 17 9 18 11 19 18 20 19 21 20 22 21 24 22 25
REMARK SMILES IDX 23 26 75 27 24 28 74 29 25 30 26 31 27 32 68 33 28 34 73 35
REMARK SMILES IDX 67 36 69 37 29 38 72 39 66 40 65 41 30 43 56 44 39 45 55 46
REMARK SMILES IDX 40 47 43 48 54 49 70 50 41 51 42 52 53 54 71 55 44 56 31 57
REMARK SMILES IDX 32 58 37 59 33 60 34 61 36 62 38 63 35 64 57 65 58 66 63 67
REMARK SMILES IDX 59 68 60 69 62 70 64 71 61 72 45 73 46 74 51 75 47 76 48 77
REMARK SMILES IDX 50 78 52 79 49 80
REMARK H PARENT 15 6 5 12 19 23 69 42 43 53
REMARK Flexibility Score: inf
ROOT
ATOM      1  C   UNL A   1      37.377  19.920  24.970  1.00  0.00     0.042 C 
ENDROOT
BRANCH   1   2
ATOM      2  C   UNL A   1      36.211  20.900  24.905  1.00  0.00     0.117 C 
BRANCH   2   3
ATOM      3  N   UNL A   1      35.612  21.235  26.188  1.00  0.00    -0.354 N 
ATOM      4  C   UNL A   1      34.331  21.557  26.546  1.00  0.00     0.245 C 
ATOM      5  O   UNL A   1      34.150  21.773  27.751  1.00  0.00    -0.272 OA
ATOM      6  H   UNL A   1      36.249  21.230  26.939  1.00  0.00     0.163 HD
BRANCH   4   7
ATOM      7  C   UNL A   1      33.167  21.639  25.516  1.00  0.00     0.113 C 
ATOM      8  C   UNL A   1      33.724  21.975  24.114  1.00  0.00     0.045 C 
BRANCH   7   9
ATOM      9  C   UNL A   1      32.255  22.838  25.947  1.00  0.00     0.035 C 
ATOM     10  C   UNL A   1      30.764  22.557  26.082  1.00  0.00     0.007 C 
ENDBRANCH   7   9
BRANCH   7  11
ATOM     11  N   UNL A   1      32.389  20.378  25.377  1.00  0.00    -0.371 N 
ATOM     12  H   UNL A   1      31.552  20.341  25.892  1.00  0.00     0.161 HD
BRANCH  11  13
ATOM     13  C   UNL A   1      32.673  19.245  24.622  1.00  0.00     0.036 A 
ATOM     14  C   UNL A   1      32.253  19.020  23.308  1.00  0.00     0.026 A 
ATOM     15  C   UNL A   1      33.553  18.294  25.171  1.00  0.00     0.041 A 
ATOM     16  C   UNL A   1      32.746  17.951  22.544  1.00  0.00     0.003 A 
ATOM     17  C   UNL A   1      34.010  17.200  24.428  1.00  0.00     0.020 A 
ATOM     18  C   UNL A   1      33.633  17.040  23.103  1.00  0.00     0.016 A 
ATOM     19  Br  UNL A   1      35.165  15.935  25.230  1.00  0.00    -0.051 Br
ENDBRANCH  11  13
ENDBRANCH   7  11
ENDBRANCH   4   7
ENDBRANCH   2   3
ENDBRANCH   1   2
BRANCH   1  20
ATOM     20  C   UNL A   1      38.617  20.420  25.697  1.00  0.00     0.118 C 
BRANCH  20  21
ATOM     21  N   UNL A   1      39.700  19.448  25.699  1.00  0.00    -0.352 N 
ATOM     22  C   UNL A   1      41.027  19.620  26.010  1.00  0.00     0.251 C 
ATOM     23  H   UNL A   1      39.444  18.534  25.438  1.00  0.00     0.163 HD
ATOM     24  O   UNL A   1      41.829  18.716  25.790  1.00  0.00    -0.269 OA
BRANCH  22  25
ATOM     25  C   UNL A   1      41.506  20.897  26.587  1.00  0.00     0.039 A 
ATOM     26  C   UNL A   1      42.009  21.879  25.729  1.00  0.00     0.014 A 
ATOM     27  C   UNL A   1      41.487  21.121  27.967  1.00  0.00     0.014 A 
ATOM     28  C   UNL A   1      42.432  23.107  26.245  1.00  0.00     0.010 A 
ATOM     29  C   UNL A   1      41.847  22.368  28.474  1.00  0.00     0.010 A 
ATOM     30  C   UNL A   1      42.325  23.375  27.619  1.00  0.00    -0.014 A 
BRANCH  30  31
ATOM     31  C   UNL A   1      42.719  24.690  28.189  1.00  0.00     0.031 A 
ATOM     32  C   UNL A   1      41.680  25.753  28.416  1.00  0.00     0.074 A 
ATOM     33  C   UNL A   1      44.016  24.958  28.433  1.00  0.00     0.049 A 
ATOM     34  N   UNL A   1      41.836  27.001  28.784  1.00  0.00    -0.248 NA
ATOM     35  C   UNL A   1      40.281  25.368  28.176  1.00  0.00     0.031 C 
ATOM     36  C   UNL A   1      45.126  24.025  28.237  1.00  0.00     0.029 A 
ATOM     37  N   UNL A   1      44.623  26.107  28.882  1.00  0.00    -0.354 N 
ATOM     38  C   UNL A   1      40.561  27.552  28.800  1.00  0.00     0.074 A 
ATOM     39  C   UNL A   1      39.648  26.517  28.366  1.00  0.00     0.031 C 
ATOM     40  C   UNL A   1      46.276  24.634  28.570  1.00  0.00     0.029 A 
ATOM     41  C   UNL A   1      45.992  26.012  28.961  1.00  0.00     0.049 A 
ATOM     42  H   UNL A   1      44.124  26.920  29.125  1.00  0.00     0.167 HD
ATOM     43  C   UNL A   1      40.185  28.803  29.157  1.00  0.00     0.037 A 
ATOM     44  C   UNL A   1      46.914  26.936  29.291  1.00  0.00     0.037 A 
ATOM     45  C   UNL A   1      41.090  29.826  29.612  1.00  0.00     0.049 A 
ATOM     46  C   UNL A   1      46.473  28.325  29.662  1.00  0.00     0.074 A 
ATOM     47  C   UNL A   1      40.795  31.109  30.039  1.00  0.00     0.029 A 
ATOM     48  N   UNL A   1      42.466  29.682  29.697  1.00  0.00    -0.354 N 
ATOM     49  N   UNL A   1      45.261  28.821  29.715  1.00  0.00    -0.248 NA
ATOM     50  C   UNL A   1      47.529  29.285  30.020  1.00  0.00     0.031 C 
ATOM     51  C   UNL A   1      41.997  31.757  30.343  1.00  0.00     0.029 A 
ATOM     52  C   UNL A   1      43.036  30.860  30.153  1.00  0.00     0.049 A 
ATOM     53  H   UNL A   1      42.965  28.865  29.466  1.00  0.00     0.167 HD
ATOM     54  C   UNL A   1      45.404  30.132  30.149  1.00  0.00     0.074 A 
ATOM     55  C   UNL A   1      46.820  30.358  30.344  1.00  0.00     0.031 C 
ATOM     56  C   UNL A   1      44.445  31.064  30.368  1.00  0.00     0.037 A 
BRANCH  43  57
ATOM     57  C   UNL A   1      38.724  29.139  29.069  1.00  0.00     0.057 A 
ATOM     58  C   UNL A   1      37.881  29.069  30.186  1.00  0.00     0.134 A 
ATOM     59  C   UNL A   1      38.164  29.576  27.863  1.00  0.00     0.134 A 
ATOM     60  F   UNL A   1      38.352  28.650  31.369  1.00  0.00    -0.206 F 
ATOM     61  C   UNL A   1      36.527  29.398  30.099  1.00  0.00     0.040 A 
ATOM     62  C   UNL A   1      36.818  29.933  27.769  1.00  0.00     0.040 A 
ATOM     63  F   UNL A   1      38.917  29.672  26.756  1.00  0.00    -0.206 F 
ATOM     64  C   UNL A   1      35.994  29.838  28.889  1.00  0.00     0.006 A 
ENDBRANCH  43  57
BRANCH  44  65
ATOM     65  C   UNL A   1      48.355  26.576  29.297  1.00  0.00     0.057 A 
ATOM     66  C   UNL A   1      49.151  26.764  28.160  1.00  0.00     0.134 A 
ATOM     67  C   UNL A   1      48.969  26.027  30.429  1.00  0.00     0.134 A 
ATOM     68  F   UNL A   1      48.614  27.267  27.038  1.00  0.00    -0.206 F 
ATOM     69  C   UNL A   1      50.498  26.404  28.142  1.00  0.00     0.040 A 
ATOM     70  C   UNL A   1      50.322  25.686  30.433  1.00  0.00     0.040 A 
ATOM     71  F   UNL A   1      48.263  25.827  31.552  1.00  0.00    -0.206 F 
ATOM     72  C   UNL A   1      51.088  25.867  29.284  1.00  0.00     0.006 A 
ENDBRANCH  44  65
BRANCH  56  73
ATOM     73  C   UNL A   1      44.880  32.396  30.905  1.00  0.00     0.057 A 
ATOM     74  C   UNL A   1      45.178  33.475  30.064  1.00  0.00     0.134 A 
ATOM     75  C   UNL A   1      44.941  32.616  32.288  1.00  0.00     0.134 A 
ATOM     76  F   UNL A   1      45.151  33.327  28.731  1.00  0.00    -0.206 F 
ATOM     77  C   UNL A   1      45.533  34.723  30.579  1.00  0.00     0.040 A 
ATOM     78  C   UNL A   1      45.270  33.865  32.814  1.00  0.00     0.040 A 
ATOM     79  F   UNL A   1      44.660  31.626  33.148  1.00  0.00    -0.206 F 
ATOM     80  C   UNL A   1      45.571  34.923  31.959  1.00  0.00     0.006 A 
ENDBRANCH  56  73
ENDBRANCH  30  31
ENDBRANCH  22  25
ENDBRANCH  20  21
ENDBRANCH   1  20
TORSDOF 13
ENDMDL
MODEL 2
REMARK VINA RESULT:     -11.2      5.854     10.221
REMARK SMILES CC[C@](C)(Nc1cccc(Br)c1)C(=O)NCCCNC(=O)c1ccc(-c2c3nc(c(-c4c(F)cccc4F)c4ccc([nH]4)c(-c4c(F)cccc4F)c4nc(c(-c5c(F)cccc5F)c5ccc2[nH]5)C=C4)C=C3)cc1
REMARK SMILES IDX 17 1 16 2 15 3 13 4 14 5 3 7 4 8 2 9 1 10 5 11 6 13 7 14
REMARK SMILES IDX 12 15 8 16 10 17 9 18 11 19 18 20 19 21 20 22 21 24 22 25
REMARK SMILES IDX 23 26 75 27 24 28 74 29 25 30 26 31 27 32 68 33 28 34 73 35
REMARK SMILES IDX 67 36 69 37 29 38 72 39 66 40 65 41 30 43 56 44 39 45 55 46
REMARK SMILES IDX 40 47 43 48 54 49 70 50 41 51 42 52 53 54 71 55 44 56 31 57
REMARK SMILES IDX 32 58 37 59 33 60 34 61 36 62 38 63 35 64 57 65 58 66 63 67
REMARK SMILES IDX 59 68 60 69 62 70 64 71 61 72 45 73 46 74 51 75 47 76 48 77
REMARK SMILES IDX 50 78 52 79 49 80
REMARK H PARENT 15 6 5 12 19 23 69 42 43 53
REMARK Flexibility Score: inf
ROOT
ATOM      1  C   UNL A   1      31.407  32.097  26.517  1.00  0.00     0.042 C 
ENDROOT
BRANCH   1   2
ATOM      2  C   UNL A   1      31.650  30.724  25.899  1.00  0.00     0.117 C 
BRANCH   2   3
ATOM      3  N   UNL A   1      31.382  29.595  26.777  1.00  0.00    -0.354 N 
ATOM      4  C   UNL A   1      31.832  28.303  26.772  1.00  0.00     0.245 C 
ATOM      5  O   UNL A   1      31.416  27.587  27.692  1.00  0.00    -0.272 OA
ATOM      6  H   UNL A   1      30.759  29.800  27.512  1.00  0.00     0.163 HD
BRANCH   4   7
ATOM      7  C   UNL A   1      32.813  27.760  25.692  1.00  0.00     0.113 C 
ATOM      8  C   UNL A   1      33.334  26.364  26.105  1.00  0.00     0.045 C 
BRANCH   7   9
ATOM      9  C   UNL A   1      34.049  28.723  25.668  1.00  0.00     0.035 C 
ATOM     10  C   UNL A   1      34.756  28.971  26.994  1.00  0.00     0.007 C 
ENDBRANCH   7   9
BRANCH   7  11
ATOM     11  N   UNL A   1      32.207  27.608  24.342  1.00  0.00    -0.371 N 
ATOM     12  H   UNL A   1      32.842  27.620  23.591  1.00  0.00     0.161 HD
BRANCH  11  13
ATOM     13  C   UNL A   1      30.871  27.452  23.988  1.00  0.00     0.036 A 
ATOM     14  C   UNL A   1      30.076  26.343  24.292  1.00  0.00     0.026 A 
ATOM     15  C   UNL A   1      30.221  28.541  23.377  1.00  0.00     0.041 A 
ATOM     16  C   UNL A   1      28.689  26.343  24.080  1.00  0.00     0.003 A 
ATOM     17  C   UNL A   1      28.845  28.526  23.121  1.00  0.00     0.020 A 
ATOM     18  C   UNL A   1      28.068  27.441  23.498  1.00  0.00     0.016 A 
ATOM     19  Br  UNL A   1      28.033  30.005  22.266  1.00  0.00    -0.051 Br
ENDBRANCH  11  13
ENDBRANCH   7  11
ENDBRANCH   4   7
ENDBRANCH   2   3
ENDBRANCH   1   2
BRANCH   1  20
ATOM     20  C   UNL A   1      32.600  32.718  27.230  1.00  0.00     0.118 C 
BRANCH  20  21
ATOM     21  N   UNL A   1      32.367  34.101  27.618  1.00  0.00    -0.352 N 
ATOM     22  C   UNL A   1      32.992  34.855  28.583  1.00  0.00     0.251 C 
ATOM     23  H   UNL A   1      31.658  34.564  27.116  1.00  0.00     0.163 HD
ATOM     24  O   UNL A   1      32.544  35.957  28.883  1.00  0.00    -0.269 OA
BRANCH  22  25
ATOM     25  C   UNL A   1      34.190  34.338  29.283  1.00  0.00     0.039 A 
ATOM     26  C   UNL A   1      34.021  33.630  30.478  1.00  0.00     0.014 A 
ATOM     27  C   UNL A   1      35.476  34.568  28.786  1.00  0.00     0.014 A 
ATOM     28  C   UNL A   1      35.133  33.099  31.139  1.00  0.00     0.010 A 
ATOM     29  C   UNL A   1      36.577  33.983  29.410  1.00  0.00     0.010 A 
ATOM     30  C   UNL A   1      36.419  33.244  30.593  1.00  0.00    -0.014 A 
BRANCH  30  31
ATOM     31  C   UNL A   1      37.613  32.647  31.246  1.00  0.00     0.031 A 
ATOM     32  C   UNL A   1      38.304  31.468  30.618  1.00  0.00     0.074 A 
ATOM     33  C   UNL A   1      38.033  33.111  32.438  1.00  0.00     0.049 A 
ATOM     34  N   UNL A   1      39.277  30.729  31.088  1.00  0.00    -0.248 NA
ATOM     35  C   UNL A   1      37.820  31.051  29.292  1.00  0.00     0.031 C 
ATOM     36  C   UNL A   1      37.440  34.234  33.167  1.00  0.00     0.029 A 
ATOM     37  N   UNL A   1      39.049  32.682  33.258  1.00  0.00    -0.354 N 
ATOM     38  C   UNL A   1      39.508  29.752  30.128  1.00  0.00     0.074 A 
ATOM     39  C   UNL A   1      38.547  29.966  29.068  1.00  0.00     0.031 C 
ATOM     40  C   UNL A   1      38.107  34.409  34.320  1.00  0.00     0.029 A 
ATOM     41  C   UNL A   1      39.143  33.387  34.434  1.00  0.00     0.049 A 
ATOM     42  H   UNL A   1      39.653  31.941  33.024  1.00  0.00     0.167 HD
ATOM     43  C   UNL A   1      40.445  28.773  30.125  1.00  0.00     0.037 A 
ATOM     44  C   UNL A   1      39.958  33.217  35.492  1.00  0.00     0.037 A 
ATOM     45  C   UNL A   1      41.416  28.574  31.168  1.00  0.00     0.049 A 
ATOM     46  C   UNL A   1      40.975  32.108  35.474  1.00  0.00     0.074 A 
ATOM     47  C   UNL A   1      42.434  27.638  31.230  1.00  0.00     0.029 A 
ATOM     48  N   UNL A   1      41.490  29.323  32.332  1.00  0.00    -0.354 N 
ATOM     49  N   UNL A   1      41.212  31.219  34.542  1.00  0.00    -0.248 NA
ATOM     50  C   UNL A   1      41.840  31.980  36.658  1.00  0.00     0.031 C 
ATOM     51  C   UNL A   1      43.098  27.793  32.451  1.00  0.00     0.029 A 
ATOM     52  C   UNL A   1      42.525  28.858  33.127  1.00  0.00     0.049 A 
ATOM     53  H   UNL A   1      40.895  30.073  32.561  1.00  0.00     0.167 HD
ATOM     54  C   UNL A   1      42.274  30.453  35.005  1.00  0.00     0.074 A 
ATOM     55  C   UNL A   1      42.637  30.982  36.302  1.00  0.00     0.031 C 
ATOM     56  C   UNL A   1      42.894  29.409  34.405  1.00  0.00     0.037 A 
BRANCH  43  57
ATOM     57  C   UNL A   1      40.463  27.837  28.952  1.00  0.00     0.057 A 
ATOM     58  C   UNL A   1      39.672  26.680  28.917  1.00  0.00     0.134 A 
ATOM     59  C   UNL A   1      41.248  28.117  27.827  1.00  0.00     0.134 A 
ATOM     60  F   UNL A   1      38.905  26.349  29.965  1.00  0.00    -0.206 F 
ATOM     61  C   UNL A   1      39.684  25.823  27.815  1.00  0.00     0.040 A 
ATOM     62  C   UNL A   1      41.247  27.281  26.709  1.00  0.00     0.040 A 
ATOM     63  F   UNL A   1      42.023  29.212  27.791  1.00  0.00    -0.206 F 
ATOM     64  C   UNL A   1      40.467  26.126  26.704  1.00  0.00     0.006 A 
ENDBRANCH  43  57
BRANCH  44  65
ATOM     65  C   UNL A   1      39.856  34.127  36.662  1.00  0.00     0.057 A 
ATOM     66  C   UNL A   1      39.056  33.798  37.764  1.00  0.00     0.134 A 
ATOM     67  C   UNL A   1      40.541  35.346  36.703  1.00  0.00     0.134 A 
ATOM     68  F   UNL A   1      38.359  32.652  37.772  1.00  0.00    -0.206 F 
ATOM     69  C   UNL A   1      38.928  34.656  38.855  1.00  0.00     0.040 A 
ATOM     70  C   UNL A   1      40.442  36.203  37.800  1.00  0.00     0.040 A 
ATOM     71  F   UNL A   1      41.328  35.716  35.682  1.00  0.00    -0.206 F 
ATOM     72  C   UNL A   1      39.627  35.862  38.877  1.00  0.00     0.006 A 
ENDBRANCH  44  65
BRANCH  56  73
ATOM     73  C   UNL A   1      44.071  28.801  35.111  1.00  0.00     0.057 A 
ATOM     74  C   UNL A   1      45.371  29.296  34.951  1.00  0.00     0.134 A 
ATOM     75  C   UNL A   1      43.887  27.743  36.012  1.00  0.00     0.134 A 
ATOM     76  F   UNL A   1      45.616  30.299  34.094  1.00  0.00    -0.206 F 
ATOM     77  C   UNL A   1      46.448  28.752  35.652  1.00  0.00     0.040 A 
ATOM     78  C   UNL A   1      44.952  27.208  36.736  1.00  0.00     0.040 A 
ATOM     79  F   UNL A   1      42.665  27.229  36.217  1.00  0.00    -0.206 F 
ATOM     80  C   UNL A   1      46.238  27.711  36.555  1.00  0.00     0.006 A 
ENDBRANCH  56  73
ENDBRANCH  30  31
ENDBRANCH  22  25
ENDBRANCH  20  21
ENDBRANCH   1  20
TORSDOF 13
ENDMDL
MODEL 3
REMARK VINA RESULT:     -11.1      2.095      3.079
REMARK SMILES CC[C@](C)(Nc1cccc(Br)c1)C(=O)NCCCNC(=O)c1ccc(-c2c3nc(c(-c4c(F)cccc4F)c4ccc([nH]4)c(-c4c(F)cccc4F)c4nc(c(-c5c(F)cccc5F)c5ccc2[nH]5)C=C4)C=C3)cc1
REMARK SMILES IDX 17 1 16 2 15 3 13 4 14 5 3 7 4 8 2 9 1 10 5 11 6 13 7 14
REMARK SMILES IDX 12 15 8 16 10 17 9 18 11 19 18 20 19 21 20 22 21 24 22 25
REMARK SMILES IDX 23 26 75 27 24 28 74 29 25 30 26 31 27 32 68 33 28 34 73 35
REMARK SMILES IDX 67 36 69 37 29 38 72 39 66 40 65 41 30 43 56 44 39 45 55 46
REMARK SMILES IDX 40 47 43 48 54 49 70 50 41 51 42 52 53 54 71 55 44 56 31 57
REMARK SMILES IDX 32 58 37 59 33 60 34 61 36 62 38 63 35 64 57 65 58 66 63 67
REMARK SMILES IDX 59 68 60 69 62 70 64 71 61 72 45 73 46 74 51 75 47 76 48 77
REMARK SMILES IDX 50 78 52 79 49 80
REMARK H PARENT 15 6 5 12 19 23 69 42 43 53
REMARK Flexibility Score: inf
ROOT
ATOM      1  C   UNL A   1      37.771  19.677  25.011  1.00  0.00     0.042 C 
ENDROOT
BRANCH   1   2
ATOM      2  C   UNL A   1      36.589  20.640  25.011  1.00  0.00     0.117 C 
BRANCH   2   3
ATOM      3  N   UNL A   1      35.279  20.010  24.977  1.00  0.00    -0.354 N 
ATOM      4  C   UNL A   1      34.027  20.481  25.265  1.00  0.00     0.245 C 
ATOM      5  O   UNL A   1      33.101  19.674  25.112  1.00  0.00    -0.272 OA
ATOM      6  H   UNL A   1      35.296  19.066  24.696  1.00  0.00     0.163 HD
BRANCH   4   7
ATOM      7  C   UNL A   1      33.768  21.941  25.743  1.00  0.00     0.113 C 
ATOM      8  C   UNL A   1      34.010  22.048  27.266  1.00  0.00     0.045 C 
BRANCH   7   9
ATOM      9  C   UNL A   1      32.251  22.243  25.496  1.00  0.00     0.035 C 
ATOM     10  C   UNL A   1      31.484  22.901  26.636  1.00  0.00     0.007 C 
ENDBRANCH   7   9
BRANCH   7  11
ATOM     11  N   UNL A   1      34.644  22.956  25.097  1.00  0.00    -0.371 N 
ATOM     12  H   UNL A   1      35.592  22.705  25.019  1.00  0.00     0.161 HD
BRANCH  11  13
ATOM     13  C   UNL A   1      34.316  24.207  24.588  1.00  0.00     0.036 A 
ATOM     14  C   UNL A   1      33.954  24.474  23.264  1.00  0.00     0.026 A 
ATOM     15  C   UNL A   1      34.221  25.281  25.493  1.00  0.00     0.041 A 
ATOM     16  C   UNL A   1      33.442  25.720  22.871  1.00  0.00     0.003 A 
ATOM     17  C   UNL A   1      33.755  26.539  25.095  1.00  0.00     0.020 A 
ATOM     18  C   UNL A   1      33.335  26.756  23.791  1.00  0.00     0.016 A 
ATOM     19  Br  UNL A   1      33.681  27.954  26.348  1.00  0.00    -0.051 Br
ENDBRANCH  11  13
ENDBRANCH   7  11
ENDBRANCH   4   7
ENDBRANCH   2   3
ENDBRANCH   1   2
BRANCH   1  20
ATOM     20  C   UNL A   1      39.003  20.146  25.772  1.00  0.00     0.118 C 
BRANCH  20  21
ATOM     21  N   UNL A   1      40.047  19.135  25.833  1.00  0.00    -0.352 N 
ATOM     22  C   UNL A   1      41.392  19.281  26.079  1.00  0.00     0.251 C 
ATOM     23  H   UNL A   1      39.747  18.211  25.675  1.00  0.00     0.163 HD
ATOM     24  O   UNL A   1      42.149  18.328  25.923  1.00  0.00    -0.269 OA
BRANCH  22  25
ATOM     25  C   UNL A   1      41.940  20.588  26.508  1.00  0.00     0.039 A 
ATOM     26  C   UNL A   1      42.327  21.511  25.531  1.00  0.00     0.014 A 
ATOM     27  C   UNL A   1      42.101  20.898  27.862  1.00  0.00     0.014 A 
ATOM     28  C   UNL A   1      42.813  22.766  25.910  1.00  0.00     0.010 A 
ATOM     29  C   UNL A   1      42.524  22.172  28.238  1.00  0.00     0.010 A 
ATOM     30  C   UNL A   1      42.886  23.119  27.267  1.00  0.00    -0.014 A 
BRANCH  30  31
ATOM     31  C   UNL A   1      43.349  24.464  27.697  1.00  0.00     0.031 A 
ATOM     32  C   UNL A   1      42.348  25.523  28.068  1.00  0.00     0.074 A 
ATOM     33  C   UNL A   1      44.663  24.761  27.685  1.00  0.00     0.049 A 
ATOM     34  N   UNL A   1      42.542  26.788  28.347  1.00  0.00    -0.248 NA
ATOM     35  C   UNL A   1      40.937  25.109  28.109  1.00  0.00     0.031 C 
ATOM     36  C   UNL A   1      45.738  23.835  27.325  1.00  0.00     0.029 A 
ATOM     37  N   UNL A   1      45.317  25.937  27.964  1.00  0.00    -0.354 N 
ATOM     38  C   UNL A   1      41.281  27.322  28.576  1.00  0.00     0.074 A 
ATOM     39  C   UNL A   1      40.326  26.256  28.364  1.00  0.00     0.031 C 
ATOM     40  C   UNL A   1      46.916  24.474  27.413  1.00  0.00     0.029 A 
ATOM     41  C   UNL A   1      46.679  25.864  27.791  1.00  0.00     0.049 A 
ATOM     42  H   UNL A   1      44.855  26.753  28.260  1.00  0.00     0.167 HD
ATOM     43  C   UNL A   1      40.950  28.584  28.943  1.00  0.00     0.037 A 
ATOM     44  C   UNL A   1      47.626  26.814  27.904  1.00  0.00     0.037 A 
ATOM     45  C   UNL A   1      41.901  29.638  29.177  1.00  0.00     0.049 A 
ATOM     46  C   UNL A   1      47.231  28.213  28.291  1.00  0.00     0.074 A 
ATOM     47  C   UNL A   1      41.662  30.935  29.597  1.00  0.00     0.029 A 
ATOM     48  N   UNL A   1      43.272  29.517  29.012  1.00  0.00    -0.354 N 
ATOM     49  N   UNL A   1      46.040  28.694  28.547  1.00  0.00    -0.248 NA
ATOM     50  C   UNL A   1      48.315  29.202  28.405  1.00  0.00     0.031 C 
ATOM     51  C   UNL A   1      42.886  31.612  29.645  1.00  0.00     0.029 A 
ATOM     52  C   UNL A   1      43.890  30.722  29.303  1.00  0.00     0.049 A 
ATOM     53  H   UNL A   1      43.737  28.697  28.727  1.00  0.00     0.167 HD
ATOM     54  C   UNL A   1      46.232  30.026  28.891  1.00  0.00     0.074 A 
ATOM     55  C   UNL A   1      47.655  30.279  28.810  1.00  0.00     0.031 C 
ATOM     56  C   UNL A   1      45.311  30.954  29.244  1.00  0.00     0.037 A 
BRANCH  43  57
ATOM     57  C   UNL A   1      39.491  28.895  29.113  1.00  0.00     0.057 A 
ATOM     58  C   UNL A   1      38.696  29.318  28.040  1.00  0.00     0.134 A 
ATOM     59  C   UNL A   1      38.866  28.730  30.355  1.00  0.00     0.134 A 
ATOM     60  F   UNL A   1      39.234  29.504  26.827  1.00  0.00    -0.206 F 
ATOM     61  C   UNL A   1      37.336  29.590  28.203  1.00  0.00     0.040 A 
ATOM     62  C   UNL A   1      37.502  28.973  30.525  1.00  0.00     0.040 A 
ATOM     63  F   UNL A   1      39.568  28.320  31.423  1.00  0.00    -0.206 F 
ATOM     64  C   UNL A   1      36.735  29.411  29.447  1.00  0.00     0.006 A 
ENDBRANCH  43  57
BRANCH  44  65
ATOM     65  C   UNL A   1      49.052  26.474  27.657  1.00  0.00     0.057 A 
ATOM     66  C   UNL A   1      49.588  26.511  26.365  1.00  0.00     0.134 A 
ATOM     67  C   UNL A   1      49.905  26.095  28.700  1.00  0.00     0.134 A 
ATOM     68  F   UNL A   1      48.814  26.846  25.322  1.00  0.00    -0.206 F 
ATOM     69  C   UNL A   1      50.917  26.166  26.115  1.00  0.00     0.040 A 
ATOM     70  C   UNL A   1      51.242  25.773  28.468  1.00  0.00     0.040 A 
ATOM     71  F   UNL A   1      49.453  26.046  29.962  1.00  0.00    -0.206 F 
ATOM     72  C   UNL A   1      51.750  25.800  27.170  1.00  0.00     0.006 A 
ENDBRANCH  44  65
BRANCH  56  73
ATOM     73  C   UNL A   1      45.809  32.315  29.633  1.00  0.00     0.057 A 
ATOM     74  C   UNL A   1      45.911  33.362  28.709  1.00  0.00     0.134 A 
ATOM     75  C   UNL A   1      46.130  32.596  30.968  1.00  0.00     0.134 A 
ATOM     76  F   UNL A   1      45.630  33.155  27.414  1.00  0.00    -0.206 F 
ATOM     77  C   UNL A   1      46.329  34.636  29.096  1.00  0.00     0.040 A 
ATOM     78  C   UNL A   1      46.524  33.872  31.372  1.00  0.00     0.040 A 
ATOM     79  F   UNL A   1      46.045  31.639  31.905  1.00  0.00    -0.206 F 
ATOM     80  C   UNL A   1      46.627  34.896  30.433  1.00  0.00     0.006 A 
ENDBRANCH  56  73
ENDBRANCH  30  31
ENDBRANCH  22  25
ENDBRANCH  20  21
ENDBRANCH   1  20
TORSDOF 13
ENDMDL
