MODEL 1
REMARK VINA RESULT:     -10.1      0.000      0.000
REMARK SMILES O=C(NCCCNC(=O)[C@]1([NH2+]C2CC2)CCC[C@H](SC[C@H](O)CO)C1)c1ccc(-c2c3nc(c(-c4c(F)cccc4F)c4ccc([nH]4)c(-c4c(F)cccc4F)c4nc(c(-c5c(F)cccc5F)c5ccc2[nH]5)C=C4)C=C3)cc1
REMARK SMILES IDX 7 1 8 2 9 3 6 5 5 6 4 7 3 8 1 9 2 10 26 12 27 13 79 14 28 15
REMARK SMILES IDX 78 16 29 17 30 18 31 19 72 20 32 21 77 22 71 23 73 24 33 25
REMARK SMILES IDX 76 26 70 27 69 28 34 30 60 31 43 32 59 33 44 34 47 35 58 36
REMARK SMILES IDX 74 37 45 38 46 39 57 41 75 42 48 43 35 44 36 45 41 46 37 47
REMARK SMILES IDX 38 48 40 49 42 50 39 51 61 52 62 53 67 54 63 55 64 56 66 57
REMARK SMILES IDX 68 58 65 59 49 60 50 61 55 62 51 63 52 64 54 65 56 66 53 67
REMARK SMILES IDX 10 68 15 69 25 70 16 71 18 72 17 73 11 74 12 77 13 78 14 79
REMARK SMILES IDX 19 80 20 81 21 82 23 83 24 84 22 86
REMARK H PARENT 7 4 3 11 73 29 47 40 11 75 11 76 24 85 22 87
REMARK Flexibility Score: inf
ROOT
ATOM      1  N   UNL A   1      32.123  30.271  25.037  1.00  0.00    -0.351 N 
ATOM      2  C   UNL A   1      32.865  29.125  25.023  1.00  0.00     0.281 C 
ATOM      3  O   UNL A   1      33.580  28.984  24.022  1.00  0.00    -0.268 OA
ATOM      4  H   UNL A   1      32.264  30.840  24.246  1.00  0.00     0.163 HD
ENDROOT
BRANCH   1   5
ATOM      5  C   UNL A   1      31.170  30.817  25.983  1.00  0.00     0.118 C 
BRANCH   5   6
ATOM      6  C   UNL A   1      31.279  32.325  26.272  1.00  0.00     0.042 C 
BRANCH   6   7
ATOM      7  C   UNL A   1      32.479  32.833  27.075  1.00  0.00     0.118 C 
BRANCH   7   8
ATOM      8  N   UNL A   1      32.334  34.120  27.751  1.00  0.00    -0.352 N 
ATOM      9  O   UNL A   1      32.678  35.930  29.032  1.00  0.00    -0.269 OA
ATOM     10  C   UNL A   1      33.081  34.820  28.673  1.00  0.00     0.251 C 
ATOM     11  H   UNL A   1      31.516  34.598  27.485  1.00  0.00     0.163 HD
BRANCH  10  12
ATOM     12  C   UNL A   1      34.315  34.288  29.304  1.00  0.00     0.039 A 
ATOM     13  C   UNL A   1      35.576  34.578  28.813  1.00  0.00     0.014 A 
ATOM     14  C   UNL A   1      34.217  33.490  30.462  1.00  0.00     0.014 A 
ATOM     15  C   UNL A   1      36.693  33.935  29.317  1.00  0.00     0.010 A 
ATOM     16  C   UNL A   1      35.363  32.942  31.063  1.00  0.00     0.010 A 
ATOM     17  C   UNL A   1      36.613  33.145  30.474  1.00  0.00    -0.014 A 
BRANCH  17  18
ATOM     18  C   UNL A   1      37.908  32.699  31.049  1.00  0.00     0.031 A 
ATOM     19  C   UNL A   1      38.370  33.147  32.402  1.00  0.00     0.074 A 
ATOM     20  C   UNL A   1      38.548  31.705  30.398  1.00  0.00     0.049 A 
ATOM     21  N   UNL A   1      39.310  32.634  33.152  1.00  0.00    -0.248 NA
ATOM     22  C   UNL A   1      37.703  34.319  32.988  1.00  0.00     0.031 C 
ATOM     23  C   UNL A   1      38.182  31.215  29.063  1.00  0.00     0.029 A 
ATOM     24  N   UNL A   1      39.550  30.861  30.795  1.00  0.00    -0.354 N 
ATOM     25  C   UNL A   1      39.357  33.419  34.296  1.00  0.00     0.074 A 
ATOM     26  C   UNL A   1      38.363  34.459  34.132  1.00  0.00     0.031 C 
ATOM     27  C   UNL A   1      38.847  30.079  28.815  1.00  0.00     0.029 A 
ATOM     28  C   UNL A   1      39.750  29.812  29.926  1.00  0.00     0.049 A 
ATOM     29  H   UNL A   1      40.074  30.990  31.619  1.00  0.00     0.167 HD
ATOM     30  C   UNL A   1      40.158  33.275  35.379  1.00  0.00     0.037 A 
ATOM     31  C   UNL A   1      40.564  28.744  30.015  1.00  0.00     0.037 A 
ATOM     32  C   UNL A   1      41.142  32.231  35.524  1.00  0.00     0.049 A 
ATOM     33  C   UNL A   1      41.421  28.603  31.237  1.00  0.00     0.074 A 
ATOM     34  C   UNL A   1      42.017  32.008  36.574  1.00  0.00     0.029 A 
ATOM     35  N   UNL A   1      41.380  31.233  34.590  1.00  0.00    -0.354 N 
ATOM     36  N   UNL A   1      41.447  29.351  32.314  1.00  0.00    -0.248 NA
ATOM     37  C   UNL A   1      42.371  27.486  31.252  1.00  0.00     0.031 C 
ATOM     38  C   UNL A   1      42.807  30.897  36.258  1.00  0.00     0.029 A 
ATOM     39  C   UNL A   1      42.396  30.400  35.031  1.00  0.00     0.049 A 
ATOM     40  H   UNL A   1      40.897  31.132  33.737  1.00  0.00     0.167 HD
ATOM     41  C   UNL A   1      42.428  28.806  33.128  1.00  0.00     0.074 A 
ATOM     42  C   UNL A   1      42.933  27.633  32.442  1.00  0.00     0.031 C 
ATOM     43  C   UNL A   1      42.890  29.249  34.321  1.00  0.00     0.037 A 
BRANCH  30  44
ATOM     44  C   UNL A   1      40.022  34.279  36.488  1.00  0.00     0.057 A 
ATOM     45  C   UNL A   1      40.750  35.476  36.496  1.00  0.00     0.134 A 
ATOM     46  C   UNL A   1      39.105  34.075  37.528  1.00  0.00     0.134 A 
ATOM     47  F   UNL A   1      41.653  35.728  35.537  1.00  0.00    -0.206 F 
ATOM     48  C   UNL A   1      40.578  36.429  37.503  1.00  0.00     0.040 A 
ATOM     49  C   UNL A   1      38.909  35.030  38.527  1.00  0.00     0.040 A 
ATOM     50  F   UNL A   1      38.372  32.953  37.579  1.00  0.00    -0.206 F 
ATOM     51  C   UNL A   1      39.648  36.210  38.517  1.00  0.00     0.006 A 
ENDBRANCH  30  44
BRANCH  31  52
ATOM     52  C   UNL A   1      40.625  27.757  28.906  1.00  0.00     0.057 A 
ATOM     53  C   UNL A   1      41.521  27.898  27.840  1.00  0.00     0.134 A 
ATOM     54  C   UNL A   1      39.779  26.640  28.888  1.00  0.00     0.134 A 
ATOM     55  F   UNL A   1      42.348  28.954  27.787  1.00  0.00    -0.206 F 
ATOM     56  C   UNL A   1      41.562  26.976  26.792  1.00  0.00     0.040 A 
ATOM     57  C   UNL A   1      39.833  25.692  27.867  1.00  0.00     0.040 A 
ATOM     58  F   UNL A   1      38.900  26.441  29.881  1.00  0.00    -0.206 F 
ATOM     59  C   UNL A   1      40.721  25.864  26.809  1.00  0.00     0.006 A 
ENDBRANCH  31  52
BRANCH  43  60
ATOM     60  C   UNL A   1      44.000  28.454  34.941  1.00  0.00     0.057 A 
ATOM     61  C   UNL A   1      45.345  28.742  34.672  1.00  0.00     0.134 A 
ATOM     62  C   UNL A   1      43.724  27.388  35.804  1.00  0.00     0.134 A 
ATOM     63  F   UNL A   1      45.672  29.742  33.840  1.00  0.00    -0.206 F 
ATOM     64  C   UNL A   1      46.376  27.973  35.211  1.00  0.00     0.040 A 
ATOM     65  C   UNL A   1      44.748  26.627  36.370  1.00  0.00     0.040 A 
ATOM     66  F   UNL A   1      42.457  27.065  36.106  1.00  0.00    -0.206 F 
ATOM     67  C   UNL A   1      46.077  26.914  36.067  1.00  0.00     0.006 A 
ENDBRANCH  43  60
ENDBRANCH  17  18
ENDBRANCH  10  12
ENDBRANCH   7   8
ENDBRANCH   6   7
ENDBRANCH   5   6
ENDBRANCH   1   5
BRANCH   2  68
ATOM     68  C   UNL A   1      32.912  28.099  26.205  1.00  0.00     0.176 C 
ATOM     69  C   UNL A   1      34.031  27.039  25.966  1.00  0.00     0.079 C 
ATOM     70  C   UNL A   1      31.582  27.341  26.462  1.00  0.00     0.093 C 
ATOM     71  C   UNL A   1      33.661  25.936  24.980  1.00  0.00     0.008 C 
ATOM     72  C   UNL A   1      31.190  26.201  25.501  1.00  0.00     0.053 C 
ATOM     73  C   UNL A   1      32.378  25.228  25.403  1.00  0.00     0.015 C 
BRANCH  68  74
ATOM     74  N   UNL A   1      33.237  28.885  27.457  1.00  0.00    -0.331 N 
ATOM     75  H   UNL A   1      33.008  28.302  28.262  1.00  0.00     0.347 HD
ATOM     76  H   UNL A   1      32.686  29.742  27.400  1.00  0.00     0.347 HD
BRANCH  74  77
ATOM     77  C   UNL A   1      34.648  29.315  27.592  1.00  0.00     0.183 C 
ATOM     78  C   UNL A   1      35.016  30.767  27.546  1.00  0.00     0.071 C 
ATOM     79  C   UNL A   1      35.064  30.028  28.851  1.00  0.00     0.071 C 
ENDBRANCH  74  77
ENDBRANCH  68  74
BRANCH  72  80
ATOM     80  S   UNL A   1      30.651  26.482  23.762  1.00  0.00    -0.156 SA
BRANCH  80  81
ATOM     81  C   UNL A   1      29.736  28.046  23.701  1.00  0.00     0.104 C 
BRANCH  81  82
ATOM     82  C   UNL A   1      29.661  28.973  22.483  1.00  0.00     0.149 C 
BRANCH  82  83
ATOM     83  C   UNL A   1      28.568  30.028  22.477  1.00  0.00     0.188 C 
BRANCH  83  84
ATOM     84  O   UNL A   1      27.913  30.023  21.203  1.00  0.00    -0.394 OA
ATOM     85  H   UNL A   1      28.381  30.617  20.596  1.00  0.00     0.210 HD
ENDBRANCH  83  84
ENDBRANCH  82  83
BRANCH  82  86
ATOM     86  O   UNL A   1      30.906  29.708  22.415  1.00  0.00    -0.390 OA
ATOM     87  H   UNL A   1      31.478  29.313  21.737  1.00  0.00     0.211 HD
ENDBRANCH  82  86
ENDBRANCH  81  82
ENDBRANCH  80  81
ENDBRANCH  72  80
ENDBRANCH   2  68
TORSDOF 18
ENDMDL
MODEL 2
REMARK VINA RESULT:     -10.0      5.064      9.154
REMARK SMILES O=C(NCCCNC(=O)[C@]1([NH2+]C2CC2)CCC[C@H](SC[C@H](O)CO)C1)c1ccc(-c2c3nc(c(-c4c(F)cccc4F)c4ccc([nH]4)c(-c4c(F)cccc4F)c4nc(c(-c5c(F)cccc5F)c5ccc2[nH]5)C=C4)C=C3)cc1
REMARK SMILES IDX 7 1 8 2 9 3 6 5 5 6 4 7 3 8 1 9 2 10 26 12 27 13 79 14 28 15
REMARK SMILES IDX 78 16 29 17 30 18 31 19 72 20 32 21 77 22 71 23 73 24 33 25
REMARK SMILES IDX 76 26 70 27 69 28 34 30 60 31 43 32 59 33 44 34 47 35 58 36
REMARK SMILES IDX 74 37 45 38 46 39 57 41 75 42 48 43 35 44 36 45 41 46 37 47
REMARK SMILES IDX 38 48 40 49 42 50 39 51 61 52 62 53 67 54 63 55 64 56 66 57
REMARK SMILES IDX 68 58 65 59 49 60 50 61 55 62 51 63 52 64 54 65 56 66 53 67
REMARK SMILES IDX 10 68 15 69 25 70 16 71 18 72 17 73 11 74 12 77 13 78 14 79
REMARK SMILES IDX 19 80 20 81 21 82 23 83 24 84 22 86
REMARK H PARENT 7 4 3 11 73 29 47 40 11 75 11 76 24 85 22 87
REMARK Flexibility Score: inf
ROOT
ATOM      1  N   UNL A   1      31.391  26.651  26.837  1.00  0.00    -0.351 N 
ATOM      2  C   UNL A   1      30.858  25.785  25.926  1.00  0.00     0.281 C 
ATOM      3  O   UNL A   1      30.339  24.773  26.417  1.00  0.00    -0.268 OA
ATOM      4  H   UNL A   1      31.283  26.355  27.770  1.00  0.00     0.163 HD
ENDROOT
BRANCH   1   5
ATOM      5  C   UNL A   1      32.084  27.918  26.706  1.00  0.00     0.118 C 
BRANCH   5   6
ATOM      6  C   UNL A   1      33.617  27.878  26.839  1.00  0.00     0.042 C 
BRANCH   6   7
ATOM      7  C   UNL A   1      34.411  29.156  26.562  1.00  0.00     0.118 C 
BRANCH   7   8
ATOM      8  N   UNL A   1      34.443  30.165  27.618  1.00  0.00    -0.352 N 
ATOM      9  O   UNL A   1      35.100  31.523  29.279  1.00  0.00    -0.269 OA
ATOM     10  C   UNL A   1      35.398  30.606  28.509  1.00  0.00     0.251 C 
ATOM     11  H   UNL A   1      33.586  30.640  27.715  1.00  0.00     0.163 HD
BRANCH  10  12
ATOM     12  C   UNL A   1      36.747  29.998  28.633  1.00  0.00     0.039 A 
ATOM     13  C   UNL A   1      37.683  30.074  27.617  1.00  0.00     0.014 A 
ATOM     14  C   UNL A   1      37.112  29.352  29.832  1.00  0.00     0.014 A 
ATOM     15  C   UNL A   1      38.865  29.358  27.694  1.00  0.00     0.010 A 
ATOM     16  C   UNL A   1      38.368  28.737  29.968  1.00  0.00     0.010 A 
ATOM     17  C   UNL A   1      39.247  28.718  28.882  1.00  0.00    -0.014 A 
BRANCH  17  18
ATOM     18  C   UNL A   1      40.632  28.181  28.917  1.00  0.00     0.031 A 
ATOM     19  C   UNL A   1      40.951  26.784  28.480  1.00  0.00     0.074 A 
ATOM     20  C   UNL A   1      41.619  29.071  29.153  1.00  0.00     0.049 A 
ATOM     21  N   UNL A   1      42.117  26.272  28.181  1.00  0.00    -0.248 NA
ATOM     22  C   UNL A   1      39.831  25.839  28.370  1.00  0.00     0.031 C 
ATOM     23  C   UNL A   1      41.403  30.451  29.604  1.00  0.00     0.029 A 
ATOM     24  N   UNL A   1      42.971  29.000  28.946  1.00  0.00    -0.354 N 
ATOM     25  C   UNL A   1      41.877  24.944  27.853  1.00  0.00     0.074 A 
ATOM     26  C   UNL A   1      40.455  24.723  28.010  1.00  0.00     0.031 C 
ATOM     27  C   UNL A   1      42.553  31.130  29.506  1.00  0.00     0.029 A 
ATOM     28  C   UNL A   1      43.602  30.216  29.075  1.00  0.00     0.049 A 
ATOM     29  H   UNL A   1      43.443  28.164  28.728  1.00  0.00     0.167 HD
ATOM     30  C   UNL A   1      42.768  24.005  27.455  1.00  0.00     0.037 A 
ATOM     31  C   UNL A   1      44.885  30.564  28.860  1.00  0.00     0.037 A 
ATOM     32  C   UNL A   1      44.182  24.245  27.303  1.00  0.00     0.049 A 
ATOM     33  C   UNL A   1      45.840  29.505  28.399  1.00  0.00     0.074 A 
ATOM     34  C   UNL A   1      45.174  23.356  26.922  1.00  0.00     0.029 A 
ATOM     35  N   UNL A   1      44.805  25.465  27.522  1.00  0.00    -0.354 N 
ATOM     36  N   UNL A   1      45.595  28.255  28.085  1.00  0.00    -0.248 NA
ATOM     37  C   UNL A   1      47.249  29.895  28.278  1.00  0.00     0.031 C 
ATOM     38  C   UNL A   1      46.400  24.031  26.946  1.00  0.00     0.029 A 
ATOM     39  C   UNL A   1      46.168  25.351  27.298  1.00  0.00     0.049 A 
ATOM     40  H   UNL A   1      44.346  26.293  27.796  1.00  0.00     0.167 HD
ATOM     41  C   UNL A   1      46.822  27.704  27.748  1.00  0.00     0.074 A 
ATOM     42  C   UNL A   1      47.798  28.771  27.841  1.00  0.00     0.031 C 
ATOM     43  C   UNL A   1      47.120  26.425  27.415  1.00  0.00     0.037 A 
BRANCH  30  44
ATOM     44  C   UNL A   1      42.250  22.624  27.174  1.00  0.00     0.057 A 
ATOM     45  C   UNL A   1      42.174  22.113  25.872  1.00  0.00     0.134 A 
ATOM     46  C   UNL A   1      41.881  21.772  28.223  1.00  0.00     0.134 A 
ATOM     47  F   UNL A   1      42.500  22.879  24.821  1.00  0.00    -0.206 F 
ATOM     48  C   UNL A   1      41.742  20.807  25.624  1.00  0.00     0.040 A 
ATOM     49  C   UNL A   1      41.469  20.459  27.990  1.00  0.00     0.040 A 
ATOM     50  F   UNL A   1      41.934  22.196  29.495  1.00  0.00    -0.206 F 
ATOM     51  C   UNL A   1      41.396  19.974  26.686  1.00  0.00     0.006 A 
ENDBRANCH  30  44
BRANCH  31  52
ATOM     52  C   UNL A   1      45.333  31.958  29.113  1.00  0.00     0.057 A 
ATOM     53  C   UNL A   1      45.262  32.947  28.126  1.00  0.00     0.134 A 
ATOM     54  C   UNL A   1      45.850  32.333  30.360  1.00  0.00     0.134 A 
ATOM     55  F   UNL A   1      44.794  32.651  26.904  1.00  0.00    -0.206 F 
ATOM     56  C   UNL A   1      45.700  34.251  28.365  1.00  0.00     0.040 A 
ATOM     57  C   UNL A   1      46.257  33.640  30.625  1.00  0.00     0.040 A 
ATOM     58  F   UNL A   1      45.941  31.436  31.353  1.00  0.00    -0.206 F 
ATOM     59  C   UNL A   1      46.192  34.602  29.621  1.00  0.00     0.006 A 
ENDBRANCH  31  52
BRANCH  43  60
ATOM     60  C   UNL A   1      48.564  26.129  27.140  1.00  0.00     0.057 A 
ATOM     61  C   UNL A   1      49.443  25.758  28.166  1.00  0.00     0.134 A 
ATOM     62  C   UNL A   1      49.082  26.226  25.844  1.00  0.00     0.134 A 
ATOM     63  F   UNL A   1      49.009  25.664  29.432  1.00  0.00    -0.206 F 
ATOM     64  C   UNL A   1      50.796  25.529  27.918  1.00  0.00     0.040 A 
ATOM     65  C   UNL A   1      50.428  25.974  25.578  1.00  0.00     0.040 A 
ATOM     66  F   UNL A   1      48.291  26.572  24.817  1.00  0.00    -0.206 F 
ATOM     67  C   UNL A   1      51.290  25.633  26.619  1.00  0.00     0.006 A 
ENDBRANCH  43  60
ENDBRANCH  17  18
ENDBRANCH  10  12
ENDBRANCH   7   8
ENDBRANCH   6   7
ENDBRANCH   5   6
ENDBRANCH   1   5
BRANCH   2  68
ATOM     68  C   UNL A   1      30.797  26.064  24.387  1.00  0.00     0.176 C 
ATOM     69  C   UNL A   1      30.327  24.790  23.618  1.00  0.00     0.079 C 
ATOM     70  C   UNL A   1      32.135  26.535  23.758  1.00  0.00     0.093 C 
ATOM     71  C   UNL A   1      31.408  23.734  23.418  1.00  0.00     0.008 C 
ATOM     72  C   UNL A   1      33.241  25.489  23.515  1.00  0.00     0.053 C 
ATOM     73  C   UNL A   1      32.629  24.323  22.718  1.00  0.00     0.015 C 
BRANCH  68  74
ATOM     74  N   UNL A   1      29.782  27.168  24.180  1.00  0.00    -0.331 N 
ATOM     75  H   UNL A   1      29.648  27.641  25.073  1.00  0.00     0.347 HD
ATOM     76  H   UNL A   1      28.941  26.711  23.826  1.00  0.00     0.347 HD
BRANCH  74  77
ATOM     77  C   UNL A   1      30.147  28.189  23.171  1.00  0.00     0.183 C 
ATOM     78  C   UNL A   1      29.095  29.034  22.518  1.00  0.00     0.071 C 
ATOM     79  C   UNL A   1      30.012  29.642  23.539  1.00  0.00     0.071 C 
ENDBRANCH  74  77
ENDBRANCH  68  74
BRANCH  72  80
ATOM     80  S   UNL A   1      34.201  24.695  24.871  1.00  0.00    -0.156 SA
BRANCH  80  81
ATOM     81  C   UNL A   1      35.112  23.293  24.171  1.00  0.00     0.104 C 
BRANCH  81  82
ATOM     82  C   UNL A   1      36.637  23.215  24.036  1.00  0.00     0.149 C 
BRANCH  82  83
ATOM     83  C   UNL A   1      37.326  21.993  24.620  1.00  0.00     0.188 C 
BRANCH  83  84
ATOM     84  O   UNL A   1      37.085  21.944  26.031  1.00  0.00    -0.394 OA
ATOM     85  H   UNL A   1      37.325  22.795  26.431  1.00  0.00     0.210 HD
ENDBRANCH  83  84
ENDBRANCH  82  83
BRANCH  82  86
ATOM     86  O   UNL A   1      36.950  23.196  22.623  1.00  0.00    -0.390 OA
ATOM     87  H   UNL A   1      37.266  22.312  22.375  1.00  0.00     0.211 HD
ENDBRANCH  82  86
ENDBRANCH  81  82
ENDBRANCH  80  81
ENDBRANCH  72  80
ENDBRANCH   2  68
TORSDOF 18
ENDMDL
MODEL 3
REMARK VINA RESULT:      -9.8      2.491      4.052
REMARK SMILES O=C(NCCCNC(=O)[C@]1([NH2+]C2CC2)CCC[C@H](SC[C@H](O)CO)C1)c1ccc(-c2c3nc(c(-c4c(F)cccc4F)c4ccc([nH]4)c(-c4c(F)cccc4F)c4nc(c(-c5c(F)cccc5F)c5ccc2[nH]5)C=C4)C=C3)cc1
REMARK SMILES IDX 7 1 8 2 9 3 6 5 5 6 4 7 3 8 1 9 2 10 26 12 27 13 79 14 28 15
REMARK SMILES IDX 78 16 29 17 30 18 31 19 72 20 32 21 77 22 71 23 73 24 33 25
REMARK SMILES IDX 76 26 70 27 69 28 34 30 60 31 43 32 59 33 44 34 47 35 58 36
REMARK SMILES IDX 74 37 45 38 46 39 57 41 75 42 48 43 35 44 36 45 41 46 37 47
REMARK SMILES IDX 38 48 40 49 42 50 39 51 61 52 62 53 67 54 63 55 64 56 66 57
REMARK SMILES IDX 68 58 65 59 49 60 50 61 55 62 51 63 52 64 54 65 56 66 53 67
REMARK SMILES IDX 10 68 15 69 25 70 16 71 18 72 17 73 11 74 12 77 13 78 14 79
REMARK SMILES IDX 19 80 20 81 21 82 23 83 24 84 22 86
REMARK H PARENT 7 4 3 11 73 29 47 40 11 75 11 76 24 85 22 87
REMARK Flexibility Score: inf
ROOT
ATOM      1  N   UNL A   1      33.999  25.264  23.439  1.00  0.00    -0.351 N 
ATOM      2  C   UNL A   1      34.268  23.929  23.531  1.00  0.00     0.281 C 
ATOM      3  O   UNL A   1      33.970  23.272  22.525  1.00  0.00    -0.268 OA
ATOM      4  H   UNL A   1      33.609  25.528  22.575  1.00  0.00     0.163 HD
ENDROOT
BRANCH   1   5
ATOM      5  C   UNL A   1      34.174  26.371  24.360  1.00  0.00     0.118 C 
BRANCH   5   6
ATOM      6  C   UNL A   1      33.107  27.479  24.310  1.00  0.00     0.042 C 
BRANCH   6   7
ATOM      7  C   UNL A   1      33.546  28.930  24.516  1.00  0.00     0.118 C 
BRANCH   7   8
ATOM      8  N   UNL A   1      32.706  29.768  25.368  1.00  0.00    -0.352 N 
ATOM      9  O   UNL A   1      31.967  31.129  26.992  1.00  0.00    -0.269 OA
ATOM     10  C   UNL A   1      32.912  30.486  26.526  1.00  0.00     0.251 C 
ATOM     11  H   UNL A   1      31.781  29.836  25.040  1.00  0.00     0.163 HD
BRANCH  10  12
ATOM     12  C   UNL A   1      34.192  30.483  27.277  1.00  0.00     0.039 A 
ATOM     13  C   UNL A   1      34.826  29.308  27.642  1.00  0.00     0.014 A 
ATOM     14  C   UNL A   1      34.812  31.706  27.605  1.00  0.00     0.014 A 
ATOM     15  C   UNL A   1      35.925  29.333  28.483  1.00  0.00     0.010 A 
ATOM     16  C   UNL A   1      36.006  31.737  28.345  1.00  0.00     0.010 A 
ATOM     17  C   UNL A   1      36.559  30.541  28.811  1.00  0.00    -0.014 A 
BRANCH  17  18
ATOM     18  C   UNL A   1      37.855  30.424  29.526  1.00  0.00     0.031 A 
ATOM     19  C   UNL A   1      38.015  30.855  30.952  1.00  0.00     0.074 A 
ATOM     20  C   UNL A   1      38.824  29.715  28.909  1.00  0.00     0.049 A 
ATOM     21  N   UNL A   1      38.975  30.559  31.789  1.00  0.00    -0.248 NA
ATOM     22  C   UNL A   1      36.977  31.733  31.511  1.00  0.00     0.031 C 
ATOM     23  C   UNL A   1      38.766  29.269  27.512  1.00  0.00     0.029 A 
ATOM     24  N   UNL A   1      39.978  29.153  29.386  1.00  0.00    -0.354 N 
ATOM     25  C   UNL A   1      38.665  31.215  32.973  1.00  0.00     0.074 A 
ATOM     26  C   UNL A   1      37.436  31.945  32.740  1.00  0.00     0.031 C 
ATOM     27  C   UNL A   1      39.755  28.395  27.288  1.00  0.00     0.029 A 
ATOM     28  C   UNL A   1      40.568  28.289  28.492  1.00  0.00     0.049 A 
ATOM     29  H   UNL A   1      40.348  29.346  30.278  1.00  0.00     0.167 HD
ATOM     30  C   UNL A   1      39.348  31.201  34.143  1.00  0.00     0.037 A 
ATOM     31  C   UNL A   1      41.642  27.488  28.627  1.00  0.00     0.037 A 
ATOM     32  C   UNL A   1      40.571  30.467  34.357  1.00  0.00     0.049 A 
ATOM     33  C   UNL A   1      42.362  27.481  29.941  1.00  0.00     0.074 A 
ATOM     34  C   UNL A   1      41.351  30.400  35.499  1.00  0.00     0.029 A 
ATOM     35  N   UNL A   1      41.190  29.668  33.405  1.00  0.00    -0.354 N 
ATOM     36  N   UNL A   1      42.051  28.102  31.054  1.00  0.00    -0.248 NA
ATOM     37  C   UNL A   1      43.588  26.678  30.017  1.00  0.00     0.031 C 
ATOM     38  C   UNL A   1      42.460  29.591  35.226  1.00  0.00     0.029 A 
ATOM     39  C   UNL A   1      42.348  29.116  33.929  1.00  0.00     0.049 A 
ATOM     40  H   UNL A   1      40.854  29.515  32.492  1.00  0.00     0.167 HD
ATOM     41  C   UNL A   1      43.052  27.780  31.957  1.00  0.00     0.074 A 
ATOM     42  C   UNL A   1      43.948  26.865  31.278  1.00  0.00     0.031 C 
ATOM     43  C   UNL A   1      43.231  28.221  33.225  1.00  0.00     0.037 A 
BRANCH  30  44
ATOM     44  C   UNL A   1      38.805  32.019  35.280  1.00  0.00     0.057 A 
ATOM     45  C   UNL A   1      38.131  31.431  36.358  1.00  0.00     0.134 A 
ATOM     46  C   UNL A   1      39.013  33.403  35.327  1.00  0.00     0.134 A 
ATOM     47  F   UNL A   1      37.888  30.112  36.369  1.00  0.00    -0.206 F 
ATOM     48  C   UNL A   1      37.677  32.192  37.437  1.00  0.00     0.040 A 
ATOM     49  C   UNL A   1      38.583  34.171  36.411  1.00  0.00     0.040 A 
ATOM     50  F   UNL A   1      39.655  34.030  34.329  1.00  0.00    -0.206 F 
ATOM     51  C   UNL A   1      37.911  33.565  37.469  1.00  0.00     0.006 A 
ENDBRANCH  30  44
BRANCH  31  52
ATOM     52  C   UNL A   1      42.109  26.667  27.480  1.00  0.00     0.057 A 
ATOM     53  C   UNL A   1      42.892  27.208  26.455  1.00  0.00     0.134 A 
ATOM     54  C   UNL A   1      41.777  25.309  27.384  1.00  0.00     0.134 A 
ATOM     55  F   UNL A   1      43.232  28.506  26.475  1.00  0.00    -0.206 F 
ATOM     56  C   UNL A   1      43.314  26.434  25.371  1.00  0.00     0.040 A 
ATOM     57  C   UNL A   1      42.221  24.515  26.328  1.00  0.00     0.040 A 
ATOM     58  F   UNL A   1      41.033  24.725  28.336  1.00  0.00    -0.206 F 
ATOM     59  C   UNL A   1      42.985  25.080  25.311  1.00  0.00     0.006 A 
ENDBRANCH  31  52
BRANCH  43  60
ATOM     60  C   UNL A   1      44.448  27.716  33.940  1.00  0.00     0.057 A 
ATOM     61  C   UNL A   1      44.420  26.527  34.681  1.00  0.00     0.134 A 
ATOM     62  C   UNL A   1      45.652  28.427  33.897  1.00  0.00     0.134 A 
ATOM     63  F   UNL A   1      43.290  25.810  34.774  1.00  0.00    -0.206 F 
ATOM     64  C   UNL A   1      45.540  26.081  35.385  1.00  0.00     0.040 A 
ATOM     65  C   UNL A   1      46.786  27.978  34.575  1.00  0.00     0.040 A 
ATOM     66  F   UNL A   1      45.745  29.569  33.200  1.00  0.00    -0.206 F 
ATOM     67  C   UNL A   1      46.728  26.807  35.329  1.00  0.00     0.006 A 
ENDBRANCH  43  60
ENDBRANCH  17  18
ENDBRANCH  10  12
ENDBRANCH   7   8
ENDBRANCH   6   7
ENDBRANCH   5   6
ENDBRANCH   1   5
BRANCH   2  68
ATOM     68  C   UNL A   1      34.989  23.263  24.751  1.00  0.00     0.176 C 
ATOM     69  C   UNL A   1      35.327  21.773  24.441  1.00  0.00     0.079 C 
ATOM     70  C   UNL A   1      34.190  23.306  26.081  1.00  0.00     0.093 C 
ATOM     71  C   UNL A   1      34.148  20.814  24.571  1.00  0.00     0.008 C 
ATOM     72  C   UNL A   1      33.008  22.331  26.258  1.00  0.00     0.053 C 
ATOM     73  C   UNL A   1      33.512  20.909  25.954  1.00  0.00     0.015 C 
BRANCH  68  74
ATOM     74  N   UNL A   1      36.278  24.026  24.970  1.00  0.00    -0.331 N 
ATOM     75  H   UNL A   1      36.048  25.018  25.036  1.00  0.00     0.347 HD
ATOM     76  H   UNL A   1      36.878  23.795  24.178  1.00  0.00     0.347 HD
BRANCH  74  77
ATOM     77  C   UNL A   1      37.042  23.653  26.183  1.00  0.00     0.183 C 
ATOM     78  C   UNL A   1      38.374  22.975  26.073  1.00  0.00     0.071 C 
ATOM     79  C   UNL A   1      38.302  24.412  26.499  1.00  0.00     0.071 C 
ENDBRANCH  74  77
ENDBRANCH  68  74
BRANCH  72  80
ATOM     80  S   UNL A   1      31.419  22.486  25.341  1.00  0.00    -0.156 SA
BRANCH  80  81
ATOM     81  C   UNL A   1      31.044  24.250  25.157  1.00  0.00     0.104 C 
BRANCH  81  82
ATOM     82  C   UNL A   1      30.579  25.172  26.290  1.00  0.00     0.149 C 
BRANCH  82  83
ATOM     83  C   UNL A   1      30.577  26.666  26.016  1.00  0.00     0.188 C 
BRANCH  83  84
ATOM     84  O   UNL A   1      31.124  27.355  27.147  1.00  0.00    -0.394 OA
ATOM     85  H   UNL A   1      31.569  28.164  26.849  1.00  0.00     0.210 HD
ENDBRANCH  83  84
ENDBRANCH  82  83
BRANCH  82  86
ATOM     86  O   UNL A   1      29.204  24.834  26.591  1.00  0.00    -0.390 OA
ATOM     87  H   UNL A   1      28.861  24.237  25.907  1.00  0.00     0.211 HD
ENDBRANCH  82  86
ENDBRANCH  81  82
ENDBRANCH  80  81
ENDBRANCH  72  80
ENDBRANCH   2  68
TORSDOF 18
ENDMDL
