MODEL 1
REMARK VINA RESULT:     -11.7      0.000      0.000
REMARK SMILES O=C(CC1(NC(=O)c2ccccc2[N+](=O)[O-])CCC1)NCCCNC(=O)c1ccc(-c2c3nc(c(-c4c(F)cccc4F)c4ccc([nH]4)c(-c4c(F)cccc4F)c4nc(c(-c5c(F)cccc5F)c5ccc2[nH]5)C=C4)C=C3)cc1
REMARK SMILES IDX 21 1 20 2 1 3 2 4 3 6 4 7 17 8 19 9 18 10 5 11 6 12 7 14
REMARK SMILES IDX 8 15 9 16 13 17 10 18 12 19 11 20 14 21 15 22 16 23 22 24
REMARK SMILES IDX 23 25 24 26 25 27 26 29 27 30 28 31 80 32 29 33 79 34 30 35
REMARK SMILES IDX 31 36 32 37 73 38 33 39 78 40 72 41 74 42 34 43 77 44 71 45
REMARK SMILES IDX 70 46 35 48 61 49 44 50 60 51 45 52 48 53 59 54 75 55 46 56
REMARK SMILES IDX 47 57 58 59 76 60 49 61 36 62 37 63 42 64 38 65 39 66 41 67
REMARK SMILES IDX 43 68 40 69 62 70 63 71 68 72 64 73 65 74 67 75 69 76 66 77
REMARK SMILES IDX 50 78 51 79 56 80 52 81 53 82 55 83 57 84 54 85
REMARK H PARENT 20 5 5 13 24 28 74 47 48 58
REMARK Flexibility Score: inf
ROOT
ATOM      1  C   UNL A   1      31.725  30.536  26.692  1.00  0.00     0.117 C 
ENDROOT
BRANCH   1   2
ATOM      2  N   UNL A   1      32.001  30.209  25.309  1.00  0.00    -0.356 N 
ATOM      3  O   UNL A   1      33.832  28.929  25.740  1.00  0.00    -0.275 OA
ATOM      4  C   UNL A   1      32.983  29.327  24.948  1.00  0.00     0.222 C 
ATOM      5  H   UNL A   1      31.465  30.637  24.603  1.00  0.00     0.163 HD
BRANCH   4   6
ATOM      6  C   UNL A   1      33.017  28.956  23.485  1.00  0.00     0.128 C 
BRANCH   6   7
ATOM      7  C   UNL A   1      31.977  27.941  22.970  1.00  0.00     0.049 C 
ATOM      8  C   UNL A   1      30.793  27.317  23.806  1.00  0.00     0.029 C 
ATOM      9  C   UNL A   1      30.875  28.776  22.216  1.00  0.00     0.029 C 
ATOM     10  C   UNL A   1      29.775  27.915  22.830  1.00  0.00     0.005 C 
BRANCH   7  11
ATOM     11  N   UNL A   1      32.521  26.890  22.048  1.00  0.00    -0.346 N 
ATOM     12  C   UNL A   1      32.956  25.595  22.201  1.00  0.00     0.258 C 
ATOM     13  H   UNL A   1      32.581  27.200  21.116  1.00  0.00     0.164 HD
ATOM     14  O   UNL A   1      33.272  24.944  21.208  1.00  0.00    -0.269 OA
BRANCH  12  15
ATOM     15  C   UNL A   1      33.194  25.003  23.521  1.00  0.00     0.117 A 
ATOM     16  C   UNL A   1      34.257  25.562  24.249  1.00  0.00     0.021 A 
ATOM     17  C   UNL A   1      32.461  23.955  24.077  1.00  0.00     0.282 A 
ATOM     18  C   UNL A   1      34.519  25.137  25.551  1.00  0.00     0.001 A 
ATOM     19  C   UNL A   1      32.723  23.524  25.388  1.00  0.00     0.086 A 
ATOM     20  C   UNL A   1      33.740  24.135  26.128  1.00  0.00     0.007 A 
BRANCH  17  21
ATOM     21  N   UNL A   1      31.412  23.290  23.324  1.00  0.00     0.063 N 
ATOM     22  O   UNL A   1      31.707  22.244  22.730  1.00  0.00    -0.258 OA
ATOM     23  O   UNL A   1      30.291  23.812  23.311  1.00  0.00    -0.258 OA
ENDBRANCH  17  21
ENDBRANCH  12  15
ENDBRANCH   7  11
ENDBRANCH   6   7
ENDBRANCH   4   6
ENDBRANCH   1   2
BRANCH   1  24
ATOM     24  C   UNL A   1      31.406  32.009  26.883  1.00  0.00     0.042 C 
BRANCH  24  25
ATOM     25  C   UNL A   1      32.637  32.877  27.100  1.00  0.00     0.118 C 
BRANCH  25  26
ATOM     26  N   UNL A   1      32.326  34.201  27.623  1.00  0.00    -0.352 N 
ATOM     27  C   UNL A   1      32.948  34.905  28.624  1.00  0.00     0.251 C 
ATOM     28  H   UNL A   1      31.562  34.654  27.199  1.00  0.00     0.163 HD
ATOM     29  O   UNL A   1      32.473  35.962  29.017  1.00  0.00    -0.269 OA
BRANCH  27  30
ATOM     30  C   UNL A   1      34.174  34.362  29.248  1.00  0.00     0.039 A 
ATOM     31  C   UNL A   1      34.046  33.594  30.406  1.00  0.00     0.014 A 
ATOM     32  C   UNL A   1      35.435  34.597  28.693  1.00  0.00     0.014 A 
ATOM     33  C   UNL A   1      35.180  33.020  30.978  1.00  0.00     0.010 A 
ATOM     34  C   UNL A   1      36.551  33.950  29.211  1.00  0.00     0.010 A 
ATOM     35  C   UNL A   1      36.438  33.165  30.367  1.00  0.00    -0.014 A 
BRANCH  35  36
ATOM     36  C   UNL A   1      37.635  32.500  30.942  1.00  0.00     0.031 A 
ATOM     37  C   UNL A   1      38.241  32.995  32.227  1.00  0.00     0.074 A 
ATOM     38  C   UNL A   1      38.184  31.456  30.292  1.00  0.00     0.049 A 
ATOM     39  N   UNL A   1      39.255  32.512  32.900  1.00  0.00    -0.248 NA
ATOM     40  C   UNL A   1      37.652  34.205  32.820  1.00  0.00     0.031 C 
ATOM     41  C   UNL A   1      37.729  30.926  29.004  1.00  0.00     0.029 A 
ATOM     42  N   UNL A   1      39.240  30.647  30.628  1.00  0.00    -0.354 N 
ATOM     43  C   UNL A   1      39.423  33.357  33.989  1.00  0.00     0.074 A 
ATOM     44  C   UNL A   1      38.454  34.423  33.851  1.00  0.00     0.031 C 
ATOM     45  C   UNL A   1      38.469  29.853  28.684  1.00  0.00     0.029 A 
ATOM     46  C   UNL A   1      39.470  29.639  29.723  1.00  0.00     0.049 A 
ATOM     47  H   UNL A   1      39.781  30.775  31.441  1.00  0.00     0.167 HD
ATOM     48  C   UNL A   1      40.283  33.240  35.028  1.00  0.00     0.037 A 
ATOM     49  C   UNL A   1      40.380  28.647  29.736  1.00  0.00     0.037 A 
ATOM     50  C   UNL A   1      41.237  32.171  35.167  1.00  0.00     0.049 A 
ATOM     51  C   UNL A   1      41.321  28.536  30.904  1.00  0.00     0.074 A 
ATOM     52  C   UNL A   1      42.119  31.931  36.207  1.00  0.00     0.029 A 
ATOM     53  N   UNL A   1      41.438  31.165  34.233  1.00  0.00    -0.354 N 
ATOM     54  N   UNL A   1      41.411  29.294  31.970  1.00  0.00    -0.248 NA
ATOM     55  C   UNL A   1      42.276  27.421  30.876  1.00  0.00     0.031 C 
ATOM     56  C   UNL A   1      42.889  30.810  35.877  1.00  0.00     0.029 A 
ATOM     57  C   UNL A   1      42.445  30.315  34.661  1.00  0.00     0.049 A 
ATOM     58  H   UNL A   1      40.938  31.069  33.391  1.00  0.00     0.167 HD
ATOM     59  C   UNL A   1      42.412  28.732  32.752  1.00  0.00     0.074 A 
ATOM     60  C   UNL A   1      42.880  27.556  32.047  1.00  0.00     0.031 C 
ATOM     61  C   UNL A   1      42.902  29.150  33.946  1.00  0.00     0.037 A 
BRANCH  48  62
ATOM     62  C   UNL A   1      40.228  34.296  36.096  1.00  0.00     0.057 A 
ATOM     63  C   UNL A   1      41.007  35.460  36.028  1.00  0.00     0.134 A 
ATOM     64  C   UNL A   1      39.366  34.163  37.192  1.00  0.00     0.134 A 
ATOM     65  F   UNL A   1      41.864  35.647  35.013  1.00  0.00    -0.206 F 
ATOM     66  C   UNL A   1      40.951  36.438  37.023  1.00  0.00     0.040 A 
ATOM     67  C   UNL A   1      39.278  35.149  38.177  1.00  0.00     0.040 A 
ATOM     68  F   UNL A   1      38.588  33.077  37.320  1.00  0.00    -0.206 F 
ATOM     69  C   UNL A   1      40.077  36.287  38.098  1.00  0.00     0.006 A 
ENDBRANCH  48  62
BRANCH  49  70
ATOM     70  C   UNL A   1      40.423  27.659  28.627  1.00  0.00     0.057 A 
ATOM     71  C   UNL A   1      41.190  27.889  27.479  1.00  0.00     0.134 A 
ATOM     72  C   UNL A   1      39.689  26.468  28.683  1.00  0.00     0.134 A 
ATOM     73  F   UNL A   1      41.903  29.019  27.359  1.00  0.00    -0.206 F 
ATOM     74  C   UNL A   1      41.206  26.986  26.415  1.00  0.00     0.040 A 
ATOM     75  C   UNL A   1      39.718  25.542  27.639  1.00  0.00     0.040 A 
ATOM     76  F   UNL A   1      38.942  26.182  29.759  1.00  0.00    -0.206 F 
ATOM     77  C   UNL A   1      40.471  25.805  26.496  1.00  0.00     0.006 A 
ENDBRANCH  49  70
BRANCH  61  78
ATOM     78  C   UNL A   1      43.973  28.306  34.576  1.00  0.00     0.057 A 
ATOM     79  C   UNL A   1      45.335  28.550  34.360  1.00  0.00     0.134 A 
ATOM     80  C   UNL A   1      43.634  27.237  35.417  1.00  0.00     0.134 A 
ATOM     81  F   UNL A   1      45.728  29.551  33.558  1.00  0.00    -0.206 F 
ATOM     82  C   UNL A   1      46.320  27.738  34.923  1.00  0.00     0.040 A 
ATOM     83  C   UNL A   1      44.612  26.439  36.012  1.00  0.00     0.040 A 
ATOM     84  F   UNL A   1      42.349  26.955  35.678  1.00  0.00    -0.206 F 
ATOM     85  C   UNL A   1      45.959  26.681  35.756  1.00  0.00     0.006 A 
ENDBRANCH  61  78
ENDBRANCH  35  36
ENDBRANCH  27  30
ENDBRANCH  25  26
ENDBRANCH  24  25
ENDBRANCH   1  24
TORSDOF 14
ENDMDL
MODEL 2
REMARK VINA RESULT:     -11.6      5.124     10.170
REMARK SMILES O=C(CC1(NC(=O)c2ccccc2[N+](=O)[O-])CCC1)NCCCNC(=O)c1ccc(-c2c3nc(c(-c4c(F)cccc4F)c4ccc([nH]4)c(-c4c(F)cccc4F)c4nc(c(-c5c(F)cccc5F)c5ccc2[nH]5)C=C4)C=C3)cc1
REMARK SMILES IDX 21 1 20 2 1 3 2 4 3 6 4 7 17 8 19 9 18 10 5 11 6 12 7 14
REMARK SMILES IDX 8 15 9 16 13 17 10 18 12 19 11 20 14 21 15 22 16 23 22 24
REMARK SMILES IDX 23 25 24 26 25 27 26 29 27 30 28 31 80 32 29 33 79 34 30 35
REMARK SMILES IDX 31 36 32 37 73 38 33 39 78 40 72 41 74 42 34 43 77 44 71 45
REMARK SMILES IDX 70 46 35 48 61 49 44 50 60 51 45 52 48 53 59 54 75 55 46 56
REMARK SMILES IDX 47 57 58 59 76 60 49 61 36 62 37 63 42 64 38 65 39 66 41 67
REMARK SMILES IDX 43 68 40 69 62 70 63 71 68 72 64 73 65 74 67 75 69 76 66 77
REMARK SMILES IDX 50 78 51 79 56 80 52 81 53 82 55 83 57 84 54 85
REMARK H PARENT 20 5 5 13 24 28 74 47 48 58
REMARK Flexibility Score: inf
ROOT
ATOM      1  C   UNL A   1      37.235  20.655  24.629  1.00  0.00     0.117 C 
ENDROOT
BRANCH   1   2
ATOM      2  N   UNL A   1      36.013  20.595  25.402  1.00  0.00    -0.356 N 
ATOM      3  O   UNL A   1      36.106  22.746  26.139  1.00  0.00    -0.275 OA
ATOM      4  C   UNL A   1      35.481  21.698  26.014  1.00  0.00     0.222 C 
ATOM      5  H   UNL A   1      35.548  19.732  25.491  1.00  0.00     0.163 HD
BRANCH   4   6
ATOM      6  C   UNL A   1      34.111  21.506  26.621  1.00  0.00     0.128 C 
BRANCH   6   7
ATOM      7  C   UNL A   1      32.883  21.666  25.702  1.00  0.00     0.049 C 
ATOM      8  C   UNL A   1      32.912  21.986  24.157  1.00  0.00     0.029 C 
ATOM      9  C   UNL A   1      32.439  20.212  25.293  1.00  0.00     0.029 C 
ATOM     10  C   UNL A   1      32.184  20.671  23.861  1.00  0.00     0.005 C 
BRANCH   7  11
ATOM     11  N   UNL A   1      31.721  22.385  26.320  1.00  0.00    -0.346 N 
ATOM     12  C   UNL A   1      31.213  23.660  26.238  1.00  0.00     0.258 C 
ATOM     13  H   UNL A   1      31.201  21.811  26.927  1.00  0.00     0.164 HD
ATOM     14  O   UNL A   1      30.163  23.929  26.818  1.00  0.00    -0.269 OA
BRANCH  12  15
ATOM     15  C   UNL A   1      31.950  24.755  25.600  1.00  0.00     0.117 A 
ATOM     16  C   UNL A   1      33.124  25.154  26.259  1.00  0.00     0.021 A 
ATOM     17  C   UNL A   1      31.570  25.404  24.426  1.00  0.00     0.282 A 
ATOM     18  C   UNL A   1      33.952  26.126  25.697  1.00  0.00     0.001 A 
ATOM     19  C   UNL A   1      32.401  26.384  23.858  1.00  0.00     0.086 A 
ATOM     20  C   UNL A   1      33.602  26.724  24.488  1.00  0.00     0.007 A 
BRANCH  17  21
ATOM     21  N   UNL A   1      30.320  25.084  23.761  1.00  0.00     0.063 N 
ATOM     22  O   UNL A   1      29.373  25.869  23.911  1.00  0.00    -0.258 OA
ATOM     23  O   UNL A   1      30.269  24.042  23.096  1.00  0.00    -0.258 OA
ENDBRANCH  17  21
ENDBRANCH  12  15
ENDBRANCH   7  11
ENDBRANCH   6   7
ENDBRANCH   4   6
ENDBRANCH   1   2
BRANCH   1  24
ATOM     24  C   UNL A   1      38.168  19.494  24.935  1.00  0.00     0.042 C 
BRANCH  24  25
ATOM     25  C   UNL A   1      39.332  19.870  25.840  1.00  0.00     0.118 C 
BRANCH  25  26
ATOM     26  N   UNL A   1      40.420  18.902  25.814  1.00  0.00    -0.352 N 
ATOM     27  C   UNL A   1      41.759  19.096  26.046  1.00  0.00     0.251 C 
ATOM     28  H   UNL A   1      40.157  17.978  25.600  1.00  0.00     0.163 HD
ATOM     29  O   UNL A   1      42.553  18.183  25.861  1.00  0.00    -0.269 OA
BRANCH  27  30
ATOM     30  C   UNL A   1      42.241  20.423  26.486  1.00  0.00     0.039 A 
ATOM     31  C   UNL A   1      42.714  21.312  25.520  1.00  0.00     0.014 A 
ATOM     32  C   UNL A   1      42.216  20.793  27.834  1.00  0.00     0.014 A 
ATOM     33  C   UNL A   1      43.115  22.591  25.903  1.00  0.00     0.010 A 
ATOM     34  C   UNL A   1      42.530  22.097  28.200  1.00  0.00     0.010 A 
ATOM     35  C   UNL A   1      42.996  23.006  27.241  1.00  0.00    -0.014 A 
BRANCH  35  36
ATOM     36  C   UNL A   1      43.363  24.390  27.634  1.00  0.00     0.031 A 
ATOM     37  C   UNL A   1      44.798  24.841  27.593  1.00  0.00     0.074 A 
ATOM     38  C   UNL A   1      42.399  25.236  28.046  1.00  0.00     0.049 A 
ATOM     39  N   UNL A   1      45.299  26.021  27.856  1.00  0.00    -0.248 NA
ATOM     40  C   UNL A   1      45.805  23.829  27.238  1.00  0.00     0.031 C 
ATOM     41  C   UNL A   1      40.982  24.896  28.195  1.00  0.00     0.029 A 
ATOM     42  N   UNL A   1      42.463  26.558  28.408  1.00  0.00    -0.354 N 
ATOM     43  C   UNL A   1      46.674  25.892  27.699  1.00  0.00     0.074 A 
ATOM     44  C   UNL A   1      46.935  24.504  27.388  1.00  0.00     0.031 C 
ATOM     45  C   UNL A   1      40.304  25.992  28.569  1.00  0.00     0.029 A 
ATOM     46  C   UNL A   1      41.240  27.101  28.720  1.00  0.00     0.049 A 
ATOM     47  H   UNL A   1      43.304  27.068  28.441  1.00  0.00     0.167 HD
ATOM     48  C   UNL A   1      47.629  26.849  27.775  1.00  0.00     0.037 A 
ATOM     49  C   UNL A   1      40.910  28.357  29.078  1.00  0.00     0.037 A 
ATOM     50  C   UNL A   1      47.362  28.232  28.073  1.00  0.00     0.049 A 
ATOM     51  C   UNL A   1      41.989  29.402  29.149  1.00  0.00     0.074 A 
ATOM     52  C   UNL A   1      48.251  29.291  28.123  1.00  0.00     0.029 A 
ATOM     53  N   UNL A   1      46.110  28.747  28.378  1.00  0.00    -0.354 N 
ATOM     54  N   UNL A   1      43.273  29.284  28.915  1.00  0.00    -0.248 NA
ATOM     55  C   UNL A   1      41.567  30.759  29.521  1.00  0.00     0.031 C 
ATOM     56  C   UNL A   1      47.546  30.436  28.509  1.00  0.00     0.029 A 
ATOM     57  C   UNL A   1      46.207  30.104  28.639  1.00  0.00     0.049 A 
ATOM     58  H   UNL A   1      45.276  28.224  28.404  1.00  0.00     0.167 HD
ATOM     59  C   UNL A   1      43.809  30.555  29.082  1.00  0.00     0.074 A 
ATOM     60  C   UNL A   1      42.704  31.431  29.414  1.00  0.00     0.031 C 
ATOM     61  C   UNL A   1      45.098  30.962  28.972  1.00  0.00     0.037 A 
BRANCH  48  62
ATOM     62  C   UNL A   1      49.051  26.429  27.528  1.00  0.00     0.057 A 
ATOM     63  C   UNL A   1      49.890  26.006  28.569  1.00  0.00     0.134 A 
ATOM     64  C   UNL A   1      49.581  26.420  26.232  1.00  0.00     0.134 A 
ATOM     65  F   UNL A   1      49.451  26.003  29.837  1.00  0.00    -0.206 F 
ATOM     66  C   UNL A   1      51.210  25.617  28.334  1.00  0.00     0.040 A 
ATOM     67  C   UNL A   1      50.889  26.002  25.980  1.00  0.00     0.040 A 
ATOM     68  F   UNL A   1      48.834  26.807  25.186  1.00  0.00    -0.206 F 
ATOM     69  C   UNL A   1      51.711  25.607  27.034  1.00  0.00     0.006 A 
ENDBRANCH  48  62
BRANCH  49  70
ATOM     70  C   UNL A   1      39.493  28.704  29.359  1.00  0.00     0.057 A 
ATOM     71  C   UNL A   1      38.652  29.189  28.350  1.00  0.00     0.134 A 
ATOM     72  C   UNL A   1      38.950  28.574  30.642  1.00  0.00     0.134 A 
ATOM     73  F   UNL A   1      39.117  29.352  27.103  1.00  0.00    -0.206 F 
ATOM     74  C   UNL A   1      37.330  29.556  28.611  1.00  0.00     0.040 A 
ATOM     75  C   UNL A   1      37.622  28.909  30.911  1.00  0.00     0.040 A 
ATOM     76  F   UNL A   1      39.699  28.104  31.650  1.00  0.00    -0.206 F 
ATOM     77  C   UNL A   1      36.811  29.411  29.896  1.00  0.00     0.006 A 
ENDBRANCH  49  70
BRANCH  61  78
ATOM     78  C   UNL A   1      45.370  32.425  29.178  1.00  0.00     0.057 A 
ATOM     79  C   UNL A   1      45.704  32.949  30.434  1.00  0.00     0.134 A 
ATOM     80  C   UNL A   1      45.304  33.319  28.102  1.00  0.00     0.134 A 
ATOM     81  F   UNL A   1      45.774  32.149  31.509  1.00  0.00    -0.206 F 
ATOM     82  C   UNL A   1      45.920  34.316  30.619  1.00  0.00     0.040 A 
ATOM     83  C   UNL A   1      45.551  34.683  28.269  1.00  0.00     0.040 A 
ATOM     84  F   UNL A   1      45.003  32.883  26.870  1.00  0.00    -0.206 F 
ATOM     85  C   UNL A   1      45.848  35.185  29.533  1.00  0.00     0.006 A 
ENDBRANCH  61  78
ENDBRANCH  35  36
ENDBRANCH  27  30
ENDBRANCH  25  26
ENDBRANCH  24  25
ENDBRANCH   1  24
TORSDOF 14
ENDMDL
MODEL 3
REMARK VINA RESULT:     -11.5      0.614      6.382
REMARK SMILES O=C(CC1(NC(=O)c2ccccc2[N+](=O)[O-])CCC1)NCCCNC(=O)c1ccc(-c2c3nc(c(-c4c(F)cccc4F)c4ccc([nH]4)c(-c4c(F)cccc4F)c4nc(c(-c5c(F)cccc5F)c5ccc2[nH]5)C=C4)C=C3)cc1
REMARK SMILES IDX 21 1 20 2 1 3 2 4 3 6 4 7 17 8 19 9 18 10 5 11 6 12 7 14
REMARK SMILES IDX 8 15 9 16 13 17 10 18 12 19 11 20 14 21 15 22 16 23 22 24
REMARK SMILES IDX 23 25 24 26 25 27 26 29 27 30 28 31 80 32 29 33 79 34 30 35
REMARK SMILES IDX 31 36 32 37 73 38 33 39 78 40 72 41 74 42 34 43 77 44 71 45
REMARK SMILES IDX 70 46 35 48 61 49 44 50 60 51 45 52 48 53 59 54 75 55 46 56
REMARK SMILES IDX 47 57 58 59 76 60 49 61 36 62 37 63 42 64 38 65 39 66 41 67
REMARK SMILES IDX 43 68 40 69 62 70 63 71 68 72 64 73 65 74 67 75 69 76 66 77
REMARK SMILES IDX 50 78 51 79 56 80 52 81 53 82 55 83 57 84 54 85
REMARK H PARENT 20 5 5 13 24 28 74 47 48 58
REMARK Flexibility Score: inf
ROOT
ATOM      1  C   UNL A   1      31.621  30.737  26.622  1.00  0.00     0.117 C 
ENDROOT
BRANCH   1   2
ATOM      2  N   UNL A   1      31.961  30.346  25.270  1.00  0.00    -0.356 N 
ATOM      3  O   UNL A   1      33.618  28.904  25.862  1.00  0.00    -0.275 OA
ATOM      4  C   UNL A   1      32.873  29.361  25.002  1.00  0.00     0.222 C 
ATOM      5  H   UNL A   1      31.522  30.804  24.518  1.00  0.00     0.163 HD
BRANCH   4   6
ATOM      6  C   UNL A   1      32.974  28.948  23.552  1.00  0.00     0.128 C 
BRANCH   6   7
ATOM      7  C   UNL A   1      31.942  27.936  23.014  1.00  0.00     0.049 C 
ATOM      8  C   UNL A   1      30.762  27.285  23.834  1.00  0.00     0.029 C 
ATOM      9  C   UNL A   1      30.836  28.778  22.275  1.00  0.00     0.029 C 
ATOM     10  C   UNL A   1      29.741  27.896  22.868  1.00  0.00     0.005 C 
BRANCH   7  11
ATOM     11  N   UNL A   1      32.497  26.909  22.072  1.00  0.00    -0.346 N 
ATOM     12  C   UNL A   1      32.946  25.616  22.200  1.00  0.00     0.258 C 
ATOM     13  H   UNL A   1      32.553  27.237  21.146  1.00  0.00     0.164 HD
ATOM     14  O   UNL A   1      33.269  24.987  21.195  1.00  0.00    -0.269 OA
BRANCH  12  15
ATOM     15  C   UNL A   1      33.192  25.001  23.508  1.00  0.00     0.117 A 
ATOM     16  C   UNL A   1      34.238  25.569  24.254  1.00  0.00     0.021 A 
ATOM     17  C   UNL A   1      32.482  23.924  24.037  1.00  0.00     0.282 A 
ATOM     18  C   UNL A   1      34.504  25.123  25.548  1.00  0.00     0.001 A 
ATOM     19  C   UNL A   1      32.748  23.472  25.340  1.00  0.00     0.086 A 
ATOM     20  C   UNL A   1      33.746  24.091  26.099  1.00  0.00     0.007 A 
BRANCH  17  21
ATOM     21  N   UNL A   1      31.453  23.251  23.266  1.00  0.00     0.063 N 
ATOM     22  O   UNL A   1      30.326  23.765  23.241  1.00  0.00    -0.258 OA
ATOM     23  O   UNL A   1      31.757  22.200  22.689  1.00  0.00    -0.258 OA
ENDBRANCH  17  21
ENDBRANCH  12  15
ENDBRANCH   7  11
ENDBRANCH   6   7
ENDBRANCH   4   6
ENDBRANCH   1   2
BRANCH   1  24
ATOM     24  C   UNL A   1      31.419  32.238  26.754  1.00  0.00     0.042 C 
BRANCH  24  25
ATOM     25  C   UNL A   1      32.658  32.979  27.236  1.00  0.00     0.118 C 
BRANCH  25  26
ATOM     26  N   UNL A   1      32.386  34.347  27.654  1.00  0.00    -0.352 N 
ATOM     27  C   UNL A   1      32.993  35.090  28.637  1.00  0.00     0.251 C 
ATOM     28  H   UNL A   1      31.665  34.804  27.163  1.00  0.00     0.163 HD
ATOM     29  O   UNL A   1      32.550  36.191  28.935  1.00  0.00    -0.269 OA
BRANCH  27  30
ATOM     30  C   UNL A   1      34.160  34.538  29.356  1.00  0.00     0.039 A 
ATOM     31  C   UNL A   1      33.963  34.001  30.630  1.00  0.00     0.014 A 
ATOM     32  C   UNL A   1      35.433  34.537  28.780  1.00  0.00     0.014 A 
ATOM     33  C   UNL A   1      35.036  33.418  31.303  1.00  0.00     0.010 A 
ATOM     34  C   UNL A   1      36.480  33.875  29.413  1.00  0.00     0.010 A 
ATOM     35  C   UNL A   1      36.296  33.321  30.687  1.00  0.00    -0.014 A 
BRANCH  35  36
ATOM     36  C   UNL A   1      37.421  32.642  31.380  1.00  0.00     0.031 A 
ATOM     37  C   UNL A   1      38.095  31.451  30.756  1.00  0.00     0.074 A 
ATOM     38  C   UNL A   1      37.822  33.094  32.583  1.00  0.00     0.049 A 
ATOM     39  N   UNL A   1      39.119  30.761  31.192  1.00  0.00    -0.248 NA
ATOM     40  C   UNL A   1      37.530  30.950  29.494  1.00  0.00     0.031 C 
ATOM     41  C   UNL A   1      37.203  34.198  33.322  1.00  0.00     0.029 A 
ATOM     42  N   UNL A   1      38.850  32.688  33.395  1.00  0.00    -0.354 N 
ATOM     43  C   UNL A   1      39.318  29.750  30.260  1.00  0.00     0.074 A 
ATOM     44  C   UNL A   1      38.267  29.871  29.274  1.00  0.00     0.031 C 
ATOM     45  C   UNL A   1      37.894  34.411  34.453  1.00  0.00     0.029 A 
ATOM     46  C   UNL A   1      38.980  33.441  34.537  1.00  0.00     0.049 A 
ATOM     47  H   UNL A   1      39.440  31.929  33.180  1.00  0.00     0.167 HD
ATOM     48  C   UNL A   1      40.304  28.824  30.212  1.00  0.00     0.037 A 
ATOM     49  C   UNL A   1      39.881  33.363  35.535  1.00  0.00     0.037 A 
ATOM     50  C   UNL A   1      41.356  28.716  31.190  1.00  0.00     0.049 A 
ATOM     51  C   UNL A   1      40.970  32.330  35.454  1.00  0.00     0.074 A 
ATOM     52  C   UNL A   1      42.433  27.846  31.206  1.00  0.00     0.029 A 
ATOM     53  N   UNL A   1      41.457  29.499  32.330  1.00  0.00    -0.354 N 
ATOM     54  N   UNL A   1      41.196  31.435  34.524  1.00  0.00    -0.248 NA
ATOM     55  C   UNL A   1      41.939  32.307  36.558  1.00  0.00     0.031 C 
ATOM     56  C   UNL A   1      43.156  28.069  32.383  1.00  0.00     0.029 A 
ATOM     57  C   UNL A   1      42.566  29.119  33.069  1.00  0.00     0.049 A 
ATOM     58  H   UNL A   1      40.833  30.220  32.577  1.00  0.00     0.167 HD
ATOM     59  C   UNL A   1      42.347  30.762  34.914  1.00  0.00     0.074 A 
ATOM     60  C   UNL A   1      42.784  31.371  36.154  1.00  0.00     0.031 C 
ATOM     61  C   UNL A   1      42.986  29.733  34.303  1.00  0.00     0.037 A 
BRANCH  48  62
ATOM     62  C   UNL A   1      40.293  27.858  29.061  1.00  0.00     0.057 A 
ATOM     63  C   UNL A   1      39.539  26.676  29.093  1.00  0.00     0.134 A 
ATOM     64  C   UNL A   1      41.020  28.124  27.894  1.00  0.00     0.134 A 
ATOM     65  F   UNL A   1      38.829  26.351  30.185  1.00  0.00    -0.206 F 
ATOM     66  C   UNL A   1      39.531  25.782  28.021  1.00  0.00     0.040 A 
ATOM     67  C   UNL A   1      40.995  27.254  26.802  1.00  0.00     0.040 A 
ATOM     68  F   UNL A   1      41.760  29.238  27.790  1.00  0.00    -0.206 F 
ATOM     69  C   UNL A   1      40.255  26.074  26.867  1.00  0.00     0.006 A 
ENDBRANCH  48  62
BRANCH  49  70
ATOM     70  C   UNL A   1      39.815  34.314  36.675  1.00  0.00     0.057 A 
ATOM     71  C   UNL A   1      39.161  33.974  37.865  1.00  0.00     0.134 A 
ATOM     72  C   UNL A   1      40.393  35.586  36.598  1.00  0.00     0.134 A 
ATOM     73  F   UNL A   1      38.574  32.775  37.995  1.00  0.00    -0.206 F 
ATOM     74  C   UNL A   1      39.059  34.874  38.928  1.00  0.00     0.040 A 
ATOM     75  C   UNL A   1      40.324  36.485  37.664  1.00  0.00     0.040 A 
ATOM     76  F   UNL A   1      41.044  35.969  35.491  1.00  0.00    -0.206 F 
ATOM     77  C   UNL A   1      39.647  36.133  38.830  1.00  0.00     0.006 A 
ENDBRANCH  49  70
BRANCH  61  78
ATOM     78  C   UNL A   1      44.244  29.230  34.953  1.00  0.00     0.057 A 
ATOM     79  C   UNL A   1      44.229  28.200  35.903  1.00  0.00     0.134 A 
ATOM     80  C   UNL A   1      45.487  29.782  34.618  1.00  0.00     0.134 A 
ATOM     81  F   UNL A   1      43.071  27.635  36.277  1.00  0.00    -0.206 F 
ATOM     82  C   UNL A   1      45.401  27.766  36.526  1.00  0.00     0.040 A 
ATOM     83  C   UNL A   1      46.669  29.333  35.210  1.00  0.00     0.040 A 
ATOM     84  F   UNL A   1      45.576  30.762  33.707  1.00  0.00    -0.206 F 
ATOM     85  C   UNL A   1      46.625  28.330  36.175  1.00  0.00     0.006 A 
ENDBRANCH  61  78
ENDBRANCH  35  36
ENDBRANCH  27  30
ENDBRANCH  25  26
ENDBRANCH  24  25
ENDBRANCH   1  24
TORSDOF 14
ENDMDL
