MODEL 1
REMARK VINA RESULT:     -11.5      0.000      0.000
REMARK SMILES CC(=O)N1CCC[C@@H](Cc2nccnc2C(=O)NCCCNC(=O)c2ccc(-c3c4nc(c(-c5c(F)cccc5F)c5ccc([nH]5)c(-c5c(F)cccc5F)c5nc(c(-c6c(F)cccc6F)c6ccc3[nH]6)C=C5)C=C4)cc2)C1
REMARK SMILES IDX 19 1 18 2 16 3 17 4 15 6 10 7 11 8 12 9 14 10 13 11 9 12
REMARK SMILES IDX 8 13 4 14 5 15 79 16 6 17 7 18 2 19 1 20 3 21 20 22 21 23
REMARK SMILES IDX 22 24 23 25 24 27 25 28 26 29 78 30 27 31 77 32 28 33 29 34
REMARK SMILES IDX 30 35 71 36 31 37 76 38 70 39 72 40 32 41 75 42 69 43 68 44
REMARK SMILES IDX 33 46 59 47 42 48 58 49 43 50 46 51 57 52 73 53 44 54 45 55
REMARK SMILES IDX 56 57 74 58 47 59 34 60 35 61 40 62 36 63 37 64 39 65 41 66
REMARK SMILES IDX 38 67 60 68 61 69 66 70 62 71 63 72 65 73 67 74 64 75 48 76
REMARK SMILES IDX 49 77 54 78 50 79 51 80 53 81 55 82 52 83
REMARK H PARENT 18 5 22 26 72 45 46 56
REMARK Flexibility Score: inf
ROOT
ATOM      1  C   UNL A   1      31.867  28.460  27.332  1.00  0.00     0.118 C 
ENDROOT
BRANCH   1   2
ATOM      2  N   UNL A   1      31.051  27.281  27.092  1.00  0.00    -0.351 N 
ATOM      3  C   UNL A   1      30.767  26.466  26.020  1.00  0.00     0.271 C 
ATOM      4  O   UNL A   1      29.910  25.604  26.266  1.00  0.00    -0.267 OA
ATOM      5  H   UNL A   1      30.580  26.991  27.906  1.00  0.00     0.163 HD
BRANCH   3   6
ATOM      6  C   UNL A   1      31.394  26.449  24.645  1.00  0.00     0.149 A 
ATOM      7  C   UNL A   1      31.461  27.473  23.687  1.00  0.00     0.072 A 
ATOM      8  N   UNL A   1      31.873  27.234  22.403  1.00  0.00    -0.257 NA
ATOM      9  C   UNL A   1      32.187  25.961  22.089  1.00  0.00     0.131 A 
ATOM     10  N   UNL A   1      31.754  25.173  24.295  1.00  0.00    -0.248 NA
ATOM     11  C   UNL A   1      32.134  24.951  23.020  1.00  0.00     0.132 A 
BRANCH   7  12
ATOM     12  C   UNL A   1      31.165  28.912  23.926  1.00  0.00     0.064 C 
BRANCH  12  13
ATOM     13  C   UNL A   1      29.854  29.516  23.427  1.00  0.00     0.015 C 
ATOM     14  N   UNL A   1      28.746  31.069  21.931  1.00  0.00    -0.343 N 
ATOM     15  C   UNL A   1      27.616  30.174  21.684  1.00  0.00     0.119 C 
ATOM     16  C   UNL A   1      30.020  30.388  22.179  1.00  0.00     0.123 C 
ATOM     17  C   UNL A   1      27.422  29.210  22.855  1.00  0.00     0.022 C 
ATOM     18  C   UNL A   1      28.727  28.492  23.218  1.00  0.00     0.007 C 
BRANCH  14  19
ATOM     19  C   UNL A   1      28.522  32.429  22.083  1.00  0.00     0.219 C 
ATOM     20  C   UNL A   1      29.232  33.125  23.216  1.00  0.00     0.114 C 
ATOM     21  O   UNL A   1      27.777  33.070  21.341  1.00  0.00    -0.275 OA
ENDBRANCH  14  19
ENDBRANCH  12  13
ENDBRANCH   7  12
ENDBRANCH   3   6
ENDBRANCH   1   2
BRANCH   1  22
ATOM     22  C   UNL A   1      33.357  28.098  27.211  1.00  0.00     0.042 C 
BRANCH  22  23
ATOM     23  C   UNL A   1      34.179  29.035  26.338  1.00  0.00     0.118 C 
BRANCH  23  24
ATOM     24  N   UNL A   1      34.005  30.418  26.735  1.00  0.00    -0.352 N 
ATOM     25  C   UNL A   1      34.599  31.149  27.736  1.00  0.00     0.251 C 
ATOM     26  H   UNL A   1      33.352  30.919  26.196  1.00  0.00     0.163 HD
ATOM     27  O   UNL A   1      34.085  32.222  28.049  1.00  0.00    -0.269 OA
BRANCH  25  28
ATOM     28  C   UNL A   1      35.833  30.703  28.441  1.00  0.00     0.039 A 
ATOM     29  C   UNL A   1      37.057  31.257  28.040  1.00  0.00     0.014 A 
ATOM     30  C   UNL A   1      35.839  29.672  29.384  1.00  0.00     0.014 A 
ATOM     31  C   UNL A   1      38.264  30.777  28.565  1.00  0.00     0.010 A 
ATOM     32  C   UNL A   1      37.034  29.257  29.977  1.00  0.00     0.010 A 
ATOM     33  C   UNL A   1      38.264  29.767  29.537  1.00  0.00    -0.014 A 
BRANCH  33  34
ATOM     34  C   UNL A   1      39.533  29.146  30.007  1.00  0.00     0.031 A 
ATOM     35  C   UNL A   1      40.203  29.671  31.254  1.00  0.00     0.074 A 
ATOM     36  C   UNL A   1      40.101  28.136  29.321  1.00  0.00     0.049 A 
ATOM     37  N   UNL A   1      41.344  29.325  31.796  1.00  0.00    -0.248 NA
ATOM     38  C   UNL A   1      39.508  30.752  31.974  1.00  0.00     0.031 C 
ATOM     39  C   UNL A   1      39.580  27.549  28.087  1.00  0.00     0.029 A 
ATOM     40  N   UNL A   1      41.251  27.426  29.568  1.00  0.00    -0.354 N 
ATOM     41  C   UNL A   1      41.516  30.164  32.890  1.00  0.00     0.074 A 
ATOM     42  C   UNL A   1      40.388  31.067  32.911  1.00  0.00     0.031 C 
ATOM     43  C   UNL A   1      40.393  26.553  27.697  1.00  0.00     0.029 A 
ATOM     44  C   UNL A   1      41.507  26.450  28.636  1.00  0.00     0.049 A 
ATOM     45  H   UNL A   1      41.837  27.601  30.340  1.00  0.00     0.167 HD
ATOM     46  C   UNL A   1      42.508  30.169  33.814  1.00  0.00     0.037 A 
ATOM     47  C   UNL A   1      42.523  25.570  28.551  1.00  0.00     0.037 A 
ATOM     48  C   UNL A   1      43.602  29.236  33.832  1.00  0.00     0.049 A 
ATOM     49  C   UNL A   1      43.594  25.570  29.609  1.00  0.00     0.074 A 
ATOM     50  C   UNL A   1      44.633  29.131  34.750  1.00  0.00     0.029 A 
ATOM     51  N   UNL A   1      43.797  28.236  32.893  1.00  0.00    -0.354 N 
ATOM     52  N   UNL A   1      43.723  26.348  30.655  1.00  0.00    -0.248 NA
ATOM     53  C   UNL A   1      44.654  24.559  29.478  1.00  0.00     0.031 C 
ATOM     54  C   UNL A   1      45.464  28.077  34.355  1.00  0.00     0.029 A 
ATOM     55  C   UNL A   1      44.931  27.506  33.211  1.00  0.00     0.049 A 
ATOM     56  H   UNL A   1      43.216  28.068  32.116  1.00  0.00     0.167 HD
ATOM     57  C   UNL A   1      44.855  25.901  31.325  1.00  0.00     0.074 A 
ATOM     58  C   UNL A   1      45.373  24.779  30.570  1.00  0.00     0.031 C 
ATOM     59  C   UNL A   1      45.416  26.377  32.463  1.00  0.00     0.037 A 
BRANCH  46  60
ATOM     60  C   UNL A   1      42.443  31.213  34.890  1.00  0.00     0.057 A 
ATOM     61  C   UNL A   1      43.060  32.463  34.744  1.00  0.00     0.134 A 
ATOM     62  C   UNL A   1      41.739  30.976  36.078  1.00  0.00     0.134 A 
ATOM     63  F   UNL A   1      43.763  32.749  33.637  1.00  0.00    -0.206 F 
ATOM     64  C   UNL A   1      43.004  33.428  35.751  1.00  0.00     0.040 A 
ATOM     65  C   UNL A   1      41.654  31.943  37.081  1.00  0.00     0.040 A 
ATOM     66  F   UNL A   1      41.121  29.803  36.279  1.00  0.00    -0.206 F 
ATOM     67  C   UNL A   1      42.293  33.171  36.922  1.00  0.00     0.006 A 
ENDBRANCH  46  60
BRANCH  47  68
ATOM     68  C   UNL A   1      42.562  24.584  27.443  1.00  0.00     0.057 A 
ATOM     69  C   UNL A   1      43.109  24.921  26.199  1.00  0.00     0.134 A 
ATOM     70  C   UNL A   1      42.049  23.292  27.594  1.00  0.00     0.134 A 
ATOM     71  F   UNL A   1      43.597  26.154  25.988  1.00  0.00    -0.206 F 
ATOM     72  C   UNL A   1      43.128  24.015  25.138  1.00  0.00     0.040 A 
ATOM     73  C   UNL A   1      42.082  22.367  26.549  1.00  0.00     0.040 A 
ATOM     74  F   UNL A   1      41.515  22.908  28.763  1.00  0.00    -0.206 F 
ATOM     75  C   UNL A   1      42.616  22.730  25.314  1.00  0.00     0.006 A 
ENDBRANCH  47  68
BRANCH  59  76
ATOM     76  C   UNL A   1      46.620  25.655  32.990  1.00  0.00     0.057 A 
ATOM     77  C   UNL A   1      47.919  26.005  32.604  1.00  0.00     0.134 A 
ATOM     78  C   UNL A   1      46.475  24.624  33.926  1.00  0.00     0.134 A 
ATOM     79  F   UNL A   1      48.122  26.976  31.702  1.00  0.00    -0.206 F 
ATOM     80  C   UNL A   1      49.033  25.338  33.116  1.00  0.00     0.040 A 
ATOM     81  C   UNL A   1      47.581  23.965  34.462  1.00  0.00     0.040 A 
ATOM     82  F   UNL A   1      45.256  24.248  34.343  1.00  0.00    -0.206 F 
ATOM     83  C   UNL A   1      48.866  24.319  34.053  1.00  0.00     0.006 A 
ENDBRANCH  59  76
ENDBRANCH  33  34
ENDBRANCH  25  28
ENDBRANCH  23  24
ENDBRANCH  22  23
ENDBRANCH   1  22
TORSDOF 13
ENDMDL
MODEL 2
REMARK VINA RESULT:     -11.2      3.428      8.195
REMARK SMILES CC(=O)N1CCC[C@@H](Cc2nccnc2C(=O)NCCCNC(=O)c2ccc(-c3c4nc(c(-c5c(F)cccc5F)c5ccc([nH]5)c(-c5c(F)cccc5F)c5nc(c(-c6c(F)cccc6F)c6ccc3[nH]6)C=C5)C=C4)cc2)C1
REMARK SMILES IDX 19 1 18 2 16 3 17 4 15 6 10 7 11 8 12 9 14 10 13 11 9 12
REMARK SMILES IDX 8 13 4 14 5 15 79 16 6 17 7 18 2 19 1 20 3 21 20 22 21 23
REMARK SMILES IDX 22 24 23 25 24 27 25 28 26 29 78 30 27 31 77 32 28 33 29 34
REMARK SMILES IDX 30 35 71 36 31 37 76 38 70 39 72 40 32 41 75 42 69 43 68 44
REMARK SMILES IDX 33 46 59 47 42 48 58 49 43 50 46 51 57 52 73 53 44 54 45 55
REMARK SMILES IDX 56 57 74 58 47 59 34 60 35 61 40 62 36 63 37 64 39 65 41 66
REMARK SMILES IDX 38 67 60 68 61 69 66 70 62 71 63 72 65 73 67 74 64 75 48 76
REMARK SMILES IDX 49 77 54 78 50 79 51 80 53 81 55 82 52 83
REMARK H PARENT 18 5 22 26 72 45 46 56
REMARK Flexibility Score: inf
ROOT
ATOM      1  C   UNL A   1      36.614  21.997  24.353  1.00  0.00     0.118 C 
ENDROOT
BRANCH   1   2
ATOM      2  N   UNL A   1      35.866  22.886  23.480  1.00  0.00    -0.351 N 
ATOM      3  C   UNL A   1      34.603  23.432  23.456  1.00  0.00     0.271 C 
ATOM      4  O   UNL A   1      34.362  24.082  22.428  1.00  0.00    -0.267 OA
ATOM      5  H   UNL A   1      36.401  23.172  22.705  1.00  0.00     0.163 HD
BRANCH   3   6
ATOM      6  C   UNL A   1      33.529  23.393  24.519  1.00  0.00     0.149 A 
ATOM      7  C   UNL A   1      33.305  24.276  25.587  1.00  0.00     0.072 A 
ATOM      8  N   UNL A   1      32.421  23.983  26.592  1.00  0.00    -0.257 NA
ATOM      9  C   UNL A   1      31.792  22.793  26.525  1.00  0.00     0.131 A 
ATOM     10  N   UNL A   1      32.844  22.206  24.470  1.00  0.00    -0.248 NA
ATOM     11  C   UNL A   1      31.996  21.924  25.479  1.00  0.00     0.132 A 
BRANCH   7  12
ATOM     12  C   UNL A   1      33.921  25.621  25.751  1.00  0.00     0.064 C 
BRANCH  12  13
ATOM     13  C   UNL A   1      33.056  26.876  25.646  1.00  0.00     0.015 C 
ATOM     14  N   UNL A   1      32.953  29.295  25.526  1.00  0.00    -0.343 N 
ATOM     15  C   UNL A   1      31.839  29.296  24.580  1.00  0.00     0.119 C 
ATOM     16  C   UNL A   1      33.863  28.153  25.395  1.00  0.00     0.123 C 
ATOM     17  C   UNL A   1      31.016  28.013  24.709  1.00  0.00     0.022 C 
ATOM     18  C   UNL A   1      31.903  26.765  24.636  1.00  0.00     0.007 C 
BRANCH  14  19
ATOM     19  C   UNL A   1      32.982  30.229  26.552  1.00  0.00     0.219 C 
ATOM     20  C   UNL A   1      34.219  30.274  27.412  1.00  0.00     0.114 C 
ATOM     21  O   UNL A   1      32.050  31.001  26.777  1.00  0.00    -0.275 OA
ENDBRANCH  14  19
ENDBRANCH  12  13
ENDBRANCH   7  12
ENDBRANCH   3   6
ENDBRANCH   1   2
BRANCH   1  22
ATOM     22  C   UNL A   1      36.827  22.667  25.721  1.00  0.00     0.042 C 
BRANCH  22  23
ATOM     23  C   UNL A   1      37.762  23.867  25.712  1.00  0.00     0.118 C 
BRANCH  23  24
ATOM     24  N   UNL A   1      39.139  23.469  25.924  1.00  0.00    -0.352 N 
ATOM     25  C   UNL A   1      40.174  24.109  26.563  1.00  0.00     0.251 C 
ATOM     26  H   UNL A   1      39.373  22.591  25.547  1.00  0.00     0.163 HD
ATOM     27  O   UNL A   1      41.315  23.693  26.372  1.00  0.00    -0.269 OA
BRANCH  25  28
ATOM     28  C   UNL A   1      39.968  25.266  27.478  1.00  0.00     0.039 A 
ATOM     29  C   UNL A   1      40.753  26.411  27.281  1.00  0.00     0.014 A 
ATOM     30  C   UNL A   1      39.129  25.212  28.595  1.00  0.00     0.014 A 
ATOM     31  C   UNL A   1      40.707  27.475  28.191  1.00  0.00     0.010 A 
ATOM     32  C   UNL A   1      39.012  26.311  29.451  1.00  0.00     0.010 A 
ATOM     33  C   UNL A   1      39.837  27.432  29.289  1.00  0.00    -0.014 A 
BRANCH  33  34
ATOM     34  C   UNL A   1      39.870  28.485  30.343  1.00  0.00     0.031 A 
ATOM     35  C   UNL A   1      38.891  29.631  30.281  1.00  0.00     0.074 A 
ATOM     36  C   UNL A   1      40.777  28.436  31.337  1.00  0.00     0.049 A 
ATOM     37  N   UNL A   1      38.794  30.686  31.052  1.00  0.00    -0.248 NA
ATOM     38  C   UNL A   1      37.903  29.601  29.189  1.00  0.00     0.031 C 
ATOM     39  C   UNL A   1      41.800  27.403  31.503  1.00  0.00     0.029 A 
ATOM     40  N   UNL A   1      40.985  29.285  32.396  1.00  0.00    -0.354 N 
ATOM     41  C   UNL A   1      37.766  31.454  30.517  1.00  0.00     0.074 A 
ATOM     42  C   UNL A   1      37.300  30.770  29.332  1.00  0.00     0.031 C 
ATOM     43  C   UNL A   1      42.512  27.666  32.612  1.00  0.00     0.029 A 
ATOM     44  C   UNL A   1      42.016  28.899  33.219  1.00  0.00     0.049 A 
ATOM     45  H   UNL A   1      40.447  30.095  32.551  1.00  0.00     0.167 HD
ATOM     46  C   UNL A   1      37.235  32.611  30.982  1.00  0.00     0.037 A 
ATOM     47  C   UNL A   1      42.501  29.472  34.336  1.00  0.00     0.037 A 
ATOM     48  C   UNL A   1      37.654  33.266  32.191  1.00  0.00     0.049 A 
ATOM     49  C   UNL A   1      41.871  30.737  34.855  1.00  0.00     0.074 A 
ATOM     50  C   UNL A   1      37.149  34.418  32.770  1.00  0.00     0.029 A 
ATOM     51  N   UNL A   1      38.672  32.814  33.016  1.00  0.00    -0.354 N 
ATOM     52  N   UNL A   1      40.879  31.431  34.356  1.00  0.00    -0.248 NA
ATOM     53  C   UNL A   1      42.425  31.290  36.100  1.00  0.00     0.031 C 
ATOM     54  C   UNL A   1      37.876  34.674  33.938  1.00  0.00     0.029 A 
ATOM     55  C   UNL A   1      38.808  33.663  34.103  1.00  0.00     0.049 A 
ATOM     56  H   UNL A   1      39.215  32.009  32.856  1.00  0.00     0.167 HD
ATOM     57  C   UNL A   1      40.666  32.481  35.240  1.00  0.00     0.074 A 
ATOM     58  C   UNL A   1      41.628  32.329  36.311  1.00  0.00     0.031 C 
ATOM     59  C   UNL A   1      39.755  33.482  35.172  1.00  0.00     0.037 A 
BRANCH  46  60
ATOM     60  C   UNL A   1      36.130  33.234  30.180  1.00  0.00     0.057 A 
ATOM     61  C   UNL A   1      36.390  34.005  29.039  1.00  0.00     0.134 A 
ATOM     62  C   UNL A   1      34.789  33.046  30.540  1.00  0.00     0.134 A 
ATOM     63  F   UNL A   1      37.652  34.237  28.648  1.00  0.00    -0.206 F 
ATOM     64  C   UNL A   1      35.358  34.589  28.301  1.00  0.00     0.040 A 
ATOM     65  C   UNL A   1      33.748  33.603  29.795  1.00  0.00     0.040 A 
ATOM     66  F   UNL A   1      34.470  32.314  31.618  1.00  0.00    -0.206 F 
ATOM     67  C   UNL A   1      34.032  34.383  28.675  1.00  0.00     0.006 A 
ENDBRANCH  46  60
BRANCH  47  68
ATOM     68  C   UNL A   1      43.624  28.837  35.070  1.00  0.00     0.057 A 
ATOM     69  C   UNL A   1      44.954  29.113  34.730  1.00  0.00     0.134 A 
ATOM     70  C   UNL A   1      43.399  27.936  36.116  1.00  0.00     0.134 A 
ATOM     71  F   UNL A   1      45.232  29.952  33.720  1.00  0.00    -0.206 F 
ATOM     72  C   UNL A   1      46.020  28.503  35.392  1.00  0.00     0.040 A 
ATOM     73  C   UNL A   1      44.456  27.336  36.802  1.00  0.00     0.040 A 
ATOM     74  F   UNL A   1      42.147  27.633  36.491  1.00  0.00    -0.206 F 
ATOM     75  C   UNL A   1      45.771  27.613  36.435  1.00  0.00     0.006 A 
ENDBRANCH  47  68
BRANCH  59  76
ATOM     76  C   UNL A   1      39.719  34.457  36.309  1.00  0.00     0.057 A 
ATOM     77  C   UNL A   1      38.996  34.201  37.481  1.00  0.00     0.134 A 
ATOM     78  C   UNL A   1      40.451  35.650  36.244  1.00  0.00     0.134 A 
ATOM     79  F   UNL A   1      38.267  33.082  37.598  1.00  0.00    -0.206 F 
ATOM     80  C   UNL A   1      38.986  35.108  38.540  1.00  0.00     0.040 A 
ATOM     81  C   UNL A   1      40.467  36.554  37.306  1.00  0.00     0.040 A 
ATOM     82  F   UNL A   1      41.171  35.949  35.152  1.00  0.00    -0.206 F 
ATOM     83  C   UNL A   1      39.728  36.287  38.457  1.00  0.00     0.006 A 
ENDBRANCH  59  76
ENDBRANCH  33  34
ENDBRANCH  25  28
ENDBRANCH  23  24
ENDBRANCH  22  23
ENDBRANCH   1  22
TORSDOF 13
ENDMDL
MODEL 3
REMARK VINA RESULT:     -11.1      4.168      9.027
REMARK SMILES CC(=O)N1CCC[C@@H](Cc2nccnc2C(=O)NCCCNC(=O)c2ccc(-c3c4nc(c(-c5c(F)cccc5F)c5ccc([nH]5)c(-c5c(F)cccc5F)c5nc(c(-c6c(F)cccc6F)c6ccc3[nH]6)C=C5)C=C4)cc2)C1
REMARK SMILES IDX 19 1 18 2 16 3 17 4 15 6 10 7 11 8 12 9 14 10 13 11 9 12
REMARK SMILES IDX 8 13 4 14 5 15 79 16 6 17 7 18 2 19 1 20 3 21 20 22 21 23
REMARK SMILES IDX 22 24 23 25 24 27 25 28 26 29 78 30 27 31 77 32 28 33 29 34
REMARK SMILES IDX 30 35 71 36 31 37 76 38 70 39 72 40 32 41 75 42 69 43 68 44
REMARK SMILES IDX 33 46 59 47 42 48 58 49 43 50 46 51 57 52 73 53 44 54 45 55
REMARK SMILES IDX 56 57 74 58 47 59 34 60 35 61 40 62 36 63 37 64 39 65 41 66
REMARK SMILES IDX 38 67 60 68 61 69 66 70 62 71 63 72 65 73 67 74 64 75 48 76
REMARK SMILES IDX 49 77 54 78 50 79 51 80 53 81 55 82 52 83
REMARK H PARENT 18 5 22 26 72 45 46 56
REMARK Flexibility Score: inf
ROOT
ATOM      1  C   UNL A   1      42.468  20.510  26.683  1.00  0.00     0.118 C 
ENDROOT
BRANCH   1   2
ATOM      2  N   UNL A   1      41.320  19.867  26.064  1.00  0.00    -0.351 N 
ATOM      3  C   UNL A   1      39.991  20.169  25.872  1.00  0.00     0.271 C 
ATOM      4  O   UNL A   1      39.342  19.246  25.358  1.00  0.00    -0.267 OA
ATOM      5  H   UNL A   1      41.553  18.989  25.686  1.00  0.00     0.163 HD
BRANCH   3   6
ATOM      6  C   UNL A   1      39.261  21.465  26.140  1.00  0.00     0.149 A 
ATOM      7  C   UNL A   1      38.109  21.979  25.525  1.00  0.00     0.072 A 
ATOM      8  N   UNL A   1      37.695  23.268  25.731  1.00  0.00    -0.257 NA
ATOM      9  C   UNL A   1      38.461  24.036  26.532  1.00  0.00     0.131 A 
ATOM     10  N   UNL A   1      39.995  22.268  26.975  1.00  0.00    -0.248 NA
ATOM     11  C   UNL A   1      39.586  23.542  27.147  1.00  0.00     0.132 A 
BRANCH   7  12
ATOM     12  C   UNL A   1      37.178  21.220  24.646  1.00  0.00     0.064 C 
BRANCH  12  13
ATOM     13  C   UNL A   1      35.669  21.324  24.859  1.00  0.00     0.015 C 
ATOM     14  N   UNL A   1      33.594  22.462  24.333  1.00  0.00    -0.343 N 
ATOM     15  C   UNL A   1      32.805  21.232  24.342  1.00  0.00     0.119 C 
ATOM     16  C   UNL A   1      34.982  22.294  23.892  1.00  0.00     0.123 C 
ATOM     17  C   UNL A   1      33.462  20.173  25.229  1.00  0.00     0.022 C 
ATOM     18  C   UNL A   1      34.938  19.973  24.869  1.00  0.00     0.007 C 
BRANCH  14  19
ATOM     19  C   UNL A   1      33.062  23.621  24.881  1.00  0.00     0.219 C 
ATOM     20  C   UNL A   1      33.979  24.472  25.723  1.00  0.00     0.114 C 
ATOM     21  O   UNL A   1      31.894  23.966  24.708  1.00  0.00    -0.275 OA
ENDBRANCH  14  19
ENDBRANCH  12  13
ENDBRANCH   7  12
ENDBRANCH   3   6
ENDBRANCH   1   2
BRANCH   1  22
ATOM     22  C   UNL A   1      43.418  21.040  25.597  1.00  0.00     0.042 C 
BRANCH  22  23
ATOM     23  C   UNL A   1      43.089  22.431  25.075  1.00  0.00     0.118 C 
BRANCH  23  24
ATOM     24  N   UNL A   1      44.289  23.214  24.859  1.00  0.00    -0.352 N 
ATOM     25  C   UNL A   1      44.589  24.514  25.190  1.00  0.00     0.251 C 
ATOM     26  H   UNL A   1      45.013  22.734  24.396  1.00  0.00     0.163 HD
ATOM     27  O   UNL A   1      45.567  25.035  24.657  1.00  0.00    -0.269 OA
BRANCH  25  28
ATOM     28  C   UNL A   1      43.791  25.304  26.169  1.00  0.00     0.039 A 
ATOM     29  C   UNL A   1      43.951  26.697  26.178  1.00  0.00     0.014 A 
ATOM     30  C   UNL A   1      42.997  24.713  27.156  1.00  0.00     0.014 A 
ATOM     31  C   UNL A   1      43.338  27.480  27.164  1.00  0.00     0.010 A 
ATOM     32  C   UNL A   1      42.310  25.501  28.083  1.00  0.00     0.010 A 
ATOM     33  C   UNL A   1      42.514  26.888  28.131  1.00  0.00    -0.014 A 
BRANCH  33  34
ATOM     34  C   UNL A   1      41.965  27.677  29.268  1.00  0.00     0.031 A 
ATOM     35  C   UNL A   1      42.645  27.616  30.614  1.00  0.00     0.074 A 
ATOM     36  C   UNL A   1      40.857  28.427  29.115  1.00  0.00     0.049 A 
ATOM     37  N   UNL A   1      42.294  28.165  31.751  1.00  0.00    -0.248 NA
ATOM     38  C   UNL A   1      43.872  26.806  30.700  1.00  0.00     0.031 C 
ATOM     39  C   UNL A   1      40.083  28.557  27.880  1.00  0.00     0.029 A 
ATOM     40  N   UNL A   1      40.188  29.222  30.013  1.00  0.00    -0.354 N 
ATOM     41  C   UNL A   1      43.231  27.738  32.685  1.00  0.00     0.074 A 
ATOM     42  C   UNL A   1      44.139  26.850  31.996  1.00  0.00     0.031 C 
ATOM     43  C   UNL A   1      39.059  29.400  28.092  1.00  0.00     0.029 A 
ATOM     44  C   UNL A   1      39.086  29.848  29.481  1.00  0.00     0.049 A 
ATOM     45  H   UNL A   1      40.471  29.334  30.950  1.00  0.00     0.167 HD
ATOM     46  C   UNL A   1      43.346  28.075  33.992  1.00  0.00     0.037 A 
ATOM     47  C   UNL A   1      38.202  30.689  30.050  1.00  0.00     0.037 A 
ATOM     48  C   UNL A   1      42.481  29.003  34.669  1.00  0.00     0.049 A 
ATOM     49  C   UNL A   1      38.371  31.078  31.494  1.00  0.00     0.074 A 
ATOM     50  C   UNL A   1      42.542  29.443  35.980  1.00  0.00     0.029 A 
ATOM     51  N   UNL A   1      41.405  29.647  34.079  1.00  0.00    -0.354 N 
ATOM     52  N   UNL A   1      39.282  30.692  32.353  1.00  0.00    -0.248 NA
ATOM     53  C   UNL A   1      37.393  32.030  32.043  1.00  0.00     0.031 C 
ATOM     54  C   UNL A   1      41.489  30.341  36.189  1.00  0.00     0.029 A 
ATOM     55  C   UNL A   1      40.795  30.484  34.999  1.00  0.00     0.049 A 
ATOM     56  H   UNL A   1      41.117  29.528  33.145  1.00  0.00     0.167 HD
ATOM     57  C   UNL A   1      39.010  31.377  33.531  1.00  0.00     0.074 A 
ATOM     58  C   UNL A   1      37.853  32.208  33.274  1.00  0.00     0.031 C 
ATOM     59  C   UNL A   1      39.660  31.323  34.718  1.00  0.00     0.037 A 
BRANCH  46  60
ATOM     60  C   UNL A   1      44.460  27.440  34.773  1.00  0.00     0.057 A 
ATOM     61  C   UNL A   1      44.292  26.218  35.438  1.00  0.00     0.134 A 
ATOM     62  C   UNL A   1      45.721  28.045  34.843  1.00  0.00     0.134 A 
ATOM     63  F   UNL A   1      43.104  25.594  35.424  1.00  0.00    -0.206 F 
ATOM     64  C   UNL A   1      45.328  25.635  36.169  1.00  0.00     0.040 A 
ATOM     65  C   UNL A   1      46.773  27.459  35.549  1.00  0.00     0.040 A 
ATOM     66  F   UNL A   1      45.952  29.212  34.224  1.00  0.00    -0.206 F 
ATOM     67  C   UNL A   1      46.576  26.254  36.221  1.00  0.00     0.006 A 
ENDBRANCH  46  60
BRANCH  47  68
ATOM     68  C   UNL A   1      37.093  31.258  29.244  1.00  0.00     0.057 A 
ATOM     69  C   UNL A   1      37.162  32.564  28.746  1.00  0.00     0.134 A 
ATOM     70  C   UNL A   1      35.939  30.519  28.961  1.00  0.00     0.134 A 
ATOM     71  F   UNL A   1      38.234  33.329  29.004  1.00  0.00    -0.206 F 
ATOM     72  C   UNL A   1      36.116  33.123  28.010  1.00  0.00     0.040 A 
ATOM     73  C   UNL A   1      34.895  31.056  28.206  1.00  0.00     0.040 A 
ATOM     74  F   UNL A   1      35.815  29.260  29.408  1.00  0.00    -0.206 F 
ATOM     75  C   UNL A   1      34.979  32.365  27.735  1.00  0.00     0.006 A 
ENDBRANCH  47  68
BRANCH  59  76
ATOM     76  C   UNL A   1      39.170  32.223  35.812  1.00  0.00     0.057 A 
ATOM     77  C   UNL A   1      38.296  31.770  36.807  1.00  0.00     0.134 A 
ATOM     78  C   UNL A   1      39.612  33.550  35.890  1.00  0.00     0.134 A 
ATOM     79  F   UNL A   1      37.828  30.513  36.780  1.00  0.00    -0.206 F 
ATOM     80  C   UNL A   1      37.861  32.612  37.831  1.00  0.00     0.040 A 
ATOM     81  C   UNL A   1      39.203  34.395  36.922  1.00  0.00     0.040 A 
ATOM     82  F   UNL A   1      40.458  34.041  34.972  1.00  0.00    -0.206 F 
ATOM     83  C   UNL A   1      38.320  33.927  37.894  1.00  0.00     0.006 A 
ENDBRANCH  59  76
ENDBRANCH  33  34
ENDBRANCH  25  28
ENDBRANCH  23  24
ENDBRANCH  22  23
ENDBRANCH   1  22
TORSDOF 13
ENDMDL
