MODEL 1
REMARK VINA RESULT:     -10.0      0.000      0.000
REMARK SMILES O=C(Cc1ccc(S(=O)(=O)N2CCNC(=O)C2)cc1)NCCCNC(=O)c1ccc(-c2c3nc(c(-c4c(F)cccc4F)c4ccc([nH]4)c(-c4c(F)cccc4F)c4nc(c(-c5c(F)cccc5F)c5ccc2[nH]5)C=C4)C=C3)cc1
REMARK SMILES IDX 21 1 20 2 1 3 2 4 3 6 4 7 5 8 19 9 6 10 18 11 7 12 8 13 9 14
REMARK SMILES IDX 10 15 11 16 12 17 17 18 13 19 15 20 14 21 16 22 22 24 23 25
REMARK SMILES IDX 24 26 25 27 26 29 27 30 28 31 80 32 29 33 79 34 30 35 31 36
REMARK SMILES IDX 32 37 73 38 33 39 78 40 72 41 74 42 34 43 77 44 71 45 70 46
REMARK SMILES IDX 35 48 61 49 44 50 60 51 45 52 48 53 59 54 75 55 46 56 47 57
REMARK SMILES IDX 58 59 76 60 49 61 36 62 37 63 42 64 38 65 39 66 41 67 43 68
REMARK SMILES IDX 40 69 62 70 63 71 68 72 64 73 65 74 67 75 69 76 66 77 50 78
REMARK SMILES IDX 51 79 56 80 52 81 53 82 55 83 57 84 54 85
REMARK H PARENT 20 5 14 23 24 28 74 47 48 58
REMARK Flexibility Score: inf
ROOT
ATOM      1  C   UNL A   1      33.948  36.550  33.343  1.00  0.00     0.117 C 
ENDROOT
BRANCH   1   2
ATOM      2  N   UNL A   1      34.434  35.373  34.034  1.00  0.00    -0.356 N 
ATOM      3  O   UNL A   1      36.449  35.264  32.929  1.00  0.00    -0.275 OA
ATOM      4  C   UNL A   1      35.706  34.875  33.823  1.00  0.00     0.224 C 
ATOM      5  H   UNL A   1      33.842  34.916  34.674  1.00  0.00     0.163 HD
BRANCH   4   6
ATOM      6  C   UNL A   1      36.120  33.817  34.829  1.00  0.00     0.135 C 
BRANCH   6   7
ATOM      7  C   UNL A   1      37.180  32.876  34.297  1.00  0.00    -0.039 A 
ATOM      8  C   UNL A   1      38.545  33.132  34.505  1.00  0.00     0.005 A 
ATOM      9  C   UNL A   1      36.810  31.714  33.605  1.00  0.00     0.005 A 
ATOM     10  C   UNL A   1      39.514  32.225  34.079  1.00  0.00     0.022 A 
ATOM     11  C   UNL A   1      37.778  30.812  33.155  1.00  0.00     0.022 A 
ATOM     12  C   UNL A   1      39.124  31.047  33.438  1.00  0.00     0.082 A 
BRANCH  12  13
ATOM     13  S   UNL A   1      40.365  29.845  33.020  1.00  0.00     0.243 S 
ATOM     14  O   UNL A   1      39.812  28.999  31.984  1.00  0.00    -0.207 OA
ATOM     15  O   UNL A   1      41.603  30.567  32.815  1.00  0.00    -0.207 OA
BRANCH  13  16
ATOM     16  N   UNL A   1      40.572  28.930  34.420  1.00  0.00    -0.187 NA
ATOM     17  C   UNL A   1      41.292  27.638  34.359  1.00  0.00     0.124 C 
ATOM     18  C   UNL A   1      40.697  29.613  35.723  1.00  0.00     0.202 C 
ATOM     19  C   UNL A   1      42.763  27.807  34.744  1.00  0.00     0.132 C 
ATOM     20  C   UNL A   1      42.082  29.592  36.346  1.00  0.00     0.235 C 
ATOM     21  N   UNL A   1      42.970  28.643  35.910  1.00  0.00    -0.354 N 
ATOM     22  O   UNL A   1      42.409  30.353  37.254  1.00  0.00    -0.274 OA
ATOM     23  H   UNL A   1      43.802  28.522  36.421  1.00  0.00     0.163 HD
ENDBRANCH  13  16
ENDBRANCH  12  13
ENDBRANCH   6   7
ENDBRANCH   4   6
ENDBRANCH   1   2
BRANCH   1  24
ATOM     24  C   UNL A   1      33.026  36.215  32.178  1.00  0.00     0.042 C 
BRANCH  24  25
ATOM     25  C   UNL A   1      33.689  36.192  30.806  1.00  0.00     0.118 C 
BRANCH  25  26
ATOM     26  N   UNL A   1      32.865  35.608  29.759  1.00  0.00    -0.352 N 
ATOM     27  C   UNL A   1      33.141  34.551  28.922  1.00  0.00     0.251 C 
ATOM     28  H   UNL A   1      31.984  36.028  29.631  1.00  0.00     0.163 HD
ATOM     29  O   UNL A   1      32.355  34.250  28.030  1.00  0.00    -0.269 OA
BRANCH  27  30
ATOM     30  C   UNL A   1      34.406  33.799  29.071  1.00  0.00     0.039 A 
ATOM     31  C   UNL A   1      35.330  33.825  28.022  1.00  0.00     0.014 A 
ATOM     32  C   UNL A   1      34.693  33.090  30.241  1.00  0.00     0.014 A 
ATOM     33  C   UNL A   1      36.575  33.212  28.179  1.00  0.00     0.010 A 
ATOM     34  C   UNL A   1      35.959  32.537  30.422  1.00  0.00     0.010 A 
ATOM     35  C   UNL A   1      36.916  32.601  29.397  1.00  0.00    -0.014 A 
BRANCH  35  36
ATOM     36  C   UNL A   1      38.273  32.041  29.626  1.00  0.00     0.031 A 
ATOM     37  C   UNL A   1      39.335  32.875  30.287  1.00  0.00     0.074 A 
ATOM     38  C   UNL A   1      38.572  30.810  29.170  1.00  0.00     0.049 A 
ATOM     39  N   UNL A   1      40.598  32.596  30.488  1.00  0.00    -0.248 NA
ATOM     40  C   UNL A   1      38.930  34.208  30.759  1.00  0.00     0.031 C 
ATOM     41  C   UNL A   1      37.647  29.917  28.468  1.00  0.00     0.029 A 
ATOM     42  N   UNL A   1      39.747  30.101  29.215  1.00  0.00    -0.354 N 
ATOM     43  C   UNL A   1      41.142  33.723  31.089  1.00  0.00     0.074 A 
ATOM     44  C   UNL A   1      40.083  34.705  31.182  1.00  0.00     0.031 C 
ATOM     45  C   UNL A   1      38.284  28.774  28.166  1.00  0.00     0.029 A 
ATOM     46  C   UNL A   1      39.668  28.865  28.619  1.00  0.00     0.049 A 
ATOM     47  H   UNL A   1      40.568  30.446  29.634  1.00  0.00     0.167 HD
ATOM     48  C   UNL A   1      42.404  33.916  31.540  1.00  0.00     0.037 A 
ATOM     49  C   UNL A   1      40.607  27.915  28.453  1.00  0.00     0.037 A 
ATOM     50  C   UNL A   1      43.449  32.929  31.482  1.00  0.00     0.049 A 
ATOM     51  C   UNL A   1      41.996  28.148  28.976  1.00  0.00     0.074 A 
ATOM     52  C   UNL A   1      44.741  33.009  31.973  1.00  0.00     0.029 A 
ATOM     53  N   UNL A   1      43.321  31.677  30.898  1.00  0.00    -0.354 N 
ATOM     54  N   UNL A   1      42.481  29.197  29.594  1.00  0.00    -0.248 NA
ATOM     55  C   UNL A   1      42.968  27.061  28.782  1.00  0.00     0.031 C 
ATOM     56  C   UNL A   1      45.404  31.818  31.659  1.00  0.00     0.029 A 
ATOM     57  C   UNL A   1      44.514  30.983  31.004  1.00  0.00     0.049 A 
ATOM     58  H   UNL A   1      42.503  31.334  30.472  1.00  0.00     0.167 HD
ATOM     59  C   UNL A   1      43.803  28.890  29.884  1.00  0.00     0.074 A 
ATOM     60  C   UNL A   1      44.042  27.551  29.384  1.00  0.00     0.031 C 
ATOM     61  C   UNL A   1      44.735  29.648  30.509  1.00  0.00     0.037 A 
BRANCH  48  62
ATOM     62  C   UNL A   1      42.722  35.251  32.147  1.00  0.00     0.057 A 
ATOM     63  C   UNL A   1      42.371  35.560  33.467  1.00  0.00     0.134 A 
ATOM     64  C   UNL A   1      43.414  36.223  31.415  1.00  0.00     0.134 A 
ATOM     65  F   UNL A   1      41.695  34.676  34.216  1.00  0.00    -0.206 F 
ATOM     66  C   UNL A   1      42.675  36.801  34.030  1.00  0.00     0.040 A 
ATOM     67  C   UNL A   1      43.745  37.458  31.975  1.00  0.00     0.040 A 
ATOM     68  F   UNL A   1      43.783  35.987  30.148  1.00  0.00    -0.206 F 
ATOM     69  C   UNL A   1      43.369  37.752  33.284  1.00  0.00     0.006 A 
ENDBRANCH  48  62
BRANCH  49  70
ATOM     70  C   UNL A   1      40.259  26.640  27.778  1.00  0.00     0.057 A 
ATOM     71  C   UNL A   1      39.498  25.665  28.434  1.00  0.00     0.134 A 
ATOM     72  C   UNL A   1      40.678  26.364  26.472  1.00  0.00     0.134 A 
ATOM     73  F   UNL A   1      39.085  25.868  29.694  1.00  0.00    -0.206 F 
ATOM     74  C   UNL A   1      39.179  24.453  27.821  1.00  0.00     0.040 A 
ATOM     75  C   UNL A   1      40.348  25.164  25.839  1.00  0.00     0.040 A 
ATOM     76  F   UNL A   1      41.404  27.261  25.790  1.00  0.00    -0.206 F 
ATOM     77  C   UNL A   1      39.601  24.202  26.517  1.00  0.00     0.006 A 
ENDBRANCH  49  70
BRANCH  61  78
ATOM     78  C   UNL A   1      46.089  29.038  30.714  1.00  0.00     0.057 A 
ATOM     79  C   UNL A   1      47.117  29.196  29.777  1.00  0.00     0.134 A 
ATOM     80  C   UNL A   1      46.376  28.318  31.880  1.00  0.00     0.134 A 
ATOM     81  F   UNL A   1      46.899  29.863  28.634  1.00  0.00    -0.206 F 
ATOM     82  C   UNL A   1      48.381  28.641  29.985  1.00  0.00     0.040 A 
ATOM     83  C   UNL A   1      47.642  27.777  32.108  1.00  0.00     0.040 A 
ATOM     84  F   UNL A   1      45.435  28.138  32.819  1.00  0.00    -0.206 F 
ATOM     85  C   UNL A   1      48.648  27.935  31.156  1.00  0.00     0.006 A 
ENDBRANCH  61  78
ENDBRANCH  35  36
ENDBRANCH  27  30
ENDBRANCH  25  26
ENDBRANCH  24  25
ENDBRANCH   1  24
TORSDOF 13
ENDMDL
MODEL 2
REMARK VINA RESULT:      -9.4      2.501      4.154
REMARK SMILES O=C(Cc1ccc(S(=O)(=O)N2CCNC(=O)C2)cc1)NCCCNC(=O)c1ccc(-c2c3nc(c(-c4c(F)cccc4F)c4ccc([nH]4)c(-c4c(F)cccc4F)c4nc(c(-c5c(F)cccc5F)c5ccc2[nH]5)C=C4)C=C3)cc1
REMARK SMILES IDX 21 1 20 2 1 3 2 4 3 6 4 7 5 8 19 9 6 10 18 11 7 12 8 13 9 14
REMARK SMILES IDX 10 15 11 16 12 17 17 18 13 19 15 20 14 21 16 22 22 24 23 25
REMARK SMILES IDX 24 26 25 27 26 29 27 30 28 31 80 32 29 33 79 34 30 35 31 36
REMARK SMILES IDX 32 37 73 38 33 39 78 40 72 41 74 42 34 43 77 44 71 45 70 46
REMARK SMILES IDX 35 48 61 49 44 50 60 51 45 52 48 53 59 54 75 55 46 56 47 57
REMARK SMILES IDX 58 59 76 60 49 61 36 62 37 63 42 64 38 65 39 66 41 67 43 68
REMARK SMILES IDX 40 69 62 70 63 71 68 72 64 73 65 74 67 75 69 76 66 77 50 78
REMARK SMILES IDX 51 79 56 80 52 81 53 82 55 83 57 84 54 85
REMARK H PARENT 20 5 14 23 24 28 74 47 48 58
REMARK Flexibility Score: inf
ROOT
ATOM      1  C   UNL A   1      33.207  34.543  28.622  1.00  0.00     0.117 C 
ENDROOT
BRANCH   1   2
ATOM      2  N   UNL A   1      33.332  34.684  30.058  1.00  0.00    -0.356 N 
ATOM      3  O   UNL A   1      32.413  36.791  30.171  1.00  0.00    -0.275 OA
ATOM      4  C   UNL A   1      32.833  35.784  30.730  1.00  0.00     0.224 C 
ATOM      5  H   UNL A   1      33.785  33.976  30.570  1.00  0.00     0.163 HD
BRANCH   4   6
ATOM      6  C   UNL A   1      32.818  35.619  32.240  1.00  0.00     0.135 C 
BRANCH   6   7
ATOM      7  C   UNL A   1      34.055  34.925  32.771  1.00  0.00    -0.039 A 
ATOM      8  C   UNL A   1      35.314  35.544  32.713  1.00  0.00     0.005 A 
ATOM      9  C   UNL A   1      33.955  33.655  33.357  1.00  0.00     0.005 A 
ATOM     10  C   UNL A   1      36.435  34.934  33.272  1.00  0.00     0.022 A 
ATOM     11  C   UNL A   1      35.080  33.028  33.898  1.00  0.00     0.022 A 
ATOM     12  C   UNL A   1      36.308  33.693  33.898  1.00  0.00     0.082 A 
BRANCH  12  13
ATOM     13  S   UNL A   1      37.721  32.992  34.717  1.00  0.00     0.243 S 
ATOM     14  O   UNL A   1      38.614  34.084  35.040  1.00  0.00    -0.207 OA
ATOM     15  O   UNL A   1      37.219  32.105  35.745  1.00  0.00    -0.207 OA
BRANCH  13  16
ATOM     16  N   UNL A   1      38.454  32.013  33.556  1.00  0.00    -0.187 NA
ATOM     17  C   UNL A   1      39.912  31.765  33.612  1.00  0.00     0.124 C 
ATOM     18  C   UNL A   1      37.689  30.902  32.957  1.00  0.00     0.202 C 
ATOM     19  C   UNL A   1      40.221  30.447  34.326  1.00  0.00     0.132 C 
ATOM     20  C   UNL A   1      38.113  29.507  33.385  1.00  0.00     0.235 C 
ATOM     21  N   UNL A   1      39.362  29.350  33.926  1.00  0.00    -0.354 N 
ATOM     22  O   UNL A   1      37.399  28.520  33.215  1.00  0.00    -0.274 OA
ATOM     23  H   UNL A   1      39.698  28.434  34.050  1.00  0.00     0.163 HD
ENDBRANCH  13  16
ENDBRANCH  12  13
ENDBRANCH   6   7
ENDBRANCH   4   6
ENDBRANCH   1   2
BRANCH   1  24
ATOM     24  C   UNL A   1      34.300  33.676  28.013  1.00  0.00     0.042 C 
BRANCH  24  25
ATOM     25  C   UNL A   1      34.663  32.428  28.809  1.00  0.00     0.118 C 
BRANCH  25  26
ATOM     26  N   UNL A   1      34.076  31.202  28.290  1.00  0.00    -0.352 N 
ATOM     27  C   UNL A   1      34.681  29.999  28.006  1.00  0.00     0.251 C 
ATOM     28  H   UNL A   1      33.107  31.239  28.116  1.00  0.00     0.163 HD
ATOM     29  O   UNL A   1      34.037  29.094  27.485  1.00  0.00    -0.269 OA
BRANCH  27  30
ATOM     30  C   UNL A   1      36.119  29.807  28.293  1.00  0.00     0.039 A 
ATOM     31  C   UNL A   1      36.495  29.328  29.551  1.00  0.00     0.014 A 
ATOM     32  C   UNL A   1      37.092  30.074  27.325  1.00  0.00     0.014 A 
ATOM     33  C   UNL A   1      37.836  29.037  29.811  1.00  0.00     0.010 A 
ATOM     34  C   UNL A   1      38.418  29.722  27.562  1.00  0.00     0.010 A 
ATOM     35  C   UNL A   1      38.802  29.190  28.803  1.00  0.00    -0.014 A 
BRANCH  35  36
ATOM     36  C   UNL A   1      40.214  28.782  29.020  1.00  0.00     0.031 A 
ATOM     37  C   UNL A   1      41.198  29.745  29.623  1.00  0.00     0.074 A 
ATOM     38  C   UNL A   1      40.628  27.571  28.602  1.00  0.00     0.049 A 
ATOM     39  N   UNL A   1      42.487  29.605  29.802  1.00  0.00    -0.248 NA
ATOM     40  C   UNL A   1      40.668  31.048  30.054  1.00  0.00     0.031 C 
ATOM     41  C   UNL A   1      39.786  26.561  27.958  1.00  0.00     0.029 A 
ATOM     42  N   UNL A   1      41.871  26.988  28.645  1.00  0.00    -0.354 N 
ATOM     43  C   UNL A   1      42.925  30.805  30.347  1.00  0.00     0.074 A 
ATOM     44  C   UNL A   1      41.772  31.676  30.430  1.00  0.00     0.031 C 
ATOM     45  C   UNL A   1      40.531  25.478  27.682  1.00  0.00     0.029 A 
ATOM     46  C   UNL A   1      41.907  25.728  28.098  1.00  0.00     0.049 A 
ATOM     47  H   UNL A   1      42.661  27.431  29.030  1.00  0.00     0.167 HD
ATOM     48  C   UNL A   1      44.169  31.143  30.758  1.00  0.00     0.037 A 
ATOM     49  C   UNL A   1      42.935  24.872  27.943  1.00  0.00     0.037 A 
ATOM     50  C   UNL A   1      45.309  30.266  30.711  1.00  0.00     0.049 A 
ATOM     51  C   UNL A   1      44.304  25.266  28.422  1.00  0.00     0.074 A 
ATOM     52  C   UNL A   1      46.596  30.498  31.167  1.00  0.00     0.029 A 
ATOM     53  N   UNL A   1      45.298  28.986  30.178  1.00  0.00    -0.354 N 
ATOM     54  N   UNL A   1      44.691  26.383  28.989  1.00  0.00    -0.248 NA
ATOM     55  C   UNL A   1      45.378  24.278  28.245  1.00  0.00     0.031 C 
ATOM     56  C   UNL A   1      47.371  29.368  30.882  1.00  0.00     0.029 A 
ATOM     57  C   UNL A   1      46.558  28.422  30.280  1.00  0.00     0.049 A 
ATOM     58  H   UNL A   1      44.511  28.545  29.786  1.00  0.00     0.167 HD
ATOM     59  C   UNL A   1      46.043  26.224  29.257  1.00  0.00     0.074 A 
ATOM     60  C   UNL A   1      46.409  24.898  28.802  1.00  0.00     0.031 C 
ATOM     61  C   UNL A   1      46.905  27.098  29.830  1.00  0.00     0.037 A 
BRANCH  48  62
ATOM     62  C   UNL A   1      44.361  32.526  31.308  1.00  0.00     0.057 A 
ATOM     63  C   UNL A   1      44.169  32.812  32.665  1.00  0.00     0.134 A 
ATOM     64  C   UNL A   1      44.771  33.575  30.476  1.00  0.00     0.134 A 
ATOM     65  F   UNL A   1      43.762  31.852  33.511  1.00  0.00    -0.206 F 
ATOM     66  C   UNL A   1      44.355  34.098  33.173  1.00  0.00     0.040 A 
ATOM     67  C   UNL A   1      44.984  34.861  30.977  1.00  0.00     0.040 A 
ATOM     68  F   UNL A   1      44.978  33.367  29.168  1.00  0.00    -0.206 F 
ATOM     69  C   UNL A   1      44.769  35.126  32.328  1.00  0.00     0.006 A 
ENDBRANCH  48  62
BRANCH  49  70
ATOM     70  C   UNL A   1      42.706  23.543  27.326  1.00  0.00     0.057 A 
ATOM     71  C   UNL A   1      42.335  22.442  28.108  1.00  0.00     0.134 A 
ATOM     72  C   UNL A   1      42.855  23.339  25.949  1.00  0.00     0.134 A 
ATOM     73  F   UNL A   1      42.197  22.575  29.435  1.00  0.00    -0.206 F 
ATOM     74  C   UNL A   1      42.136  21.181  27.545  1.00  0.00     0.040 A 
ATOM     75  C   UNL A   1      42.638  22.087  25.371  1.00  0.00     0.040 A 
ATOM     76  F   UNL A   1      43.202  24.356  25.148  1.00  0.00    -0.206 F 
ATOM     77  C   UNL A   1      42.283  21.002  26.171  1.00  0.00     0.006 A 
ENDBRANCH  49  70
BRANCH  61  78
ATOM     78  C   UNL A   1      48.319  26.638  30.024  1.00  0.00     0.057 A 
ATOM     79  C   UNL A   1      48.706  25.908  31.153  1.00  0.00     0.134 A 
ATOM     80  C   UNL A   1      49.292  26.899  29.052  1.00  0.00     0.134 A 
ATOM     81  F   UNL A   1      47.823  25.639  32.126  1.00  0.00    -0.206 F 
ATOM     82  C   UNL A   1      50.021  25.466  31.317  1.00  0.00     0.040 A 
ATOM     83  C   UNL A   1      50.603  26.444  29.194  1.00  0.00     0.040 A 
ATOM     84  F   UNL A   1      48.981  27.588  27.944  1.00  0.00    -0.206 F 
ATOM     85  C   UNL A   1      50.972  25.729  30.333  1.00  0.00     0.006 A 
ENDBRANCH  61  78
ENDBRANCH  35  36
ENDBRANCH  27  30
ENDBRANCH  25  26
ENDBRANCH  24  25
ENDBRANCH   1  24
TORSDOF 13
ENDMDL
MODEL 3
REMARK VINA RESULT:      -9.3      4.952      9.632
REMARK SMILES O=C(Cc1ccc(S(=O)(=O)N2CCNC(=O)C2)cc1)NCCCNC(=O)c1ccc(-c2c3nc(c(-c4c(F)cccc4F)c4ccc([nH]4)c(-c4c(F)cccc4F)c4nc(c(-c5c(F)cccc5F)c5ccc2[nH]5)C=C4)C=C3)cc1
REMARK SMILES IDX 21 1 20 2 1 3 2 4 3 6 4 7 5 8 19 9 6 10 18 11 7 12 8 13 9 14
REMARK SMILES IDX 10 15 11 16 12 17 17 18 13 19 15 20 14 21 16 22 22 24 23 25
REMARK SMILES IDX 24 26 25 27 26 29 27 30 28 31 80 32 29 33 79 34 30 35 31 36
REMARK SMILES IDX 32 37 73 38 33 39 78 40 72 41 74 42 34 43 77 44 71 45 70 46
REMARK SMILES IDX 35 48 61 49 44 50 60 51 45 52 48 53 59 54 75 55 46 56 47 57
REMARK SMILES IDX 58 59 76 60 49 61 36 62 37 63 42 64 38 65 39 66 41 67 43 68
REMARK SMILES IDX 40 69 62 70 63 71 68 72 64 73 65 74 67 75 69 76 66 77 50 78
REMARK SMILES IDX 51 79 56 80 52 81 53 82 55 83 57 84 54 85
REMARK H PARENT 20 5 14 23 24 28 74 47 48 58
REMARK Flexibility Score: inf
ROOT
ATOM      1  C   UNL A   1      31.900  30.734  26.030  1.00  0.00     0.117 C 
ENDROOT
BRANCH   1   2
ATOM      2  N   UNL A   1      31.796  29.474  26.736  1.00  0.00    -0.356 N 
ATOM      3  O   UNL A   1      31.114  28.238  24.919  1.00  0.00    -0.275 OA
ATOM      4  C   UNL A   1      31.489  28.294  26.085  1.00  0.00     0.224 C 
ATOM      5  H   UNL A   1      31.948  29.457  27.708  1.00  0.00     0.163 HD
BRANCH   4   6
ATOM      6  C   UNL A   1      31.695  27.056  26.939  1.00  0.00     0.135 C 
BRANCH   6   7
ATOM      7  C   UNL A   1      32.364  25.924  26.188  1.00  0.00    -0.039 A 
ATOM      8  C   UNL A   1      31.672  24.735  25.904  1.00  0.00     0.005 A 
ATOM      9  C   UNL A   1      33.686  26.058  25.739  1.00  0.00     0.005 A 
ATOM     10  C   UNL A   1      32.266  23.727  25.147  1.00  0.00     0.022 A 
ATOM     11  C   UNL A   1      34.295  25.041  24.999  1.00  0.00     0.022 A 
ATOM     12  C   UNL A   1      33.565  23.899  24.664  1.00  0.00     0.082 A 
BRANCH  12  13
ATOM     13  S   UNL A   1      34.256  22.660  23.594  1.00  0.00     0.243 S 
ATOM     14  O   UNL A   1      33.183  22.170  22.756  1.00  0.00    -0.207 OA
ATOM     15  O   UNL A   1      35.460  23.222  23.017  1.00  0.00    -0.207 OA
BRANCH  13  16
ATOM     16  N   UNL A   1      34.752  21.423  24.626  1.00  0.00    -0.187 NA
ATOM     17  C   UNL A   1      35.258  21.748  25.978  1.00  0.00     0.124 C 
ATOM     18  C   UNL A   1      34.099  20.102  24.542  1.00  0.00     0.202 C 
ATOM     19  C   UNL A   1      34.150  21.622  27.027  1.00  0.00     0.132 C 
ATOM     20  C   UNL A   1      33.182  19.747  25.701  1.00  0.00     0.235 C 
ATOM     21  N   UNL A   1      33.335  20.434  26.877  1.00  0.00    -0.354 N 
ATOM     22  O   UNL A   1      32.354  18.841  25.633  1.00  0.00    -0.274 OA
ATOM     23  H   UNL A   1      32.859  20.099  27.670  1.00  0.00     0.163 HD
ENDBRANCH  13  16
ENDBRANCH  12  13
ENDBRANCH   6   7
ENDBRANCH   4   6
ENDBRANCH   1   2
BRANCH   1  24
ATOM     24  C   UNL A   1      31.568  31.935  26.905  1.00  0.00     0.042 C 
BRANCH  24  25
ATOM     25  C   UNL A   1      32.755  32.810  27.292  1.00  0.00     0.118 C 
BRANCH  25  26
ATOM     26  N   UNL A   1      32.394  34.174  27.646  1.00  0.00    -0.352 N 
ATOM     27  C   UNL A   1      32.969  35.013  28.574  1.00  0.00     0.251 C 
ATOM     28  H   UNL A   1      31.630  34.551  27.153  1.00  0.00     0.163 HD
ATOM     29  O   UNL A   1      32.471  36.110  28.804  1.00  0.00    -0.269 OA
BRANCH  27  30
ATOM     30  C   UNL A   1      34.167  34.578  29.325  1.00  0.00     0.039 A 
ATOM     31  C   UNL A   1      33.997  34.025  30.598  1.00  0.00     0.014 A 
ATOM     32  C   UNL A   1      35.447  34.691  28.774  1.00  0.00     0.014 A 
ATOM     33  C   UNL A   1      35.099  33.510  31.283  1.00  0.00     0.010 A 
ATOM     34  C   UNL A   1      36.534  34.118  29.429  1.00  0.00     0.010 A 
ATOM     35  C   UNL A   1      36.370  33.513  30.685  1.00  0.00    -0.014 A 
BRANCH  35  36
ATOM     36  C   UNL A   1      37.535  32.870  31.346  1.00  0.00     0.031 A 
ATOM     37  C   UNL A   1      38.190  31.667  30.727  1.00  0.00     0.074 A 
ATOM     38  C   UNL A   1      37.955  33.323  32.543  1.00  0.00     0.049 A 
ATOM     39  N   UNL A   1      39.153  30.916  31.199  1.00  0.00    -0.248 NA
ATOM     40  C   UNL A   1      37.674  31.234  29.419  1.00  0.00     0.031 C 
ATOM     41  C   UNL A   1      37.376  34.451  33.275  1.00  0.00     0.029 A 
ATOM     42  N   UNL A   1      38.963  32.877  33.363  1.00  0.00    -0.354 N 
ATOM     43  C   UNL A   1      39.344  29.913  30.258  1.00  0.00     0.074 A 
ATOM     44  C   UNL A   1      38.370  30.127  29.208  1.00  0.00     0.031 C 
ATOM     45  C   UNL A   1      38.047  34.620  34.425  1.00  0.00     0.029 A 
ATOM     46  C   UNL A   1      39.080  33.595  34.529  1.00  0.00     0.049 A 
ATOM     47  H   UNL A   1      39.543  32.116  33.138  1.00  0.00     0.167 HD
ATOM     48  C   UNL A   1      40.261  28.917  30.258  1.00  0.00     0.037 A 
ATOM     49  C   UNL A   1      39.923  33.440  35.568  1.00  0.00     0.037 A 
ATOM     50  C   UNL A   1      41.254  28.724  31.281  1.00  0.00     0.049 A 
ATOM     51  C   UNL A   1      40.940  32.335  35.537  1.00  0.00     0.074 A 
ATOM     52  C   UNL A   1      42.267  27.782  31.334  1.00  0.00     0.029 A 
ATOM     53  N   UNL A   1      41.361  29.491  32.431  1.00  0.00    -0.354 N 
ATOM     54  N   UNL A   1      41.147  31.429  34.613  1.00  0.00    -0.248 NA
ATOM     55  C   UNL A   1      41.845  32.234  36.691  1.00  0.00     0.031 C 
ATOM     56  C   UNL A   1      42.968  27.960  32.532  1.00  0.00     0.029 A 
ATOM     57  C   UNL A   1      42.413  29.034  33.207  1.00  0.00     0.049 A 
ATOM     58  H   UNL A   1      40.775  30.247  32.662  1.00  0.00     0.167 HD
ATOM     59  C   UNL A   1      42.218  30.668  35.060  1.00  0.00     0.074 A 
ATOM     60  C   UNL A   1      42.625  31.224  36.335  1.00  0.00     0.031 C 
ATOM     61  C   UNL A   1      42.811  29.603  34.469  1.00  0.00     0.037 A 
BRANCH  48  62
ATOM     62  C   UNL A   1      40.236  27.958  29.104  1.00  0.00     0.057 A 
ATOM     63  C   UNL A   1      40.970  28.196  27.935  1.00  0.00     0.134 A 
ATOM     64  C   UNL A   1      39.496  26.772  29.175  1.00  0.00     0.134 A 
ATOM     65  F   UNL A   1      41.688  29.321  27.800  1.00  0.00    -0.206 F 
ATOM     66  C   UNL A   1      40.950  27.298  26.866  1.00  0.00     0.040 A 
ATOM     67  C   UNL A   1      39.488  25.855  28.122  1.00  0.00     0.040 A 
ATOM     68  F   UNL A   1      38.776  26.482  30.268  1.00  0.00    -0.206 F 
ATOM     69  C   UNL A   1      40.211  26.120  26.962  1.00  0.00     0.006 A 
ENDBRANCH  48  62
BRANCH  49  70
ATOM     70  C   UNL A   1      39.856  34.371  36.721  1.00  0.00     0.057 A 
ATOM     71  C   UNL A   1      39.111  34.049  37.862  1.00  0.00     0.134 A 
ATOM     72  C   UNL A   1      40.526  35.600  36.710  1.00  0.00     0.134 A 
ATOM     73  F   UNL A   1      38.432  32.894  37.920  1.00  0.00    -0.206 F 
ATOM     74  C   UNL A   1      39.021  34.923  38.946  1.00  0.00     0.040 A 
ATOM     75  C   UNL A   1      40.462  36.474  37.797  1.00  0.00     0.040 A 
ATOM     76  F   UNL A   1      41.260  35.961  35.649  1.00  0.00    -0.206 F 
ATOM     77  C   UNL A   1      39.703  36.138  38.917  1.00  0.00     0.006 A 
ENDBRANCH  49  70
BRANCH  61  78
ATOM     78  C   UNL A   1      43.981  28.989  35.178  1.00  0.00     0.057 A 
ATOM     79  C   UNL A   1      43.820  27.954  36.104  1.00  0.00     0.134 A 
ATOM     80  C   UNL A   1      45.286  29.416  34.900  1.00  0.00     0.134 A 
ATOM     81  F   UNL A   1      42.594  27.511  36.423  1.00  0.00    -0.206 F 
ATOM     82  C   UNL A   1      44.916  27.374  36.746  1.00  0.00     0.040 A 
ATOM     83  C   UNL A   1      46.391  28.831  35.518  1.00  0.00     0.040 A 
ATOM     84  F   UNL A   1      45.506  30.401  34.016  1.00  0.00    -0.206 F 
ATOM     85  C   UNL A   1      46.206  27.809  36.449  1.00  0.00     0.006 A 
ENDBRANCH  61  78
ENDBRANCH  35  36
ENDBRANCH  27  30
ENDBRANCH  25  26
ENDBRANCH  24  25
ENDBRANCH   1  24
TORSDOF 13
ENDMDL
