MODEL 1
REMARK VINA RESULT:     -10.6      0.000      0.000
REMARK SMILES C[C@@H]1CCC[C@](O)([C@H](F)C(=O)NCCCNC(=O)c2ccc(-c3c4nc(c(-c5c(F)cccc5F)c5ccc([nH]5)c(-c5c(F)cccc5F)c5nc(c(-c6c(F)cccc6F)c6ccc3[nH]6)C=C5)C=C4)cc2)C1
REMARK SMILES IDX 14 1 13 2 12 3 10 4 11 5 8 7 9 8 6 9 1 10 2 11 3 12 73 13
REMARK SMILES IDX 4 14 5 15 7 16 15 18 16 19 17 20 18 22 19 23 20 24 72 25
REMARK SMILES IDX 21 26 71 27 22 28 23 29 24 30 65 31 25 32 70 33 64 34 66 35
REMARK SMILES IDX 26 36 69 37 63 38 62 39 27 41 53 42 36 43 52 44 37 45 40 46
REMARK SMILES IDX 51 47 67 48 38 49 39 50 50 52 68 53 41 54 28 55 29 56 34 57
REMARK SMILES IDX 30 58 31 59 33 60 35 61 32 62 54 63 55 64 60 65 56 66 57 67
REMARK SMILES IDX 59 68 61 69 58 70 42 71 43 72 48 73 44 74 45 75 47 76 49 77
REMARK SMILES IDX 46 78
REMARK H PARENT 12 6 7 17 16 21 66 40 40 51
REMARK Flexibility Score: inf
ROOT
ATOM      1  C   UNL A   1      33.639  33.741  28.126  1.00  0.00     0.042 C 
ENDROOT
BRANCH   1   2
ATOM      2  C   UNL A   1      33.994  34.854  29.083  1.00  0.00     0.117 C 
BRANCH   2   3
ATOM      3  N   UNL A   1      33.002  35.226  30.046  1.00  0.00    -0.353 N 
ATOM      4  C   UNL A   1      33.210  35.456  31.377  1.00  0.00     0.257 C 
ATOM      5  O   UNL A   1      32.272  35.971  31.999  1.00  0.00    -0.272 OA
ATOM      6  H   UNL A   1      32.080  35.327  29.717  1.00  0.00     0.163 HD
BRANCH   4   7
ATOM      7  C   UNL A   1      34.494  35.019  32.127  1.00  0.00     0.286 C 
ATOM      8  F   UNL A   1      34.990  36.038  32.875  1.00  0.00    -0.234 F 
BRANCH   7   9
ATOM      9  C   UNL A   1      34.559  33.658  32.894  1.00  0.00     0.105 C 
ATOM     10  C   UNL A   1      37.821  34.578  33.037  1.00  0.00     0.008 C 
ATOM     11  C   UNL A   1      37.098  33.338  33.580  1.00  0.00    -0.011 C 
ATOM     12  C   UNL A   1      37.221  32.186  32.577  1.00  0.00     0.003 C 
ATOM     13  C   UNL A   1      35.618  33.444  34.004  1.00  0.00     0.042 C 
ATOM     14  C   UNL A   1      36.219  32.306  31.425  1.00  0.00     0.003 C 
ATOM     15  C   UNL A   1      34.773  32.481  31.902  1.00  0.00     0.039 C 
BRANCH   9  16
ATOM     16  O   UNL A   1      33.279  33.440  33.526  1.00  0.00    -0.386 OA
ATOM     17  H   UNL A   1      32.899  32.605  33.208  1.00  0.00     0.211 HD
ENDBRANCH   9  16
ENDBRANCH   7   9
ENDBRANCH   4   7
ENDBRANCH   2   3
ENDBRANCH   1   2
BRANCH   1  18
ATOM     18  C   UNL A   1      34.601  32.577  28.145  1.00  0.00     0.118 C 
BRANCH  18  19
ATOM     19  N   UNL A   1      33.947  31.286  27.966  1.00  0.00    -0.352 N 
ATOM     20  C   UNL A   1      34.481  30.018  27.930  1.00  0.00     0.251 C 
ATOM     21  H   UNL A   1      32.970  31.328  27.856  1.00  0.00     0.163 HD
ATOM     22  O   UNL A   1      33.778  29.066  27.620  1.00  0.00    -0.269 OA
BRANCH  20  23
ATOM     23  C   UNL A   1      35.914  29.812  28.235  1.00  0.00     0.039 A 
ATOM     24  C   UNL A   1      36.281  29.328  29.493  1.00  0.00     0.014 A 
ATOM     25  C   UNL A   1      36.894  30.076  27.276  1.00  0.00     0.014 A 
ATOM     26  C   UNL A   1      37.621  29.034  29.755  1.00  0.00     0.010 A 
ATOM     27  C   UNL A   1      38.199  29.661  27.491  1.00  0.00     0.010 A 
ATOM     28  C   UNL A   1      38.584  29.154  28.739  1.00  0.00    -0.014 A 
BRANCH  28  29
ATOM     29  C   UNL A   1      40.003  28.782  28.958  1.00  0.00     0.031 A 
ATOM     30  C   UNL A   1      40.947  29.773  29.588  1.00  0.00     0.074 A 
ATOM     31  C   UNL A   1      40.458  27.591  28.524  1.00  0.00     0.049 A 
ATOM     32  N   UNL A   1      42.236  29.673  29.792  1.00  0.00    -0.248 NA
ATOM     33  C   UNL A   1      40.374  31.062  30.006  1.00  0.00     0.031 C 
ATOM     34  C   UNL A   1      39.655  26.569  27.849  1.00  0.00     0.029 A 
ATOM     35  N   UNL A   1      41.713  27.040  28.579  1.00  0.00    -0.354 N 
ATOM     36  C   UNL A   1      42.625  30.891  30.336  1.00  0.00     0.074 A 
ATOM     37  C   UNL A   1      41.454  31.736  30.370  1.00  0.00     0.031 C 
ATOM     38  C   UNL A   1      40.426  25.501  27.591  1.00  0.00     0.029 A 
ATOM     39  C   UNL A   1      41.788  25.780  28.036  1.00  0.00     0.049 A 
ATOM     40  H   UNL A   1      42.489  27.505  28.969  1.00  0.00     0.167 HD
ATOM     41  C   UNL A   1      43.844  31.262  30.793  1.00  0.00     0.037 A 
ATOM     42  C   UNL A   1      42.836  24.946  27.913  1.00  0.00     0.037 A 
ATOM     43  C   UNL A   1      44.996  30.403  30.790  1.00  0.00     0.049 A 
ATOM     44  C   UNL A   1      44.181  25.384  28.424  1.00  0.00     0.074 A 
ATOM     45  C   UNL A   1      46.257  30.650  31.302  1.00  0.00     0.029 A 
ATOM     46  N   UNL A   1      45.028  29.128  30.243  1.00  0.00    -0.354 N 
ATOM     47  N   UNL A   1      44.518  26.507  29.011  1.00  0.00    -0.248 NA
ATOM     48  C   UNL A   1      45.292  24.437  28.256  1.00  0.00     0.031 C 
ATOM     49  C   UNL A   1      47.069  29.549  31.012  1.00  0.00     0.029 A 
ATOM     50  C   UNL A   1      46.297  28.589  30.375  1.00  0.00     0.049 A 
ATOM     51  H   UNL A   1      44.262  28.674  29.822  1.00  0.00     0.167 HD
ATOM     52  C   UNL A   1      45.868  26.388  29.315  1.00  0.00     0.074 A 
ATOM     53  C   UNL A   1      46.284  25.078  28.856  1.00  0.00     0.031 C 
ATOM     54  C   UNL A   1      46.690  27.280  29.920  1.00  0.00     0.037 A 
BRANCH  41  55
ATOM     55  C   UNL A   1      43.989  32.659  31.329  1.00  0.00     0.057 A 
ATOM     56  C   UNL A   1      44.345  33.738  30.510  1.00  0.00     0.134 A 
ATOM     57  C   UNL A   1      43.748  32.930  32.683  1.00  0.00     0.134 A 
ATOM     58  F   UNL A   1      44.603  33.548  29.207  1.00  0.00    -0.206 F 
ATOM     59  C   UNL A   1      44.489  35.029  31.022  1.00  0.00     0.040 A 
ATOM     60  C   UNL A   1      43.858  34.223  33.199  1.00  0.00     0.040 A 
ATOM     61  F   UNL A   1      43.399  31.945  33.524  1.00  0.00    -0.206 F 
ATOM     62  C   UNL A   1      44.238  35.275  32.369  1.00  0.00     0.006 A 
ENDBRANCH  41  55
BRANCH  42  63
ATOM     63  C   UNL A   1      42.654  23.600  27.310  1.00  0.00     0.057 A 
ATOM     64  C   UNL A   1      42.327  22.496  28.106  1.00  0.00     0.134 A 
ATOM     65  C   UNL A   1      42.809  23.380  25.937  1.00  0.00     0.134 A 
ATOM     66  F   UNL A   1      42.181  22.639  29.432  1.00  0.00    -0.206 F 
ATOM     67  C   UNL A   1      42.184  21.218  27.564  1.00  0.00     0.040 A 
ATOM     68  C   UNL A   1      42.641  22.111  25.376  1.00  0.00     0.040 A 
ATOM     69  F   UNL A   1      43.113  24.396  25.117  1.00  0.00    -0.206 F 
ATOM     70  C   UNL A   1      42.337  21.025  26.193  1.00  0.00     0.006 A 
ENDBRANCH  42  63
BRANCH  54  71
ATOM     71  C   UNL A   1      48.109  26.854  30.161  1.00  0.00     0.057 A 
ATOM     72  C   UNL A   1      48.490  26.154  31.313  1.00  0.00     0.134 A 
ATOM     73  C   UNL A   1      49.099  27.112  29.205  1.00  0.00     0.134 A 
ATOM     74  F   UNL A   1      47.592  25.885  32.274  1.00  0.00    -0.206 F 
ATOM     75  C   UNL A   1      49.810  25.750  31.517  1.00  0.00     0.040 A 
ATOM     76  C   UNL A   1      50.416  26.686  29.382  1.00  0.00     0.040 A 
ATOM     77  F   UNL A   1      48.800  27.769  28.073  1.00  0.00    -0.206 F 
ATOM     78  C   UNL A   1      50.776  26.009  30.545  1.00  0.00     0.006 A 
ENDBRANCH  54  71
ENDBRANCH  28  29
ENDBRANCH  20  23
ENDBRANCH  18  19
ENDBRANCH   1  18
TORSDOF 12
ENDMDL
MODEL 2
REMARK VINA RESULT:     -10.5      4.323      9.814
REMARK SMILES C[C@@H]1CCC[C@](O)([C@H](F)C(=O)NCCCNC(=O)c2ccc(-c3c4nc(c(-c5c(F)cccc5F)c5ccc([nH]5)c(-c5c(F)cccc5F)c5nc(c(-c6c(F)cccc6F)c6ccc3[nH]6)C=C5)C=C4)cc2)C1
REMARK SMILES IDX 14 1 13 2 12 3 10 4 11 5 8 7 9 8 6 9 1 10 2 11 3 12 73 13
REMARK SMILES IDX 4 14 5 15 7 16 15 18 16 19 17 20 18 22 19 23 20 24 72 25
REMARK SMILES IDX 21 26 71 27 22 28 23 29 24 30 65 31 25 32 70 33 64 34 66 35
REMARK SMILES IDX 26 36 69 37 63 38 62 39 27 41 53 42 36 43 52 44 37 45 40 46
REMARK SMILES IDX 51 47 67 48 38 49 39 50 50 52 68 53 41 54 28 55 29 56 34 57
REMARK SMILES IDX 30 58 31 59 33 60 35 61 32 62 54 63 55 64 60 65 56 66 57 67
REMARK SMILES IDX 59 68 61 69 58 70 42 71 43 72 48 73 44 74 45 75 47 76 49 77
REMARK SMILES IDX 46 78
REMARK H PARENT 12 6 7 17 16 21 66 40 40 51
REMARK Flexibility Score: inf
ROOT
ATOM      1  C   UNL A   1      37.652  19.906  24.699  1.00  0.00     0.042 C 
ENDROOT
BRANCH   1   2
ATOM      2  C   UNL A   1      36.307  20.500  25.040  1.00  0.00     0.117 C 
BRANCH   2   3
ATOM      3  N   UNL A   1      35.196  19.600  25.115  1.00  0.00    -0.353 N 
ATOM      4  C   UNL A   1      33.919  19.849  24.698  1.00  0.00     0.257 C 
ATOM      5  O   UNL A   1      33.156  18.876  24.652  1.00  0.00    -0.272 OA
ATOM      6  H   UNL A   1      35.370  18.712  25.505  1.00  0.00     0.163 HD
BRANCH   4   7
ATOM      7  C   UNL A   1      33.388  21.271  24.387  1.00  0.00     0.286 C 
ATOM      8  F   UNL A   1      32.902  21.343  23.121  1.00  0.00    -0.234 F 
BRANCH   7   9
ATOM      9  C   UNL A   1      32.468  22.030  25.400  1.00  0.00     0.105 C 
ATOM     10  C   UNL A   1      33.550  24.633  23.513  1.00  0.00     0.008 C 
ATOM     11  C   UNL A   1      32.603  24.587  24.720  1.00  0.00    -0.011 C 
ATOM     12  C   UNL A   1      33.384  24.885  26.003  1.00  0.00     0.003 C 
ATOM     13  C   UNL A   1      31.744  23.329  24.965  1.00  0.00     0.042 C 
ATOM     14  C   UNL A   1      34.150  23.662  26.516  1.00  0.00     0.003 C 
ATOM     15  C   UNL A   1      33.266  22.421  26.675  1.00  0.00     0.039 C 
BRANCH   9  16
ATOM     16  O   UNL A   1      31.427  21.123  25.823  1.00  0.00    -0.386 OA
ATOM     17  H   UNL A   1      31.787  20.224  25.883  1.00  0.00     0.211 HD
ENDBRANCH   9  16
ENDBRANCH   7   9
ENDBRANCH   4   7
ENDBRANCH   2   3
ENDBRANCH   1   2
BRANCH   1  18
ATOM     18  C   UNL A   1      38.767  20.320  25.631  1.00  0.00     0.118 C 
BRANCH  18  19
ATOM     19  N   UNL A   1      39.842  19.338  25.715  1.00  0.00    -0.352 N 
ATOM     20  C   UNL A   1      41.163  19.496  26.070  1.00  0.00     0.251 C 
ATOM     21  H   UNL A   1      39.582  18.418  25.482  1.00  0.00     0.163 HD
ATOM     22  O   UNL A   1      41.948  18.569  25.933  1.00  0.00    -0.269 OA
BRANCH  20  23
ATOM     23  C   UNL A   1      41.638  20.799  26.584  1.00  0.00     0.039 A 
ATOM     24  C   UNL A   1      42.145  21.742  25.687  1.00  0.00     0.014 A 
ATOM     25  C   UNL A   1      41.566  21.100  27.945  1.00  0.00     0.014 A 
ATOM     26  C   UNL A   1      42.502  23.011  26.148  1.00  0.00     0.010 A 
ATOM     27  C   UNL A   1      41.793  22.397  28.378  1.00  0.00     0.010 A 
ATOM     28  C   UNL A   1      42.283  23.364  27.490  1.00  0.00    -0.014 A 
BRANCH  28  29
ATOM     29  C   UNL A   1      42.580  24.725  28.000  1.00  0.00     0.031 A 
ATOM     30  C   UNL A   1      43.987  25.083  28.400  1.00  0.00     0.074 A 
ATOM     31  C   UNL A   1      41.578  25.607  28.176  1.00  0.00     0.049 A 
ATOM     32  N   UNL A   1      44.439  26.186  28.940  1.00  0.00    -0.248 NA
ATOM     33  C   UNL A   1      45.017  24.049  28.203  1.00  0.00     0.031 C 
ATOM     34  C   UNL A   1      40.166  25.360  27.880  1.00  0.00     0.029 A 
ATOM     35  N   UNL A   1      41.594  26.893  28.656  1.00  0.00    -0.354 N 
ATOM     36  C   UNL A   1      45.792  25.966  29.168  1.00  0.00     0.074 A 
ATOM     37  C   UNL A   1      46.075  24.606  28.771  1.00  0.00     0.031 C 
ATOM     38  C   UNL A   1      39.458  26.470  28.144  1.00  0.00     0.029 A 
ATOM     39  C   UNL A   1      40.356  27.490  28.674  1.00  0.00     0.049 A 
ATOM     40  H   UNL A   1      42.414  27.344  28.960  1.00  0.00     0.167 HD
ATOM     41  C   UNL A   1      46.721  26.829  29.641  1.00  0.00     0.037 A 
ATOM     42  C   UNL A   1      39.990  28.722  29.074  1.00  0.00     0.037 A 
ATOM     43  C   UNL A   1      46.439  28.192  30.000  1.00  0.00     0.049 A 
ATOM     44  C   UNL A   1      41.041  29.660  29.600  1.00  0.00     0.074 A 
ATOM     45  C   UNL A   1      47.320  29.174  30.413  1.00  0.00     0.029 A 
ATOM     46  N   UNL A   1      45.175  28.764  29.993  1.00  0.00    -0.354 N 
ATOM     47  N   UNL A   1      42.332  29.468  29.733  1.00  0.00    -0.248 NA
ATOM     48  C   UNL A   1      40.584  30.989  30.030  1.00  0.00     0.031 C 
ATOM     49  C   UNL A   1      46.583  30.324  30.712  1.00  0.00     0.029 A 
ATOM     50  C   UNL A   1      45.249  30.077  30.426  1.00  0.00     0.049 A 
ATOM     51  H   UNL A   1      44.348  28.304  29.721  1.00  0.00     0.167 HD
ATOM     52  C   UNL A   1      42.845  30.660  30.227  1.00  0.00     0.074 A 
ATOM     53  C   UNL A   1      41.728  31.573  30.359  1.00  0.00     0.031 C 
ATOM     54  C   UNL A   1      44.127  30.974  30.542  1.00  0.00     0.037 A 
BRANCH  41  55
ATOM     55  C   UNL A   1      48.126  26.319  29.798  1.00  0.00     0.057 A 
ATOM     56  C   UNL A   1      49.064  26.387  28.760  1.00  0.00     0.134 A 
ATOM     57  C   UNL A   1      48.552  25.771  31.016  1.00  0.00     0.134 A 
ATOM     58  F   UNL A   1      48.720  26.888  27.564  1.00  0.00    -0.206 F 
ATOM     59  C   UNL A   1      50.363  25.898  28.914  1.00  0.00     0.040 A 
ATOM     60  C   UNL A   1      49.858  25.308  31.192  1.00  0.00     0.040 A 
ATOM     61  F   UNL A   1      47.708  25.679  32.055  1.00  0.00    -0.206 F 
ATOM     62  C   UNL A   1      50.765  25.364  30.135  1.00  0.00     0.006 A 
ENDBRANCH  41  55
BRANCH  42  63
ATOM     63  C   UNL A   1      38.573  29.154  28.963  1.00  0.00     0.057 A 
ATOM     64  C   UNL A   1      37.714  29.088  30.067  1.00  0.00     0.134 A 
ATOM     65  C   UNL A   1      38.040  29.631  27.760  1.00  0.00     0.134 A 
ATOM     66  F   UNL A   1      38.162  28.624  31.244  1.00  0.00    -0.206 F 
ATOM     67  C   UNL A   1      36.372  29.459  29.975  1.00  0.00     0.040 A 
ATOM     68  C   UNL A   1      36.705  30.032  27.661  1.00  0.00     0.040 A 
ATOM     69  F   UNL A   1      38.810  29.728  26.668  1.00  0.00    -0.206 F 
ATOM     70  C   UNL A   1      35.866  29.937  28.768  1.00  0.00     0.006 A 
ENDBRANCH  42  63
BRANCH  54  71
ATOM     71  C   UNL A   1      44.395  32.371  31.018  1.00  0.00     0.057 A 
ATOM     72  C   UNL A   1      44.663  33.420  30.128  1.00  0.00     0.134 A 
ATOM     73  C   UNL A   1      44.343  32.679  32.383  1.00  0.00     0.134 A 
ATOM     74  F   UNL A   1      44.739  33.190  28.808  1.00  0.00    -0.206 F 
ATOM     75  C   UNL A   1      44.896  34.719  30.583  1.00  0.00     0.040 A 
ATOM     76  C   UNL A   1      44.543  33.980  32.848  1.00  0.00     0.040 A 
ATOM     77  F   UNL A   1      44.080  31.723  33.288  1.00  0.00    -0.206 F 
ATOM     78  C   UNL A   1      44.827  35.003  31.946  1.00  0.00     0.006 A 
ENDBRANCH  54  71
ENDBRANCH  28  29
ENDBRANCH  20  23
ENDBRANCH  18  19
ENDBRANCH   1  18
TORSDOF 12
ENDMDL
MODEL 3
REMARK VINA RESULT:     -10.4      3.557     11.000
REMARK SMILES C[C@@H]1CCC[C@](O)([C@H](F)C(=O)NCCCNC(=O)c2ccc(-c3c4nc(c(-c5c(F)cccc5F)c5ccc([nH]5)c(-c5c(F)cccc5F)c5nc(c(-c6c(F)cccc6F)c6ccc3[nH]6)C=C5)C=C4)cc2)C1
REMARK SMILES IDX 14 1 13 2 12 3 10 4 11 5 8 7 9 8 6 9 1 10 2 11 3 12 73 13
REMARK SMILES IDX 4 14 5 15 7 16 15 18 16 19 17 20 18 22 19 23 20 24 72 25
REMARK SMILES IDX 21 26 71 27 22 28 23 29 24 30 65 31 25 32 70 33 64 34 66 35
REMARK SMILES IDX 26 36 69 37 63 38 62 39 27 41 53 42 36 43 52 44 37 45 40 46
REMARK SMILES IDX 51 47 67 48 38 49 39 50 50 52 68 53 41 54 28 55 29 56 34 57
REMARK SMILES IDX 30 58 31 59 33 60 35 61 32 62 54 63 55 64 60 65 56 66 57 67
REMARK SMILES IDX 59 68 61 69 58 70 42 71 43 72 48 73 44 74 45 75 47 76 49 77
REMARK SMILES IDX 46 78
REMARK H PARENT 12 6 7 17 16 21 66 40 40 51
REMARK Flexibility Score: inf
ROOT
ATOM      1  C   UNL A   1      40.803  20.224  26.469  1.00  0.00     0.042 C 
ENDROOT
BRANCH   1   2
ATOM      2  C   UNL A   1      42.283  19.951  26.593  1.00  0.00     0.117 C 
BRANCH   2   3
ATOM      3  N   UNL A   1      42.934  19.364  25.461  1.00  0.00    -0.353 N 
ATOM      4  C   UNL A   1      44.136  19.740  24.931  1.00  0.00     0.257 C 
ATOM      5  O   UNL A   1      44.628  18.978  24.088  1.00  0.00    -0.272 OA
ATOM      6  H   UNL A   1      42.469  18.616  25.020  1.00  0.00     0.163 HD
BRANCH   4   7
ATOM      7  C   UNL A   1      44.831  21.084  25.264  1.00  0.00     0.286 C 
ATOM      8  F   UNL A   1      46.150  20.898  25.529  1.00  0.00    -0.234 F 
BRANCH   7   9
ATOM      9  C   UNL A   1      44.595  22.356  24.385  1.00  0.00     0.105 C 
ATOM     10  C   UNL A   1      46.304  23.730  26.973  1.00  0.00     0.008 C 
ATOM     11  C   UNL A   1      45.723  24.360  25.700  1.00  0.00    -0.011 C 
ATOM     12  C   UNL A   1      44.338  24.943  25.996  1.00  0.00     0.003 C 
ATOM     13  C   UNL A   1      45.621  23.517  24.412  1.00  0.00     0.042 C 
ATOM     14  C   UNL A   1      43.244  23.870  26.004  1.00  0.00     0.003 C 
ATOM     15  C   UNL A   1      43.231  23.015  24.732  1.00  0.00     0.039 C 
BRANCH   9  16
ATOM     16  O   UNL A   1      44.514  21.936  23.006  1.00  0.00    -0.386 OA
ATOM     17  H   UNL A   1      43.830  22.452  22.551  1.00  0.00     0.211 HD
ENDBRANCH   9  16
ENDBRANCH   7   9
ENDBRANCH   4   7
ENDBRANCH   2   3
ENDBRANCH   1   2
BRANCH   1  18
ATOM     18  C   UNL A   1      40.407  21.648  26.784  1.00  0.00     0.118 C 
BRANCH  18  19
ATOM     19  N   UNL A   1      39.304  22.133  25.963  1.00  0.00    -0.352 N 
ATOM     20  C   UNL A   1      38.687  23.364  25.943  1.00  0.00     0.251 C 
ATOM     21  H   UNL A   1      38.944  21.478  25.323  1.00  0.00     0.163 HD
ATOM     22  O   UNL A   1      37.673  23.530  25.280  1.00  0.00    -0.269 OA
BRANCH  20  23
ATOM     23  C   UNL A   1      39.235  24.477  26.750  1.00  0.00     0.039 A 
ATOM     24  C   UNL A   1      40.004  25.460  26.123  1.00  0.00     0.014 A 
ATOM     25  C   UNL A   1      38.975  24.563  28.118  1.00  0.00     0.014 A 
ATOM     26  C   UNL A   1      40.440  26.566  26.855  1.00  0.00     0.010 A 
ATOM     27  C   UNL A   1      39.293  25.721  28.810  1.00  0.00     0.010 A 
ATOM     28  C   UNL A   1      40.047  26.728  28.193  1.00  0.00    -0.014 A 
BRANCH  28  29
ATOM     29  C   UNL A   1      40.428  27.926  28.982  1.00  0.00     0.031 A 
ATOM     30  C   UNL A   1      41.792  28.000  29.616  1.00  0.00     0.074 A 
ATOM     31  C   UNL A   1      39.528  28.906  29.190  1.00  0.00     0.049 A 
ATOM     32  N   UNL A   1      42.289  28.918  30.405  1.00  0.00    -0.248 NA
ATOM     33  C   UNL A   1      42.704  26.872  29.363  1.00  0.00     0.031 C 
ATOM     34  C   UNL A   1      38.157  28.923  28.675  1.00  0.00     0.029 A 
ATOM     35  N   UNL A   1      39.629  30.076  29.898  1.00  0.00    -0.354 N 
ATOM     36  C   UNL A   1      43.554  28.465  30.759  1.00  0.00     0.074 A 
ATOM     37  C   UNL A   1      43.725  27.164  30.155  1.00  0.00     0.031 C 
ATOM     38  C   UNL A   1      37.560  30.067  29.049  1.00  0.00     0.029 A 
ATOM     39  C   UNL A   1      38.486  30.839  29.870  1.00  0.00     0.049 A 
ATOM     40  H   UNL A   1      40.443  30.344  30.383  1.00  0.00     0.167 HD
ATOM     41  C   UNL A   1      44.500  29.089  31.498  1.00  0.00     0.037 A 
ATOM     42  C   UNL A   1      38.218  32.027  30.443  1.00  0.00     0.037 A 
ATOM     43  C   UNL A   1      44.337  30.400  32.066  1.00  0.00     0.049 A 
ATOM     44  C   UNL A   1      39.285  32.698  31.263  1.00  0.00     0.074 A 
ATOM     45  C   UNL A   1      45.260  31.158  32.763  1.00  0.00     0.029 A 
ATOM     46  N   UNL A   1      43.169  31.146  32.005  1.00  0.00    -0.354 N 
ATOM     47  N   UNL A   1      40.506  32.298  31.521  1.00  0.00    -0.248 NA
ATOM     48  C   UNL A   1      38.935  33.989  31.871  1.00  0.00     0.031 C 
ATOM     49  C   UNL A   1      44.633  32.338  33.175  1.00  0.00     0.029 A 
ATOM     50  C   UNL A   1      43.338  32.343  32.681  1.00  0.00     0.049 A 
ATOM     51  H   UNL A   1      42.342  30.866  31.549  1.00  0.00     0.167 HD
ATOM     52  C   UNL A   1      41.082  33.301  32.289  1.00  0.00     0.074 A 
ATOM     53  C   UNL A   1      40.079  34.334  32.446  1.00  0.00     0.031 C 
ATOM     54  C   UNL A   1      42.330  33.364  32.818  1.00  0.00     0.037 A 
BRANCH  41  55
ATOM     55  C   UNL A   1      45.791  28.358  31.735  1.00  0.00     0.057 A 
ATOM     56  C   UNL A   1      46.886  28.478  30.869  1.00  0.00     0.134 A 
ATOM     57  C   UNL A   1      45.948  27.537  32.861  1.00  0.00     0.134 A 
ATOM     58  F   UNL A   1      46.800  29.237  29.765  1.00  0.00    -0.206 F 
ATOM     59  C   UNL A   1      48.076  27.783  31.093  1.00  0.00     0.040 A 
ATOM     60  C   UNL A   1      47.145  26.863  33.112  1.00  0.00     0.040 A 
ATOM     61  F   UNL A   1      44.944  27.380  33.735  1.00  0.00    -0.206 F 
ATOM     62  C   UNL A   1      48.210  26.978  32.222  1.00  0.00     0.006 A 
ENDBRANCH  41  55
BRANCH  42  63
ATOM     63  C   UNL A   1      36.899  32.677  30.235  1.00  0.00     0.057 A 
ATOM     64  C   UNL A   1      36.691  33.553  29.163  1.00  0.00     0.134 A 
ATOM     65  C   UNL A   1      35.820  32.449  31.098  1.00  0.00     0.134 A 
ATOM     66  F   UNL A   1      37.690  33.824  28.309  1.00  0.00    -0.206 F 
ATOM     67  C   UNL A   1      35.468  34.198  28.969  1.00  0.00     0.040 A 
ATOM     68  C   UNL A   1      34.583  33.066  30.900  1.00  0.00     0.040 A 
ATOM     69  F   UNL A   1      35.949  31.614  32.139  1.00  0.00    -0.206 F 
ATOM     70  C   UNL A   1      34.408  33.950  29.838  1.00  0.00     0.006 A 
ENDBRANCH  42  63
BRANCH  54  71
ATOM     71  C   UNL A   1      42.693  34.607  33.575  1.00  0.00     0.057 A 
ATOM     72  C   UNL A   1      43.185  35.751  32.933  1.00  0.00     0.134 A 
ATOM     73  C   UNL A   1      42.509  34.673  34.962  1.00  0.00     0.134 A 
ATOM     74  F   UNL A   1      43.396  35.750  31.608  1.00  0.00    -0.206 F 
ATOM     75  C   UNL A   1      43.504  36.907  33.649  1.00  0.00     0.040 A 
ATOM     76  C   UNL A   1      42.795  35.832  35.684  1.00  0.00     0.040 A 
ATOM     77  F   UNL A   1      42.031  33.616  35.638  1.00  0.00    -0.206 F 
ATOM     78  C   UNL A   1      43.301  36.952  35.027  1.00  0.00     0.006 A 
ENDBRANCH  54  71
ENDBRANCH  28  29
ENDBRANCH  20  23
ENDBRANCH  18  19
ENDBRANCH   1  18
TORSDOF 12
ENDMDL
