MODEL 1
REMARK VINA RESULT:     -13.3      0.000      0.000
REMARK SMILES Cc1c(CC(=O)N[C@@H](C)C(=O)NCCCNC(=O)c2ccc(-c3c4nc(c(-c5c(F)cccc5F)c5ccc([nH]5)c(-c5c(F)cccc5F)c5nc(c(-c6c(F)cccc6F)c6ccc3[nH]6)C=C5)C=C4)cc2)c(=O)oc2cc3oc4c(c3cc12)CCCC4
REMARK SMILES IDX 13 1 12 2 10 3 11 4 8 6 9 7 7 8 5 9 6 10 4 12 3 13 1 14 2 15
REMARK SMILES IDX 84 16 73 17 76 18 83 19 74 20 75 21 77 22 82 23 78 24 81 25
REMARK SMILES IDX 79 26 80 27 85 28 88 29 86 30 87 31 14 32 15 33 16 34 17 35
REMARK SMILES IDX 18 37 19 38 20 39 72 40 21 41 71 42 22 43 23 44 24 45 65 46
REMARK SMILES IDX 25 47 70 48 64 49 66 50 26 51 69 52 63 53 62 54 27 56 53 57
REMARK SMILES IDX 36 58 52 59 37 60 40 61 51 62 67 63 38 64 39 65 50 67 68 68
REMARK SMILES IDX 41 69 28 70 29 71 34 72 30 73 31 74 33 75 35 76 32 77 54 78
REMARK SMILES IDX 55 79 60 80 56 81 57 82 59 83 61 84 58 85 42 86 43 87 48 88
REMARK SMILES IDX 44 89 45 90 47 91 49 92 46 93
REMARK H PARENT 12 5 7 11 16 36 66 55 40 66
REMARK Flexibility Score: inf
ROOT
ATOM      1  C   UNL A   1      46.780  19.606  36.171  1.00  0.00     0.117 C 
ENDROOT
BRANCH   1   2
ATOM      2  N   UNL A   1      47.824  19.688  37.177  1.00  0.00    -0.354 N 
ATOM      3  C   UNL A   1      47.835  20.167  38.448  1.00  0.00     0.242 C 
ATOM      4  O   UNL A   1      48.934  20.266  39.000  1.00  0.00    -0.273 OA
ATOM      5  H   UNL A   1      48.691  19.327  36.882  1.00  0.00     0.163 HD
BRANCH   3   6
ATOM      6  C   UNL A   1      46.545  20.515  39.198  1.00  0.00     0.168 C 
ATOM      7  C   UNL A   1      46.079  21.931  38.868  1.00  0.00     0.041 C 
BRANCH   6   8
ATOM      8  N   UNL A   1      46.658  20.266  40.633  1.00  0.00    -0.344 N 
ATOM      9  C   UNL A   1      46.907  19.086  41.273  1.00  0.00     0.225 C 
ATOM     10  O   UNL A   1      47.106  19.118  42.490  1.00  0.00    -0.275 OA
ATOM     11  H   UNL A   1      46.537  21.052  41.214  1.00  0.00     0.164 HD
BRANCH   9  12
ATOM     12  C   UNL A   1      46.900  17.763  40.507  1.00  0.00     0.143 C 
BRANCH  12  13
ATOM     13  C   UNL A   1      45.647  16.978  40.818  1.00  0.00     0.051 A 
ATOM     14  C   UNL A   1      46.610  15.895  42.881  1.00  0.00     0.046 C 
ATOM     15  C   UNL A   1      45.479  16.259  41.945  1.00  0.00    -0.029 A 
ATOM     16  C   UNL A   1      44.140  15.747  42.263  1.00  0.00     0.022 A 
ATOM     17  C   UNL A   1      44.559  17.106  39.810  1.00  0.00     0.340 A 
ATOM     18  C   UNL A   1      43.141  15.794  41.289  1.00  0.00     0.142 A 
ATOM     19  C   UNL A   1      43.873  15.118  43.483  1.00  0.00     0.024 A 
ATOM     20  O   UNL A   1      44.719  17.727  38.765  1.00  0.00    -0.246 OA
ATOM     21  O   UNL A   1      43.351  16.493  40.088  1.00  0.00    -0.422 OA
ATOM     22  C   UNL A   1      41.933  15.096  41.384  1.00  0.00     0.095 A 
ATOM     23  C   UNL A   1      42.770  14.260  43.534  1.00  0.00     0.025 A 
ATOM     24  C   UNL A   1      41.876  14.232  42.467  1.00  0.00     0.138 A 
ATOM     25  C   UNL A   1      42.487  13.122  44.327  1.00  0.00     0.001 A 
ATOM     26  O   UNL A   1      41.094  13.115  42.538  1.00  0.00    -0.461 OA
ATOM     27  C   UNL A   1      41.623  12.381  43.548  1.00  0.00     0.108 A 
ATOM     28  C   UNL A   1      43.354  12.437  45.321  1.00  0.00     0.040 C 
ATOM     29  C   UNL A   1      41.795  10.913  43.374  1.00  0.00     0.076 C 
ATOM     30  C   UNL A   1      44.075  11.262  44.622  1.00  0.00     0.005 C 
ATOM     31  C   UNL A   1      43.334  10.676  43.381  1.00  0.00     0.008 C 
ENDBRANCH  12  13
ENDBRANCH   9  12
ENDBRANCH   6   8
ENDBRANCH   3   6
ENDBRANCH   1   2
BRANCH   1  32
ATOM     32  C   UNL A   1      47.249  20.190  34.843  1.00  0.00     0.042 C 
BRANCH  32  33
ATOM     33  C   UNL A   1      46.269  21.211  34.265  1.00  0.00     0.118 C 
BRANCH  33  34
ATOM     34  N   UNL A   1      45.444  21.860  35.270  1.00  0.00    -0.352 N 
ATOM     35  C   UNL A   1      44.869  23.111  35.258  1.00  0.00     0.251 C 
ATOM     36  H   UNL A   1      45.271  21.327  36.080  1.00  0.00     0.163 HD
ATOM     37  O   UNL A   1      44.274  23.529  36.236  1.00  0.00    -0.269 OA
BRANCH  35  38
ATOM     38  C   UNL A   1      45.033  23.969  34.065  1.00  0.00     0.039 A 
ATOM     39  C   UNL A   1      45.957  25.015  34.059  1.00  0.00     0.014 A 
ATOM     40  C   UNL A   1      44.240  23.713  32.943  1.00  0.00     0.014 A 
ATOM     41  C   UNL A   1      46.007  25.884  32.980  1.00  0.00     0.010 A 
ATOM     42  C   UNL A   1      44.327  24.553  31.835  1.00  0.00     0.010 A 
ATOM     43  C   UNL A   1      45.197  25.650  31.864  1.00  0.00    -0.014 A 
BRANCH  43  44
ATOM     44  C   UNL A   1      45.430  26.509  30.700  1.00  0.00     0.031 A 
ATOM     45  C   UNL A   1      45.387  25.785  29.399  1.00  0.00     0.074 A 
ATOM     46  C   UNL A   1      45.156  27.827  30.701  1.00  0.00     0.049 A 
ATOM     47  N   UNL A   1      44.273  25.536  28.776  1.00  0.00    -0.248 NA
ATOM     48  C   UNL A   1      46.544  25.064  28.872  1.00  0.00     0.031 C 
ATOM     49  C   UNL A   1      44.066  28.443  31.462  1.00  0.00     0.029 A 
ATOM     50  N   UNL A   1      45.597  28.820  29.861  1.00  0.00    -0.354 N 
ATOM     51  C   UNL A   1      44.553  24.576  27.825  1.00  0.00     0.074 A 
ATOM     52  C   UNL A   1      45.977  24.329  27.904  1.00  0.00     0.031 C 
ATOM     53  C   UNL A   1      43.793  29.647  30.916  1.00  0.00     0.029 A 
ATOM     54  C   UNL A   1      44.794  29.953  29.898  1.00  0.00     0.049 A 
ATOM     55  H   UNL A   1      46.397  28.738  29.293  1.00  0.00     0.167 HD
ATOM     56  C   UNL A   1      43.599  24.009  27.043  1.00  0.00     0.037 A 
ATOM     57  C   UNL A   1      44.612  30.806  28.854  1.00  0.00     0.037 A 
ATOM     58  C   UNL A   1      42.264  24.492  27.225  1.00  0.00     0.049 A 
ATOM     59  C   UNL A   1      43.788  29.958  27.923  1.00  0.00     0.074 A 
ATOM     60  C   UNL A   1      41.149  24.126  27.947  1.00  0.00     0.029 A 
ATOM     61  N   UNL A   1      41.914  25.668  26.607  1.00  0.00    -0.354 N 
ATOM     62  N   UNL A   1      42.498  29.764  28.005  1.00  0.00    -0.248 NA
ATOM     63  C   UNL A   1      44.491  29.006  27.058  1.00  0.00     0.031 C 
ATOM     64  C   UNL A   1      40.365  25.316  28.072  1.00  0.00     0.029 A 
ATOM     65  C   UNL A   1      41.086  26.343  27.468  1.00  0.00     0.049 A 
ATOM     66  H   UNL A   1      42.203  25.969  25.715  1.00  0.00     0.167 HD
ATOM     67  C   UNL A   1      42.276  28.508  27.434  1.00  0.00     0.074 A 
ATOM     68  C   UNL A   1      43.534  28.115  26.835  1.00  0.00     0.031 C 
ATOM     69  C   UNL A   1      41.144  27.776  27.647  1.00  0.00     0.037 A 
BRANCH  56  70
ATOM     70  C   UNL A   1      43.890  23.053  25.963  1.00  0.00     0.057 A 
ATOM     71  C   UNL A   1      43.604  21.700  26.172  1.00  0.00     0.134 A 
ATOM     72  C   UNL A   1      44.592  23.408  24.812  1.00  0.00     0.134 A 
ATOM     73  F   UNL A   1      42.933  21.315  27.271  1.00  0.00    -0.206 F 
ATOM     74  C   UNL A   1      44.035  20.720  25.283  1.00  0.00     0.040 A 
ATOM     75  C   UNL A   1      45.027  22.436  23.909  1.00  0.00     0.040 A 
ATOM     76  F   UNL A   1      44.900  24.691  24.567  1.00  0.00    -0.206 F 
ATOM     77  C   UNL A   1      44.760  21.087  24.151  1.00  0.00     0.006 A 
ENDBRANCH  56  70
BRANCH  57  78
ATOM     78  C   UNL A   1      45.841  31.554  28.441  1.00  0.00     0.057 A 
ATOM     79  C   UNL A   1      46.757  31.941  29.441  1.00  0.00     0.134 A 
ATOM     80  C   UNL A   1      46.182  31.926  27.135  1.00  0.00     0.134 A 
ATOM     81  F   UNL A   1      46.474  31.736  30.738  1.00  0.00    -0.206 F 
ATOM     82  C   UNL A   1      47.983  32.544  29.150  1.00  0.00     0.040 A 
ATOM     83  C   UNL A   1      47.417  32.511  26.825  1.00  0.00     0.040 A 
ATOM     84  F   UNL A   1      45.340  31.733  26.112  1.00  0.00    -0.206 F 
ATOM     85  C   UNL A   1      48.330  32.805  27.832  1.00  0.00     0.006 A 
ENDBRANCH  57  78
BRANCH  69  86
ATOM     86  C   UNL A   1      40.045  28.495  28.349  1.00  0.00     0.057 A 
ATOM     87  C   UNL A   1      39.168  29.314  27.629  1.00  0.00     0.134 A 
ATOM     88  C   UNL A   1      39.837  28.380  29.729  1.00  0.00     0.134 A 
ATOM     89  F   UNL A   1      39.309  29.461  26.301  1.00  0.00    -0.206 F 
ATOM     90  C   UNL A   1      38.115  29.982  28.255  1.00  0.00     0.040 A 
ATOM     91  C   UNL A   1      38.771  29.023  30.361  1.00  0.00     0.040 A 
ATOM     92  F   UNL A   1      40.652  27.634  30.491  1.00  0.00    -0.206 F 
ATOM     93  C   UNL A   1      37.907  29.828  29.623  1.00  0.00     0.006 A 
ENDBRANCH  69  86
ENDBRANCH  43  44
ENDBRANCH  35  38
ENDBRANCH  33  34
ENDBRANCH  32  33
ENDBRANCH   1  32
TORSDOF 13
ENDMDL
MODEL 2
REMARK VINA RESULT:     -13.2      9.639     14.368
REMARK SMILES Cc1c(CC(=O)N[C@@H](C)C(=O)NCCCNC(=O)c2ccc(-c3c4nc(c(-c5c(F)cccc5F)c5ccc([nH]5)c(-c5c(F)cccc5F)c5nc(c(-c6c(F)cccc6F)c6ccc3[nH]6)C=C5)C=C4)cc2)c(=O)oc2cc3oc4c(c3cc12)CCCC4
REMARK SMILES IDX 13 1 12 2 10 3 11 4 8 6 9 7 7 8 5 9 6 10 4 12 3 13 1 14 2 15
REMARK SMILES IDX 84 16 73 17 76 18 83 19 74 20 75 21 77 22 82 23 78 24 81 25
REMARK SMILES IDX 79 26 80 27 85 28 88 29 86 30 87 31 14 32 15 33 16 34 17 35
REMARK SMILES IDX 18 37 19 38 20 39 72 40 21 41 71 42 22 43 23 44 24 45 65 46
REMARK SMILES IDX 25 47 70 48 64 49 66 50 26 51 69 52 63 53 62 54 27 56 53 57
REMARK SMILES IDX 36 58 52 59 37 60 40 61 51 62 67 63 38 64 39 65 50 67 68 68
REMARK SMILES IDX 41 69 28 70 29 71 34 72 30 73 31 74 33 75 35 76 32 77 54 78
REMARK SMILES IDX 55 79 60 80 56 81 57 82 59 83 61 84 58 85 42 86 43 87 48 88
REMARK SMILES IDX 44 89 45 90 47 91 49 92 46 93
REMARK H PARENT 12 5 7 11 16 36 66 55 40 66
REMARK Flexibility Score: inf
ROOT
ATOM      1  C   UNL A   1      33.919  28.560  25.484  1.00  0.00     0.117 C 
ENDROOT
BRANCH   1   2
ATOM      2  N   UNL A   1      32.654  29.233  25.246  1.00  0.00    -0.354 N 
ATOM      3  C   UNL A   1      31.511  28.841  24.626  1.00  0.00     0.242 C 
ATOM      4  O   UNL A   1      30.660  29.709  24.419  1.00  0.00    -0.273 OA
ATOM      5  H   UNL A   1      32.618  30.150  25.602  1.00  0.00     0.163 HD
BRANCH   3   6
ATOM      6  C   UNL A   1      31.250  27.379  24.249  1.00  0.00     0.168 C 
ATOM      7  C   UNL A   1      30.184  27.270  23.162  1.00  0.00     0.041 C 
BRANCH   6   8
ATOM      8  N   UNL A   1      30.965  26.551  25.419  1.00  0.00    -0.344 N 
ATOM      9  C   UNL A   1      31.768  25.626  26.021  1.00  0.00     0.225 C 
ATOM     10  O   UNL A   1      31.391  25.138  27.088  1.00  0.00    -0.275 OA
ATOM     11  H   UNL A   1      30.077  26.677  25.825  1.00  0.00     0.164 HD
BRANCH   9  12
ATOM     12  C   UNL A   1      33.078  25.182  25.366  1.00  0.00     0.143 C 
BRANCH  12  13
ATOM     13  C   UNL A   1      32.876  23.899  24.595  1.00  0.00     0.051 A 
ATOM     14  C   UNL A   1      33.142  22.418  26.618  1.00  0.00     0.046 C 
ATOM     15  C   UNL A   1      32.770  22.688  25.178  1.00  0.00    -0.029 A 
ATOM     16  C   UNL A   1      32.324  21.550  24.364  1.00  0.00     0.022 A 
ATOM     17  C   UNL A   1      32.729  24.067  23.123  1.00  0.00     0.340 A 
ATOM     18  C   UNL A   1      32.264  21.683  22.976  1.00  0.00     0.142 A 
ATOM     19  C   UNL A   1      32.059  20.303  24.941  1.00  0.00     0.024 A 
ATOM     20  O   UNL A   1      32.862  25.159  22.583  1.00  0.00    -0.246 OA
ATOM     21  O   UNL A   1      32.440  22.941  22.374  1.00  0.00    -0.422 OA
ATOM     22  C   UNL A   1      32.125  20.602  22.099  1.00  0.00     0.095 A 
ATOM     23  C   UNL A   1      32.110  19.185  24.102  1.00  0.00     0.025 A 
ATOM     24  C   UNL A   1      32.201  19.368  22.725  1.00  0.00     0.138 A 
ATOM     25  C   UNL A   1      32.411  17.825  24.350  1.00  0.00     0.001 A 
ATOM     26  O   UNL A   1      32.587  18.206  22.121  1.00  0.00    -0.461 OA
ATOM     27  C   UNL A   1      32.894  17.367  23.141  1.00  0.00     0.108 A 
ATOM     28  C   UNL A   1      32.858  17.182  25.612  1.00  0.00     0.040 C 
ATOM     29  C   UNL A   1      34.125  16.534  23.060  1.00  0.00     0.076 C 
ATOM     30  C   UNL A   1      34.401  17.097  25.606  1.00  0.00     0.005 C 
ATOM     31  C   UNL A   1      35.055  17.064  24.190  1.00  0.00     0.008 C 
ENDBRANCH  12  13
ENDBRANCH   9  12
ENDBRANCH   6   8
ENDBRANCH   3   6
ENDBRANCH   1   2
BRANCH   1  32
ATOM     32  C   UNL A   1      34.608  29.108  26.729  1.00  0.00     0.042 C 
BRANCH  32  33
ATOM     33  C   UNL A   1      33.715  30.052  27.533  1.00  0.00     0.118 C 
BRANCH  33  34
ATOM     34  N   UNL A   1      34.044  31.456  27.357  1.00  0.00    -0.352 N 
ATOM     35  C   UNL A   1      35.153  32.157  27.776  1.00  0.00     0.251 C 
ATOM     36  H   UNL A   1      33.376  31.986  26.865  1.00  0.00     0.163 HD
ATOM     37  O   UNL A   1      35.224  33.362  27.614  1.00  0.00    -0.269 OA
BRANCH  35  38
ATOM     38  C   UNL A   1      36.235  31.438  28.483  1.00  0.00     0.039 A 
ATOM     39  C   UNL A   1      36.256  31.370  29.877  1.00  0.00     0.014 A 
ATOM     40  C   UNL A   1      37.240  30.829  27.725  1.00  0.00     0.014 A 
ATOM     41  C   UNL A   1      37.344  30.801  30.522  1.00  0.00     0.010 A 
ATOM     42  C   UNL A   1      38.307  30.209  28.372  1.00  0.00     0.010 A 
ATOM     43  C   UNL A   1      38.367  30.215  29.770  1.00  0.00    -0.014 A 
BRANCH  43  44
ATOM     44  C   UNL A   1      39.391  29.486  30.524  1.00  0.00     0.031 A 
ATOM     45  C   UNL A   1      39.530  28.058  30.126  1.00  0.00     0.074 A 
ATOM     46  C   UNL A   1      40.455  30.094  31.083  1.00  0.00     0.049 A 
ATOM     47  N   UNL A   1      40.254  27.683  29.113  1.00  0.00    -0.248 NA
ATOM     48  C   UNL A   1      38.655  27.015  30.657  1.00  0.00     0.031 C 
ATOM     49  C   UNL A   1      41.109  31.284  30.531  1.00  0.00     0.029 A 
ATOM     50  N   UNL A   1      41.306  29.654  32.067  1.00  0.00    -0.354 N 
ATOM     51  C   UNL A   1      39.887  26.386  28.817  1.00  0.00     0.074 A 
ATOM     52  C   UNL A   1      38.910  26.003  29.814  1.00  0.00     0.031 C 
ATOM     53  C   UNL A   1      42.352  31.364  31.051  1.00  0.00     0.029 A 
ATOM     54  C   UNL A   1      42.509  30.348  32.088  1.00  0.00     0.049 A 
ATOM     55  H   UNL A   1      41.087  28.924  32.690  1.00  0.00     0.167 HD
ATOM     56  C   UNL A   1      40.380  25.702  27.753  1.00  0.00     0.037 A 
ATOM     57  C   UNL A   1      43.695  29.826  32.498  1.00  0.00     0.037 A 
ATOM     58  C   UNL A   1      41.349  26.389  26.955  1.00  0.00     0.049 A 
ATOM     59  C   UNL A   1      43.994  28.863  31.379  1.00  0.00     0.074 A 
ATOM     60  C   UNL A   1      41.354  27.148  25.805  1.00  0.00     0.029 A 
ATOM     61  N   UNL A   1      42.650  26.414  27.399  1.00  0.00    -0.354 N 
ATOM     62  N   UNL A   1      44.516  29.174  30.221  1.00  0.00    -0.248 NA
ATOM     63  C   UNL A   1      43.364  27.541  31.425  1.00  0.00     0.031 C 
ATOM     64  C   UNL A   1      42.544  27.939  25.872  1.00  0.00     0.029 A 
ATOM     65  C   UNL A   1      43.156  27.651  27.089  1.00  0.00     0.049 A 
ATOM     66  H   UNL A   1      43.127  25.682  27.854  1.00  0.00     0.167 HD
ATOM     67  C   UNL A   1      44.034  28.213  29.329  1.00  0.00     0.074 A 
ATOM     68  C   UNL A   1      43.367  27.216  30.139  1.00  0.00     0.031 C 
ATOM     69  C   UNL A   1      44.035  28.380  27.975  1.00  0.00     0.037 A 
BRANCH  56  70
ATOM     70  C   UNL A   1      40.072  24.291  27.476  1.00  0.00     0.057 A 
ATOM     71  C   UNL A   1      40.969  23.310  27.915  1.00  0.00     0.134 A 
ATOM     72  C   UNL A   1      39.018  23.898  26.652  1.00  0.00     0.134 A 
ATOM     73  F   UNL A   1      42.000  23.648  28.707  1.00  0.00    -0.206 F 
ATOM     74  C   UNL A   1      40.847  21.983  27.517  1.00  0.00     0.040 A 
ATOM     75  C   UNL A   1      38.881  22.568  26.249  1.00  0.00     0.040 A 
ATOM     76  F   UNL A   1      38.134  24.798  26.197  1.00  0.00    -0.206 F 
ATOM     77  C   UNL A   1      39.805  21.610  26.671  1.00  0.00     0.006 A 
ENDBRANCH  56  70
BRANCH  57  78
ATOM     78  C   UNL A   1      43.748  29.465  33.950  1.00  0.00     0.057 A 
ATOM     79  C   UNL A   1      44.663  30.151  34.776  1.00  0.00     0.134 A 
ATOM     80  C   UNL A   1      42.973  28.490  34.588  1.00  0.00     0.134 A 
ATOM     81  F   UNL A   1      45.534  31.025  34.247  1.00  0.00    -0.206 F 
ATOM     82  C   UNL A   1      44.714  29.968  36.160  1.00  0.00     0.040 A 
ATOM     83  C   UNL A   1      42.998  28.310  35.977  1.00  0.00     0.040 A 
ATOM     84  F   UNL A   1      42.160  27.681  33.896  1.00  0.00    -0.206 F 
ATOM     85  C   UNL A   1      43.856  29.063  36.770  1.00  0.00     0.006 A 
ENDBRANCH  57  78
BRANCH  69  86
ATOM     86  C   UNL A   1      44.795  29.562  27.480  1.00  0.00     0.057 A 
ATOM     87  C   UNL A   1      46.120  29.418  27.053  1.00  0.00     0.134 A 
ATOM     88  C   UNL A   1      44.228  30.841  27.413  1.00  0.00     0.134 A 
ATOM     89  F   UNL A   1      46.720  28.217  27.085  1.00  0.00    -0.206 F 
ATOM     90  C   UNL A   1      46.849  30.503  26.563  1.00  0.00     0.040 A 
ATOM     91  C   UNL A   1      44.940  31.927  26.900  1.00  0.00     0.040 A 
ATOM     92  F   UNL A   1      42.971  31.063  27.828  1.00  0.00    -0.206 F 
ATOM     93  C   UNL A   1      46.255  31.759  26.475  1.00  0.00     0.006 A 
ENDBRANCH  69  86
ENDBRANCH  43  44
ENDBRANCH  35  38
ENDBRANCH  33  34
ENDBRANCH  32  33
ENDBRANCH   1  32
TORSDOF 13
ENDMDL
MODEL 3
REMARK VINA RESULT:     -13.1     10.421     22.070
REMARK SMILES Cc1c(CC(=O)N[C@@H](C)C(=O)NCCCNC(=O)c2ccc(-c3c4nc(c(-c5c(F)cccc5F)c5ccc([nH]5)c(-c5c(F)cccc5F)c5nc(c(-c6c(F)cccc6F)c6ccc3[nH]6)C=C5)C=C4)cc2)c(=O)oc2cc3oc4c(c3cc12)CCCC4
REMARK SMILES IDX 13 1 12 2 10 3 11 4 8 6 9 7 7 8 5 9 6 10 4 12 3 13 1 14 2 15
REMARK SMILES IDX 84 16 73 17 76 18 83 19 74 20 75 21 77 22 82 23 78 24 81 25
REMARK SMILES IDX 79 26 80 27 85 28 88 29 86 30 87 31 14 32 15 33 16 34 17 35
REMARK SMILES IDX 18 37 19 38 20 39 72 40 21 41 71 42 22 43 23 44 24 45 65 46
REMARK SMILES IDX 25 47 70 48 64 49 66 50 26 51 69 52 63 53 62 54 27 56 53 57
REMARK SMILES IDX 36 58 52 59 37 60 40 61 51 62 67 63 38 64 39 65 50 67 68 68
REMARK SMILES IDX 41 69 28 70 29 71 34 72 30 73 31 74 33 75 35 76 32 77 54 78
REMARK SMILES IDX 55 79 60 80 56 81 57 82 59 83 61 84 58 85 42 86 43 87 48 88
REMARK SMILES IDX 44 89 45 90 47 91 49 92 46 93
REMARK H PARENT 12 5 7 11 16 36 66 55 40 66
REMARK Flexibility Score: inf
ROOT
ATOM      1  C   UNL A   1      42.944  40.961  28.507  1.00  0.00     0.117 C 
ENDROOT
BRANCH   1   2
ATOM      2  N   UNL A   1      41.922  40.771  27.492  1.00  0.00    -0.354 N 
ATOM      3  C   UNL A   1      41.899  41.023  26.158  1.00  0.00     0.242 C 
ATOM      4  O   UNL A   1      40.809  40.923  25.588  1.00  0.00    -0.273 OA
ATOM      5  H   UNL A   1      41.084  40.386  27.838  1.00  0.00     0.163 HD
BRANCH   3   6
ATOM      6  C   UNL A   1      43.170  41.357  25.370  1.00  0.00     0.168 C 
ATOM      7  C   UNL A   1      44.370  40.577  25.900  1.00  0.00     0.041 C 
BRANCH   6   8
ATOM      8  N   UNL A   1      43.407  42.796  25.293  1.00  0.00    -0.344 N 
ATOM      9  C   UNL A   1      43.957  43.513  24.269  1.00  0.00     0.225 C 
ATOM     10  O   UNL A   1      43.936  44.743  24.346  1.00  0.00    -0.275 OA
ATOM     11  H   UNL A   1      43.137  43.318  26.083  1.00  0.00     0.164 HD
BRANCH   9  12
ATOM     12  C   UNL A   1      44.612  42.806  23.081  1.00  0.00     0.143 C 
BRANCH  12  13
ATOM     13  C   UNL A   1      43.928  43.193  21.791  1.00  0.00     0.051 A 
ATOM     14  C   UNL A   1      45.594  45.000  21.230  1.00  0.00     0.046 C 
ATOM     15  C   UNL A   1      44.444  44.073  20.909  1.00  0.00    -0.029 A 
ATOM     16  C   UNL A   1      43.828  44.184  19.581  1.00  0.00     0.022 A 
ATOM     17  C   UNL A   1      42.653  42.476  21.516  1.00  0.00     0.340 A 
ATOM     18  C   UNL A   1      42.592  43.579  19.348  1.00  0.00     0.142 A 
ATOM     19  C   UNL A   1      44.401  44.972  18.578  1.00  0.00     0.024 A 
ATOM     20  O   UNL A   1      42.159  41.705  22.330  1.00  0.00    -0.246 OA
ATOM     21  O   UNL A   1      42.032  42.714  20.303  1.00  0.00    -0.422 OA
ATOM     22  C   UNL A   1      41.796  43.850  18.230  1.00  0.00     0.095 A 
ATOM     23  C   UNL A   1      43.562  45.412  17.549  1.00  0.00     0.025 A 
ATOM     24  C   UNL A   1      42.276  44.886  17.445  1.00  0.00     0.138 A 
ATOM     25  C   UNL A   1      43.599  46.554  16.715  1.00  0.00     0.001 A 
ATOM     26  O   UNL A   1      41.512  45.670  16.630  1.00  0.00    -0.461 OA
ATOM     27  C   UNL A   1      42.278  46.760  16.375  1.00  0.00     0.108 A 
ATOM     28  C   UNL A   1      44.539  47.705  16.748  1.00  0.00     0.040 C 
ATOM     29  C   UNL A   1      41.663  48.115  16.424  1.00  0.00     0.076 C 
ATOM     30  C   UNL A   1      43.902  48.840  17.581  1.00  0.00     0.005 C 
ATOM     31  C   UNL A   1      42.343  48.831  17.628  1.00  0.00     0.008 C 
ENDBRANCH  12  13
ENDBRANCH   9  12
ENDBRANCH   6   8
ENDBRANCH   3   6
ENDBRANCH   1   2
BRANCH   1  32
ATOM     32  C   UNL A   1      42.809  39.931  29.623  1.00  0.00     0.042 C 
BRANCH  32  33
ATOM     33  C   UNL A   1      43.761  38.747  29.455  1.00  0.00     0.118 C 
BRANCH  33  34
ATOM     34  N   UNL A   1      43.775  38.197  28.110  1.00  0.00    -0.352 N 
ATOM     35  C   UNL A   1      43.513  36.914  27.684  1.00  0.00     0.251 C 
ATOM     36  H   UNL A   1      44.006  38.836  27.397  1.00  0.00     0.163 HD
ATOM     37  O   UNL A   1      43.657  36.607  26.513  1.00  0.00    -0.269 OA
BRANCH  35  38
ATOM     38  C   UNL A   1      43.110  35.893  28.675  1.00  0.00     0.039 A 
ATOM     39  C   UNL A   1      44.046  35.342  29.552  1.00  0.00     0.014 A 
ATOM     40  C   UNL A   1      41.773  35.488  28.714  1.00  0.00     0.014 A 
ATOM     41  C   UNL A   1      43.675  34.298  30.386  1.00  0.00     0.010 A 
ATOM     42  C   UNL A   1      41.387  34.477  29.590  1.00  0.00     0.010 A 
ATOM     43  C   UNL A   1      42.344  33.869  30.411  1.00  0.00    -0.014 A 
BRANCH  43  44
ATOM     44  C   UNL A   1      41.998  32.883  31.438  1.00  0.00     0.031 A 
ATOM     45  C   UNL A   1      40.580  32.951  31.885  1.00  0.00     0.074 A 
ATOM     46  C   UNL A   1      42.648  31.711  31.571  1.00  0.00     0.049 A 
ATOM     47  N   UNL A   1      39.615  32.363  31.241  1.00  0.00    -0.248 NA
ATOM     48  C   UNL A   1      40.130  33.900  32.902  1.00  0.00     0.031 C 
ATOM     49  C   UNL A   1      43.240  30.964  30.458  1.00  0.00     0.029 A 
ATOM     50  N   UNL A   1      42.691  30.842  32.634  1.00  0.00    -0.354 N 
ATOM     51  C   UNL A   1      38.435  32.908  31.703  1.00  0.00     0.074 A 
ATOM     52  C   UNL A   1      38.799  33.839  32.749  1.00  0.00     0.031 C 
ATOM     53  C   UNL A   1      43.406  29.682  30.846  1.00  0.00     0.029 A 
ATOM     54  C   UNL A   1      43.102  29.566  32.270  1.00  0.00     0.049 A 
ATOM     55  H   UNL A   1      42.455  31.097  33.555  1.00  0.00     0.167 HD
ATOM     56  C   UNL A   1      37.220  32.590  31.185  1.00  0.00     0.037 A 
ATOM     57  C   UNL A   1      42.717  28.422  32.897  1.00  0.00     0.037 A 
ATOM     58  C   UNL A   1      37.217  31.613  30.139  1.00  0.00     0.049 A 
ATOM     59  C   UNL A   1      41.271  28.335  32.485  1.00  0.00     0.074 A 
ATOM     60  C   UNL A   1      37.223  31.610  28.761  1.00  0.00     0.029 A 
ATOM     61  N   UNL A   1      37.287  30.287  30.495  1.00  0.00    -0.354 N 
ATOM     62  N   UNL A   1      40.827  27.875  31.345  1.00  0.00    -0.248 NA
ATOM     63  C   UNL A   1      40.292  29.115  33.248  1.00  0.00     0.031 C 
ATOM     64  C   UNL A   1      37.740  30.331  28.382  1.00  0.00     0.029 A 
ATOM     65  C   UNL A   1      38.070  29.661  29.558  1.00  0.00     0.049 A 
ATOM     66  H   UNL A   1      36.857  29.867  31.274  1.00  0.00     0.167 HD
ATOM     67  C   UNL A   1      39.618  28.541  31.124  1.00  0.00     0.074 A 
ATOM     68  C   UNL A   1      39.328  29.256  32.349  1.00  0.00     0.031 C 
ATOM     69  C   UNL A   1      39.024  28.631  29.899  1.00  0.00     0.037 A 
BRANCH  56  70
ATOM     70  C   UNL A   1      35.946  33.089  31.725  1.00  0.00     0.057 A 
ATOM     71  C   UNL A   1      35.224  34.026  30.978  1.00  0.00     0.134 A 
ATOM     72  C   UNL A   1      35.512  32.799  33.017  1.00  0.00     0.134 A 
ATOM     73  F   UNL A   1      35.612  34.336  29.730  1.00  0.00    -0.206 F 
ATOM     74  C   UNL A   1      34.123  34.688  31.513  1.00  0.00     0.040 A 
ATOM     75  C   UNL A   1      34.405  33.453  33.565  1.00  0.00     0.040 A 
ATOM     76  F   UNL A   1      36.172  31.914  33.779  1.00  0.00    -0.206 F 
ATOM     77  C   UNL A   1      33.717  34.409  32.816  1.00  0.00     0.006 A 
ENDBRANCH  56  70
BRANCH  57  78
ATOM     78  C   UNL A   1      43.196  28.295  34.309  1.00  0.00     0.057 A 
ATOM     79  C   UNL A   1      44.027  27.204  34.638  1.00  0.00     0.134 A 
ATOM     80  C   UNL A   1      42.890  29.160  35.366  1.00  0.00     0.134 A 
ATOM     81  F   UNL A   1      44.289  26.251  33.728  1.00  0.00    -0.206 F 
ATOM     82  C   UNL A   1      44.615  27.055  35.897  1.00  0.00     0.040 A 
ATOM     83  C   UNL A   1      43.489  29.036  36.627  1.00  0.00     0.040 A 
ATOM     84  F   UNL A   1      42.011  30.160  35.219  1.00  0.00    -0.206 F 
ATOM     85  C   UNL A   1      44.368  27.992  36.890  1.00  0.00     0.006 A 
ENDBRANCH  57  78
BRANCH  69  86
ATOM     86  C   UNL A   1      39.625  27.776  28.837  1.00  0.00     0.057 A 
ATOM     87  C   UNL A   1      39.341  26.407  28.792  1.00  0.00     0.134 A 
ATOM     88  C   UNL A   1      40.474  28.294  27.851  1.00  0.00     0.134 A 
ATOM     89  F   UNL A   1      38.528  25.849  29.705  1.00  0.00    -0.206 F 
ATOM     90  C   UNL A   1      39.871  25.585  27.796  1.00  0.00     0.040 A 
ATOM     91  C   UNL A   1      40.988  27.487  26.835  1.00  0.00     0.040 A 
ATOM     92  F   UNL A   1      40.813  29.593  27.843  1.00  0.00    -0.206 F 
ATOM     93  C   UNL A   1      40.688  26.127  26.807  1.00  0.00     0.006 A 
ENDBRANCH  69  86
ENDBRANCH  43  44
ENDBRANCH  35  38
ENDBRANCH  33  34
ENDBRANCH  32  33
ENDBRANCH   1  32
TORSDOF 13
ENDMDL
