MODEL 1
REMARK VINA RESULT:     -11.6      0.000      0.000
REMARK SMILES CC(C)C[C@@H](CNc1ccc(C(N)=O)cc1)C(=O)NCCCNC(=O)c1ccc(-c2c3nc(c(-c4c(F)cccc4F)c4ccc([nH]4)c(-c4c(F)cccc4F)c4nc(c(-c5c(F)cccc5F)c5ccc2[nH]5)C=C4)C=C3)cc1
REMARK SMILES IDX 20 1 19 2 17 3 18 4 5 6 4 7 2 8 1 9 3 10 6 11 7 12 8 14 9 15
REMARK SMILES IDX 16 16 10 17 15 18 11 19 12 20 13 21 14 22 21 25 22 26 23 27
REMARK SMILES IDX 24 28 25 30 26 31 27 32 79 33 28 34 78 35 29 36 30 37 31 38
REMARK SMILES IDX 72 39 32 40 77 41 71 42 73 43 33 44 76 45 70 46 69 47 34 49
REMARK SMILES IDX 60 50 43 51 59 52 44 53 47 54 58 55 74 56 45 57 46 58 57 60
REMARK SMILES IDX 75 61 48 62 35 63 36 64 41 65 37 66 38 67 40 68 42 69 39 70
REMARK SMILES IDX 61 71 62 72 67 73 63 74 64 75 66 76 68 77 65 78 49 79 50 80
REMARK SMILES IDX 55 81 51 82 52 83 54 84 56 85 53 86
REMARK H PARENT 19 5 7 13 13 23 13 24 23 29 73 48 47 59
REMARK Flexibility Score: inf
ROOT
ATOM      1  C   UNL A   1      37.001  21.218  24.946  1.00  0.00     0.117 C 
ENDROOT
BRANCH   1   2
ATOM      2  N   UNL A   1      36.271  21.427  26.173  1.00  0.00    -0.356 N 
ATOM      3  C   UNL A   1      34.989  21.871  26.308  1.00  0.00     0.224 C 
ATOM      4  O   UNL A   1      34.412  21.637  27.373  1.00  0.00    -0.275 OA
ATOM      5  H   UNL A   1      36.753  21.226  27.007  1.00  0.00     0.163 HD
BRANCH   3   6
ATOM      6  C   UNL A   1      34.307  22.690  25.214  1.00  0.00     0.098 C 
BRANCH   6   7
ATOM      7  C   UNL A   1      34.972  24.080  25.095  1.00  0.00     0.018 C 
BRANCH   7   8
ATOM      8  C   UNL A   1      34.060  25.308  25.198  1.00  0.00    -0.017 C 
ATOM      9  C   UNL A   1      33.661  25.833  23.821  1.00  0.00     0.007 C 
ATOM     10  C   UNL A   1      32.801  24.923  25.987  1.00  0.00     0.007 C 
ENDBRANCH   7   8
ENDBRANCH   6   7
BRANCH   6  11
ATOM     11  C   UNL A   1      33.953  21.856  23.961  1.00  0.00     0.126 C 
BRANCH  11  12
ATOM     12  N   UNL A   1      32.724  21.065  24.023  1.00  0.00    -0.384 N 
ATOM     13  H   UNL A   1      31.872  21.520  23.835  1.00  0.00     0.160 HD
BRANCH  12  14
ATOM     14  C   UNL A   1      32.684  19.712  24.332  1.00  0.00     0.034 A 
ATOM     15  C   UNL A   1      32.739  18.762  23.297  1.00  0.00     0.026 A 
ATOM     16  C   UNL A   1      32.687  19.219  25.638  1.00  0.00     0.026 A 
ATOM     17  C   UNL A   1      32.900  17.390  23.545  1.00  0.00     0.016 A 
ATOM     18  C   UNL A   1      32.779  17.842  25.902  1.00  0.00     0.016 A 
ATOM     19  C   UNL A   1      32.929  16.923  24.859  1.00  0.00     0.039 A 
BRANCH  19  20
ATOM     20  C   UNL A   1      33.091  15.482  25.204  1.00  0.00     0.248 C 
ATOM     21  N   UNL A   1      31.963  14.727  25.380  1.00  0.00    -0.366 N 
ATOM     22  O   UNL A   1      34.199  14.969  25.303  1.00  0.00    -0.270 OA
ATOM     23  H   UNL A   1      31.075  15.144  25.300  1.00  0.00     0.159 HD
ATOM     24  H   UNL A   1      32.039  13.768  25.587  1.00  0.00     0.159 HD
ENDBRANCH  19  20
ENDBRANCH  12  14
ENDBRANCH  11  12
ENDBRANCH   6  11
ENDBRANCH   3   6
ENDBRANCH   1   2
BRANCH   1  25
ATOM     25  C   UNL A   1      37.986  20.075  24.984  1.00  0.00     0.042 C 
BRANCH  25  26
ATOM     26  C   UNL A   1      39.225  20.443  25.775  1.00  0.00     0.118 C 
BRANCH  26  27
ATOM     27  N   UNL A   1      40.144  19.311  25.941  1.00  0.00    -0.352 N 
ATOM     28  C   UNL A   1      41.507  19.293  26.129  1.00  0.00     0.251 C 
ATOM     29  H   UNL A   1      39.717  18.423  25.914  1.00  0.00     0.163 HD
ATOM     30  O   UNL A   1      42.134  18.242  26.036  1.00  0.00    -0.269 OA
BRANCH  28  31
ATOM     31  C   UNL A   1      42.196  20.566  26.410  1.00  0.00     0.039 A 
ATOM     32  C   UNL A   1      42.722  21.327  25.365  1.00  0.00     0.014 A 
ATOM     33  C   UNL A   1      42.221  21.046  27.718  1.00  0.00     0.014 A 
ATOM     34  C   UNL A   1      43.157  22.629  25.624  1.00  0.00     0.010 A 
ATOM     35  C   UNL A   1      42.513  22.380  27.943  1.00  0.00     0.010 A 
ATOM     36  C   UNL A   1      42.987  23.190  26.901  1.00  0.00    -0.014 A 
BRANCH  36  37
ATOM     37  C   UNL A   1      43.293  24.610  27.206  1.00  0.00     0.031 A 
ATOM     38  C   UNL A   1      44.726  25.074  27.186  1.00  0.00     0.074 A 
ATOM     39  C   UNL A   1      42.317  25.440  27.626  1.00  0.00     0.049 A 
ATOM     40  N   UNL A   1      45.239  26.198  27.611  1.00  0.00    -0.248 NA
ATOM     41  C   UNL A   1      45.721  24.119  26.667  1.00  0.00     0.031 C 
ATOM     42  C   UNL A   1      40.898  25.099  27.742  1.00  0.00     0.029 A 
ATOM     43  N   UNL A   1      42.379  26.741  28.061  1.00  0.00    -0.354 N 
ATOM     44  C   UNL A   1      46.612  26.070  27.443  1.00  0.00     0.074 A 
ATOM     45  C   UNL A   1      46.858  24.736  26.946  1.00  0.00     0.031 C 
ATOM     46  C   UNL A   1      40.222  26.169  28.192  1.00  0.00     0.029 A 
ATOM     47  C   UNL A   1      41.164  27.252  28.452  1.00  0.00     0.049 A 
ATOM     48  H   UNL A   1      43.215  27.260  28.091  1.00  0.00     0.167 HD
ATOM     49  C   UNL A   1      47.580  26.992  27.655  1.00  0.00     0.037 A 
ATOM     50  C   UNL A   1      40.849  28.452  28.977  1.00  0.00     0.037 A 
ATOM     51  C   UNL A   1      47.325  28.330  28.110  1.00  0.00     0.049 A 
ATOM     52  C   UNL A   1      41.942  29.460  29.208  1.00  0.00     0.074 A 
ATOM     53  C   UNL A   1      48.225  29.363  28.294  1.00  0.00     0.029 A 
ATOM     54  N   UNL A   1      46.074  28.821  28.452  1.00  0.00    -0.354 N 
ATOM     55  N   UNL A   1      43.229  29.347  28.986  1.00  0.00    -0.248 NA
ATOM     56  C   UNL A   1      41.540  30.762  29.758  1.00  0.00     0.031 C 
ATOM     57  C   UNL A   1      47.526  30.465  28.794  1.00  0.00     0.029 A 
ATOM     58  C   UNL A   1      46.182  30.137  28.863  1.00  0.00     0.049 A 
ATOM     59  H   UNL A   1      45.233  28.309  28.407  1.00  0.00     0.167 HD
ATOM     60  C   UNL A   1      43.784  30.574  29.329  1.00  0.00     0.074 A 
ATOM     61  C   UNL A   1      42.694  31.416  29.773  1.00  0.00     0.031 C 
ATOM     62  C   UNL A   1      45.079  30.968  29.275  1.00  0.00     0.037 A 
BRANCH  49  63
ATOM     63  C   UNL A   1      48.999  26.581  27.387  1.00  0.00     0.057 A 
ATOM     64  C   UNL A   1      49.618  26.815  26.151  1.00  0.00     0.134 A 
ATOM     65  C   UNL A   1      49.766  25.967  28.387  1.00  0.00     0.134 A 
ATOM     66  F   UNL A   1      48.938  27.386  25.146  1.00  0.00    -0.206 F 
ATOM     67  C   UNL A   1      50.937  26.423  25.908  1.00  0.00     0.040 A 
ATOM     68  C   UNL A   1      51.095  25.602  28.166  1.00  0.00     0.040 A 
ATOM     69  F   UNL A   1      49.239  25.718  29.594  1.00  0.00    -0.206 F 
ATOM     70  C   UNL A   1      51.681  25.822  26.921  1.00  0.00     0.006 A 
ENDBRANCH  49  63
BRANCH  50  71
ATOM     71  C   UNL A   1      39.435  28.779  29.302  1.00  0.00     0.057 A 
ATOM     72  C   UNL A   1      38.923  28.556  30.585  1.00  0.00     0.134 A 
ATOM     73  C   UNL A   1      38.563  29.309  28.344  1.00  0.00     0.134 A 
ATOM     74  F   UNL A   1      39.704  28.034  31.543  1.00  0.00    -0.206 F 
ATOM     75  C   UNL A   1      37.589  28.824  30.899  1.00  0.00     0.040 A 
ATOM     76  C   UNL A   1      37.233  29.608  28.651  1.00  0.00     0.040 A 
ATOM     77  F   UNL A   1      38.993  29.557  27.098  1.00  0.00    -0.206 F 
ATOM     78  C   UNL A   1      36.742  29.357  29.930  1.00  0.00     0.006 A 
ENDBRANCH  50  71
BRANCH  62  79
ATOM     79  C   UNL A   1      45.391  32.390  29.641  1.00  0.00     0.057 A 
ATOM     80  C   UNL A   1      45.243  33.443  28.730  1.00  0.00     0.134 A 
ATOM     81  C   UNL A   1      45.769  32.714  30.951  1.00  0.00     0.134 A 
ATOM     82  F   UNL A   1      44.895  33.198  27.458  1.00  0.00    -0.206 F 
ATOM     83  C   UNL A   1      45.472  34.767  29.107  1.00  0.00     0.040 A 
ATOM     84  C   UNL A   1      45.972  34.036  31.347  1.00  0.00     0.040 A 
ATOM     85  F   UNL A   1      45.917  31.752  31.874  1.00  0.00    -0.206 F 
ATOM     86  C   UNL A   1      45.828  35.067  30.422  1.00  0.00     0.006 A 
ENDBRANCH  62  79
ENDBRANCH  36  37
ENDBRANCH  28  31
ENDBRANCH  26  27
ENDBRANCH  25  26
ENDBRANCH   1  25
TORSDOF 16
ENDMDL
MODEL 2
REMARK VINA RESULT:     -11.5      2.610      7.345
REMARK SMILES CC(C)C[C@@H](CNc1ccc(C(N)=O)cc1)C(=O)NCCCNC(=O)c1ccc(-c2c3nc(c(-c4c(F)cccc4F)c4ccc([nH]4)c(-c4c(F)cccc4F)c4nc(c(-c5c(F)cccc5F)c5ccc2[nH]5)C=C4)C=C3)cc1
REMARK SMILES IDX 20 1 19 2 17 3 18 4 5 6 4 7 2 8 1 9 3 10 6 11 7 12 8 14 9 15
REMARK SMILES IDX 16 16 10 17 15 18 11 19 12 20 13 21 14 22 21 25 22 26 23 27
REMARK SMILES IDX 24 28 25 30 26 31 27 32 79 33 28 34 78 35 29 36 30 37 31 38
REMARK SMILES IDX 72 39 32 40 77 41 71 42 73 43 33 44 76 45 70 46 69 47 34 49
REMARK SMILES IDX 60 50 43 51 59 52 44 53 47 54 58 55 74 56 45 57 46 58 57 60
REMARK SMILES IDX 75 61 48 62 35 63 36 64 41 65 37 66 38 67 40 68 42 69 39 70
REMARK SMILES IDX 61 71 62 72 67 73 63 74 64 75 66 76 68 77 65 78 49 79 50 80
REMARK SMILES IDX 55 81 51 82 52 83 54 84 56 85 53 86
REMARK H PARENT 19 5 7 13 13 23 13 24 23 29 73 48 47 59
REMARK Flexibility Score: inf
ROOT
ATOM      1  C   UNL A   1      31.833  27.177  26.087  1.00  0.00     0.117 C 
ENDROOT
BRANCH   1   2
ATOM      2  N   UNL A   1      31.026  26.095  26.599  1.00  0.00    -0.356 N 
ATOM      3  C   UNL A   1      31.261  24.758  26.475  1.00  0.00     0.224 C 
ATOM      4  O   UNL A   1      30.697  24.003  27.271  1.00  0.00    -0.275 OA
ATOM      5  H   UNL A   1      30.215  26.352  27.092  1.00  0.00     0.163 HD
BRANCH   3   6
ATOM      6  C   UNL A   1      32.135  24.200  25.353  1.00  0.00     0.098 C 
BRANCH   6   7
ATOM      7  C   UNL A   1      33.551  23.887  25.886  1.00  0.00     0.018 C 
BRANCH   7   8
ATOM      8  C   UNL A   1      34.724  24.642  25.252  1.00  0.00    -0.017 C 
ATOM      9  C   UNL A   1      35.872  23.702  24.891  1.00  0.00     0.007 C 
ATOM     10  C   UNL A   1      34.228  25.356  23.988  1.00  0.00     0.007 C 
ENDBRANCH   7   8
ENDBRANCH   6   7
BRANCH   6  11
ATOM     11  C   UNL A   1      31.384  23.212  24.431  1.00  0.00     0.126 C 
BRANCH  11  12
ATOM     12  N   UNL A   1      32.204  22.376  23.555  1.00  0.00    -0.384 N 
ATOM     13  H   UNL A   1      32.697  22.816  22.825  1.00  0.00     0.160 HD
BRANCH  12  14
ATOM     14  C   UNL A   1      32.332  20.999  23.689  1.00  0.00     0.034 A 
ATOM     15  C   UNL A   1      32.157  20.174  22.565  1.00  0.00     0.026 A 
ATOM     16  C   UNL A   1      32.723  20.374  24.875  1.00  0.00     0.026 A 
ATOM     17  C   UNL A   1      32.463  18.804  22.585  1.00  0.00     0.016 A 
ATOM     18  C   UNL A   1      32.967  18.991  24.928  1.00  0.00     0.016 A 
ATOM     19  C   UNL A   1      32.880  18.205  23.774  1.00  0.00     0.039 A 
BRANCH  19  20
ATOM     20  C   UNL A   1      33.217  16.757  23.878  1.00  0.00     0.248 C 
ATOM     21  N   UNL A   1      32.572  16.009  24.824  1.00  0.00    -0.366 N 
ATOM     22  O   UNL A   1      34.027  16.234  23.123  1.00  0.00    -0.270 OA
ATOM     23  H   UNL A   1      31.922  16.434  25.429  1.00  0.00     0.159 HD
ATOM     24  H   UNL A   1      32.758  15.045  24.901  1.00  0.00     0.159 HD
ENDBRANCH  19  20
ENDBRANCH  12  14
ENDBRANCH  11  12
ENDBRANCH   6  11
ENDBRANCH   3   6
ENDBRANCH   1   2
BRANCH   1  25
ATOM     25  C   UNL A   1      31.988  28.348  27.027  1.00  0.00     0.042 C 
BRANCH  25  26
ATOM     26  C   UNL A   1      33.443  28.741  27.181  1.00  0.00     0.118 C 
BRANCH  26  27
ATOM     27  N   UNL A   1      33.607  30.117  27.665  1.00  0.00    -0.352 N 
ATOM     28  C   UNL A   1      34.678  30.719  28.284  1.00  0.00     0.251 C 
ATOM     29  H   UNL A   1      32.826  30.701  27.525  1.00  0.00     0.163 HD
ATOM     30  O   UNL A   1      34.554  31.822  28.809  1.00  0.00    -0.269 OA
BRANCH  28  31
ATOM     31  C   UNL A   1      35.963  29.997  28.330  1.00  0.00     0.039 A 
ATOM     32  C   UNL A   1      36.852  30.075  27.256  1.00  0.00     0.014 A 
ATOM     33  C   UNL A   1      36.320  29.326  29.498  1.00  0.00     0.014 A 
ATOM     34  C   UNL A   1      38.151  29.585  27.412  1.00  0.00     0.010 A 
ATOM     35  C   UNL A   1      37.643  28.978  29.699  1.00  0.00     0.010 A 
ATOM     36  C   UNL A   1      38.577  29.099  28.659  1.00  0.00    -0.014 A 
BRANCH  36  37
ATOM     37  C   UNL A   1      39.981  28.699  28.933  1.00  0.00     0.031 A 
ATOM     38  C   UNL A   1      40.934  29.712  29.509  1.00  0.00     0.074 A 
ATOM     39  C   UNL A   1      40.429  27.488  28.546  1.00  0.00     0.049 A 
ATOM     40  N   UNL A   1      42.233  29.648  29.638  1.00  0.00    -0.248 NA
ATOM     41  C   UNL A   1      40.350  30.991  29.951  1.00  0.00     0.031 C 
ATOM     42  C   UNL A   1      39.621  26.436  27.926  1.00  0.00     0.029 A 
ATOM     43  N   UNL A   1      41.691  26.948  28.594  1.00  0.00    -0.354 N 
ATOM     44  C   UNL A   1      42.621  30.884  30.139  1.00  0.00     0.074 A 
ATOM     45  C   UNL A   1      41.433  31.702  30.223  1.00  0.00     0.031 C 
ATOM     46  C   UNL A   1      40.399  25.371  27.676  1.00  0.00     0.029 A 
ATOM     47  C   UNL A   1      41.771  25.683  28.062  1.00  0.00     0.049 A 
ATOM     48  H   UNL A   1      42.466  27.422  28.974  1.00  0.00     0.167 HD
ATOM     49  C   UNL A   1      43.853  31.293  30.522  1.00  0.00     0.037 A 
ATOM     50  C   UNL A   1      42.834  24.873  27.889  1.00  0.00     0.037 A 
ATOM     51  C   UNL A   1      45.023  30.462  30.475  1.00  0.00     0.049 A 
ATOM     52  C   UNL A   1      44.195  25.351  28.320  1.00  0.00     0.074 A 
ATOM     53  C   UNL A   1      46.305  30.755  30.901  1.00  0.00     0.029 A 
ATOM     54  N   UNL A   1      45.052  29.171  29.970  1.00  0.00    -0.354 N 
ATOM     55  N   UNL A   1      44.538  26.500  28.850  1.00  0.00    -0.248 NA
ATOM     56  C   UNL A   1      45.316  24.419  28.132  1.00  0.00     0.031 C 
ATOM     57  C   UNL A   1      47.121  29.658  30.609  1.00  0.00     0.029 A 
ATOM     58  C   UNL A   1      46.335  28.660  30.058  1.00  0.00     0.049 A 
ATOM     59  H   UNL A   1      44.274  28.688  29.604  1.00  0.00     0.167 HD
ATOM     60  C   UNL A   1      45.902  26.414  29.097  1.00  0.00     0.074 A 
ATOM     61  C   UNL A   1      46.324  25.100  28.660  1.00  0.00     0.031 C 
ATOM     62  C   UNL A   1      46.729  27.338  29.642  1.00  0.00     0.037 A 
BRANCH  49  63
ATOM     63  C   UNL A   1      43.989  32.699  31.034  1.00  0.00     0.057 A 
ATOM     64  C   UNL A   1      43.847  33.009  32.394  1.00  0.00     0.134 A 
ATOM     65  C   UNL A   1      44.291  33.751  30.160  1.00  0.00     0.134 A 
ATOM     66  F   UNL A   1      43.544  32.051  33.284  1.00  0.00    -0.206 F 
ATOM     67  C   UNL A   1      43.969  34.320  32.861  1.00  0.00     0.040 A 
ATOM     68  C   UNL A   1      44.448  35.059  30.621  1.00  0.00     0.040 A 
ATOM     69  F   UNL A   1      44.445  33.525  28.848  1.00  0.00    -0.206 F 
ATOM     70  C   UNL A   1      44.278  35.348  31.973  1.00  0.00     0.006 A 
ENDBRANCH  49  63
BRANCH  50  71
ATOM     71  C   UNL A   1      42.657  23.520  27.300  1.00  0.00     0.057 A 
ATOM     72  C   UNL A   1      42.327  22.423  28.104  1.00  0.00     0.134 A 
ATOM     73  C   UNL A   1      42.820  23.286  25.929  1.00  0.00     0.134 A 
ATOM     74  F   UNL A   1      42.173  22.579  29.428  1.00  0.00    -0.206 F 
ATOM     75  C   UNL A   1      42.191  21.139  27.573  1.00  0.00     0.040 A 
ATOM     76  C   UNL A   1      42.659  22.012  25.380  1.00  0.00     0.040 A 
ATOM     77  F   UNL A   1      43.124  24.296  25.101  1.00  0.00    -0.206 F 
ATOM     78  C   UNL A   1      42.352  20.932  26.205  1.00  0.00     0.006 A 
ENDBRANCH  50  71
BRANCH  62  79
ATOM     79  C   UNL A   1      48.162  26.948  29.863  1.00  0.00     0.057 A 
ATOM     80  C   UNL A   1      48.571  26.224  30.990  1.00  0.00     0.134 A 
ATOM     81  C   UNL A   1      49.128  27.235  28.891  1.00  0.00     0.134 A 
ATOM     82  F   UNL A   1      47.697  25.928  31.963  1.00  0.00    -0.206 F 
ATOM     83  C   UNL A   1      49.895  25.812  31.146  1.00  0.00     0.040 A 
ATOM     84  C   UNL A   1      50.447  26.803  29.022  1.00  0.00     0.040 A 
ATOM     85  F   UNL A   1      48.797  27.916  27.783  1.00  0.00    -0.206 F 
ATOM     86  C   UNL A   1      50.835  26.092  30.155  1.00  0.00     0.006 A 
ENDBRANCH  62  79
ENDBRANCH  36  37
ENDBRANCH  28  31
ENDBRANCH  26  27
ENDBRANCH  25  26
ENDBRANCH   1  25
TORSDOF 16
ENDMDL
MODEL 3
REMARK VINA RESULT:     -11.5      2.184      4.092
REMARK SMILES CC(C)C[C@@H](CNc1ccc(C(N)=O)cc1)C(=O)NCCCNC(=O)c1ccc(-c2c3nc(c(-c4c(F)cccc4F)c4ccc([nH]4)c(-c4c(F)cccc4F)c4nc(c(-c5c(F)cccc5F)c5ccc2[nH]5)C=C4)C=C3)cc1
REMARK SMILES IDX 20 1 19 2 17 3 18 4 5 6 4 7 2 8 1 9 3 10 6 11 7 12 8 14 9 15
REMARK SMILES IDX 16 16 10 17 15 18 11 19 12 20 13 21 14 22 21 25 22 26 23 27
REMARK SMILES IDX 24 28 25 30 26 31 27 32 79 33 28 34 78 35 29 36 30 37 31 38
REMARK SMILES IDX 72 39 32 40 77 41 71 42 73 43 33 44 76 45 70 46 69 47 34 49
REMARK SMILES IDX 60 50 43 51 59 52 44 53 47 54 58 55 74 56 45 57 46 58 57 60
REMARK SMILES IDX 75 61 48 62 35 63 36 64 41 65 37 66 38 67 40 68 42 69 39 70
REMARK SMILES IDX 61 71 62 72 67 73 63 74 64 75 66 76 68 77 65 78 49 79 50 80
REMARK SMILES IDX 55 81 51 82 52 83 54 84 56 85 53 86
REMARK H PARENT 19 5 7 13 13 23 13 24 23 29 73 48 47 59
REMARK Flexibility Score: inf
ROOT
ATOM      1  C   UNL A   1      36.431  21.043  25.480  1.00  0.00     0.117 C 
ENDROOT
BRANCH   1   2
ATOM      2  N   UNL A   1      35.289  20.171  25.340  1.00  0.00    -0.356 N 
ATOM      3  C   UNL A   1      34.066  20.486  24.827  1.00  0.00     0.224 C 
ATOM      4  O   UNL A   1      33.352  19.557  24.441  1.00  0.00    -0.275 OA
ATOM      5  H   UNL A   1      35.407  19.245  25.649  1.00  0.00     0.163 HD
BRANCH   3   6
ATOM      6  C   UNL A   1      33.561  21.927  24.791  1.00  0.00     0.098 C 
BRANCH   6   7
ATOM      7  C   UNL A   1      32.920  22.233  23.418  1.00  0.00     0.018 C 
BRANCH   7   8
ATOM      8  C   UNL A   1      33.664  23.204  22.494  1.00  0.00    -0.017 C 
ATOM      9  C   UNL A   1      32.894  24.508  22.306  1.00  0.00     0.007 C 
ATOM     10  C   UNL A   1      35.042  23.504  23.100  1.00  0.00     0.007 C 
ENDBRANCH   7   8
ENDBRANCH   6   7
BRANCH   6  11
ATOM     11  C   UNL A   1      32.890  22.371  26.111  1.00  0.00     0.126 C 
BRANCH  11  12
ATOM     12  N   UNL A   1      33.285  23.673  26.645  1.00  0.00    -0.384 N 
ATOM     13  H   UNL A   1      33.777  23.694  27.497  1.00  0.00     0.160 HD
BRANCH  12  14
ATOM     14  C   UNL A   1      33.009  24.885  26.024  1.00  0.00     0.034 A 
ATOM     15  C   UNL A   1      31.673  25.268  25.815  1.00  0.00     0.026 A 
ATOM     16  C   UNL A   1      33.992  25.811  25.671  1.00  0.00     0.026 A 
ATOM     17  C   UNL A   1      31.322  26.555  25.376  1.00  0.00     0.016 A 
ATOM     18  C   UNL A   1      33.658  27.079  25.167  1.00  0.00     0.016 A 
ATOM     19  C   UNL A   1      32.321  27.475  25.056  1.00  0.00     0.039 A 
BRANCH  19  20
ATOM     20  C   UNL A   1      32.029  28.857  24.579  1.00  0.00     0.248 C 
ATOM     21  N   UNL A   1      32.441  29.208  23.323  1.00  0.00    -0.366 N 
ATOM     22  O   UNL A   1      31.413  29.655  25.273  1.00  0.00    -0.270 OA
ATOM     23  H   UNL A   1      32.936  28.562  22.768  1.00  0.00     0.159 HD
ATOM     24  H   UNL A   1      32.243  30.106  22.973  1.00  0.00     0.159 HD
ENDBRANCH  19  20
ENDBRANCH  12  14
ENDBRANCH  11  12
ENDBRANCH   6  11
ENDBRANCH   3   6
ENDBRANCH   1   2
BRANCH   1  25
ATOM     25  C   UNL A   1      37.702  20.524  24.855  1.00  0.00     0.042 C 
BRANCH  25  26
ATOM     26  C   UNL A   1      38.907  20.826  25.723  1.00  0.00     0.118 C 
BRANCH  26  27
ATOM     27  N   UNL A   1      39.842  19.698  25.802  1.00  0.00    -0.352 N 
ATOM     28  C   UNL A   1      41.193  19.681  26.064  1.00  0.00     0.251 C 
ATOM     29  H   UNL A   1      39.439  18.814  25.643  1.00  0.00     0.163 HD
ATOM     30  O   UNL A   1      41.850  18.661  25.880  1.00  0.00    -0.269 OA
BRANCH  28  31
ATOM     31  C   UNL A   1      41.835  20.921  26.538  1.00  0.00     0.039 A 
ATOM     32  C   UNL A   1      42.375  21.827  25.624  1.00  0.00     0.014 A 
ATOM     33  C   UNL A   1      41.800  21.224  27.898  1.00  0.00     0.014 A 
ATOM     34  C   UNL A   1      42.763  23.093  26.069  1.00  0.00     0.010 A 
ATOM     35  C   UNL A   1      42.044  22.522  28.308  1.00  0.00     0.010 A 
ATOM     36  C   UNL A   1      42.532  23.475  27.401  1.00  0.00    -0.014 A 
BRANCH  36  37
ATOM     37  C   UNL A   1      42.786  24.849  27.903  1.00  0.00     0.031 A 
ATOM     38  C   UNL A   1      44.167  25.213  28.379  1.00  0.00     0.074 A 
ATOM     39  C   UNL A   1      41.765  25.715  28.057  1.00  0.00     0.049 A 
ATOM     40  N   UNL A   1      44.565  26.271  29.035  1.00  0.00    -0.248 NA
ATOM     41  C   UNL A   1      45.233  24.228  28.127  1.00  0.00     0.031 C 
ATOM     42  C   UNL A   1      40.370  25.465  27.687  1.00  0.00     0.029 A 
ATOM     43  N   UNL A   1      41.740  26.979  28.594  1.00  0.00    -0.354 N 
ATOM     44  C   UNL A   1      45.912  26.061  29.303  1.00  0.00     0.074 A 
ATOM     45  C   UNL A   1      46.246  24.746  28.803  1.00  0.00     0.031 C 
ATOM     46  C   UNL A   1      39.633  26.548  27.984  1.00  0.00     0.029 A 
ATOM     47  C   UNL A   1      40.488  27.545  28.618  1.00  0.00     0.049 A 
ATOM     48  H   UNL A   1      42.544  27.436  28.931  1.00  0.00     0.167 HD
ATOM     49  C   UNL A   1      46.800  26.898  29.887  1.00  0.00     0.037 A 
ATOM     50  C   UNL A   1      40.074  28.729  29.111  1.00  0.00     0.037 A 
ATOM     51  C   UNL A   1      46.471  28.219  30.345  1.00  0.00     0.049 A 
ATOM     52  C   UNL A   1      41.078  29.643  29.760  1.00  0.00     0.074 A 
ATOM     53  C   UNL A   1      47.309  29.175  30.890  1.00  0.00     0.029 A 
ATOM     54  N   UNL A   1      45.200  28.772  30.310  1.00  0.00    -0.354 N 
ATOM     55  N   UNL A   1      42.362  29.457  29.951  1.00  0.00    -0.248 NA
ATOM     56  C   UNL A   1      40.579  30.932  30.259  1.00  0.00     0.031 C 
ATOM     57  C   UNL A   1      46.536  30.288  31.230  1.00  0.00     0.029 A 
ATOM     58  C   UNL A   1      45.228  30.050  30.840  1.00  0.00     0.049 A 
ATOM     59  H   UNL A   1      44.397  28.323  29.958  1.00  0.00     0.167 HD
ATOM     60  C   UNL A   1      42.830  30.618  30.552  1.00  0.00     0.074 A 
ATOM     61  C   UNL A   1      41.694  31.503  30.694  1.00  0.00     0.031 C 
ATOM     62  C   UNL A   1      44.089  30.926  30.947  1.00  0.00     0.037 A 
BRANCH  49  63
ATOM     63  C   UNL A   1      48.210  26.409  30.053  1.00  0.00     0.057 A 
ATOM     64  C   UNL A   1      49.186  26.612  29.067  1.00  0.00     0.134 A 
ATOM     65  C   UNL A   1      48.604  25.749  31.224  1.00  0.00     0.134 A 
ATOM     66  F   UNL A   1      48.873  27.225  27.915  1.00  0.00    -0.206 F 
ATOM     67  C   UNL A   1      50.493  26.148  29.226  1.00  0.00     0.040 A 
ATOM     68  C   UNL A   1      49.916  25.310  31.408  1.00  0.00     0.040 A 
ATOM     69  F   UNL A   1      47.723  25.525  32.210  1.00  0.00    -0.206 F 
ATOM     70  C   UNL A   1      50.863  25.502  30.403  1.00  0.00     0.006 A 
ENDBRANCH  49  63
BRANCH  50  71
ATOM     71  C   UNL A   1      38.647  29.130  28.995  1.00  0.00     0.057 A 
ATOM     72  C   UNL A   1      37.783  29.038  30.092  1.00  0.00     0.134 A 
ATOM     73  C   UNL A   1      38.111  29.604  27.792  1.00  0.00     0.134 A 
ATOM     74  F   UNL A   1      38.232  28.576  31.269  1.00  0.00    -0.206 F 
ATOM     75  C   UNL A   1      36.432  29.377  29.992  1.00  0.00     0.040 A 
ATOM     76  C   UNL A   1      36.768  29.974  27.685  1.00  0.00     0.040 A 
ATOM     77  F   UNL A   1      38.888  29.728  26.706  1.00  0.00    -0.206 F 
ATOM     78  C   UNL A   1      35.923  29.852  28.785  1.00  0.00     0.006 A 
ENDBRANCH  50  71
BRANCH  62  79
ATOM     79  C   UNL A   1      44.329  32.298  31.508  1.00  0.00     0.057 A 
ATOM     80  C   UNL A   1      44.625  33.395  30.690  1.00  0.00     0.134 A 
ATOM     81  C   UNL A   1      44.182  32.533  32.881  1.00  0.00     0.134 A 
ATOM     82  F   UNL A   1      44.790  33.235  29.369  1.00  0.00    -0.206 F 
ATOM     83  C   UNL A   1      44.779  34.676  31.223  1.00  0.00     0.040 A 
ATOM     84  C   UNL A   1      44.304  33.813  33.420  1.00  0.00     0.040 A 
ATOM     85  F   UNL A   1      43.888  31.524  33.716  1.00  0.00    -0.206 F 
ATOM     86  C   UNL A   1      44.607  34.889  32.590  1.00  0.00     0.006 A 
ENDBRANCH  62  79
ENDBRANCH  36  37
ENDBRANCH  28  31
ENDBRANCH  26  27
ENDBRANCH  25  26
ENDBRANCH   1  25
TORSDOF 16
ENDMDL
