MODEL 1
REMARK VINA RESULT:     -11.8      0.000      0.000
REMARK SMILES C[C@@H]1[NH2+]CC[C@H]1C(=O)N[C@@H]1CCC[C@H](C(=O)NCCCNC(=O)c2ccc(-c3c4nc(c(-c5c(F)cccc5F)c5ccc([nH]5)c(-c5c(F)cccc5F)c5nc(c(-c6c(F)cccc6F)c6ccc3[nH]6)C=C5)C=C4)cc2)C1
REMARK SMILES IDX 19 1 18 2 17 3 15 4 16 5 14 7 10 8 11 9 78 10 12 11 13 12
REMARK SMILES IDX 9 13 7 14 8 15 6 17 1 18 2 19 3 20 4 21 5 24 20 25 21 26
REMARK SMILES IDX 22 27 23 29 24 30 25 31 77 32 26 33 76 34 27 35 28 36 29 37
REMARK SMILES IDX 70 38 30 39 75 40 69 41 71 42 31 43 74 44 68 45 67 46 32 48
REMARK SMILES IDX 58 49 41 50 57 51 42 52 45 53 56 54 72 55 43 56 44 57 55 59
REMARK SMILES IDX 73 60 46 61 33 62 34 63 39 64 35 65 36 66 38 67 40 68 37 69
REMARK SMILES IDX 59 70 60 71 65 72 61 73 62 74 64 75 66 76 63 77 47 78 48 79
REMARK SMILES IDX 53 80 49 81 50 82 52 83 54 84 51 85
REMARK H PARENT 17 6 9 16 3 22 3 23 21 28 71 47 45 58
REMARK Flexibility Score: inf
ROOT
ATOM      1  C   UNL A   1      39.031  20.133  25.211  1.00  0.00     0.042 C 
ENDROOT
BRANCH   1   2
ATOM      2  C   UNL A   1      38.446  21.468  25.635  1.00  0.00     0.117 C 
BRANCH   2   3
ATOM      3  N   UNL A   1      37.796  22.155  24.524  1.00  0.00    -0.356 N 
ATOM      4  C   UNL A   1      36.568  22.735  24.409  1.00  0.00     0.223 C 
ATOM      5  O   UNL A   1      36.273  23.226  23.317  1.00  0.00    -0.275 OA
ATOM      6  H   UNL A   1      38.345  22.210  23.709  1.00  0.00     0.163 HD
BRANCH   4   7
ATOM      7  C   UNL A   1      35.618  22.864  25.598  1.00  0.00     0.080 C 
ATOM      8  C   UNL A   1      33.892  21.300  26.820  1.00  0.00     0.082 C 
ATOM      9  C   UNL A   1      32.858  22.400  26.512  1.00  0.00     0.025 C 
ATOM     10  C   UNL A   1      35.139  21.464  25.979  1.00  0.00     0.038 C 
ATOM     11  C   UNL A   1      33.460  23.800  26.469  1.00  0.00     0.003 C 
ATOM     12  C   UNL A   1      34.527  23.903  25.389  1.00  0.00     0.013 C 
BRANCH   8  13
ATOM     13  N   UNL A   1      33.216  19.987  26.667  1.00  0.00    -0.353 N 
ATOM     14  C   UNL A   1      32.974  19.039  25.729  1.00  0.00     0.229 C 
ATOM     15  O   UNL A   1      32.450  18.008  26.176  1.00  0.00    -0.275 OA
ATOM     16  H   UNL A   1      32.813  19.717  27.524  1.00  0.00     0.163 HD
BRANCH  14  17
ATOM     17  C   UNL A   1      33.215  19.117  24.221  1.00  0.00     0.142 C 
ATOM     18  C   UNL A   1      33.969  17.006  22.983  1.00  0.00     0.076 C 
ATOM     19  C   UNL A   1      32.798  17.871  23.445  1.00  0.00     0.192 C 
ATOM     20  N   UNL A   1      32.066  18.309  22.251  1.00  0.00    -0.343 N 
ATOM     21  C   UNL A   1      32.028  19.770  22.215  1.00  0.00     0.261 C 
ATOM     22  H   UNL A   1      31.113  17.945  22.282  1.00  0.00     0.346 HD
ATOM     23  H   UNL A   1      32.535  17.959  21.415  1.00  0.00     0.346 HD
ATOM     24  C   UNL A   1      32.609  20.310  23.511  1.00  0.00     0.081 C 
ENDBRANCH  14  17
ENDBRANCH   8  13
ENDBRANCH   4   7
ENDBRANCH   2   3
ENDBRANCH   1   2
BRANCH   1  25
ATOM     25  C   UNL A   1      39.763  19.413  26.336  1.00  0.00     0.118 C 
BRANCH  25  26
ATOM     26  N   UNL A   1      41.103  18.985  25.956  1.00  0.00    -0.352 N 
ATOM     27  C   UNL A   1      42.282  19.686  25.917  1.00  0.00     0.251 C 
ATOM     28  H   UNL A   1      41.174  18.041  25.684  1.00  0.00     0.163 HD
ATOM     29  O   UNL A   1      43.273  19.170  25.397  1.00  0.00    -0.269 OA
BRANCH  27  30
ATOM     30  C   UNL A   1      42.372  21.060  26.458  1.00  0.00     0.039 A 
ATOM     31  C   UNL A   1      42.172  21.255  27.827  1.00  0.00     0.014 A 
ATOM     32  C   UNL A   1      42.634  22.157  25.633  1.00  0.00     0.014 A 
ATOM     33  C   UNL A   1      42.309  22.532  28.374  1.00  0.00     0.010 A 
ATOM     34  C   UNL A   1      42.874  23.410  26.194  1.00  0.00     0.010 A 
ATOM     35  C   UNL A   1      42.707  23.614  27.569  1.00  0.00    -0.014 A 
BRANCH  35  36
ATOM     36  C   UNL A   1      42.960  24.950  28.169  1.00  0.00     0.031 A 
ATOM     37  C   UNL A   1      44.347  25.351  28.598  1.00  0.00     0.074 A 
ATOM     38  C   UNL A   1      41.928  25.796  28.355  1.00  0.00     0.049 A 
ATOM     39  N   UNL A   1      44.753  26.478  29.127  1.00  0.00    -0.248 NA
ATOM     40  C   UNL A   1      45.412  24.349  28.438  1.00  0.00     0.031 C 
ATOM     41  C   UNL A   1      40.525  25.500  28.051  1.00  0.00     0.029 A 
ATOM     42  N   UNL A   1      41.895  27.078  28.842  1.00  0.00    -0.354 N 
ATOM     43  C   UNL A   1      46.114  26.320  29.356  1.00  0.00     0.074 A 
ATOM     44  C   UNL A   1      46.452  24.967  28.979  1.00  0.00     0.031 C 
ATOM     45  C   UNL A   1      39.778  26.581  28.321  1.00  0.00     0.029 A 
ATOM     46  C   UNL A   1      40.638  27.633  28.850  1.00  0.00     0.049 A 
ATOM     47  H   UNL A   1      42.698  27.556  29.156  1.00  0.00     0.167 HD
ATOM     48  C   UNL A   1      47.010  27.232  29.808  1.00  0.00     0.037 A 
ATOM     49  C   UNL A   1      40.224  28.854  29.238  1.00  0.00     0.037 A 
ATOM     50  C   UNL A   1      46.675  28.583  30.174  1.00  0.00     0.049 A 
ATOM     51  C   UNL A   1      41.240  29.848  29.729  1.00  0.00     0.074 A 
ATOM     52  C   UNL A   1      47.516  29.593  30.607  1.00  0.00     0.029 A 
ATOM     53  N   UNL A   1      45.393  29.114  30.151  1.00  0.00    -0.354 N 
ATOM     54  N   UNL A   1      42.536  29.706  29.870  1.00  0.00    -0.248 NA
ATOM     55  C   UNL A   1      40.736  31.177  30.101  1.00  0.00     0.031 C 
ATOM     56  C   UNL A   1      46.738  30.722  30.886  1.00  0.00     0.029 A 
ATOM     57  C   UNL A   1      45.419  30.432  30.577  1.00  0.00     0.049 A 
ATOM     58  H   UNL A   1      44.585  28.625  29.874  1.00  0.00     0.167 HD
ATOM     59  C   UNL A   1      43.004  30.931  30.328  1.00  0.00     0.074 A 
ATOM     60  C   UNL A   1      41.857  31.812  30.409  1.00  0.00     0.031 C 
ATOM     61  C   UNL A   1      44.268  31.293  30.659  1.00  0.00     0.037 A 
BRANCH  48  62
ATOM     62  C   UNL A   1      48.445  26.800  29.910  1.00  0.00     0.057 A 
ATOM     63  C   UNL A   1      49.353  27.019  28.865  1.00  0.00     0.134 A 
ATOM     64  C   UNL A   1      48.937  26.203  31.077  1.00  0.00     0.134 A 
ATOM     65  F   UNL A   1      48.945  27.574  27.714  1.00  0.00    -0.206 F 
ATOM     66  C   UNL A   1      50.694  26.640  28.969  1.00  0.00     0.040 A 
ATOM     67  C   UNL A   1      50.281  25.847  31.203  1.00  0.00     0.040 A 
ATOM     68  F   UNL A   1      48.125  25.969  32.119  1.00  0.00    -0.206 F 
ATOM     69  C   UNL A   1      51.162  26.059  30.145  1.00  0.00     0.006 A 
ENDBRANCH  48  62
BRANCH  49  70
ATOM     70  C   UNL A   1      38.785  29.214  29.162  1.00  0.00     0.057 A 
ATOM     71  C   UNL A   1      37.952  29.125  30.282  1.00  0.00     0.134 A 
ATOM     72  C   UNL A   1      38.203  29.637  27.960  1.00  0.00     0.134 A 
ATOM     73  F   UNL A   1      38.444  28.711  31.459  1.00  0.00    -0.206 F 
ATOM     74  C   UNL A   1      36.588  29.415  30.206  1.00  0.00     0.040 A 
ATOM     75  C   UNL A   1      36.848  29.959  27.875  1.00  0.00     0.040 A 
ATOM     76  F   UNL A   1      38.949  29.753  26.851  1.00  0.00    -0.206 F 
ATOM     77  C   UNL A   1      36.034  29.837  28.999  1.00  0.00     0.006 A 
ENDBRANCH  49  70
BRANCH  61  78
ATOM     78  C   UNL A   1      44.470  32.708  31.118  1.00  0.00     0.057 A 
ATOM     79  C   UNL A   1      44.408  33.063  32.473  1.00  0.00     0.134 A 
ATOM     80  C   UNL A   1      44.732  33.730  30.196  1.00  0.00     0.134 A 
ATOM     81  F   UNL A   1      44.146  32.135  33.407  1.00  0.00    -0.206 F 
ATOM     82  C   UNL A   1      44.559  34.387  32.889  1.00  0.00     0.040 A 
ATOM     83  C   UNL A   1      44.917  35.051  30.603  1.00  0.00     0.040 A 
ATOM     84  F   UNL A   1      44.817  33.458  28.884  1.00  0.00    -0.206 F 
ATOM     85  C   UNL A   1      44.819  35.385  31.952  1.00  0.00     0.006 A 
ENDBRANCH  61  78
ENDBRANCH  35  36
ENDBRANCH  27  30
ENDBRANCH  25  26
ENDBRANCH   1  25
TORSDOF 12
ENDMDL
MODEL 2
REMARK VINA RESULT:     -11.8      2.034      3.764
REMARK SMILES C[C@@H]1[NH2+]CC[C@H]1C(=O)N[C@@H]1CCC[C@H](C(=O)NCCCNC(=O)c2ccc(-c3c4nc(c(-c5c(F)cccc5F)c5ccc([nH]5)c(-c5c(F)cccc5F)c5nc(c(-c6c(F)cccc6F)c6ccc3[nH]6)C=C5)C=C4)cc2)C1
REMARK SMILES IDX 19 1 18 2 17 3 15 4 16 5 14 7 10 8 11 9 78 10 12 11 13 12
REMARK SMILES IDX 9 13 7 14 8 15 6 17 1 18 2 19 3 20 4 21 5 24 20 25 21 26
REMARK SMILES IDX 22 27 23 29 24 30 25 31 77 32 26 33 76 34 27 35 28 36 29 37
REMARK SMILES IDX 70 38 30 39 75 40 69 41 71 42 31 43 74 44 68 45 67 46 32 48
REMARK SMILES IDX 58 49 41 50 57 51 42 52 45 53 56 54 72 55 43 56 44 57 55 59
REMARK SMILES IDX 73 60 46 61 33 62 34 63 39 64 35 65 36 66 38 67 40 68 37 69
REMARK SMILES IDX 59 70 60 71 65 72 61 73 62 74 64 75 66 76 63 77 47 78 48 79
REMARK SMILES IDX 53 80 49 81 50 82 52 83 54 84 51 85
REMARK H PARENT 17 6 9 16 3 22 3 23 21 28 71 47 45 58
REMARK Flexibility Score: inf
ROOT
ATOM      1  C   UNL A   1      37.724  19.756  25.001  1.00  0.00     0.042 C 
ENDROOT
BRANCH   1   2
ATOM      2  C   UNL A   1      36.580  20.749  24.898  1.00  0.00     0.117 C 
BRANCH   2   3
ATOM      3  N   UNL A   1      35.324  20.182  25.376  1.00  0.00    -0.356 N 
ATOM      4  C   UNL A   1      34.029  20.571  25.204  1.00  0.00     0.223 C 
ATOM      5  O   UNL A   1      33.156  19.900  25.760  1.00  0.00    -0.275 OA
ATOM      6  H   UNL A   1      35.431  19.370  25.921  1.00  0.00     0.163 HD
BRANCH   4   7
ATOM      7  C   UNL A   1      33.646  21.732  24.289  1.00  0.00     0.080 C 
ATOM      8  C   UNL A   1      32.685  24.159  24.610  1.00  0.00     0.082 C 
ATOM      9  C   UNL A   1      31.545  23.703  23.681  1.00  0.00     0.025 C 
ATOM     10  C   UNL A   1      33.462  22.979  25.152  1.00  0.00     0.038 C 
ATOM     11  C   UNL A   1      31.980  22.660  22.658  1.00  0.00     0.003 C 
ATOM     12  C   UNL A   1      32.498  21.404  23.345  1.00  0.00     0.013 C 
BRANCH   8  13
ATOM     13  N   UNL A   1      32.096  25.037  25.653  1.00  0.00    -0.353 N 
ATOM     14  C   UNL A   1      32.178  26.307  26.120  1.00  0.00     0.229 C 
ATOM     15  O   UNL A   1      31.320  26.589  26.970  1.00  0.00    -0.275 OA
ATOM     16  H   UNL A   1      31.431  24.533  26.176  1.00  0.00     0.163 HD
BRANCH  14  17
ATOM     17  C   UNL A   1      33.209  27.379  25.769  1.00  0.00     0.142 C 
ATOM     18  C   UNL A   1      33.701  27.855  23.301  1.00  0.00     0.076 C 
ATOM     19  C   UNL A   1      32.870  28.207  24.533  1.00  0.00     0.192 C 
ATOM     20  N   UNL A   1      33.123  29.617  24.855  1.00  0.00    -0.343 N 
ATOM     21  C   UNL A   1      33.636  29.719  26.219  1.00  0.00     0.261 C 
ATOM     22  H   UNL A   1      32.253  30.145  24.779  1.00  0.00     0.346 HD
ATOM     23  H   UNL A   1      33.809  29.999  24.203  1.00  0.00     0.346 HD
ATOM     24  C   UNL A   1      33.563  28.350  26.876  1.00  0.00     0.081 C 
ENDBRANCH  14  17
ENDBRANCH   8  13
ENDBRANCH   4   7
ENDBRANCH   2   3
ENDBRANCH   1   2
BRANCH   1  25
ATOM     25  C   UNL A   1      38.948  20.321  25.710  1.00  0.00     0.118 C 
BRANCH  25  26
ATOM     26  N   UNL A   1      40.049  19.370  25.783  1.00  0.00    -0.352 N 
ATOM     27  C   UNL A   1      41.369  19.562  26.103  1.00  0.00     0.251 C 
ATOM     28  H   UNL A   1      39.807  18.440  25.568  1.00  0.00     0.163 HD
ATOM     29  O   UNL A   1      42.171  18.641  25.935  1.00  0.00    -0.269 OA
BRANCH  27  30
ATOM     30  C   UNL A   1      41.849  20.864  26.616  1.00  0.00     0.039 A 
ATOM     31  C   UNL A   1      42.256  21.836  25.698  1.00  0.00     0.014 A 
ATOM     32  C   UNL A   1      41.921  21.132  27.985  1.00  0.00     0.014 A 
ATOM     33  C   UNL A   1      42.659  23.094  26.152  1.00  0.00     0.010 A 
ATOM     34  C   UNL A   1      42.221  22.418  28.431  1.00  0.00     0.010 A 
ATOM     35  C   UNL A   1      42.601  23.411  27.520  1.00  0.00    -0.014 A 
BRANCH  35  36
ATOM     36  C   UNL A   1      42.924  24.783  27.993  1.00  0.00     0.031 A 
ATOM     37  C   UNL A   1      44.351  25.201  28.225  1.00  0.00     0.074 A 
ATOM     38  C   UNL A   1      41.920  25.647  28.243  1.00  0.00     0.049 A 
ATOM     39  N   UNL A   1      44.817  26.359  28.623  1.00  0.00    -0.248 NA
ATOM     40  C   UNL A   1      45.391  24.183  28.007  1.00  0.00     0.031 C 
ATOM     41  C   UNL A   1      40.492  25.341  28.129  1.00  0.00     0.029 A 
ATOM     42  N   UNL A   1      41.945  26.960  28.642  1.00  0.00    -0.354 N 
ATOM     43  C   UNL A   1      46.196  26.208  28.698  1.00  0.00     0.074 A 
ATOM     44  C   UNL A   1      46.487  24.829  28.377  1.00  0.00     0.031 C 
ATOM     45  C   UNL A   1      39.781  26.443  28.413  1.00  0.00     0.029 A 
ATOM     46  C   UNL A   1      40.697  27.523  28.762  1.00  0.00     0.049 A 
ATOM     47  H   UNL A   1      42.779  27.452  28.824  1.00  0.00     0.167 HD
ATOM     48  C   UNL A   1      47.138  27.141  28.976  1.00  0.00     0.037 A 
ATOM     49  C   UNL A   1      40.332  28.769  29.113  1.00  0.00     0.037 A 
ATOM     50  C   UNL A   1      46.849  28.516  29.287  1.00  0.00     0.049 A 
ATOM     51  C   UNL A   1      41.398  29.788  29.410  1.00  0.00     0.074 A 
ATOM     52  C   UNL A   1      47.734  29.547  29.547  1.00  0.00     0.029 A 
ATOM     53  N   UNL A   1      45.573  29.054  29.381  1.00  0.00    -0.354 N 
ATOM     54  N   UNL A   1      42.702  29.646  29.404  1.00  0.00    -0.248 NA
ATOM     55  C   UNL A   1      40.941  31.143  29.748  1.00  0.00     0.031 C 
ATOM     56  C   UNL A   1      46.995  30.698  29.839  1.00  0.00     0.029 A 
ATOM     57  C   UNL A   1      45.648  30.397  29.711  1.00  0.00     0.049 A 
ATOM     58  H   UNL A   1      44.737  28.553  29.237  1.00  0.00     0.167 HD
ATOM     59  C   UNL A   1      43.220  30.896  29.719  1.00  0.00     0.074 A 
ATOM     60  C   UNL A   1      42.091  31.788  29.876  1.00  0.00     0.031 C 
ATOM     61  C   UNL A   1      44.514  31.271  29.870  1.00  0.00     0.037 A 
BRANCH  48  62
ATOM     62  C   UNL A   1      48.576  26.707  28.936  1.00  0.00     0.057 A 
ATOM     63  C   UNL A   1      49.188  26.093  30.038  1.00  0.00     0.134 A 
ATOM     64  C   UNL A   1      49.343  26.860  27.775  1.00  0.00     0.134 A 
ATOM     65  F   UNL A   1      48.514  25.928  31.186  1.00  0.00    -0.206 F 
ATOM     66  C   UNL A   1      50.518  25.668  29.993  1.00  0.00     0.040 A 
ATOM     67  C   UNL A   1      50.664  26.412  27.709  1.00  0.00     0.040 A 
ATOM     68  F   UNL A   1      48.819  27.433  26.681  1.00  0.00    -0.206 F 
ATOM     69  C   UNL A   1      51.257  25.819  28.823  1.00  0.00     0.006 A 
ENDBRANCH  48  62
BRANCH  49  70
ATOM     70  C   UNL A   1      38.893  29.134  29.185  1.00  0.00     0.057 A 
ATOM     71  C   UNL A   1      38.176  29.034  30.382  1.00  0.00     0.134 A 
ATOM     72  C   UNL A   1      38.197  29.574  28.052  1.00  0.00     0.134 A 
ATOM     73  F   UNL A   1      38.781  28.604  31.498  1.00  0.00    -0.206 F 
ATOM     74  C   UNL A   1      36.812  29.328  30.445  1.00  0.00     0.040 A 
ATOM     75  C   UNL A   1      36.841  29.900  28.107  1.00  0.00     0.040 A 
ATOM     76  F   UNL A   1      38.829  29.702  26.876  1.00  0.00    -0.206 F 
ATOM     77  C   UNL A   1      36.142  29.766  29.305  1.00  0.00     0.006 A 
ENDBRANCH  49  70
BRANCH  61  78
ATOM     78  C   UNL A   1      44.768  32.712  30.205  1.00  0.00     0.057 A 
ATOM     79  C   UNL A   1      44.878  33.694  29.211  1.00  0.00     0.134 A 
ATOM     80  C   UNL A   1      44.903  33.124  31.537  1.00  0.00     0.134 A 
ATOM     81  F   UNL A   1      44.773  33.365  27.915  1.00  0.00    -0.206 F 
ATOM     82  C   UNL A   1      45.151  35.026  29.528  1.00  0.00     0.040 A 
ATOM     83  C   UNL A   1      45.143  34.458  31.868  1.00  0.00     0.040 A 
ATOM     84  F   UNL A   1      44.797  32.237  32.539  1.00  0.00    -0.206 F 
ATOM     85  C   UNL A   1      45.280  35.412  30.861  1.00  0.00     0.006 A 
ENDBRANCH  61  78
ENDBRANCH  35  36
ENDBRANCH  27  30
ENDBRANCH  25  26
ENDBRANCH   1  25
TORSDOF 12
ENDMDL
MODEL 3
REMARK VINA RESULT:     -11.7      1.874      3.378
REMARK SMILES C[C@@H]1[NH2+]CC[C@H]1C(=O)N[C@@H]1CCC[C@H](C(=O)NCCCNC(=O)c2ccc(-c3c4nc(c(-c5c(F)cccc5F)c5ccc([nH]5)c(-c5c(F)cccc5F)c5nc(c(-c6c(F)cccc6F)c6ccc3[nH]6)C=C5)C=C4)cc2)C1
REMARK SMILES IDX 19 1 18 2 17 3 15 4 16 5 14 7 10 8 11 9 78 10 12 11 13 12
REMARK SMILES IDX 9 13 7 14 8 15 6 17 1 18 2 19 3 20 4 21 5 24 20 25 21 26
REMARK SMILES IDX 22 27 23 29 24 30 25 31 77 32 26 33 76 34 27 35 28 36 29 37
REMARK SMILES IDX 70 38 30 39 75 40 69 41 71 42 31 43 74 44 68 45 67 46 32 48
REMARK SMILES IDX 58 49 41 50 57 51 42 52 45 53 56 54 72 55 43 56 44 57 55 59
REMARK SMILES IDX 73 60 46 61 33 62 34 63 39 64 35 65 36 66 38 67 40 68 37 69
REMARK SMILES IDX 59 70 60 71 65 72 61 73 62 74 64 75 66 76 63 77 47 78 48 79
REMARK SMILES IDX 53 80 49 81 50 82 52 83 54 84 51 85
REMARK H PARENT 17 6 9 16 3 22 3 23 21 28 71 47 45 58
REMARK Flexibility Score: inf
ROOT
ATOM      1  C   UNL A   1      37.748  19.990  24.617  1.00  0.00     0.042 C 
ENDROOT
BRANCH   1   2
ATOM      2  C   UNL A   1      36.292  20.122  25.027  1.00  0.00     0.117 C 
BRANCH   2   3
ATOM      3  N   UNL A   1      36.077  21.264  25.909  1.00  0.00    -0.356 N 
ATOM      4  C   UNL A   1      35.013  22.101  26.068  1.00  0.00     0.223 C 
ATOM      5  O   UNL A   1      35.127  23.015  26.888  1.00  0.00    -0.275 OA
ATOM      6  H   UNL A   1      36.839  21.466  26.499  1.00  0.00     0.163 HD
BRANCH   4   7
ATOM      7  C   UNL A   1      33.690  21.877  25.338  1.00  0.00     0.080 C 
ATOM      8  C   UNL A   1      32.559  22.793  23.147  1.00  0.00     0.082 C 
ATOM      9  C   UNL A   1      31.404  23.230  24.068  1.00  0.00     0.025 C 
ATOM     10  C   UNL A   1      33.809  22.482  23.940  1.00  0.00     0.038 C 
ATOM     11  C   UNL A   1      31.222  22.323  25.279  1.00  0.00     0.003 C 
ATOM     12  C   UNL A   1      32.474  22.309  26.144  1.00  0.00     0.013 C 
BRANCH   8  13
ATOM     13  N   UNL A   1      32.734  23.842  22.111  1.00  0.00    -0.353 N 
ATOM     14  C   UNL A   1      32.834  25.189  21.993  1.00  0.00     0.229 C 
ATOM     15  O   UNL A   1      33.126  25.576  20.852  1.00  0.00    -0.275 OA
ATOM     16  H   UNL A   1      32.798  23.425  21.221  1.00  0.00     0.163 HD
BRANCH  14  17
ATOM     17  C   UNL A   1      32.580  26.254  23.061  1.00  0.00     0.142 C 
ATOM     18  C   UNL A   1      33.596  25.932  25.389  1.00  0.00     0.076 C 
ATOM     19  C   UNL A   1      33.761  26.518  23.989  1.00  0.00     0.192 C 
ATOM     20  N   UNL A   1      33.906  27.973  24.127  1.00  0.00    -0.343 N 
ATOM     21  C   UNL A   1      32.855  28.640  23.361  1.00  0.00     0.261 C 
ATOM     22  H   UNL A   1      34.819  28.260  23.773  1.00  0.00     0.346 HD
ATOM     23  H   UNL A   1      33.828  28.232  25.111  1.00  0.00     0.346 HD
ATOM     24  C   UNL A   1      32.094  27.598  22.559  1.00  0.00     0.081 C 
ENDBRANCH  14  17
ENDBRANCH   8  13
ENDBRANCH   4   7
ENDBRANCH   2   3
ENDBRANCH   1   2
BRANCH   1  25
ATOM     25  C   UNL A   1      38.720  20.255  25.759  1.00  0.00     0.118 C 
BRANCH  25  26
ATOM     26  N   UNL A   1      39.836  19.319  25.781  1.00  0.00    -0.352 N 
ATOM     27  C   UNL A   1      41.156  19.517  26.097  1.00  0.00     0.251 C 
ATOM     28  H   UNL A   1      39.606  18.396  25.528  1.00  0.00     0.163 HD
ATOM     29  O   UNL A   1      41.970  18.617  25.882  1.00  0.00    -0.269 OA
BRANCH  27  30
ATOM     30  C   UNL A   1      41.622  20.803  26.661  1.00  0.00     0.039 A 
ATOM     31  C   UNL A   1      42.085  21.790  25.786  1.00  0.00     0.014 A 
ATOM     32  C   UNL A   1      41.625  21.042  28.037  1.00  0.00     0.014 A 
ATOM     33  C   UNL A   1      42.476  23.033  26.286  1.00  0.00     0.010 A 
ATOM     34  C   UNL A   1      41.915  22.315  28.525  1.00  0.00     0.010 A 
ATOM     35  C   UNL A   1      42.351  23.323  27.656  1.00  0.00    -0.014 A 
BRANCH  35  36
ATOM     36  C   UNL A   1      42.662  24.681  28.173  1.00  0.00     0.031 A 
ATOM     37  C   UNL A   1      44.073  25.063  28.533  1.00  0.00     0.074 A 
ATOM     38  C   UNL A   1      41.660  25.566  28.348  1.00  0.00     0.049 A 
ATOM     39  N   UNL A   1      44.529  26.205  28.986  1.00  0.00    -0.248 NA
ATOM     40  C   UNL A   1      45.104  24.023  28.392  1.00  0.00     0.031 C 
ATOM     41  C   UNL A   1      40.240  25.294  28.108  1.00  0.00     0.029 A 
ATOM     42  N   UNL A   1      41.680  26.872  28.766  1.00  0.00    -0.354 N 
ATOM     43  C   UNL A   1      45.892  26.020  29.178  1.00  0.00     0.074 A 
ATOM     44  C   UNL A   1      46.179  24.639  28.863  1.00  0.00     0.031 C 
ATOM     45  C   UNL A   1      39.532  26.410  28.344  1.00  0.00     0.029 A 
ATOM     46  C   UNL A   1      40.439  27.463  28.786  1.00  0.00     0.049 A 
ATOM     47  H   UNL A   1      42.506  27.342  29.026  1.00  0.00     0.167 HD
ATOM     48  C   UNL A   1      46.827  26.928  29.548  1.00  0.00     0.037 A 
ATOM     49  C   UNL A   1      40.073  28.714  29.121  1.00  0.00     0.037 A 
ATOM     50  C   UNL A   1      46.543  28.306  29.852  1.00  0.00     0.049 A 
ATOM     51  C   UNL A   1      41.132  29.704  29.523  1.00  0.00     0.074 A 
ATOM     52  C   UNL A   1      47.426  29.313  30.201  1.00  0.00     0.029 A 
ATOM     53  N   UNL A   1      45.276  28.872  29.844  1.00  0.00    -0.354 N 
ATOM     54  N   UNL A   1      42.428  29.531  29.627  1.00  0.00    -0.248 NA
ATOM     55  C   UNL A   1      40.678  31.065  29.838  1.00  0.00     0.031 C 
ATOM     56  C   UNL A   1      46.689  30.477  30.444  1.00  0.00     0.029 A 
ATOM     57  C   UNL A   1      45.353  30.209  30.196  1.00  0.00     0.049 A 
ATOM     58  H   UNL A   1      44.445  28.393  29.620  1.00  0.00     0.167 HD
ATOM     59  C   UNL A   1      42.945  30.765  30.002  1.00  0.00     0.074 A 
ATOM     60  C   UNL A   1      41.826  31.681  30.074  1.00  0.00     0.031 C 
ATOM     61  C   UNL A   1      44.229  31.107  30.270  1.00  0.00     0.037 A 
BRANCH  48  62
ATOM     62  C   UNL A   1      48.253  26.461  29.626  1.00  0.00     0.057 A 
ATOM     63  C   UNL A   1      48.775  25.891  30.796  1.00  0.00     0.134 A 
ATOM     64  C   UNL A   1      49.099  26.536  28.513  1.00  0.00     0.134 A 
ATOM     65  F   UNL A   1      48.024  25.801  31.903  1.00  0.00    -0.206 F 
ATOM     66  C   UNL A   1      50.094  25.435  30.862  1.00  0.00     0.040 A 
ATOM     67  C   UNL A   1      50.409  26.056  28.558  1.00  0.00     0.040 A 
ATOM     68  F   UNL A   1      48.663  27.064  27.359  1.00  0.00    -0.206 F 
ATOM     69  C   UNL A   1      50.912  25.510  29.737  1.00  0.00     0.006 A 
ENDBRANCH  48  62
BRANCH  49  70
ATOM     70  C   UNL A   1      38.642  29.112  29.074  1.00  0.00     0.057 A 
ATOM     71  C   UNL A   1      38.063  29.614  27.902  1.00  0.00     0.134 A 
ATOM     72  C   UNL A   1      37.823  29.017  30.206  1.00  0.00     0.134 A 
ATOM     73  F   UNL A   1      38.799  29.744  26.789  1.00  0.00    -0.206 F 
ATOM     74  C   UNL A   1      36.733  30.035  27.865  1.00  0.00     0.040 A 
ATOM     75  C   UNL A   1      36.484  29.407  30.176  1.00  0.00     0.040 A 
ATOM     76  F   UNL A   1      38.313  28.534  31.357  1.00  0.00    -0.206 F 
ATOM     77  C   UNL A   1      35.939  29.929  29.005  1.00  0.00     0.006 A 
ENDBRANCH  49  70
BRANCH  61  78
ATOM     78  C   UNL A   1      44.485  32.538  30.645  1.00  0.00     0.057 A 
ATOM     79  C   UNL A   1      44.483  32.965  31.980  1.00  0.00     0.134 A 
ATOM     80  C   UNL A   1      44.740  33.501  29.660  1.00  0.00     0.134 A 
ATOM     81  F   UNL A   1      44.232  32.096  32.971  1.00  0.00    -0.206 F 
ATOM     82  C   UNL A   1      44.686  34.304  32.318  1.00  0.00     0.040 A 
ATOM     83  C   UNL A   1      44.976  34.836  29.988  1.00  0.00     0.040 A 
ATOM     84  F   UNL A   1      44.769  33.158  28.363  1.00  0.00    -0.206 F 
ATOM     85  C   UNL A   1      44.937  35.244  31.320  1.00  0.00     0.006 A 
ENDBRANCH  61  78
ENDBRANCH  35  36
ENDBRANCH  27  30
ENDBRANCH  25  26
ENDBRANCH   1  25
TORSDOF 12
ENDMDL
