MODEL 1
REMARK VINA RESULT:     -11.8      0.000      0.000
REMARK SMILES CN(C(=O)N[C@@H]1C=C[C@@H](C(=O)NCCCNC(=O)c2ccc(-c3c4nc(c(-c5c(F)cccc5F)c5ccc([nH]5)c(-c5c(F)cccc5F)c5nc(c(-c6c(F)cccc6F)c6ccc3[nH]6)C=C5)C=C4)cc2)C1)[C@H]1CCS(=O)(=O)C1
REMARK SMILES IDX 13 1 12 2 10 3 11 4 9 6 6 7 7 8 73 9 8 10 5 11 3 12 4 13
REMARK SMILES IDX 2 15 1 16 74 17 75 18 80 19 76 20 77 21 78 22 79 23 14 24
REMARK SMILES IDX 15 25 16 26 17 27 18 29 19 30 20 31 72 32 21 33 71 34 22 35
REMARK SMILES IDX 23 36 24 37 65 38 25 39 70 40 64 41 66 42 26 43 69 44 63 45
REMARK SMILES IDX 62 46 27 48 53 49 36 50 52 51 37 52 40 53 51 54 67 55 38 56
REMARK SMILES IDX 39 57 50 59 68 60 41 61 28 62 29 63 34 64 30 65 31 66 33 67
REMARK SMILES IDX 35 68 32 69 54 70 55 71 60 72 56 73 57 74 59 75 61 76 58 77
REMARK SMILES IDX 42 78 43 79 48 80 44 81 45 82 47 83 49 84 46 85
REMARK H PARENT 12 5 5 14 16 28 66 47 40 58
REMARK Flexibility Score: inf
ROOT
ATOM      1  C   UNL A   1      31.526  30.464  26.895  1.00  0.00     0.117 C 
ENDROOT
BRANCH   1   2
ATOM      2  N   UNL A   1      32.829  29.965  27.287  1.00  0.00    -0.356 N 
ATOM      3  C   UNL A   1      33.559  28.901  26.857  1.00  0.00     0.227 C 
ATOM      4  O   UNL A   1      34.697  28.787  27.323  1.00  0.00    -0.274 OA
ATOM      5  H   UNL A   1      33.266  30.491  27.994  1.00  0.00     0.163 HD
BRANCH   3   6
ATOM      6  C   UNL A   1      33.011  27.827  25.910  1.00  0.00     0.103 C 
ATOM      7  C   UNL A   1      34.024  27.047  23.793  1.00  0.00     0.107 C 
ATOM      8  C   UNL A   1      34.067  26.006  24.870  1.00  0.00    -0.006 C 
ATOM      9  C   UNL A   1      33.220  28.186  24.439  1.00  0.00     0.047 C 
ATOM     10  C   UNL A   1      33.566  26.446  26.030  1.00  0.00    -0.016 C 
BRANCH   7  11
ATOM     11  N   UNL A   1      33.389  26.505  22.613  1.00  0.00    -0.332 N 
ATOM     12  C   UNL A   1      32.126  26.245  22.226  1.00  0.00     0.317 C 
ATOM     13  O   UNL A   1      32.018  25.823  21.071  1.00  0.00    -0.249 OA
ATOM     14  H   UNL A   1      34.045  26.267  21.919  1.00  0.00     0.165 HD
BRANCH  12  15
ATOM     15  N   UNL A   1      31.020  26.421  23.036  1.00  0.00    -0.324 N 
ATOM     16  C   UNL A   1      30.586  25.445  24.025  1.00  0.00     0.149 C 
BRANCH  15  17
ATOM     17  C   UNL A   1      30.013  27.434  22.588  1.00  0.00     0.102 C 
ATOM     18  C   UNL A   1      28.756  27.526  23.484  1.00  0.00     0.042 C 
ATOM     19  C   UNL A   1      30.552  28.875  22.543  1.00  0.00     0.162 C 
ATOM     20  C   UNL A   1      27.936  28.719  23.035  1.00  0.00     0.139 C 
ATOM     21  S   UNL A   1      29.115  29.927  22.492  1.00  0.00     0.152 S 
ATOM     22  O   UNL A   1      28.811  30.255  21.114  1.00  0.00    -0.229 OA
ATOM     23  O   UNL A   1      29.240  30.941  23.517  1.00  0.00    -0.229 OA
ENDBRANCH  15  17
ENDBRANCH  12  15
ENDBRANCH   7  11
ENDBRANCH   3   6
ENDBRANCH   1   2
BRANCH   1  24
ATOM     24  C   UNL A   1      31.505  31.978  26.708  1.00  0.00     0.042 C 
BRANCH  24  25
ATOM     25  C   UNL A   1      32.727  32.697  27.274  1.00  0.00     0.118 C 
BRANCH  25  26
ATOM     26  N   UNL A   1      32.455  34.087  27.617  1.00  0.00    -0.352 N 
ATOM     27  C   UNL A   1      33.023  34.902  28.566  1.00  0.00     0.251 C 
ATOM     28  H   UNL A   1      31.746  34.512  27.082  1.00  0.00     0.163 HD
ATOM     29  O   UNL A   1      32.509  35.987  28.820  1.00  0.00    -0.269 OA
BRANCH  27  30
ATOM     30  C   UNL A   1      34.233  34.474  29.300  1.00  0.00     0.039 A 
ATOM     31  C   UNL A   1      34.087  33.922  30.576  1.00  0.00     0.014 A 
ATOM     32  C   UNL A   1      35.505  34.629  28.747  1.00  0.00     0.014 A 
ATOM     33  C   UNL A   1      35.209  33.445  31.258  1.00  0.00     0.010 A 
ATOM     34  C   UNL A   1      36.612  34.086  29.394  1.00  0.00     0.010 A 
ATOM     35  C   UNL A   1      36.474  33.476  30.651  1.00  0.00    -0.014 A 
BRANCH  35  36
ATOM     36  C   UNL A   1      37.658  32.846  31.288  1.00  0.00     0.031 A 
ATOM     37  C   UNL A   1      38.291  31.626  30.680  1.00  0.00     0.074 A 
ATOM     38  C   UNL A   1      38.106  33.323  32.467  1.00  0.00     0.049 A 
ATOM     39  N   UNL A   1      39.250  30.870  31.151  1.00  0.00    -0.248 NA
ATOM     40  C   UNL A   1      37.759  31.183  29.381  1.00  0.00     0.031 C 
ATOM     41  C   UNL A   1      37.557  34.480  33.175  1.00  0.00     0.029 A 
ATOM     42  N   UNL A   1      39.115  32.880  33.287  1.00  0.00    -0.354 N 
ATOM     43  C   UNL A   1      39.427  29.859  30.216  1.00  0.00     0.074 A 
ATOM     44  C   UNL A   1      38.444  30.068  29.175  1.00  0.00     0.031 C 
ATOM     45  C   UNL A   1      38.243  34.664  34.314  1.00  0.00     0.029 A 
ATOM     46  C   UNL A   1      39.244  33.612  34.444  1.00  0.00     0.049 A 
ATOM     47  H   UNL A   1      39.690  32.112  33.067  1.00  0.00     0.167 HD
ATOM     48  C   UNL A   1      40.341  28.859  30.217  1.00  0.00     0.037 A 
ATOM     49  C   UNL A   1      40.061  33.441  35.500  1.00  0.00     0.037 A 
ATOM     50  C   UNL A   1      41.326  28.663  31.249  1.00  0.00     0.049 A 
ATOM     51  C   UNL A   1      41.034  32.294  35.499  1.00  0.00     0.074 A 
ATOM     52  C   UNL A   1      42.332  27.713  31.311  1.00  0.00     0.029 A 
ATOM     53  N   UNL A   1      41.422  29.424  32.405  1.00  0.00    -0.354 N 
ATOM     54  N   UNL A   1      41.236  31.384  34.577  1.00  0.00    -0.248 NA
ATOM     55  C   UNL A   1      41.888  32.145  36.686  1.00  0.00     0.031 C 
ATOM     56  C   UNL A   1      42.997  27.862  32.531  1.00  0.00     0.029 A 
ATOM     57  C   UNL A   1      42.446  28.941  33.204  1.00  0.00     0.049 A 
ATOM     58  H   UNL A   1      40.849  30.193  32.625  1.00  0.00     0.167 HD
ATOM     59  C   UNL A   1      42.256  30.573  35.058  1.00  0.00     0.074 A 
ATOM     60  C   UNL A   1      42.641  31.107  36.349  1.00  0.00     0.031 C 
ATOM     61  C   UNL A   1      42.821  29.483  34.485  1.00  0.00     0.037 A 
BRANCH  48  62
ATOM     62  C   UNL A   1      40.315  27.890  29.069  1.00  0.00     0.057 A 
ATOM     63  C   UNL A   1      41.096  28.082  27.921  1.00  0.00     0.134 A 
ATOM     64  C   UNL A   1      39.533  26.730  29.129  1.00  0.00     0.134 A 
ATOM     65  F   UNL A   1      41.861  29.177  27.794  1.00  0.00    -0.206 F 
ATOM     66  C   UNL A   1      41.081  27.169  26.865  1.00  0.00     0.040 A 
ATOM     67  C   UNL A   1      39.531  25.795  28.093  1.00  0.00     0.040 A 
ATOM     68  F   UNL A   1      38.767  26.479  30.202  1.00  0.00    -0.206 F 
ATOM     69  C   UNL A   1      40.302  26.016  26.954  1.00  0.00     0.006 A 
ENDBRANCH  48  62
BRANCH  49  70
ATOM     70  C   UNL A   1      39.994  34.377  36.653  1.00  0.00     0.057 A 
ATOM     71  C   UNL A   1      39.200  34.091  37.769  1.00  0.00     0.134 A 
ATOM     72  C   UNL A   1      40.713  35.580  36.665  1.00  0.00     0.134 A 
ATOM     73  F   UNL A   1      38.476  32.963  37.810  1.00  0.00    -0.206 F 
ATOM     74  C   UNL A   1      39.105  34.975  38.845  1.00  0.00     0.040 A 
ATOM     75  C   UNL A   1      40.648  36.460  37.746  1.00  0.00     0.040 A 
ATOM     76  F   UNL A   1      41.501  35.910  35.630  1.00  0.00    -0.206 F 
ATOM     77  C   UNL A   1      39.834  36.162  38.836  1.00  0.00     0.006 A 
ENDBRANCH  49  70
BRANCH  61  78
ATOM     78  C   UNL A   1      43.933  28.805  35.232  1.00  0.00     0.057 A 
ATOM     79  C   UNL A   1      43.683  27.794  36.169  1.00  0.00     0.134 A 
ATOM     80  C   UNL A   1      45.270  29.123  34.965  1.00  0.00     0.134 A 
ATOM     81  F   UNL A   1      42.423  27.452  36.480  1.00  0.00    -0.206 F 
ATOM     82  C   UNL A   1      44.723  27.134  36.823  1.00  0.00     0.040 A 
ATOM     83  C   UNL A   1      46.320  28.450  35.592  1.00  0.00     0.040 A 
ATOM     84  F   UNL A   1      45.579  30.076  34.073  1.00  0.00    -0.206 F 
ATOM     85  C   UNL A   1      46.048  27.455  36.527  1.00  0.00     0.006 A 
ENDBRANCH  61  78
ENDBRANCH  35  36
ENDBRANCH  27  30
ENDBRANCH  25  26
ENDBRANCH  24  25
ENDBRANCH   1  24
TORSDOF 13
ENDMDL
MODEL 2
REMARK VINA RESULT:     -11.8      2.424      3.665
REMARK SMILES CN(C(=O)N[C@@H]1C=C[C@@H](C(=O)NCCCNC(=O)c2ccc(-c3c4nc(c(-c5c(F)cccc5F)c5ccc([nH]5)c(-c5c(F)cccc5F)c5nc(c(-c6c(F)cccc6F)c6ccc3[nH]6)C=C5)C=C4)cc2)C1)[C@H]1CCS(=O)(=O)C1
REMARK SMILES IDX 13 1 12 2 10 3 11 4 9 6 6 7 7 8 73 9 8 10 5 11 3 12 4 13
REMARK SMILES IDX 2 15 1 16 74 17 75 18 80 19 76 20 77 21 78 22 79 23 14 24
REMARK SMILES IDX 15 25 16 26 17 27 18 29 19 30 20 31 72 32 21 33 71 34 22 35
REMARK SMILES IDX 23 36 24 37 65 38 25 39 70 40 64 41 66 42 26 43 69 44 63 45
REMARK SMILES IDX 62 46 27 48 53 49 36 50 52 51 37 52 40 53 51 54 67 55 38 56
REMARK SMILES IDX 39 57 50 59 68 60 41 61 28 62 29 63 34 64 30 65 31 66 33 67
REMARK SMILES IDX 35 68 32 69 54 70 55 71 60 72 56 73 57 74 59 75 61 76 58 77
REMARK SMILES IDX 42 78 43 79 48 80 44 81 45 82 47 83 49 84 46 85
REMARK H PARENT 12 5 5 14 16 28 66 47 40 58
REMARK Flexibility Score: inf
ROOT
ATOM      1  C   UNL A   1      31.781  30.568  26.111  1.00  0.00     0.117 C 
ENDROOT
BRANCH   1   2
ATOM      2  N   UNL A   1      31.654  29.624  27.205  1.00  0.00    -0.356 N 
ATOM      3  C   UNL A   1      31.686  28.265  27.238  1.00  0.00     0.227 C 
ATOM      4  O   UNL A   1      31.646  27.739  28.354  1.00  0.00    -0.274 OA
ATOM      5  H   UNL A   1      31.518  30.044  28.084  1.00  0.00     0.163 HD
BRANCH   3   6
ATOM      6  C   UNL A   1      31.689  27.388  25.980  1.00  0.00     0.103 C 
ATOM      7  C   UNL A   1      33.164  25.461  25.509  1.00  0.00     0.107 C 
ATOM      8  C   UNL A   1      31.739  25.054  25.729  1.00  0.00    -0.006 C 
ATOM      9  C   UNL A   1      33.101  26.995  25.548  1.00  0.00     0.047 C 
ATOM     10  C   UNL A   1      30.951  26.092  26.036  1.00  0.00    -0.016 C 
BRANCH   7  11
ATOM     11  N   UNL A   1      33.629  24.946  24.242  1.00  0.00    -0.332 N 
ATOM     12  C   UNL A   1      34.225  23.816  23.815  1.00  0.00     0.317 C 
ATOM     13  O   UNL A   1      34.402  23.757  22.594  1.00  0.00    -0.249 OA
ATOM     14  H   UNL A   1      33.470  25.581  23.505  1.00  0.00     0.165 HD
BRANCH  12  15
ATOM     15  N   UNL A   1      34.623  22.791  24.652  1.00  0.00    -0.324 N 
ATOM     16  C   UNL A   1      35.657  22.939  25.667  1.00  0.00     0.149 C 
BRANCH  15  17
ATOM     17  C   UNL A   1      34.287  21.399  24.217  1.00  0.00     0.102 C 
ATOM     18  C   UNL A   1      35.071  20.290  24.957  1.00  0.00     0.042 C 
ATOM     19  C   UNL A   1      32.810  21.019  24.421  1.00  0.00     0.162 C 
ATOM     20  C   UNL A   1      34.484  18.949  24.567  1.00  0.00     0.139 C 
ATOM     21  S   UNL A   1      32.751  19.241  24.329  1.00  0.00     0.152 S 
ATOM     22  O   UNL A   1      32.416  18.842  22.977  1.00  0.00    -0.229 OA
ATOM     23  O   UNL A   1      32.038  18.735  25.482  1.00  0.00    -0.229 OA
ENDBRANCH  15  17
ENDBRANCH  12  15
ENDBRANCH   7  11
ENDBRANCH   3   6
ENDBRANCH   1   2
BRANCH   1  24
ATOM     24  C   UNL A   1      31.502  32.006  26.535  1.00  0.00     0.042 C 
BRANCH  24  25
ATOM     25  C   UNL A   1      32.659  32.679  27.270  1.00  0.00     0.118 C 
BRANCH  25  26
ATOM     26  N   UNL A   1      32.385  34.073  27.596  1.00  0.00    -0.352 N 
ATOM     27  C   UNL A   1      32.955  34.900  28.533  1.00  0.00     0.251 C 
ATOM     28  H   UNL A   1      31.675  34.490  27.057  1.00  0.00     0.163 HD
ATOM     29  O   UNL A   1      32.439  35.987  28.775  1.00  0.00    -0.269 OA
BRANCH  27  30
ATOM     30  C   UNL A   1      34.167  34.484  29.270  1.00  0.00     0.039 A 
ATOM     31  C   UNL A   1      34.027  33.967  30.561  1.00  0.00     0.014 A 
ATOM     32  C   UNL A   1      35.436  34.615  28.704  1.00  0.00     0.014 A 
ATOM     33  C   UNL A   1      35.150  33.501  31.248  1.00  0.00     0.010 A 
ATOM     34  C   UNL A   1      36.544  34.081  29.357  1.00  0.00     0.010 A 
ATOM     35  C   UNL A   1      36.411  33.506  30.630  1.00  0.00    -0.014 A 
BRANCH  35  36
ATOM     36  C   UNL A   1      37.595  32.885  31.276  1.00  0.00     0.031 A 
ATOM     37  C   UNL A   1      38.249  31.677  30.666  1.00  0.00     0.074 A 
ATOM     38  C   UNL A   1      38.025  33.358  32.463  1.00  0.00     0.049 A 
ATOM     39  N   UNL A   1      39.211  30.929  31.142  1.00  0.00    -0.248 NA
ATOM     40  C   UNL A   1      37.736  31.237  29.358  1.00  0.00     0.031 C 
ATOM     41  C   UNL A   1      37.454  34.503  33.174  1.00  0.00     0.029 A 
ATOM     42  N   UNL A   1      39.030  32.920  33.291  1.00  0.00    -0.354 N 
ATOM     43  C   UNL A   1      39.410  29.927  30.202  1.00  0.00     0.074 A 
ATOM     44  C   UNL A   1      38.436  30.132  29.152  1.00  0.00     0.031 C 
ATOM     45  C   UNL A   1      38.126  34.687  34.322  1.00  0.00     0.029 A 
ATOM     46  C   UNL A   1      39.138  33.645  34.455  1.00  0.00     0.049 A 
ATOM     47  H   UNL A   1      39.617  32.161  33.072  1.00  0.00     0.167 HD
ATOM     48  C   UNL A   1      40.335  28.937  30.205  1.00  0.00     0.037 A 
ATOM     49  C   UNL A   1      39.946  33.476  35.519  1.00  0.00     0.037 A 
ATOM     50  C   UNL A   1      41.311  28.745  31.246  1.00  0.00     0.049 A 
ATOM     51  C   UNL A   1      40.931  32.340  35.519  1.00  0.00     0.074 A 
ATOM     52  C   UNL A   1      42.327  27.806  31.312  1.00  0.00     0.029 A 
ATOM     53  N   UNL A   1      41.386  29.498  32.409  1.00  0.00    -0.354 N 
ATOM     54  N   UNL A   1      41.154  31.440  34.592  1.00  0.00    -0.248 NA
ATOM     55  C   UNL A   1      41.775  32.192  36.714  1.00  0.00     0.031 C 
ATOM     56  C   UNL A   1      42.978  27.953  32.540  1.00  0.00     0.029 A 
ATOM     57  C   UNL A   1      42.407  29.021  33.215  1.00  0.00     0.049 A 
ATOM     58  H   UNL A   1      40.802  30.259  32.628  1.00  0.00     0.167 HD
ATOM     59  C   UNL A   1      42.178  30.637  35.079  1.00  0.00     0.074 A 
ATOM     60  C   UNL A   1      42.543  31.166  36.378  1.00  0.00     0.031 C 
ATOM     61  C   UNL A   1      42.762  29.558  34.504  1.00  0.00     0.037 A 
BRANCH  48  62
ATOM     62  C   UNL A   1      40.333  27.977  29.049  1.00  0.00     0.057 A 
ATOM     63  C   UNL A   1      39.590  26.789  29.076  1.00  0.00     0.134 A 
ATOM     64  C   UNL A   1      41.047  28.265  27.879  1.00  0.00     0.134 A 
ATOM     65  F   UNL A   1      38.891  26.448  30.168  1.00  0.00    -0.206 F 
ATOM     66  C   UNL A   1      39.579  25.910  27.991  1.00  0.00     0.040 A 
ATOM     67  C   UNL A   1      41.020  27.409  26.777  1.00  0.00     0.040 A 
ATOM     68  F   UNL A   1      41.773  29.389  27.782  1.00  0.00    -0.206 F 
ATOM     69  C   UNL A   1      40.289  26.223  26.833  1.00  0.00     0.006 A 
ENDBRANCH  48  62
BRANCH  49  70
ATOM     70  C   UNL A   1      39.856  34.402  36.678  1.00  0.00     0.057 A 
ATOM     71  C   UNL A   1      40.582  35.598  36.702  1.00  0.00     0.134 A 
ATOM     72  C   UNL A   1      39.052  34.113  37.788  1.00  0.00     0.134 A 
ATOM     73  F   UNL A   1      41.382  35.923  35.676  1.00  0.00    -0.206 F 
ATOM     74  C   UNL A   1      40.530  36.463  37.796  1.00  0.00     0.040 A 
ATOM     75  C   UNL A   1      38.970  34.982  38.877  1.00  0.00     0.040 A 
ATOM     76  F   UNL A   1      38.323  32.988  37.824  1.00  0.00    -0.206 F 
ATOM     77  C   UNL A   1      39.718  36.157  38.887  1.00  0.00     0.006 A 
ENDBRANCH  49  70
BRANCH  61  78
ATOM     78  C   UNL A   1      43.873  28.887  35.258  1.00  0.00     0.057 A 
ATOM     79  C   UNL A   1      43.628  27.840  36.157  1.00  0.00     0.134 A 
ATOM     80  C   UNL A   1      45.207  29.249  35.035  1.00  0.00     0.134 A 
ATOM     81  F   UNL A   1      42.372  27.454  36.425  1.00  0.00    -0.206 F 
ATOM     82  C   UNL A   1      44.670  27.188  36.816  1.00  0.00     0.040 A 
ATOM     83  C   UNL A   1      46.260  28.585  35.668  1.00  0.00     0.040 A 
ATOM     84  F   UNL A   1      45.512  30.238  34.181  1.00  0.00    -0.206 F 
ATOM     85  C   UNL A   1      45.992  27.554  36.564  1.00  0.00     0.006 A 
ENDBRANCH  61  78
ENDBRANCH  35  36
ENDBRANCH  27  30
ENDBRANCH  25  26
ENDBRANCH  24  25
ENDBRANCH   1  24
TORSDOF 13
ENDMDL
MODEL 3
REMARK VINA RESULT:     -11.8      4.678     10.438
REMARK SMILES CN(C(=O)N[C@@H]1C=C[C@@H](C(=O)NCCCNC(=O)c2ccc(-c3c4nc(c(-c5c(F)cccc5F)c5ccc([nH]5)c(-c5c(F)cccc5F)c5nc(c(-c6c(F)cccc6F)c6ccc3[nH]6)C=C5)C=C4)cc2)C1)[C@H]1CCS(=O)(=O)C1
REMARK SMILES IDX 13 1 12 2 10 3 11 4 9 6 6 7 7 8 73 9 8 10 5 11 3 12 4 13
REMARK SMILES IDX 2 15 1 16 74 17 75 18 80 19 76 20 77 21 78 22 79 23 14 24
REMARK SMILES IDX 15 25 16 26 17 27 18 29 19 30 20 31 72 32 21 33 71 34 22 35
REMARK SMILES IDX 23 36 24 37 65 38 25 39 70 40 64 41 66 42 26 43 69 44 63 45
REMARK SMILES IDX 62 46 27 48 53 49 36 50 52 51 37 52 40 53 51 54 67 55 38 56
REMARK SMILES IDX 39 57 50 59 68 60 41 61 28 62 29 63 34 64 30 65 31 66 33 67
REMARK SMILES IDX 35 68 32 69 54 70 55 71 60 72 56 73 57 74 59 75 61 76 58 77
REMARK SMILES IDX 42 78 43 79 48 80 44 81 45 82 47 83 49 84 46 85
REMARK H PARENT 12 5 5 14 16 28 66 47 40 58
REMARK Flexibility Score: inf
ROOT
ATOM      1  C   UNL A   1      32.972  34.172  28.331  1.00  0.00     0.117 C 
ENDROOT
BRANCH   1   2
ATOM      2  N   UNL A   1      33.058  35.618  28.394  1.00  0.00    -0.356 N 
ATOM      3  C   UNL A   1      33.159  36.475  29.445  1.00  0.00     0.227 C 
ATOM      4  O   UNL A   1      33.315  37.669  29.171  1.00  0.00    -0.274 OA
ATOM      5  H   UNL A   1      33.040  36.061  27.515  1.00  0.00     0.163 HD
BRANCH   3   6
ATOM      6  C   UNL A   1      33.010  36.040  30.908  1.00  0.00     0.103 C 
ATOM      7  C   UNL A   1      34.810  35.817  32.589  1.00  0.00     0.107 C 
ATOM      8  C   UNL A   1      33.884  36.957  32.884  1.00  0.00    -0.006 C 
ATOM      9  C   UNL A   1      34.161  35.145  31.369  1.00  0.00     0.047 C 
ATOM     10  C   UNL A   1      32.941  37.109  31.947  1.00  0.00    -0.016 C 
BRANCH   7  11
ATOM     11  N   UNL A   1      34.894  34.944  33.737  1.00  0.00    -0.332 N 
ATOM     12  C   UNL A   1      35.635  33.877  34.091  1.00  0.00     0.317 C 
ATOM     13  O   UNL A   1      35.416  33.453  35.230  1.00  0.00    -0.249 OA
ATOM     14  H   UNL A   1      34.246  35.193  34.436  1.00  0.00     0.165 HD
BRANCH  12  15
ATOM     15  N   UNL A   1      36.570  33.280  33.266  1.00  0.00    -0.324 N 
ATOM     16  C   UNL A   1      36.237  32.259  32.283  1.00  0.00     0.149 C 
BRANCH  15  17
ATOM     17  C   UNL A   1      38.001  33.380  33.690  1.00  0.00     0.102 C 
ATOM     18  C   UNL A   1      38.897  32.218  33.199  1.00  0.00     0.042 C 
ATOM     19  C   UNL A   1      38.717  34.647  33.187  1.00  0.00     0.162 C 
ATOM     20  C   UNL A   1      40.338  32.557  33.521  1.00  0.00     0.139 C 
ATOM     21  S   UNL A   1      40.460  34.319  33.357  1.00  0.00     0.152 S 
ATOM     22  O   UNL A   1      40.925  34.850  34.622  1.00  0.00    -0.229 OA
ATOM     23  O   UNL A   1      41.117  34.619  32.104  1.00  0.00    -0.229 OA
ENDBRANCH  15  17
ENDBRANCH  12  15
ENDBRANCH   7  11
ENDBRANCH   3   6
ENDBRANCH   1   2
BRANCH   1  24
ATOM     24  C   UNL A   1      34.314  33.513  28.028  1.00  0.00     0.042 C 
BRANCH  24  25
ATOM     25  C   UNL A   1      34.634  32.309  28.911  1.00  0.00     0.118 C 
BRANCH  25  26
ATOM     26  N   UNL A   1      34.108  31.060  28.374  1.00  0.00    -0.352 N 
ATOM     27  C   UNL A   1      34.751  29.904  28.003  1.00  0.00     0.251 C 
ATOM     28  H   UNL A   1      33.130  31.042  28.258  1.00  0.00     0.163 HD
ATOM     29  O   UNL A   1      34.135  29.038  27.391  1.00  0.00    -0.269 OA
BRANCH  27  30
ATOM     30  C   UNL A   1      36.183  29.706  28.312  1.00  0.00     0.039 A 
ATOM     31  C   UNL A   1      36.543  29.273  29.591  1.00  0.00     0.014 A 
ATOM     32  C   UNL A   1      37.170  29.960  27.357  1.00  0.00     0.014 A 
ATOM     33  C   UNL A   1      37.884  29.010  29.883  1.00  0.00     0.010 A 
ATOM     34  C   UNL A   1      38.495  29.626  27.625  1.00  0.00     0.010 A 
ATOM     35  C   UNL A   1      38.864  29.135  28.886  1.00  0.00    -0.014 A 
BRANCH  35  36
ATOM     36  C   UNL A   1      40.271  28.725  29.124  1.00  0.00     0.031 A 
ATOM     37  C   UNL A   1      41.260  29.697  29.704  1.00  0.00     0.074 A 
ATOM     38  C   UNL A   1      40.678  27.502  28.731  1.00  0.00     0.049 A 
ATOM     39  N   UNL A   1      42.551  29.561  29.872  1.00  0.00    -0.248 NA
ATOM     40  C   UNL A   1      40.732  31.003  30.129  1.00  0.00     0.031 C 
ATOM     41  C   UNL A   1      39.823  26.479  28.126  1.00  0.00     0.029 A 
ATOM     42  N   UNL A   1      41.921  26.917  28.764  1.00  0.00    -0.354 N 
ATOM     43  C   UNL A   1      42.990  30.765  30.409  1.00  0.00     0.074 A 
ATOM     44  C   UNL A   1      41.837  31.636  30.493  1.00  0.00     0.031 C 
ATOM     45  C   UNL A   1      40.561  25.390  27.858  1.00  0.00     0.029 A 
ATOM     46  C   UNL A   1      41.949  25.653  28.223  1.00  0.00     0.049 A 
ATOM     47  H   UNL A   1      42.715  27.361  29.140  1.00  0.00     0.167 HD
ATOM     48  C   UNL A   1      44.237  31.104  30.814  1.00  0.00     0.037 A 
ATOM     49  C   UNL A   1      42.979  24.810  28.023  1.00  0.00     0.037 A 
ATOM     50  C   UNL A   1      45.378  30.228  30.741  1.00  0.00     0.049 A 
ATOM     51  C   UNL A   1      44.363  25.229  28.437  1.00  0.00     0.074 A 
ATOM     52  C   UNL A   1      46.671  30.460  31.179  1.00  0.00     0.029 A 
ATOM     53  N   UNL A   1      45.366  28.957  30.185  1.00  0.00    -0.354 N 
ATOM     54  N   UNL A   1      44.752  26.345  29.006  1.00  0.00    -0.248 NA
ATOM     55  C   UNL A   1      45.452  24.276  28.178  1.00  0.00     0.031 C 
ATOM     56  C   UNL A   1      47.453  29.354  30.834  1.00  0.00     0.029 A 
ATOM     57  C   UNL A   1      46.637  28.408  30.234  1.00  0.00     0.049 A 
ATOM     58  H   UNL A   1      44.572  28.512  29.811  1.00  0.00     0.167 HD
ATOM     59  C   UNL A   1      46.122  26.218  29.196  1.00  0.00     0.074 A 
ATOM     60  C   UNL A   1      46.494  24.910  28.696  1.00  0.00     0.031 C 
ATOM     61  C   UNL A   1      46.993  27.105  29.735  1.00  0.00     0.037 A 
BRANCH  48  62
ATOM     62  C   UNL A   1      44.439  32.486  31.367  1.00  0.00     0.057 A 
ATOM     63  C   UNL A   1      44.821  33.560  30.553  1.00  0.00     0.134 A 
ATOM     64  C   UNL A   1      44.204  32.756  32.721  1.00  0.00     0.134 A 
ATOM     65  F   UNL A   1      45.070  33.370  29.248  1.00  0.00    -0.206 F 
ATOM     66  C   UNL A   1      44.990  34.846  31.070  1.00  0.00     0.040 A 
ATOM     67  C   UNL A   1      44.341  34.043  33.245  1.00  0.00     0.040 A 
ATOM     68  F   UNL A   1      43.828  31.776  33.557  1.00  0.00    -0.206 F 
ATOM     69  C   UNL A   1      44.741  35.092  32.420  1.00  0.00     0.006 A 
ENDBRANCH  48  62
BRANCH  49  70
ATOM     70  C   UNL A   1      42.745  23.482  27.396  1.00  0.00     0.057 A 
ATOM     71  C   UNL A   1      42.900  23.299  26.018  1.00  0.00     0.134 A 
ATOM     72  C   UNL A   1      42.353  22.371  28.154  1.00  0.00     0.134 A 
ATOM     73  F   UNL A   1      43.257  24.329  25.236  1.00  0.00    -0.206 F 
ATOM     74  C   UNL A   1      42.654  22.066  25.411  1.00  0.00     0.040 A 
ATOM     75  C   UNL A   1      42.130  21.126  27.564  1.00  0.00     0.040 A 
ATOM     76  F   UNL A   1      42.195  22.477  29.482  1.00  0.00    -0.206 F 
ATOM     77  C   UNL A   1      42.272  20.974  26.187  1.00  0.00     0.006 A 
ENDBRANCH  49  70
BRANCH  61  78
ATOM     78  C   UNL A   1      48.432  26.688  29.836  1.00  0.00     0.057 A 
ATOM     79  C   UNL A   1      48.907  25.930  30.914  1.00  0.00     0.134 A 
ATOM     80  C   UNL A   1      49.338  26.995  28.813  1.00  0.00     0.134 A 
ATOM     81  F   UNL A   1      48.093  25.614  31.933  1.00  0.00    -0.206 F 
ATOM     82  C   UNL A   1      50.233  25.504  30.977  1.00  0.00     0.040 A 
ATOM     83  C   UNL A   1      50.660  26.550  28.851  1.00  0.00     0.040 A 
ATOM     84  F   UNL A   1      48.947  27.711  27.748  1.00  0.00    -0.206 F 
ATOM     85  C   UNL A   1      51.112  25.805  29.937  1.00  0.00     0.006 A 
ENDBRANCH  61  78
ENDBRANCH  35  36
ENDBRANCH  27  30
ENDBRANCH  25  26
ENDBRANCH  24  25
ENDBRANCH   1  24
TORSDOF 13
ENDMDL
