MODEL 1
REMARK VINA RESULT:     -13.4      0.000      0.000
REMARK SMILES CS(=O)(=O)c1ccc(-c2cc(Cl)cc3c2O[C@H](C(F)(F)F)C(C(=O)NCCCNC(=O)c2ccc(-c4c5nc(c(-c6c(F)cccc6F)c6ccc([nH]6)c(-c6c(F)cccc6F)c6nc(c(-c7c(F)cccc7F)c7ccc4[nH]7)C=C6)C=C5)cc2)=C3)cc1
REMARK SMILES IDX 27 1 26 2 25 3 23 4 24 5 22 7 9 8 10 9 15 10 11 11 14 12
REMARK SMILES IDX 16 13 12 14 13 15 86 16 17 17 8 18 5 19 6 20 88 21 7 22
REMARK SMILES IDX 87 23 2 24 1 25 3 26 4 27 18 28 19 29 20 30 21 31 28 32
REMARK SMILES IDX 29 33 30 34 31 36 32 37 33 38 85 39 34 40 84 41 35 42 36 43
REMARK SMILES IDX 37 44 78 45 38 46 83 47 77 48 79 49 39 50 82 51 76 52 75 53
REMARK SMILES IDX 40 55 66 56 49 57 65 58 50 59 53 60 64 61 80 62 51 63 52 64
REMARK SMILES IDX 63 66 81 67 54 68 41 69 42 70 47 71 43 72 44 73 46 74 48 75
REMARK SMILES IDX 45 76 67 77 68 78 73 79 69 80 70 81 72 82 74 83 71 84 55 85
REMARK SMILES IDX 56 86 61 87 57 88 58 89 60 90 62 91 59 92
REMARK H PARENT 25 6 29 35 79 54 53 65
REMARK Flexibility Score: inf
ROOT
ATOM      1  C   UNL A   1      31.846  29.923  25.355  1.00  0.00     0.042 C 
ENDROOT
BRANCH   1   2
ATOM      2  C   UNL A   1      33.141  29.316  24.809  1.00  0.00     0.118 C 
BRANCH   2   3
ATOM      3  N   UNL A   1      33.512  28.150  25.588  1.00  0.00    -0.352 N 
ATOM      4  C   UNL A   1      32.786  27.012  25.724  1.00  0.00     0.251 C 
ATOM      5  O   UNL A   1      32.684  26.480  26.823  1.00  0.00    -0.270 OA
ATOM      6  H   UNL A   1      34.373  28.189  26.064  1.00  0.00     0.163 HD
BRANCH   4   7
ATOM      7  C   UNL A   1      32.271  26.386  24.472  1.00  0.00     0.067 C 
ATOM      8  C   UNL A   1      33.378  22.524  25.115  1.00  0.00     0.026 A 
ATOM      9  C   UNL A   1      34.699  22.562  25.636  1.00  0.00     0.033 A 
ATOM     10  C   UNL A   1      32.899  23.719  24.552  1.00  0.00     0.135 A 
ATOM     11  C   UNL A   1      35.551  23.645  25.439  1.00  0.00     0.042 A 
ATOM     12  C   UNL A   1      33.814  24.759  24.255  1.00  0.00     0.019 A 
ATOM     13  O   UNL A   1      31.553  23.968  24.318  1.00  0.00    -0.475 OA
ATOM     14  Cl  UNL A   1      37.132  23.622  26.112  1.00  0.00    -0.084 Cl
ATOM     15  C   UNL A   1      35.138  24.721  24.678  1.00  0.00     0.032 A 
ATOM     16  C   UNL A   1      33.273  26.000  23.656  1.00  0.00     0.025 C 
ATOM     17  C   UNL A   1      31.154  25.366  24.671  1.00  0.00     0.314 C 
BRANCH   8  18
ATOM     18  C   UNL A   1      32.797  21.158  25.012  1.00  0.00    -0.015 A 
ATOM     19  C   UNL A   1      32.970  18.387  24.471  1.00  0.00     0.067 A 
ATOM     20  C   UNL A   1      33.096  18.854  25.782  1.00  0.00     0.021 A 
ATOM     21  C   UNL A   1      32.613  19.268  23.452  1.00  0.00     0.021 A 
ATOM     22  C   UNL A   1      32.985  20.225  26.053  1.00  0.00     0.010 A 
ATOM     23  C   UNL A   1      32.514  20.643  23.729  1.00  0.00     0.010 A 
BRANCH  19  24
ATOM     24  S   UNL A   1      33.427  16.690  24.172  1.00  0.00     0.175 S 
ATOM     25  C   UNL A   1      34.975  16.377  24.971  1.00  0.00     0.163 C 
ATOM     26  O   UNL A   1      33.646  16.569  22.743  1.00  0.00    -0.224 OA
ATOM     27  O   UNL A   1      32.431  15.879  24.848  1.00  0.00    -0.224 OA
ENDBRANCH  19  24
ENDBRANCH   8  18
BRANCH  17  28
ATOM     28  C   UNL A   1      29.923  25.843  23.867  1.00  0.00     0.429 C 
ATOM     29  F   UNL A   1      30.183  26.926  23.102  1.00  0.00    -0.167 F 
ATOM     30  F   UNL A   1      29.465  24.863  23.050  1.00  0.00    -0.167 F 
ATOM     31  F   UNL A   1      28.877  26.183  24.668  1.00  0.00    -0.167 F 
ENDBRANCH  17  28
ENDBRANCH   4   7
ENDBRANCH   2   3
ENDBRANCH   1   2
BRANCH   1  32
ATOM     32  C   UNL A   1      31.945  30.465  26.781  1.00  0.00     0.118 C 
BRANCH  32  33
ATOM     33  N   UNL A   1      31.843  31.914  26.853  1.00  0.00    -0.352 N 
ATOM     34  C   UNL A   1      32.702  32.816  27.431  1.00  0.00     0.251 C 
ATOM     35  H   UNL A   1      31.046  32.303  26.426  1.00  0.00     0.163 HD
ATOM     36  O   UNL A   1      32.384  34.000  27.518  1.00  0.00    -0.269 OA
BRANCH  34  37
ATOM     37  C   UNL A   1      33.994  32.356  27.981  1.00  0.00     0.039 A 
ATOM     38  C   UNL A   1      34.950  33.308  28.344  1.00  0.00     0.014 A 
ATOM     39  C   UNL A   1      34.256  30.994  28.155  1.00  0.00     0.014 A 
ATOM     40  C   UNL A   1      36.137  32.897  28.953  1.00  0.00     0.010 A 
ATOM     41  C   UNL A   1      35.403  30.594  28.835  1.00  0.00     0.010 A 
ATOM     42  C   UNL A   1      36.355  31.540  29.243  1.00  0.00    -0.014 A 
BRANCH  42  43
ATOM     43  C   UNL A   1      37.568  31.092  29.977  1.00  0.00     0.031 A 
ATOM     44  C   UNL A   1      38.567  30.188  29.309  1.00  0.00     0.074 A 
ATOM     45  C   UNL A   1      37.734  31.444  31.268  1.00  0.00     0.049 A 
ATOM     46  N   UNL A   1      39.642  29.632  29.808  1.00  0.00    -0.248 NA
ATOM     47  C   UNL A   1      38.310  29.838  27.903  1.00  0.00     0.031 C 
ATOM     48  C   UNL A   1      36.813  32.273  32.046  1.00  0.00     0.029 A 
ATOM     49  N   UNL A   1      38.733  31.136  32.158  1.00  0.00    -0.354 N 
ATOM     50  C   UNL A   1      40.176  28.857  28.787  1.00  0.00     0.074 A 
ATOM     51  C   UNL A   1      39.277  28.969  27.658  1.00  0.00     0.031 C 
ATOM     52  C   UNL A   1      37.301  32.430  33.287  1.00  0.00     0.029 A 
ATOM     53  C   UNL A   1      38.547  31.679  33.407  1.00  0.00     0.049 A 
ATOM     54  H   UNL A   1      39.510  30.579  31.923  1.00  0.00     0.167 HD
ATOM     55  C   UNL A   1      41.324  28.137  28.778  1.00  0.00     0.037 A 
ATOM     56  C   UNL A   1      39.290  31.575  34.525  1.00  0.00     0.037 A 
ATOM     57  C   UNL A   1      42.230  28.049  29.893  1.00  0.00     0.049 A 
ATOM     58  C   UNL A   1      40.557  30.765  34.492  1.00  0.00     0.074 A 
ATOM     59  C   UNL A   1      43.448  27.395  29.964  1.00  0.00     0.029 A 
ATOM     60  N   UNL A   1      42.014  28.629  31.134  1.00  0.00    -0.354 N 
ATOM     61  N   UNL A   1      41.085  30.095  33.496  1.00  0.00    -0.248 NA
ATOM     62  C   UNL A   1      41.335  30.701  35.737  1.00  0.00     0.031 C 
ATOM     63  C   UNL A   1      43.946  27.540  31.262  1.00  0.00     0.029 A 
ATOM     64  C   UNL A   1      43.066  28.329  31.985  1.00  0.00     0.049 A 
ATOM     65  H   UNL A   1      41.230  29.172  31.375  1.00  0.00     0.167 HD
ATOM     66  C   UNL A   1      42.269  29.558  33.984  1.00  0.00     0.074 A 
ATOM     67  C   UNL A   1      42.389  29.991  35.361  1.00  0.00     0.031 C 
ATOM     68  C   UNL A   1      43.176  28.776  33.349  1.00  0.00     0.037 A 
BRANCH  55  69
ATOM     69  C   UNL A   1      41.666  27.392  27.519  1.00  0.00     0.057 A 
ATOM     70  C   UNL A   1      42.406  27.984  26.488  1.00  0.00     0.134 A 
ATOM     71  C   UNL A   1      41.280  26.056  27.352  1.00  0.00     0.134 A 
ATOM     72  F   UNL A   1      42.798  29.263  26.579  1.00  0.00    -0.206 F 
ATOM     73  C   UNL A   1      42.726  27.284  25.322  1.00  0.00     0.040 A 
ATOM     74  C   UNL A   1      41.619  25.336  26.205  1.00  0.00     0.040 A 
ATOM     75  F   UNL A   1      40.575  25.424  28.303  1.00  0.00    -0.206 F 
ATOM     76  C   UNL A   1      42.338  25.953  25.182  1.00  0.00     0.006 A 
ENDBRANCH  55  69
BRANCH  56  77
ATOM     77  C   UNL A   1      38.870  32.274  35.767  1.00  0.00     0.057 A 
ATOM     78  C   UNL A   1      39.183  33.622  35.979  1.00  0.00     0.134 A 
ATOM     79  C   UNL A   1      38.161  31.612  36.776  1.00  0.00     0.134 A 
ATOM     80  F   UNL A   1      39.877  34.306  35.058  1.00  0.00    -0.206 F 
ATOM     81  C   UNL A   1      38.827  34.280  37.158  1.00  0.00     0.040 A 
ATOM     82  C   UNL A   1      37.775  32.265  37.948  1.00  0.00     0.040 A 
ATOM     83  F   UNL A   1      37.822  30.322  36.632  1.00  0.00    -0.206 F 
ATOM     84  C   UNL A   1      38.116  33.601  38.144  1.00  0.00     0.006 A 
ENDBRANCH  56  77
BRANCH  68  85
ATOM     85  C   UNL A   1      44.398  28.372  34.123  1.00  0.00     0.057 A 
ATOM     86  C   UNL A   1      44.462  27.169  34.836  1.00  0.00     0.134 A 
ATOM     87  C   UNL A   1      45.541  29.183  34.119  1.00  0.00     0.134 A 
ATOM     88  F   UNL A   1      43.398  26.353  34.890  1.00  0.00    -0.206 F 
ATOM     89  C   UNL A   1      45.611  26.796  35.536  1.00  0.00     0.040 A 
ATOM     90  C   UNL A   1      46.705  28.808  34.790  1.00  0.00     0.040 A 
ATOM     91  F   UNL A   1      45.550  30.345  33.448  1.00  0.00    -0.206 F 
ATOM     92  C   UNL A   1      46.740  27.614  35.507  1.00  0.00     0.006 A 
ENDBRANCH  68  85
ENDBRANCH  42  43
ENDBRANCH  34  37
ENDBRANCH  32  33
ENDBRANCH   1  32
TORSDOF 13
ENDMDL
MODEL 2
REMARK VINA RESULT:     -13.4      0.449      6.009
REMARK SMILES CS(=O)(=O)c1ccc(-c2cc(Cl)cc3c2O[C@H](C(F)(F)F)C(C(=O)NCCCNC(=O)c2ccc(-c4c5nc(c(-c6c(F)cccc6F)c6ccc([nH]6)c(-c6c(F)cccc6F)c6nc(c(-c7c(F)cccc7F)c7ccc4[nH]7)C=C6)C=C5)cc2)=C3)cc1
REMARK SMILES IDX 27 1 26 2 25 3 23 4 24 5 22 7 9 8 10 9 15 10 11 11 14 12
REMARK SMILES IDX 16 13 12 14 13 15 86 16 17 17 8 18 5 19 6 20 88 21 7 22
REMARK SMILES IDX 87 23 2 24 1 25 3 26 4 27 18 28 19 29 20 30 21 31 28 32
REMARK SMILES IDX 29 33 30 34 31 36 32 37 33 38 85 39 34 40 84 41 35 42 36 43
REMARK SMILES IDX 37 44 78 45 38 46 83 47 77 48 79 49 39 50 82 51 76 52 75 53
REMARK SMILES IDX 40 55 66 56 49 57 65 58 50 59 53 60 64 61 80 62 51 63 52 64
REMARK SMILES IDX 63 66 81 67 54 68 41 69 42 70 47 71 43 72 44 73 46 74 48 75
REMARK SMILES IDX 45 76 67 77 68 78 73 79 69 80 70 81 72 82 74 83 71 84 55 85
REMARK SMILES IDX 56 86 61 87 57 88 58 89 60 90 62 91 59 92
REMARK H PARENT 25 6 29 35 79 54 53 65
REMARK Flexibility Score: inf
ROOT
ATOM      1  C   UNL A   1      31.772  29.829  25.321  1.00  0.00     0.042 C 
ENDROOT
BRANCH   1   2
ATOM      2  C   UNL A   1      33.067  29.309  24.692  1.00  0.00     0.118 C 
BRANCH   2   3
ATOM      3  N   UNL A   1      33.553  28.159  25.430  1.00  0.00    -0.352 N 
ATOM      4  C   UNL A   1      32.891  26.990  25.620  1.00  0.00     0.251 C 
ATOM      5  O   UNL A   1      32.906  26.451  26.721  1.00  0.00    -0.270 OA
ATOM      6  H   UNL A   1      34.449  28.235  25.832  1.00  0.00     0.163 HD
BRANCH   4   7
ATOM      7  C   UNL A   1      32.301  26.345  24.412  1.00  0.00     0.067 C 
ATOM      8  C   UNL A   1      33.461  22.496  25.037  1.00  0.00     0.026 A 
ATOM      9  C   UNL A   1      34.812  22.545  25.473  1.00  0.00     0.033 A 
ATOM     10  C   UNL A   1      32.942  23.681  24.489  1.00  0.00     0.135 A 
ATOM     11  C   UNL A   1      35.646  23.628  25.207  1.00  0.00     0.042 A 
ATOM     12  C   UNL A   1      33.833  24.719  24.120  1.00  0.00     0.019 A 
ATOM     13  O   UNL A   1      31.583  23.922  24.337  1.00  0.00    -0.475 OA
ATOM     14  Cl  UNL A   1      37.266  23.618  25.779  1.00  0.00    -0.084 Cl
ATOM     15  C   UNL A   1      35.182  24.691  24.458  1.00  0.00     0.032 A 
ATOM     16  C   UNL A   1      33.250  25.950  23.540  1.00  0.00     0.025 C 
ATOM     17  C   UNL A   1      31.203  25.324  24.695  1.00  0.00     0.314 C 
BRANCH   8  18
ATOM     18  C   UNL A   1      32.879  21.126  24.990  1.00  0.00    -0.015 A 
ATOM     19  C   UNL A   1      33.033  18.346  24.493  1.00  0.00     0.067 A 
ATOM     20  C   UNL A   1      33.225  18.838  25.787  1.00  0.00     0.021 A 
ATOM     21  C   UNL A   1      32.620  19.206  23.478  1.00  0.00     0.021 A 
ATOM     22  C   UNL A   1      33.124  20.214  26.038  1.00  0.00     0.010 A 
ATOM     23  C   UNL A   1      32.532  20.587  23.734  1.00  0.00     0.010 A 
BRANCH  19  24
ATOM     24  S   UNL A   1      33.480  16.645  24.203  1.00  0.00     0.175 S 
ATOM     25  C   UNL A   1      35.029  16.328  24.997  1.00  0.00     0.163 C 
ATOM     26  O   UNL A   1      33.691  16.513  22.774  1.00  0.00    -0.224 OA
ATOM     27  O   UNL A   1      32.482  15.844  24.888  1.00  0.00    -0.224 OA
ENDBRANCH  19  24
ENDBRANCH   8  18
BRANCH  17  28
ATOM     28  C   UNL A   1      29.921  25.786  23.964  1.00  0.00     0.429 C 
ATOM     29  F   UNL A   1      29.432  24.851  23.120  1.00  0.00    -0.167 F 
ATOM     30  F   UNL A   1      28.941  26.095  24.848  1.00  0.00    -0.167 F 
ATOM     31  F   UNL A   1      30.122  26.907  23.219  1.00  0.00    -0.167 F 
ENDBRANCH  17  28
ENDBRANCH   4   7
ENDBRANCH   2   3
ENDBRANCH   1   2
BRANCH   1  32
ATOM     32  C   UNL A   1      31.914  30.326  26.759  1.00  0.00     0.118 C 
BRANCH  32  33
ATOM     33  N   UNL A   1      31.891  31.776  26.871  1.00  0.00    -0.352 N 
ATOM     34  C   UNL A   1      32.799  32.614  27.471  1.00  0.00     0.251 C 
ATOM     35  H   UNL A   1      31.115  32.219  26.458  1.00  0.00     0.163 HD
ATOM     36  O   UNL A   1      32.546  33.811  27.591  1.00  0.00    -0.269 OA
BRANCH  34  37
ATOM     37  C   UNL A   1      34.065  32.070  28.003  1.00  0.00     0.039 A 
ATOM     38  C   UNL A   1      35.030  32.957  28.488  1.00  0.00     0.014 A 
ATOM     39  C   UNL A   1      34.294  30.692  28.041  1.00  0.00     0.014 A 
ATOM     40  C   UNL A   1      36.191  32.458  29.081  1.00  0.00     0.010 A 
ATOM     41  C   UNL A   1      35.413  30.197  28.705  1.00  0.00     0.010 A 
ATOM     42  C   UNL A   1      36.373  31.073  29.233  1.00  0.00    -0.014 A 
BRANCH  42  43
ATOM     43  C   UNL A   1      37.555  30.524  29.948  1.00  0.00     0.031 A 
ATOM     44  C   UNL A   1      37.836  30.928  31.370  1.00  0.00     0.074 A 
ATOM     45  C   UNL A   1      38.414  29.716  29.295  1.00  0.00     0.049 A 
ATOM     46  N   UNL A   1      38.854  30.617  32.132  1.00  0.00    -0.248 NA
ATOM     47  C   UNL A   1      36.860  31.824  32.010  1.00  0.00     0.031 C 
ATOM     48  C   UNL A   1      38.283  29.290  27.900  1.00  0.00     0.029 A 
ATOM     49  N   UNL A   1      39.575  29.117  29.716  1.00  0.00    -0.354 N 
ATOM     50  C   UNL A   1      38.650  31.290  33.330  1.00  0.00     0.074 A 
ATOM     51  C   UNL A   1      37.441  32.071  33.173  1.00  0.00     0.031 C 
ATOM     52  C   UNL A   1      39.308  28.480  27.589  1.00  0.00     0.029 A 
ATOM     53  C   UNL A   1      40.189  28.361  28.745  1.00  0.00     0.049 A 
ATOM     54  H   UNL A   1      39.935  29.219  30.626  1.00  0.00     0.167 HD
ATOM     55  C   UNL A   1      39.385  31.244  34.466  1.00  0.00     0.037 A 
ATOM     56  C   UNL A   1      41.339  27.660  28.780  1.00  0.00     0.037 A 
ATOM     57  C   UNL A   1      40.573  30.446  34.627  1.00  0.00     0.049 A 
ATOM     58  C   UNL A   1      42.141  27.629  30.052  1.00  0.00     0.074 A 
ATOM     59  C   UNL A   1      41.355  30.284  35.757  1.00  0.00     0.029 A 
ATOM     60  N   UNL A   1      41.151  29.680  33.627  1.00  0.00    -0.354 N 
ATOM     61  N   UNL A   1      41.897  28.215  31.199  1.00  0.00    -0.248 NA
ATOM     62  C   UNL A   1      43.378  26.835  30.035  1.00  0.00     0.031 C 
ATOM     63  C   UNL A   1      42.433  29.457  35.427  1.00  0.00     0.029 A 
ATOM     64  C   UNL A   1      42.294  29.060  34.107  1.00  0.00     0.049 A 
ATOM     65  H   UNL A   1      40.803  29.590  32.711  1.00  0.00     0.167 HD
ATOM     66  C   UNL A   1      42.929  27.836  32.048  1.00  0.00     0.074 A 
ATOM     67  C   UNL A   1      43.795  26.958  31.287  1.00  0.00     0.031 C 
ATOM     68  C   UNL A   1      43.140  28.182  33.341  1.00  0.00     0.037 A 
BRANCH  55  69
ATOM     69  C   UNL A   1      38.923  32.077  35.627  1.00  0.00     0.057 A 
ATOM     70  C   UNL A   1      38.159  31.535  36.668  1.00  0.00     0.134 A 
ATOM     71  C   UNL A   1      39.273  33.430  35.721  1.00  0.00     0.134 A 
ATOM     72  F   UNL A   1      37.778  30.249  36.635  1.00  0.00    -0.206 F 
ATOM     73  C   UNL A   1      37.735  32.313  37.747  1.00  0.00     0.040 A 
ATOM     74  C   UNL A   1      38.882  34.212  36.810  1.00  0.00     0.040 A 
ATOM     75  F   UNL A   1      40.010  34.013  34.763  1.00  0.00    -0.206 F 
ATOM     76  C   UNL A   1      38.104  33.655  37.823  1.00  0.00     0.006 A 
ENDBRANCH  55  69
BRANCH  56  77
ATOM     77  C   UNL A   1      41.792  26.910  27.580  1.00  0.00     0.057 A 
ATOM     78  C   UNL A   1      41.487  25.553  27.419  1.00  0.00     0.134 A 
ATOM     79  C   UNL A   1      42.549  27.523  26.576  1.00  0.00     0.134 A 
ATOM     80  F   UNL A   1      40.781  24.905  28.357  1.00  0.00    -0.206 F 
ATOM     81  C   UNL A   1      41.938  24.826  26.316  1.00  0.00     0.040 A 
ATOM     82  C   UNL A   1      42.983  26.815  25.453  1.00  0.00     0.040 A 
ATOM     83  F   UNL A   1      42.867  28.823  26.664  1.00  0.00    -0.206 F 
ATOM     84  C   UNL A   1      42.685  25.461  25.326  1.00  0.00     0.006 A 
ENDBRANCH  56  77
BRANCH  68  85
ATOM     85  C   UNL A   1      44.331  27.580  34.029  1.00  0.00     0.057 A 
ATOM     86  C   UNL A   1      44.269  26.337  34.670  1.00  0.00     0.134 A 
ATOM     87  C   UNL A   1      45.569  28.237  34.011  1.00  0.00     0.134 A 
ATOM     88  F   UNL A   1      43.111  25.661  34.734  1.00  0.00    -0.206 F 
ATOM     89  C   UNL A   1      45.389  25.779  35.290  1.00  0.00     0.040 A 
ATOM     90  C   UNL A   1      46.702  27.677  34.601  1.00  0.00     0.040 A 
ATOM     91  F   UNL A   1      45.700  29.427  33.405  1.00  0.00    -0.206 F 
ATOM     92  C   UNL A   1      46.612  26.447  35.249  1.00  0.00     0.006 A 
ENDBRANCH  68  85
ENDBRANCH  42  43
ENDBRANCH  34  37
ENDBRANCH  32  33
ENDBRANCH   1  32
TORSDOF 13
ENDMDL
MODEL 3
REMARK VINA RESULT:     -13.2      2.000      5.881
REMARK SMILES CS(=O)(=O)c1ccc(-c2cc(Cl)cc3c2O[C@H](C(F)(F)F)C(C(=O)NCCCNC(=O)c2ccc(-c4c5nc(c(-c6c(F)cccc6F)c6ccc([nH]6)c(-c6c(F)cccc6F)c6nc(c(-c7c(F)cccc7F)c7ccc4[nH]7)C=C6)C=C5)cc2)=C3)cc1
REMARK SMILES IDX 27 1 26 2 25 3 23 4 24 5 22 7 9 8 10 9 15 10 11 11 14 12
REMARK SMILES IDX 16 13 12 14 13 15 86 16 17 17 8 18 5 19 6 20 88 21 7 22
REMARK SMILES IDX 87 23 2 24 1 25 3 26 4 27 18 28 19 29 20 30 21 31 28 32
REMARK SMILES IDX 29 33 30 34 31 36 32 37 33 38 85 39 34 40 84 41 35 42 36 43
REMARK SMILES IDX 37 44 78 45 38 46 83 47 77 48 79 49 39 50 82 51 76 52 75 53
REMARK SMILES IDX 40 55 66 56 49 57 65 58 50 59 53 60 64 61 80 62 51 63 52 64
REMARK SMILES IDX 63 66 81 67 54 68 41 69 42 70 47 71 43 72 44 73 46 74 48 75
REMARK SMILES IDX 45 76 67 77 68 78 73 79 69 80 70 81 72 82 74 83 71 84 55 85
REMARK SMILES IDX 56 86 61 87 57 88 58 89 60 90 62 91 59 92
REMARK H PARENT 25 6 29 35 79 54 53 65
REMARK Flexibility Score: inf
ROOT
ATOM      1  C   UNL A   1      31.395  31.110  26.441  1.00  0.00     0.042 C 
ENDROOT
BRANCH   1   2
ATOM      2  C   UNL A   1      31.743  30.059  25.386  1.00  0.00     0.118 C 
BRANCH   2   3
ATOM      3  N   UNL A   1      32.249  28.859  26.025  1.00  0.00    -0.352 N 
ATOM      4  C   UNL A   1      31.646  27.643  26.040  1.00  0.00     0.251 C 
ATOM      5  O   UNL A   1      31.623  26.985  27.074  1.00  0.00    -0.270 OA
ATOM      6  H   UNL A   1      33.112  28.934  26.492  1.00  0.00     0.163 HD
BRANCH   4   7
ATOM      7  C   UNL A   1      31.169  27.110  24.732  1.00  0.00     0.067 C 
ATOM      8  C   UNL A   1      32.672  23.334  24.928  1.00  0.00     0.026 A 
ATOM      9  C   UNL A   1      33.993  23.449  25.436  1.00  0.00     0.033 A 
ATOM     10  C   UNL A   1      32.063  24.528  24.506  1.00  0.00     0.135 A 
ATOM     11  C   UNL A   1      34.728  24.629  25.352  1.00  0.00     0.042 A 
ATOM     12  C   UNL A   1      32.863  25.683  24.318  1.00  0.00     0.019 A 
ATOM     13  O   UNL A   1      30.694  24.663  24.316  1.00  0.00    -0.475 OA
ATOM     14  Cl  UNL A   1      36.318  24.693  26.002  1.00  0.00    -0.084 Cl
ATOM     15  C   UNL A   1      34.193  25.734  24.720  1.00  0.00     0.032 A 
ATOM     16  C   UNL A   1      32.187  26.920  23.867  1.00  0.00     0.025 C 
ATOM     17  C   UNL A   1      30.165  25.965  24.827  1.00  0.00     0.314 C 
BRANCH   8  18
ATOM     18  C   UNL A   1      32.229  21.935  24.678  1.00  0.00    -0.015 A 
ATOM     19  C   UNL A   1      32.705  19.230  24.001  1.00  0.00     0.067 A 
ATOM     20  C   UNL A   1      32.643  19.616  25.343  1.00  0.00     0.021 A 
ATOM     21  C   UNL A   1      32.385  20.147  23.000  1.00  0.00     0.021 A 
ATOM     22  C   UNL A   1      32.383  20.952  25.678  1.00  0.00     0.010 A 
ATOM     23  C   UNL A   1      32.135  21.488  23.344  1.00  0.00     0.010 A 
BRANCH  19  24
ATOM     24  S   UNL A   1      33.340  17.601  23.658  1.00  0.00     0.175 S 
ATOM     25  C   UNL A   1      32.607  16.462  24.796  1.00  0.00     0.163 C 
ATOM     26  O   UNL A   1      34.761  17.645  23.943  1.00  0.00    -0.224 OA
ATOM     27  O   UNL A   1      32.854  17.249  22.336  1.00  0.00    -0.224 OA
ENDBRANCH  19  24
ENDBRANCH   8  18
BRANCH  17  28
ATOM     28  C   UNL A   1      28.875  26.400  24.094  1.00  0.00     0.429 C 
ATOM     29  F   UNL A   1      28.921  27.680  23.664  1.00  0.00    -0.167 F 
ATOM     30  F   UNL A   1      28.639  25.612  23.016  1.00  0.00    -0.167 F 
ATOM     31  F   UNL A   1      27.770  26.300  24.881  1.00  0.00    -0.167 F 
ENDBRANCH  17  28
ENDBRANCH   4   7
ENDBRANCH   2   3
ENDBRANCH   1   2
BRANCH   1  32
ATOM     32  C   UNL A   1      32.600  31.813  27.067  1.00  0.00     0.118 C 
BRANCH  32  33
ATOM     33  N   UNL A   1      32.327  33.188  27.454  1.00  0.00    -0.352 N 
ATOM     34  C   UNL A   1      33.052  34.020  28.271  1.00  0.00     0.251 C 
ATOM     35  H   UNL A   1      31.506  33.578  27.076  1.00  0.00     0.163 HD
ATOM     36  O   UNL A   1      32.595  35.112  28.600  1.00  0.00    -0.269 OA
BRANCH  34  37
ATOM     37  C   UNL A   1      34.369  33.586  28.782  1.00  0.00     0.039 A 
ATOM     38  C   UNL A   1      34.425  32.873  29.982  1.00  0.00     0.014 A 
ATOM     39  C   UNL A   1      35.541  33.865  28.073  1.00  0.00     0.014 A 
ATOM     40  C   UNL A   1      35.649  32.373  30.431  1.00  0.00     0.010 A 
ATOM     41  C   UNL A   1      36.745  33.296  28.481  1.00  0.00     0.010 A 
ATOM     42  C   UNL A   1      36.812  32.543  29.663  1.00  0.00    -0.014 A 
BRANCH  42  43
ATOM     43  C   UNL A   1      38.105  31.936  30.074  1.00  0.00     0.031 A 
ATOM     44  C   UNL A   1      39.025  32.672  31.009  1.00  0.00     0.074 A 
ATOM     45  C   UNL A   1      38.483  30.752  29.551  1.00  0.00     0.049 A 
ATOM     46  N   UNL A   1      40.223  32.342  31.421  1.00  0.00    -0.248 NA
ATOM     47  C   UNL A   1      38.548  33.964  31.527  1.00  0.00     0.031 C 
ATOM     48  C   UNL A   1      37.706  29.960  28.595  1.00  0.00     0.029 A 
ATOM     49  N   UNL A   1      39.624  30.012  29.742  1.00  0.00    -0.354 N 
ATOM     50  C   UNL A   1      40.648  33.390  32.228  1.00  0.00     0.074 A 
ATOM     51  C   UNL A   1      39.603  34.392  32.203  1.00  0.00     0.031 C 
ATOM     52  C   UNL A   1      38.379  28.836  28.303  1.00  0.00     0.029 A 
ATOM     53  C   UNL A   1      39.652  28.845  29.016  1.00  0.00     0.049 A 
ATOM     54  H   UNL A   1      40.352  30.291  30.342  1.00  0.00     0.167 HD
ATOM     55  C   UNL A   1      41.791  33.499  32.947  1.00  0.00     0.037 A 
ATOM     56  C   UNL A   1      40.601  27.893  28.928  1.00  0.00     0.037 A 
ATOM     57  C   UNL A   1      42.816  32.489  32.991  1.00  0.00     0.049 A 
ATOM     58  C   UNL A   1      41.865  28.040  29.731  1.00  0.00     0.074 A 
ATOM     59  C   UNL A   1      43.983  32.479  33.735  1.00  0.00     0.029 A 
ATOM     60  N   UNL A   1      42.799  31.314  32.256  1.00  0.00    -0.354 N 
ATOM     61  N   UNL A   1      42.220  29.004  30.545  1.00  0.00    -0.248 NA
ATOM     62  C   UNL A   1      42.858  26.964  29.606  1.00  0.00     0.031 C 
ATOM     63  C   UNL A   1      44.694  31.318  33.415  1.00  0.00     0.029 A 
ATOM     64  C   UNL A   1      43.946  30.580  32.513  1.00  0.00     0.049 A 
ATOM     65  H   UNL A   1      42.079  31.040  31.643  1.00  0.00     0.167 HD
ATOM     66  C   UNL A   1      43.460  28.636  31.053  1.00  0.00     0.074 A 
ATOM     67  C   UNL A   1      43.788  27.354  30.465  1.00  0.00     0.031 C 
ATOM     68  C   UNL A   1      44.254  29.300  31.928  1.00  0.00     0.037 A 
BRANCH  55  69
ATOM     69  C   UNL A   1      41.990  34.754  33.748  1.00  0.00     0.057 A 
ATOM     70  C   UNL A   1      42.629  35.879  33.212  1.00  0.00     0.134 A 
ATOM     71  C   UNL A   1      41.508  34.849  35.060  1.00  0.00     0.134 A 
ATOM     72  F   UNL A   1      43.124  35.851  31.966  1.00  0.00    -0.206 F 
ATOM     73  C   UNL A   1      42.807  37.045  33.960  1.00  0.00     0.040 A 
ATOM     74  C   UNL A   1      41.652  36.019  35.808  1.00  0.00     0.040 A 
ATOM     75  F   UNL A   1      40.879  33.812  35.633  1.00  0.00    -0.206 F 
ATOM     76  C   UNL A   1      42.311  37.119  35.260  1.00  0.00     0.006 A 
ENDBRANCH  55  69
BRANCH  56  77
ATOM     77  C   UNL A   1      40.387  26.704  28.063  1.00  0.00     0.057 A 
ATOM     78  C   UNL A   1      40.973  26.620  26.794  1.00  0.00     0.134 A 
ATOM     79  C   UNL A   1      39.585  25.634  28.474  1.00  0.00     0.134 A 
ATOM     80  F   UNL A   1      41.737  27.623  26.336  1.00  0.00    -0.206 F 
ATOM     81  C   UNL A   1      40.751  25.526  25.956  1.00  0.00     0.040 A 
ATOM     82  C   UNL A   1      39.376  24.521  27.657  1.00  0.00     0.040 A 
ATOM     83  F   UNL A   1      39.002  25.648  29.682  1.00  0.00    -0.206 F 
ATOM     84  C   UNL A   1      39.953  24.470  26.390  1.00  0.00     0.006 A 
ENDBRANCH  56  77
BRANCH  68  85
ATOM     85  C   UNL A   1      45.537  28.634  32.335  1.00  0.00     0.057 A 
ATOM     86  C   UNL A   1      46.742  28.869  31.662  1.00  0.00     0.134 A 
ATOM     87  C   UNL A   1      45.571  27.776  33.443  1.00  0.00     0.134 A 
ATOM     88  F   UNL A   1      46.776  29.670  30.586  1.00  0.00    -0.206 F 
ATOM     89  C   UNL A   1      47.932  28.258  32.062  1.00  0.00     0.040 A 
ATOM     90  C   UNL A   1      46.759  27.183  33.870  1.00  0.00     0.040 A 
ATOM     91  F   UNL A   1      44.453  27.516  34.138  1.00  0.00    -0.206 F 
ATOM     92  C   UNL A   1      47.943  27.418  33.174  1.00  0.00     0.006 A 
ENDBRANCH  68  85
ENDBRANCH  42  43
ENDBRANCH  34  37
ENDBRANCH  32  33
ENDBRANCH   1  32
TORSDOF 13
ENDMDL
