MODEL 1
REMARK VINA RESULT:     -12.5      0.000      0.000
REMARK SMILES CCc1ccc(S(=O)(=O)N2CCC3(CC2)NC(=O)C[C@H]3C(=O)NCCCNC(=O)c2ccc(-c3c4nc(c(-c5c(F)cccc5F)c5ccc([nH]5)c(-c5c(F)cccc5F)c5nc(c(-c6c(F)cccc6F)c6ccc3[nH]6)C=C5)C=C4)cc2)s1
REMARK SMILES IDX 24 1 23 2 21 3 22 4 20 6 10 7 11 8 15 9 12 10 14 11 13 12
REMARK SMILES IDX 16 13 17 14 19 16 18 17 7 18 8 19 9 20 6 21 3 22 4 23 84 24
REMARK SMILES IDX 5 25 2 26 1 27 25 28 26 29 27 30 28 31 29 33 30 34 31 35
REMARK SMILES IDX 83 36 32 37 82 38 33 39 34 40 35 41 76 42 36 43 81 44 75 45
REMARK SMILES IDX 77 46 37 47 80 48 74 49 73 50 38 52 64 53 47 54 63 55 48 56
REMARK SMILES IDX 51 57 62 58 78 59 49 60 50 61 61 63 79 64 52 65 39 66 40 67
REMARK SMILES IDX 45 68 41 69 42 70 44 71 46 72 43 73 65 74 66 75 71 76 67 77
REMARK SMILES IDX 68 78 70 79 72 80 69 81 53 82 54 83 59 84 55 85 56 86 58 87
REMARK SMILES IDX 60 88 57 89
REMARK H PARENT 23 5 16 15 27 32 77 51 51 62
REMARK Flexibility Score: inf
ROOT
ATOM      1  C   UNL A   1      35.520  20.994  25.405  1.00  0.00     0.117 C 
ENDROOT
BRANCH   1   2
ATOM      2  N   UNL A   1      34.103  20.671  25.315  1.00  0.00    -0.356 N 
ATOM      3  C   UNL A   1      32.954  21.351  25.539  1.00  0.00     0.226 C 
ATOM      4  O   UNL A   1      31.909  20.709  25.375  1.00  0.00    -0.275 OA
ATOM      5  H   UNL A   1      33.944  19.744  25.025  1.00  0.00     0.163 HD
BRANCH   3   6
ATOM      6  C   UNL A   1      32.845  22.799  26.008  1.00  0.00     0.113 C 
ATOM      7  N   UNL A   1      33.777  25.467  22.968  1.00  0.00    -0.197 NA
ATOM      8  C   UNL A   1      34.017  25.904  24.339  1.00  0.00     0.105 C 
ATOM      9  C   UNL A   1      33.761  24.019  22.811  1.00  0.00     0.105 C 
ATOM     10  C   UNL A   1      33.074  25.250  25.349  1.00  0.00     0.046 C 
ATOM     11  C   UNL A   1      32.531  23.476  23.501  1.00  0.00     0.046 C 
ATOM     12  C   UNL A   1      32.401  23.876  24.986  1.00  0.00     0.055 C 
ATOM     13  N   UNL A   1      30.988  23.990  25.338  1.00  0.00    -0.350 N 
ATOM     14  C   UNL A   1      30.704  23.632  26.635  1.00  0.00     0.221 C 
ATOM     15  H   UNL A   1      30.300  24.297  24.703  1.00  0.00     0.164 HD
ATOM     16  C   UNL A   1      31.921  22.976  27.223  1.00  0.00     0.116 C 
ATOM     17  O   UNL A   1      29.630  23.800  27.182  1.00  0.00    -0.275 OA
BRANCH   7  18
ATOM     18  S   UNL A   1      33.073  26.477  21.805  1.00  0.00     0.252 S 
ATOM     19  O   UNL A   1      32.664  25.641  20.696  1.00  0.00    -0.206 OA
ATOM     20  O   UNL A   1      33.935  27.624  21.627  1.00  0.00    -0.206 OA
BRANCH  18  21
ATOM     21  C   UNL A   1      31.567  27.171  22.482  1.00  0.00     0.135 A 
ATOM     22  C   UNL A   1      29.824  28.806  23.171  1.00  0.00     0.006 A 
ATOM     23  C   UNL A   1      29.470  27.506  23.457  1.00  0.00     0.017 A 
ATOM     24  S   UNL A   1      31.361  28.871  22.400  1.00  0.00    -0.127 S 
ATOM     25  C   UNL A   1      30.510  26.593  23.150  1.00  0.00     0.034 A 
BRANCH  22  26
ATOM     26  C   UNL A   1      29.087  30.075  23.499  1.00  0.00     0.043 C 
ATOM     27  C   UNL A   1      27.653  30.092  22.980  1.00  0.00     0.010 C 
ENDBRANCH  22  26
ENDBRANCH  18  21
ENDBRANCH   7  18
ENDBRANCH   3   6
ENDBRANCH   1   2
BRANCH   1  28
ATOM     28  C   UNL A   1      35.852  22.416  24.957  1.00  0.00     0.042 C 
BRANCH  28  29
ATOM     29  C   UNL A   1      36.915  23.102  25.810  1.00  0.00     0.118 C 
BRANCH  29  30
ATOM     30  N   UNL A   1      38.013  22.201  26.126  1.00  0.00    -0.352 N 
ATOM     31  C   UNL A   1      39.317  22.476  26.452  1.00  0.00     0.251 C 
ATOM     32  H   UNL A   1      37.784  21.243  26.103  1.00  0.00     0.163 HD
ATOM     33  O   UNL A   1      40.149  21.575  26.410  1.00  0.00    -0.269 OA
BRANCH  31  34
ATOM     34  C   UNL A   1      39.729  23.839  26.854  1.00  0.00     0.039 A 
ATOM     35  C   UNL A   1      39.751  24.163  28.214  1.00  0.00     0.014 A 
ATOM     36  C   UNL A   1      40.024  24.818  25.901  1.00  0.00     0.014 A 
ATOM     37  C   UNL A   1      40.107  25.452  28.619  1.00  0.00     0.010 A 
ATOM     38  C   UNL A   1      40.451  26.080  26.308  1.00  0.00     0.010 A 
ATOM     39  C   UNL A   1      40.483  26.415  27.669  1.00  0.00    -0.014 A 
BRANCH  39  40
ATOM     40  C   UNL A   1      40.892  27.783  28.077  1.00  0.00     0.031 A 
ATOM     41  C   UNL A   1      42.345  28.176  28.052  1.00  0.00     0.074 A 
ATOM     42  C   UNL A   1      39.967  28.648  28.535  1.00  0.00     0.049 A 
ATOM     43  N   UNL A   1      42.909  29.286  28.454  1.00  0.00    -0.248 NA
ATOM     44  C   UNL A   1      43.291  27.176  27.533  1.00  0.00     0.031 C 
ATOM     45  C   UNL A   1      38.534  28.372  28.650  1.00  0.00     0.029 A 
ATOM     46  N   UNL A   1      40.098  29.931  29.004  1.00  0.00    -0.354 N 
ATOM     47  C   UNL A   1      44.274  29.110  28.258  1.00  0.00     0.074 A 
ATOM     48  C   UNL A   1      44.457  27.768  27.747  1.00  0.00     0.031 C 
ATOM     49  C   UNL A   1      37.917  29.460  29.138  1.00  0.00     0.029 A 
ATOM     50  C   UNL A   1      38.912  30.492  29.408  1.00  0.00     0.049 A 
ATOM     51  H   UNL A   1      40.961  30.404  29.047  1.00  0.00     0.167 HD
ATOM     52  C   UNL A   1      45.281  29.992  28.464  1.00  0.00     0.037 A 
ATOM     53  C   UNL A   1      38.656  31.700  29.944  1.00  0.00     0.037 A 
ATOM     54  C   UNL A   1      45.092  31.336  28.943  1.00  0.00     0.049 A 
ATOM     55  C   UNL A   1      39.790  32.663  30.161  1.00  0.00     0.074 A 
ATOM     56  C   UNL A   1      46.039  32.328  29.122  1.00  0.00     0.029 A 
ATOM     57  N   UNL A   1      43.871  31.875  29.318  1.00  0.00    -0.354 N 
ATOM     58  N   UNL A   1      41.067  32.506  29.911  1.00  0.00    -0.248 NA
ATOM     59  C   UNL A   1      39.446  33.974  30.730  1.00  0.00     0.031 C 
ATOM     60  C   UNL A   1      45.398  33.456  29.646  1.00  0.00     0.029 A 
ATOM     61  C   UNL A   1      44.044  33.181  29.748  1.00  0.00     0.049 A 
ATOM     62  H   UNL A   1      43.009  31.401  29.285  1.00  0.00     0.167 HD
ATOM     63  C   UNL A   1      41.675  33.703  30.266  1.00  0.00     0.074 A 
ATOM     64  C   UNL A   1      40.623  34.582  30.737  1.00  0.00     0.031 C 
ATOM     65  C   UNL A   1      42.986  34.044  30.207  1.00  0.00     0.037 A 
BRANCH  52  66
ATOM     66  C   UNL A   1      46.678  29.527  28.170  1.00  0.00     0.057 A 
ATOM     67  C   UNL A   1      47.228  29.604  26.884  1.00  0.00     0.134 A 
ATOM     68  C   UNL A   1      47.494  29.020  29.190  1.00  0.00     0.134 A 
ATOM     69  F   UNL A   1      46.498  30.069  25.858  1.00  0.00    -0.206 F 
ATOM     70  C   UNL A   1      48.527  29.165  26.616  1.00  0.00     0.040 A 
ATOM     71  C   UNL A   1      48.802  28.605  28.941  1.00  0.00     0.040 A 
ATOM     72  F   UNL A   1      47.034  28.926  30.447  1.00  0.00    -0.206 F 
ATOM     73  C   UNL A   1      49.320  28.669  27.648  1.00  0.00     0.006 A 
ENDBRANCH  52  66
BRANCH  53  74
ATOM     74  C   UNL A   1      37.262  32.075  30.291  1.00  0.00     0.057 A 
ATOM     75  C   UNL A   1      36.448  32.749  29.372  1.00  0.00     0.134 A 
ATOM     76  C   UNL A   1      36.709  31.768  31.539  1.00  0.00     0.134 A 
ATOM     77  F   UNL A   1      36.928  33.086  28.166  1.00  0.00    -0.206 F 
ATOM     78  C   UNL A   1      35.140  33.117  29.688  1.00  0.00     0.040 A 
ATOM     79  C   UNL A   1      35.394  32.109  31.860  1.00  0.00     0.040 A 
ATOM     80  F   UNL A   1      37.435  31.115  32.459  1.00  0.00    -0.206 F 
ATOM     81  C   UNL A   1      34.608  32.791  30.934  1.00  0.00     0.006 A 
ENDBRANCH  53  74
BRANCH  65  82
ATOM     82  C   UNL A   1      43.352  35.436  30.629  1.00  0.00     0.057 A 
ATOM     83  C   UNL A   1      43.700  35.741  31.950  1.00  0.00     0.134 A 
ATOM     84  C   UNL A   1      43.398  36.475  29.691  1.00  0.00     0.134 A 
ATOM     85  F   UNL A   1      43.664  34.794  32.899  1.00  0.00    -0.206 F 
ATOM     86  C   UNL A   1      44.062  37.036  32.328  1.00  0.00     0.040 A 
ATOM     87  C   UNL A   1      43.782  37.767  30.050  1.00  0.00     0.040 A 
ATOM     88  F   UNL A   1      43.083  36.248  28.406  1.00  0.00    -0.206 F 
ATOM     89  C   UNL A   1      44.111  38.051  31.374  1.00  0.00     0.006 A 
ENDBRANCH  65  82
ENDBRANCH  39  40
ENDBRANCH  31  34
ENDBRANCH  29  30
ENDBRANCH  28  29
ENDBRANCH   1  28
TORSDOF 13
ENDMDL
MODEL 2
REMARK VINA RESULT:     -12.5      3.489      7.701
REMARK SMILES CCc1ccc(S(=O)(=O)N2CCC3(CC2)NC(=O)C[C@H]3C(=O)NCCCNC(=O)c2ccc(-c3c4nc(c(-c5c(F)cccc5F)c5ccc([nH]5)c(-c5c(F)cccc5F)c5nc(c(-c6c(F)cccc6F)c6ccc3[nH]6)C=C5)C=C4)cc2)s1
REMARK SMILES IDX 24 1 23 2 21 3 22 4 20 6 10 7 11 8 15 9 12 10 14 11 13 12
REMARK SMILES IDX 16 13 17 14 19 16 18 17 7 18 8 19 9 20 6 21 3 22 4 23 84 24
REMARK SMILES IDX 5 25 2 26 1 27 25 28 26 29 27 30 28 31 29 33 30 34 31 35
REMARK SMILES IDX 83 36 32 37 82 38 33 39 34 40 35 41 76 42 36 43 81 44 75 45
REMARK SMILES IDX 77 46 37 47 80 48 74 49 73 50 38 52 64 53 47 54 63 55 48 56
REMARK SMILES IDX 51 57 62 58 78 59 49 60 50 61 61 63 79 64 52 65 39 66 40 67
REMARK SMILES IDX 45 68 41 69 42 70 44 71 46 72 43 73 65 74 66 75 71 76 67 77
REMARK SMILES IDX 68 78 70 79 72 80 69 81 53 82 54 83 59 84 55 85 56 86 58 87
REMARK SMILES IDX 60 88 57 89
REMARK H PARENT 23 5 16 15 27 32 77 51 51 62
REMARK Flexibility Score: inf
ROOT
ATOM      1  C   UNL A   1      31.672  29.940  25.516  1.00  0.00     0.117 C 
ENDROOT
BRANCH   1   2
ATOM      2  N   UNL A   1      31.168  29.638  24.184  1.00  0.00    -0.356 N 
ATOM      3  C   UNL A   1      31.496  28.744  23.220  1.00  0.00     0.226 C 
ATOM      4  O   UNL A   1      30.834  28.813  22.177  1.00  0.00    -0.275 OA
ATOM      5  H   UNL A   1      30.417  30.216  23.923  1.00  0.00     0.163 HD
BRANCH   3   6
ATOM      6  C   UNL A   1      32.618  27.713  23.297  1.00  0.00     0.113 C 
ATOM      7  N   UNL A   1      32.019  25.028  26.405  1.00  0.00    -0.197 NA
ATOM      8  C   UNL A   1      33.396  25.284  25.998  1.00  0.00     0.105 C 
ATOM      9  C   UNL A   1      31.099  26.105  26.064  1.00  0.00     0.105 C 
ATOM     10  C   UNL A   1      33.522  25.671  24.524  1.00  0.00     0.046 C 
ATOM     11  C   UNL A   1      30.947  26.146  24.560  1.00  0.00     0.046 C 
ATOM     12  C   UNL A   1      32.276  26.283  23.787  1.00  0.00     0.055 C 
ATOM     13  N   UNL A   1      32.164  25.597  22.502  1.00  0.00    -0.350 N 
ATOM     14  C   UNL A   1      32.883  26.187  21.489  1.00  0.00     0.221 C 
ATOM     15  H   UNL A   1      31.623  24.784  22.373  1.00  0.00     0.164 HD
ATOM     16  C   UNL A   1      33.364  27.527  21.967  1.00  0.00     0.116 C 
ATOM     17  O   UNL A   1      33.059  25.697  20.388  1.00  0.00    -0.275 OA
BRANCH   7  18
ATOM     18  S   UNL A   1      31.448  23.469  26.742  1.00  0.00     0.252 S 
ATOM     19  O   UNL A   1      30.004  23.542  26.811  1.00  0.00    -0.206 OA
ATOM     20  O   UNL A   1      32.243  22.925  27.820  1.00  0.00    -0.206 OA
BRANCH  18  21
ATOM     21  C   UNL A   1      31.824  22.406  25.350  1.00  0.00     0.135 A 
ATOM     22  C   UNL A   1      32.600  20.461  24.009  1.00  0.00     0.006 A 
ATOM     23  C   UNL A   1      32.055  21.456  23.228  1.00  0.00     0.017 A 
ATOM     24  S   UNL A   1      32.541  20.884  25.676  1.00  0.00    -0.127 S 
ATOM     25  C   UNL A   1      31.706  22.598  23.991  1.00  0.00     0.034 A 
BRANCH  22  26
ATOM     26  C   UNL A   1      33.247  19.174  23.576  1.00  0.00     0.043 C 
ATOM     27  C   UNL A   1      32.329  18.287  22.742  1.00  0.00     0.010 C 
ENDBRANCH  22  26
ENDBRANCH  18  21
ENDBRANCH   7  18
ENDBRANCH   3   6
ENDBRANCH   1   2
BRANCH   1  28
ATOM     28  C   UNL A   1      31.370  31.366  25.974  1.00  0.00     0.042 C 
BRANCH  28  29
ATOM     29  C   UNL A   1      32.154  31.798  27.209  1.00  0.00     0.118 C 
BRANCH  29  30
ATOM     30  N   UNL A   1      32.147  33.243  27.372  1.00  0.00    -0.352 N 
ATOM     31  C   UNL A   1      32.965  34.053  28.118  1.00  0.00     0.251 C 
ATOM     32  H   UNL A   1      31.445  33.714  26.867  1.00  0.00     0.163 HD
ATOM     33  O   UNL A   1      32.623  35.212  28.340  1.00  0.00    -0.269 OA
BRANCH  31  34
ATOM     34  C   UNL A   1      34.249  33.552  28.654  1.00  0.00     0.039 A 
ATOM     35  C   UNL A   1      35.430  33.857  27.968  1.00  0.00     0.014 A 
ATOM     36  C   UNL A   1      34.293  32.726  29.780  1.00  0.00     0.014 A 
ATOM     37  C   UNL A   1      36.654  33.369  28.435  1.00  0.00     0.010 A 
ATOM     38  C   UNL A   1      35.519  32.303  30.288  1.00  0.00     0.010 A 
ATOM     39  C   UNL A   1      36.711  32.608  29.613  1.00  0.00    -0.014 A 
BRANCH  39  40
ATOM     40  C   UNL A   1      38.002  32.103  30.145  1.00  0.00     0.031 A 
ATOM     41  C   UNL A   1      38.592  30.826  29.610  1.00  0.00     0.074 A 
ATOM     42  C   UNL A   1      38.609  32.755  31.154  1.00  0.00     0.049 A 
ATOM     43  N   UNL A   1      39.657  30.177  30.004  1.00  0.00    -0.248 NA
ATOM     44  C   UNL A   1      37.870  30.178  28.503  1.00  0.00     0.031 C 
ATOM     45  C   UNL A   1      38.117  33.979  31.788  1.00  0.00     0.029 A 
ATOM     46  N   UNL A   1      39.767  32.470  31.834  1.00  0.00    -0.354 N 
ATOM     47  C   UNL A   1      39.721  29.036  29.213  1.00  0.00     0.074 A 
ATOM     48  C   UNL A   1      38.560  29.057  28.348  1.00  0.00     0.031 C 
ATOM     49  C   UNL A   1      38.976  34.350  32.752  1.00  0.00     0.029 A 
ATOM     50  C   UNL A   1      40.056  33.370  32.830  1.00  0.00     0.049 A 
ATOM     51  H   UNL A   1      40.336  31.693  31.628  1.00  0.00     0.167 HD
ATOM     52  C   UNL A   1      40.670  28.070  29.192  1.00  0.00     0.037 A 
ATOM     53  C   UNL A   1      41.071  33.400  33.712  1.00  0.00     0.037 A 
ATOM     54  C   UNL A   1      41.840  28.069  30.032  1.00  0.00     0.049 A 
ATOM     55  C   UNL A   1      42.115  32.318  33.669  1.00  0.00     0.074 A 
ATOM     56  C   UNL A   1      42.893  27.172  30.042  1.00  0.00     0.029 A 
ATOM     57  N   UNL A   1      42.108  29.013  31.011  1.00  0.00    -0.354 N 
ATOM     58  N   UNL A   1      42.196  31.280  32.872  1.00  0.00    -0.248 NA
ATOM     59  C   UNL A   1      43.210  32.415  34.644  1.00  0.00     0.031 C 
ATOM     60  C   UNL A   1      43.780  27.550  31.056  1.00  0.00     0.029 A 
ATOM     61  C   UNL A   1      43.301  28.708  31.646  1.00  0.00     0.049 A 
ATOM     62  H   UNL A   1      41.536  29.785  31.225  1.00  0.00     0.167 HD
ATOM     63  C   UNL A   1      43.361  30.616  33.230  1.00  0.00     0.074 A 
ATOM     64  C   UNL A   1      43.961  31.376  34.308  1.00  0.00     0.031 C 
ATOM     65  C   UNL A   1      43.888  29.479  32.712  1.00  0.00     0.037 A 
BRANCH  52  66
ATOM     66  C   UNL A   1      40.481  26.935  28.228  1.00  0.00     0.057 A 
ATOM     67  C   UNL A   1      39.658  25.841  28.525  1.00  0.00     0.134 A 
ATOM     68  C   UNL A   1      41.109  26.947  26.975  1.00  0.00     0.134 A 
ATOM     69  F   UNL A   1      39.035  25.761  29.712  1.00  0.00    -0.206 F 
ATOM     70  C   UNL A   1      39.490  24.786  27.626  1.00  0.00     0.040 A 
ATOM     71  C   UNL A   1      40.927  25.912  26.057  1.00  0.00     0.040 A 
ATOM     72  F   UNL A   1      41.905  27.967  26.621  1.00  0.00    -0.206 F 
ATOM     73  C   UNL A   1      40.121  24.823  26.385  1.00  0.00     0.006 A 
ENDBRANCH  52  66
BRANCH  53  74
ATOM     74  C   UNL A   1      41.163  34.506  34.698  1.00  0.00     0.057 A 
ATOM     75  C   UNL A   1      41.815  35.703  34.378  1.00  0.00     0.134 A 
ATOM     76  C   UNL A   1      40.601  34.398  35.975  1.00  0.00     0.134 A 
ATOM     77  F   UNL A   1      42.387  35.859  33.176  1.00  0.00    -0.206 F 
ATOM     78  C   UNL A   1      41.918  36.747  35.298  1.00  0.00     0.040 A 
ATOM     79  C   UNL A   1      40.677  35.444  36.897  1.00  0.00     0.040 A 
ATOM     80  F   UNL A   1      39.956  33.281  36.339  1.00  0.00    -0.206 F 
ATOM     81  C   UNL A   1      41.342  36.620  36.561  1.00  0.00     0.006 A 
ENDBRANCH  53  74
BRANCH  65  82
ATOM     82  C   UNL A   1      45.194  29.008  33.280  1.00  0.00     0.057 A 
ATOM     83  C   UNL A   1      46.423  29.421  32.753  1.00  0.00     0.134 A 
ATOM     84  C   UNL A   1      45.220  28.163  34.398  1.00  0.00     0.134 A 
ATOM     85  F   UNL A   1      46.466  30.219  31.675  1.00  0.00    -0.206 F 
ATOM     86  C   UNL A   1      47.633  28.996  33.304  1.00  0.00     0.040 A 
ATOM     87  C   UNL A   1      46.422  27.752  34.973  1.00  0.00     0.040 A 
ATOM     88  F   UNL A   1      44.077  27.737  34.957  1.00  0.00    -0.206 F 
ATOM     89  C   UNL A   1      47.634  28.164  34.423  1.00  0.00     0.006 A 
ENDBRANCH  65  82
ENDBRANCH  39  40
ENDBRANCH  31  34
ENDBRANCH  29  30
ENDBRANCH  28  29
ENDBRANCH   1  28
TORSDOF 13
ENDMDL
MODEL 3
REMARK VINA RESULT:     -12.5      3.096      8.095
REMARK SMILES CCc1ccc(S(=O)(=O)N2CCC3(CC2)NC(=O)C[C@H]3C(=O)NCCCNC(=O)c2ccc(-c3c4nc(c(-c5c(F)cccc5F)c5ccc([nH]5)c(-c5c(F)cccc5F)c5nc(c(-c6c(F)cccc6F)c6ccc3[nH]6)C=C5)C=C4)cc2)s1
REMARK SMILES IDX 24 1 23 2 21 3 22 4 20 6 10 7 11 8 15 9 12 10 14 11 13 12
REMARK SMILES IDX 16 13 17 14 19 16 18 17 7 18 8 19 9 20 6 21 3 22 4 23 84 24
REMARK SMILES IDX 5 25 2 26 1 27 25 28 26 29 27 30 28 31 29 33 30 34 31 35
REMARK SMILES IDX 83 36 32 37 82 38 33 39 34 40 35 41 76 42 36 43 81 44 75 45
REMARK SMILES IDX 77 46 37 47 80 48 74 49 73 50 38 52 64 53 47 54 63 55 48 56
REMARK SMILES IDX 51 57 62 58 78 59 49 60 50 61 61 63 79 64 52 65 39 66 40 67
REMARK SMILES IDX 45 68 41 69 42 70 44 71 46 72 43 73 65 74 66 75 71 76 67 77
REMARK SMILES IDX 68 78 70 79 72 80 69 81 53 82 54 83 59 84 55 85 56 86 58 87
REMARK SMILES IDX 60 88 57 89
REMARK H PARENT 23 5 16 15 27 32 77 51 51 62
REMARK Flexibility Score: inf
ROOT
ATOM      1  C   UNL A   1      32.862  29.705  25.134  1.00  0.00     0.117 C 
ENDROOT
BRANCH   1   2
ATOM      2  N   UNL A   1      31.997  29.250  24.055  1.00  0.00    -0.356 N 
ATOM      3  C   UNL A   1      31.989  28.180  23.227  1.00  0.00     0.226 C 
ATOM      4  O   UNL A   1      31.075  28.153  22.392  1.00  0.00    -0.275 OA
ATOM      5  H   UNL A   1      31.244  29.862  23.890  1.00  0.00     0.163 HD
BRANCH   3   6
ATOM      6  C   UNL A   1      33.016  27.051  23.208  1.00  0.00     0.113 C 
ATOM      7  N   UNL A   1      32.556  24.511  26.458  1.00  0.00    -0.197 NA
ATOM      8  C   UNL A   1      33.892  24.628  25.885  1.00  0.00     0.105 C 
ATOM      9  C   UNL A   1      31.701  25.659  26.188  1.00  0.00     0.105 C 
ATOM     10  C   UNL A   1      33.875  24.966  24.393  1.00  0.00     0.046 C 
ATOM     11  C   UNL A   1      31.375  25.678  24.712  1.00  0.00     0.046 C 
ATOM     12  C   UNL A   1      32.609  25.672  23.785  1.00  0.00     0.055 C 
ATOM     13  N   UNL A   1      32.284  24.967  22.547  1.00  0.00    -0.350 N 
ATOM     14  C   UNL A   1      32.926  25.463  21.437  1.00  0.00     0.221 C 
ATOM     15  H   UNL A   1      31.661  24.205  22.511  1.00  0.00     0.164 HD
ATOM     16  C   UNL A   1      33.578  26.764  21.808  1.00  0.00     0.116 C 
ATOM     17  O   UNL A   1      32.926  24.933  20.341  1.00  0.00    -0.275 OA
BRANCH   7  18
ATOM     18  S   UNL A   1      31.893  23.020  26.914  1.00  0.00     0.252 S 
ATOM     19  O   UNL A   1      30.452  23.153  26.862  1.00  0.00    -0.206 OA
ATOM     20  O   UNL A   1      32.582  22.569  28.102  1.00  0.00    -0.206 OA
BRANCH  18  21
ATOM     21  C   UNL A   1      32.322  21.798  25.678  1.00  0.00     0.135 A 
ATOM     22  C   UNL A   1      33.286  19.780  24.589  1.00  0.00     0.006 A 
ATOM     23  C   UNL A   1      32.535  20.540  23.719  1.00  0.00     0.017 A 
ATOM     24  S   UNL A   1      33.290  20.471  26.166  1.00  0.00    -0.127 S 
ATOM     25  C   UNL A   1      32.072  21.735  24.324  1.00  0.00     0.034 A 
BRANCH  22  26
ATOM     26  C   UNL A   1      34.091  18.543  24.301  1.00  0.00     0.043 C 
ATOM     27  C   UNL A   1      33.373  17.554  23.390  1.00  0.00     0.010 C 
ENDBRANCH  22  26
ENDBRANCH  18  21
ENDBRANCH   7  18
ENDBRANCH   3   6
ENDBRANCH   1   2
BRANCH   1  28
ATOM     28  C   UNL A   1      33.815  28.628  25.649  1.00  0.00     0.042 C 
BRANCH  28  29
ATOM     29  C   UNL A   1      34.038  28.668  27.158  1.00  0.00     0.118 C 
BRANCH  29  30
ATOM     30  N   UNL A   1      33.942  30.023  27.679  1.00  0.00    -0.352 N 
ATOM     31  C   UNL A   1      34.807  30.727  28.477  1.00  0.00     0.251 C 
ATOM     32  H   UNL A   1      33.128  30.511  27.417  1.00  0.00     0.163 HD
ATOM     33  O   UNL A   1      34.416  31.750  29.031  1.00  0.00    -0.269 OA
BRANCH  31  34
ATOM     34  C   UNL A   1      36.201  30.271  28.675  1.00  0.00     0.039 A 
ATOM     35  C   UNL A   1      37.075  30.281  27.582  1.00  0.00     0.014 A 
ATOM     36  C   UNL A   1      36.633  29.769  29.906  1.00  0.00     0.014 A 
ATOM     37  C   UNL A   1      38.387  29.826  27.734  1.00  0.00     0.010 A 
ATOM     38  C   UNL A   1      37.961  29.387  30.076  1.00  0.00     0.010 A 
ATOM     39  C   UNL A   1      38.848  29.398  28.989  1.00  0.00    -0.014 A 
BRANCH  39  40
ATOM     40  C   UNL A   1      40.247  28.938  29.182  1.00  0.00     0.031 A 
ATOM     41  C   UNL A   1      41.274  29.867  29.772  1.00  0.00     0.074 A 
ATOM     42  C   UNL A   1      40.610  27.710  28.763  1.00  0.00     0.049 A 
ATOM     43  N   UNL A   1      42.559  29.684  29.936  1.00  0.00    -0.248 NA
ATOM     44  C   UNL A   1      40.795  31.188  30.210  1.00  0.00     0.031 C 
ATOM     45  C   UNL A   1      39.719  26.732  28.136  1.00  0.00     0.029 A 
ATOM     46  N   UNL A   1      41.829  27.081  28.790  1.00  0.00    -0.354 N 
ATOM     47  C   UNL A   1      43.045  30.870  30.472  1.00  0.00     0.074 A 
ATOM     48  C   UNL A   1      41.925  31.783  30.561  1.00  0.00     0.031 C 
ATOM     49  C   UNL A   1      40.417  25.621  27.854  1.00  0.00     0.029 A 
ATOM     50  C   UNL A   1      41.810  25.822  28.243  1.00  0.00     0.049 A 
ATOM     51  H   UNL A   1      42.641  27.494  29.164  1.00  0.00     0.167 HD
ATOM     52  C   UNL A   1      44.304  31.166  30.874  1.00  0.00     0.037 A 
ATOM     53  C   UNL A   1      42.804  24.931  28.067  1.00  0.00     0.037 A 
ATOM     54  C   UNL A   1      45.409  30.245  30.813  1.00  0.00     0.049 A 
ATOM     55  C   UNL A   1      44.193  25.281  28.523  1.00  0.00     0.074 A 
ATOM     56  C   UNL A   1      46.707  30.425  31.255  1.00  0.00     0.029 A 
ATOM     57  N   UNL A   1      45.343  28.968  30.275  1.00  0.00    -0.354 N 
ATOM     58  N   UNL A   1      44.625  26.382  29.087  1.00  0.00    -0.248 NA
ATOM     59  C   UNL A   1      45.232  24.261  28.323  1.00  0.00     0.031 C 
ATOM     60  C   UNL A   1      47.439  29.272  30.948  1.00  0.00     0.029 A 
ATOM     61  C   UNL A   1      46.583  28.357  30.355  1.00  0.00     0.049 A 
ATOM     62  H   UNL A   1      44.534  28.557  29.891  1.00  0.00     0.167 HD
ATOM     63  C   UNL A   1      45.976  26.180  29.334  1.00  0.00     0.074 A 
ATOM     64  C   UNL A   1      46.290  24.844  28.869  1.00  0.00     0.031 C 
ATOM     65  C   UNL A   1      46.877  27.024  29.895  1.00  0.00     0.037 A 
BRANCH  52  66
ATOM     66  C   UNL A   1      44.552  32.544  31.417  1.00  0.00     0.057 A 
ATOM     67  C   UNL A   1      44.945  33.605  30.590  1.00  0.00     0.134 A 
ATOM     68  C   UNL A   1      44.369  32.821  32.778  1.00  0.00     0.134 A 
ATOM     69  F   UNL A   1      45.148  33.406  29.279  1.00  0.00    -0.206 F 
ATOM     70  C   UNL A   1      45.178  34.883  31.102  1.00  0.00     0.040 A 
ATOM     71  C   UNL A   1      44.572  34.101  33.296  1.00  0.00     0.040 A 
ATOM     72  F   UNL A   1      43.986  31.854  33.625  1.00  0.00    -0.206 F 
ATOM     73  C   UNL A   1      44.986  35.135  32.458  1.00  0.00     0.006 A 
ENDBRANCH  52  66
BRANCH  53  74
ATOM     74  C   UNL A   1      42.515  23.613  27.450  1.00  0.00     0.057 A 
ATOM     75  C   UNL A   1      42.573  23.440  26.062  1.00  0.00     0.134 A 
ATOM     76  C   UNL A   1      42.182  22.496  28.226  1.00  0.00     0.134 A 
ATOM     77  F   UNL A   1      42.870  24.477  25.265  1.00  0.00    -0.206 F 
ATOM     78  C   UNL A   1      42.294  22.209  25.467  1.00  0.00     0.040 A 
ATOM     79  C   UNL A   1      41.924  21.254  27.645  1.00  0.00     0.040 A 
ATOM     80  F   UNL A   1      42.120  22.595  29.562  1.00  0.00    -0.206 F 
ATOM     81  C   UNL A   1      41.974  21.110  26.261  1.00  0.00     0.006 A 
ENDBRANCH  53  74
BRANCH  65  82
ATOM     82  C   UNL A   1      48.277  26.515  30.069  1.00  0.00     0.057 A 
ATOM     83  C   UNL A   1      49.270  26.739  29.109  1.00  0.00     0.134 A 
ATOM     84  C   UNL A   1      48.645  25.831  31.235  1.00  0.00     0.134 A 
ATOM     85  F   UNL A   1      48.979  27.377  27.965  1.00  0.00    -0.206 F 
ATOM     86  C   UNL A   1      50.577  26.282  29.292  1.00  0.00     0.040 A 
ATOM     87  C   UNL A   1      49.953  25.392  31.440  1.00  0.00     0.040 A 
ATOM     88  F   UNL A   1      47.743  25.591  32.199  1.00  0.00    -0.206 F 
ATOM     89  C   UNL A   1      50.923  25.613  30.464  1.00  0.00     0.006 A 
ENDBRANCH  65  82
ENDBRANCH  39  40
ENDBRANCH  31  34
ENDBRANCH  29  30
ENDBRANCH  28  29
ENDBRANCH   1  28
TORSDOF 13
ENDMDL
