MODEL 1
REMARK VINA RESULT:     -12.8      0.000      0.000
REMARK SMILES C[C@H](C(=O)NCC(=O)NCCCNC(=O)c1ccc(-c2c3nc(c(-c4c(F)cccc4F)c4ccc([nH]4)c(-c4c(F)cccc4F)c4nc(c(-c5c(F)cccc5F)c5ccc2[nH]5)C=C4)C=C3)cc1)N1C(=O)/C(=C/c2ccc(O)cc2)SC1=S
REMARK SMILES IDX 7 1 8 2 9 3 6 5 5 6 3 7 4 8 2 10 1 11 70 12 71 13 83 14
REMARK SMILES IDX 72 15 73 16 82 17 84 18 74 19 75 20 76 21 81 22 77 23 80 24
REMARK SMILES IDX 78 25 79 26 10 28 11 29 12 30 13 31 14 32 15 34 16 35 17 36
REMARK SMILES IDX 69 37 18 38 68 39 19 40 20 41 21 42 62 43 22 44 67 45 61 46
REMARK SMILES IDX 63 47 23 48 66 49 60 50 59 51 24 53 50 54 33 55 49 56 34 57
REMARK SMILES IDX 37 58 48 59 64 60 35 61 36 62 47 64 65 65 38 66 25 67 26 68
REMARK SMILES IDX 31 69 27 70 28 71 30 72 32 73 29 74 51 75 52 76 57 77 53 78
REMARK SMILES IDX 54 79 56 80 58 81 55 82 39 83 40 84 45 85 41 86 42 87 44 88
REMARK SMILES IDX 46 89 43 90
REMARK H PARENT 9 4 5 9 79 27 13 33 63 52 37 63
REMARK Flexibility Score: inf
ROOT
ATOM      1  C   UNL A   1      32.043  28.803  23.754  1.00  0.00     0.239 C 
ATOM      2  O   UNL A   1      31.336  28.522  22.785  1.00  0.00    -0.273 OA
ATOM      3  N   UNL A   1      31.605  29.775  24.611  1.00  0.00    -0.355 N 
ATOM      4  H   UNL A   1      30.881  30.362  24.293  1.00  0.00     0.163 HD
ENDROOT
BRANCH   1   5
ATOM      5  C   UNL A   1      33.308  27.996  24.102  1.00  0.00     0.216 C 
BRANCH   5   6
ATOM      6  N   UNL A   1      33.664  26.970  23.114  1.00  0.00    -0.345 N 
ATOM      7  C   UNL A   1      33.518  25.615  23.084  1.00  0.00     0.243 C 
ATOM      8  O   UNL A   1      33.612  25.091  21.965  1.00  0.00    -0.273 OA
ATOM      9  H   UNL A   1      34.095  27.335  22.309  1.00  0.00     0.164 HD
BRANCH   7  10
ATOM     10  C   UNL A   1      33.259  24.699  24.323  1.00  0.00     0.178 C 
ATOM     11  C   UNL A   1      31.886  24.863  24.972  1.00  0.00     0.042 C 
BRANCH  10  12
ATOM     12  N   UNL A   1      33.674  23.284  24.286  1.00  0.00    -0.281 N 
ATOM     13  C   UNL A   1      32.851  22.316  23.762  1.00  0.00     0.266 C 
ATOM     14  C   UNL A   1      34.821  22.813  24.912  1.00  0.00     0.149 C 
ATOM     15  O   UNL A   1      31.867  22.485  23.054  1.00  0.00    -0.268 OA
ATOM     16  C   UNL A   1      33.306  20.965  24.146  1.00  0.00     0.081 C 
ATOM     17  S   UNL A   1      34.781  21.057  25.002  1.00  0.00    -0.054 SA
ATOM     18  S   UNL A   1      36.095  23.675  25.566  1.00  0.00    -0.052 S 
ATOM     19  C   UNL A   1      32.576  19.885  23.842  1.00  0.00     0.029 C 
BRANCH  19  20
ATOM     20  C   UNL A   1      32.912  18.523  24.240  1.00  0.00    -0.024 A 
ATOM     21  C   UNL A   1      32.528  18.058  25.500  1.00  0.00     0.012 A 
ATOM     22  C   UNL A   1      33.605  17.679  23.361  1.00  0.00     0.012 A 
ATOM     23  C   UNL A   1      32.813  16.745  25.869  1.00  0.00     0.047 A 
ATOM     24  C   UNL A   1      33.887  16.365  23.731  1.00  0.00     0.047 A 
ATOM     25  C   UNL A   1      33.482  15.908  24.981  1.00  0.00     0.115 A 
BRANCH  25  26
ATOM     26  O   UNL A   1      33.719  14.625  25.376  1.00  0.00    -0.508 OA
ATOM     27  H   UNL A   1      34.513  14.197  25.125  1.00  0.00     0.293 HD
ENDBRANCH  25  26
ENDBRANCH  19  20
ENDBRANCH  10  12
ENDBRANCH   7  10
ENDBRANCH   5   6
ENDBRANCH   1   5
BRANCH   3  28
ATOM     28  C   UNL A   1      32.111  30.014  25.933  1.00  0.00     0.117 C 
BRANCH  28  29
ATOM     29  C   UNL A   1      31.670  31.339  26.522  1.00  0.00     0.042 C 
BRANCH  29  30
ATOM     30  C   UNL A   1      32.825  32.051  27.197  1.00  0.00     0.118 C 
BRANCH  30  31
ATOM     31  N   UNL A   1      32.562  33.477  27.395  1.00  0.00    -0.352 N 
ATOM     32  C   UNL A   1      33.115  34.362  28.286  1.00  0.00     0.251 C 
ATOM     33  H   UNL A   1      31.880  33.860  26.796  1.00  0.00     0.163 HD
ATOM     34  O   UNL A   1      32.647  35.491  28.400  1.00  0.00    -0.269 OA
BRANCH  32  35
ATOM     35  C   UNL A   1      34.248  33.932  29.126  1.00  0.00     0.039 A 
ATOM     36  C   UNL A   1      34.028  33.002  30.144  1.00  0.00     0.014 A 
ATOM     37  C   UNL A   1      35.533  34.407  28.868  1.00  0.00     0.014 A 
ATOM     38  C   UNL A   1      35.117  32.479  30.840  1.00  0.00     0.010 A 
ATOM     39  C   UNL A   1      36.620  33.797  29.471  1.00  0.00     0.010 A 
ATOM     40  C   UNL A   1      36.425  32.833  30.470  1.00  0.00    -0.014 A 
BRANCH  40  41
ATOM     41  C   UNL A   1      37.615  32.224  31.111  1.00  0.00     0.031 A 
ATOM     42  C   UNL A   1      38.361  31.129  30.401  1.00  0.00     0.074 A 
ATOM     43  C   UNL A   1      37.960  32.585  32.363  1.00  0.00     0.049 A 
ATOM     44  N   UNL A   1      39.338  30.376  30.836  1.00  0.00    -0.248 NA
ATOM     45  C   UNL A   1      37.922  30.808  29.031  1.00  0.00     0.031 C 
ATOM     46  C   UNL A   1      37.278  33.595  33.176  1.00  0.00     0.029 A 
ATOM     47  N   UNL A   1      38.964  32.127  33.178  1.00  0.00    -0.354 N 
ATOM     48  C   UNL A   1      39.608  29.483  29.808  1.00  0.00     0.074 A 
ATOM     49  C   UNL A   1      38.652  29.741  28.755  1.00  0.00     0.031 C 
ATOM     50  C   UNL A   1      37.900  33.698  34.361  1.00  0.00     0.029 A 
ATOM     51  C   UNL A   1      38.990  32.731  34.412  1.00  0.00     0.049 A 
ATOM     52  H   UNL A   1      39.604  31.431  32.904  1.00  0.00     0.167 HD
ATOM     53  C   UNL A   1      40.587  28.550  29.735  1.00  0.00     0.037 A 
ATOM     54  C   UNL A   1      39.795  32.516  35.469  1.00  0.00     0.037 A 
ATOM     55  C   UNL A   1      41.555  28.323  30.773  1.00  0.00     0.049 A 
ATOM     56  C   UNL A   1      40.870  31.469  35.366  1.00  0.00     0.074 A 
ATOM     57  C   UNL A   1      42.628  27.451  30.773  1.00  0.00     0.029 A 
ATOM     58  N   UNL A   1      41.566  28.976  31.997  1.00  0.00    -0.354 N 
ATOM     59  N   UNL A   1      41.162  30.680  34.361  1.00  0.00    -0.248 NA
ATOM     60  C   UNL A   1      41.731  31.286  36.544  1.00  0.00     0.031 C 
ATOM     61  C   UNL A   1      43.259  27.538  32.017  1.00  0.00     0.029 A 
ATOM     62  C   UNL A   1      42.615  28.506  32.770  1.00  0.00     0.049 A 
ATOM     63  H   UNL A   1      40.925  29.669  32.274  1.00  0.00     0.167 HD
ATOM     64  C   UNL A   1      42.257  29.930  34.771  1.00  0.00     0.074 A 
ATOM     65  C   UNL A   1      42.584  30.368  36.112  1.00  0.00     0.031 C 
ATOM     66  C   UNL A   1      42.932  28.966  34.098  1.00  0.00     0.037 A 
BRANCH  53  67
ATOM     67  C   UNL A   1      40.656  27.714  28.490  1.00  0.00     0.057 A 
ATOM     68  C   UNL A   1      39.970  26.497  28.376  1.00  0.00     0.134 A 
ATOM     69  C   UNL A   1      41.395  28.143  27.381  1.00  0.00     0.134 A 
ATOM     70  F   UNL A   1      39.255  26.019  29.406  1.00  0.00    -0.206 F 
ATOM     71  C   UNL A   1      40.042  25.722  27.217  1.00  0.00     0.040 A 
ATOM     72  C   UNL A   1      41.449  27.393  26.205  1.00  0.00     0.040 A 
ATOM     73  F   UNL A   1      42.074  29.300  27.419  1.00  0.00    -0.206 F 
ATOM     74  C   UNL A   1      40.778  26.175  26.124  1.00  0.00     0.006 A 
ENDBRANCH  53  67
BRANCH  54  75
ATOM     75  C   UNL A   1      39.630  33.319  36.707  1.00  0.00     0.057 A 
ATOM     76  C   UNL A   1      38.707  32.947  37.691  1.00  0.00     0.134 A 
ATOM     77  C   UNL A   1      40.382  34.478  36.937  1.00  0.00     0.134 A 
ATOM     78  F   UNL A   1      37.946  31.855  37.522  1.00  0.00    -0.206 F 
ATOM     79  C   UNL A   1      38.518  33.708  38.846  1.00  0.00     0.040 A 
ATOM     80  C   UNL A   1      40.223  35.235  38.099  1.00  0.00     0.040 A 
ATOM     81  F   UNL A   1      41.290  34.885  36.039  1.00  0.00    -0.206 F 
ATOM     82  C   UNL A   1      39.282  34.854  39.053  1.00  0.00     0.006 A 
ENDBRANCH  54  75
BRANCH  66  83
ATOM     83  C   UNL A   1      44.117  28.350  34.780  1.00  0.00     0.057 A 
ATOM     84  C   UNL A   1      45.396  28.913  34.700  1.00  0.00     0.134 A 
ATOM     85  C   UNL A   1      43.962  27.206  35.575  1.00  0.00     0.134 A 
ATOM     86  F   UNL A   1      45.615  30.001  33.945  1.00  0.00    -0.206 F 
ATOM     87  C   UNL A   1      46.483  28.351  35.371  1.00  0.00     0.040 A 
ATOM     88  C   UNL A   1      45.035  26.652  36.274  1.00  0.00     0.040 A 
ATOM     89  F   UNL A   1      42.760  26.623  35.703  1.00  0.00    -0.206 F 
ATOM     90  C   UNL A   1      46.301  27.222  36.168  1.00  0.00     0.006 A 
ENDBRANCH  66  83
ENDBRANCH  40  41
ENDBRANCH  32  35
ENDBRANCH  30  31
ENDBRANCH  29  30
ENDBRANCH  28  29
ENDBRANCH   3  28
TORSDOF 15
ENDMDL
MODEL 2
REMARK VINA RESULT:     -12.7      1.236      6.177
REMARK SMILES C[C@H](C(=O)NCC(=O)NCCCNC(=O)c1ccc(-c2c3nc(c(-c4c(F)cccc4F)c4ccc([nH]4)c(-c4c(F)cccc4F)c4nc(c(-c5c(F)cccc5F)c5ccc2[nH]5)C=C4)C=C3)cc1)N1C(=O)/C(=C/c2ccc(O)cc2)SC1=S
REMARK SMILES IDX 7 1 8 2 9 3 6 5 5 6 3 7 4 8 2 10 1 11 70 12 71 13 83 14
REMARK SMILES IDX 72 15 73 16 82 17 84 18 74 19 75 20 76 21 81 22 77 23 80 24
REMARK SMILES IDX 78 25 79 26 10 28 11 29 12 30 13 31 14 32 15 34 16 35 17 36
REMARK SMILES IDX 69 37 18 38 68 39 19 40 20 41 21 42 62 43 22 44 67 45 61 46
REMARK SMILES IDX 63 47 23 48 66 49 60 50 59 51 24 53 50 54 33 55 49 56 34 57
REMARK SMILES IDX 37 58 48 59 64 60 35 61 36 62 47 64 65 65 38 66 25 67 26 68
REMARK SMILES IDX 31 69 27 70 28 71 30 72 32 73 29 74 51 75 52 76 57 77 53 78
REMARK SMILES IDX 54 79 56 80 58 81 55 82 39 83 40 84 45 85 41 86 42 87 44 88
REMARK SMILES IDX 46 89 43 90
REMARK H PARENT 9 4 5 9 79 27 13 33 63 52 37 63
REMARK Flexibility Score: inf
ROOT
ATOM      1  C   UNL A   1      31.709  28.936  23.980  1.00  0.00     0.239 C 
ATOM      2  O   UNL A   1      31.088  28.786  22.928  1.00  0.00    -0.273 OA
ATOM      3  N   UNL A   1      31.492  30.079  24.700  1.00  0.00    -0.355 N 
ATOM      4  H   UNL A   1      31.042  30.823  24.238  1.00  0.00     0.163 HD
ENDROOT
BRANCH   1   5
ATOM      5  C   UNL A   1      32.592  27.821  24.573  1.00  0.00     0.216 C 
BRANCH   5   6
ATOM      6  N   UNL A   1      33.257  26.978  23.572  1.00  0.00    -0.345 N 
ATOM      7  C   UNL A   1      33.612  25.662  23.548  1.00  0.00     0.243 C 
ATOM      8  O   UNL A   1      33.846  25.191  22.426  1.00  0.00    -0.273 OA
ATOM      9  H   UNL A   1      33.495  27.462  22.748  1.00  0.00     0.164 HD
BRANCH   7  10
ATOM     10  C   UNL A   1      33.751  24.734  24.797  1.00  0.00     0.178 C 
ATOM     11  C   UNL A   1      32.708  24.961  25.890  1.00  0.00     0.042 C 
BRANCH  10  12
ATOM     12  N   UNL A   1      34.037  23.299  24.613  1.00  0.00    -0.281 N 
ATOM     13  C   UNL A   1      33.057  22.425  24.207  1.00  0.00     0.266 C 
ATOM     14  C   UNL A   1      35.238  22.711  24.989  1.00  0.00     0.149 C 
ATOM     15  O   UNL A   1      31.977  22.706  23.706  1.00  0.00    -0.268 OA
ATOM     16  C   UNL A   1      33.465  21.024  24.431  1.00  0.00     0.081 C 
ATOM     17  S   UNL A   1      35.076  20.959  24.998  1.00  0.00    -0.054 SA
ATOM     18  S   UNL A   1      36.676  23.439  25.433  1.00  0.00    -0.052 S 
ATOM     19  C   UNL A   1      32.608  20.019  24.218  1.00  0.00     0.029 C 
BRANCH  19  20
ATOM     20  C   UNL A   1      32.901  18.614  24.478  1.00  0.00    -0.024 A 
ATOM     21  C   UNL A   1      33.501  17.839  23.484  1.00  0.00     0.012 A 
ATOM     22  C   UNL A   1      32.593  18.045  25.722  1.00  0.00     0.012 A 
ATOM     23  C   UNL A   1      33.817  16.506  23.742  1.00  0.00     0.047 A 
ATOM     24  C   UNL A   1      32.913  16.714  25.979  1.00  0.00     0.047 A 
ATOM     25  C   UNL A   1      33.529  15.957  24.988  1.00  0.00     0.115 A 
BRANCH  25  26
ATOM     26  O   UNL A   1      33.876  14.658  25.203  1.00  0.00    -0.508 OA
ATOM     27  H   UNL A   1      34.405  14.204  24.577  1.00  0.00     0.293 HD
ENDBRANCH  25  26
ENDBRANCH  19  20
ENDBRANCH  10  12
ENDBRANCH   7  10
ENDBRANCH   5   6
ENDBRANCH   1   5
BRANCH   3  28
ATOM     28  C   UNL A   1      31.864  30.288  26.071  1.00  0.00     0.117 C 
BRANCH  28  29
ATOM     29  C   UNL A   1      31.528  31.671  26.589  1.00  0.00     0.042 C 
BRANCH  29  30
ATOM     30  C   UNL A   1      32.741  32.338  27.202  1.00  0.00     0.118 C 
BRANCH  30  31
ATOM     31  N   UNL A   1      32.486  33.731  27.572  1.00  0.00    -0.352 N 
ATOM     32  C   UNL A   1      33.129  34.537  28.479  1.00  0.00     0.251 C 
ATOM     33  H   UNL A   1      31.734  34.155  27.098  1.00  0.00     0.163 HD
ATOM     34  O   UNL A   1      32.664  35.637  28.759  1.00  0.00    -0.269 OA
BRANCH  32  35
ATOM     35  C   UNL A   1      34.358  34.054  29.134  1.00  0.00     0.039 A 
ATOM     36  C   UNL A   1      34.257  33.335  30.326  1.00  0.00     0.014 A 
ATOM     37  C   UNL A   1      35.601  34.265  28.539  1.00  0.00     0.014 A 
ATOM     38  C   UNL A   1      35.399  32.747  30.870  1.00  0.00     0.010 A 
ATOM     39  C   UNL A   1      36.708  33.578  29.008  1.00  0.00     0.010 A 
ATOM     40  C   UNL A   1      36.622  32.819  30.184  1.00  0.00    -0.014 A 
BRANCH  40  41
ATOM     41  C   UNL A   1      37.837  32.122  30.669  1.00  0.00     0.031 A 
ATOM     42  C   UNL A   1      38.645  32.728  31.783  1.00  0.00     0.074 A 
ATOM     43  C   UNL A   1      38.264  31.006  30.046  1.00  0.00     0.049 A 
ATOM     44  N   UNL A   1      39.803  32.356  32.263  1.00  0.00    -0.248 NA
ATOM     45  C   UNL A   1      38.097  33.942  32.414  1.00  0.00     0.031 C 
ATOM     46  C   UNL A   1      37.596  30.355  28.916  1.00  0.00     0.029 A 
ATOM     47  N   UNL A   1      39.375  30.232  30.265  1.00  0.00    -0.354 N 
ATOM     48  C   UNL A   1      40.129  33.300  33.228  1.00  0.00     0.074 A 
ATOM     49  C   UNL A   1      39.083  34.298  33.220  1.00  0.00     0.031 C 
ATOM     50  C   UNL A   1      38.296  29.266  28.561  1.00  0.00     0.029 A 
ATOM     51  C   UNL A   1      39.484  29.169  29.401  1.00  0.00     0.049 A 
ATOM     52  H   UNL A   1      40.031  30.420  30.974  1.00  0.00     0.167 HD
ATOM     53  C   UNL A   1      41.192  33.318  34.067  1.00  0.00     0.037 A 
ATOM     54  C   UNL A   1      40.445  28.232  29.291  1.00  0.00     0.037 A 
ATOM     55  C   UNL A   1      42.210  32.303  34.091  1.00  0.00     0.049 A 
ATOM     56  C   UNL A   1      41.618  28.277  30.230  1.00  0.00     0.074 A 
ATOM     57  C   UNL A   1      43.291  32.190  34.945  1.00  0.00     0.029 A 
ATOM     58  N   UNL A   1      42.270  31.226  33.219  1.00  0.00    -0.354 N 
ATOM     59  N   UNL A   1      41.879  29.135  31.187  1.00  0.00    -0.248 NA
ATOM     60  C   UNL A   1      42.629  27.221  30.077  1.00  0.00     0.031 C 
ATOM     61  C   UNL A   1      44.035  31.072  34.558  1.00  0.00     0.029 A 
ATOM     62  C   UNL A   1      43.386  30.456  33.499  1.00  0.00     0.049 A 
ATOM     63  H   UNL A   1      41.617  31.038  32.507  1.00  0.00     0.167 HD
ATOM     64  C   UNL A   1      43.065  28.706  31.770  1.00  0.00     0.074 A 
ATOM     65  C   UNL A   1      43.465  27.505  31.067  1.00  0.00     0.031 C 
ATOM     66  C   UNL A   1      43.759  29.255  32.796  1.00  0.00     0.037 A 
BRANCH  53  67
ATOM     67  C   UNL A   1      41.297  34.467  35.027  1.00  0.00     0.057 A 
ATOM     68  C   UNL A   1      40.741  34.413  36.312  1.00  0.00     0.134 A 
ATOM     69  C   UNL A   1      41.987  35.633  34.673  1.00  0.00     0.134 A 
ATOM     70  F   UNL A   1      40.054  33.331  36.711  1.00  0.00    -0.206 F 
ATOM     71  C   UNL A   1      40.839  35.487  37.198  1.00  0.00     0.040 A 
ATOM     72  C   UNL A   1      42.119  36.702  35.561  1.00  0.00     0.040 A 
ATOM     73  F   UNL A   1      42.547  35.753  33.459  1.00  0.00    -0.206 F 
ATOM     74  C   UNL A   1      41.537  36.633  36.825  1.00  0.00     0.006 A 
ENDBRANCH  53  67
BRANCH  54  75
ATOM     75  C   UNL A   1      40.329  27.162  28.268  1.00  0.00     0.057 A 
ATOM     76  C   UNL A   1      40.942  27.290  27.017  1.00  0.00     0.134 A 
ATOM     77  C   UNL A   1      39.599  25.991  28.510  1.00  0.00     0.134 A 
ATOM     78  F   UNL A   1      41.642  28.395  26.720  1.00  0.00    -0.206 F 
ATOM     79  C   UNL A   1      40.816  26.306  26.034  1.00  0.00     0.040 A 
ATOM     80  C   UNL A   1      39.487  24.987  27.546  1.00  0.00     0.040 A 
ATOM     81  F   UNL A   1      38.994  25.801  29.691  1.00  0.00    -0.206 F 
ATOM     82  C   UNL A   1      40.089  25.148  26.300  1.00  0.00     0.006 A 
ENDBRANCH  54  75
BRANCH  66  83
ATOM     83  C   UNL A   1      44.999  28.543  33.250  1.00  0.00     0.057 A 
ATOM     84  C   UNL A   1      44.959  27.519  34.205  1.00  0.00     0.134 A 
ATOM     85  C   UNL A   1      46.242  28.850  32.682  1.00  0.00     0.134 A 
ATOM     86  F   UNL A   1      43.802  27.185  34.797  1.00  0.00    -0.206 F 
ATOM     87  C   UNL A   1      46.114  26.838  34.590  1.00  0.00     0.040 A 
ATOM     88  C   UNL A   1      47.399  28.157  33.037  1.00  0.00     0.040 A 
ATOM     89  F   UNL A   1      46.347  29.814  31.753  1.00  0.00    -0.206 F 
ATOM     90  C   UNL A   1      47.337  27.151  33.998  1.00  0.00     0.006 A 
ENDBRANCH  66  83
ENDBRANCH  40  41
ENDBRANCH  32  35
ENDBRANCH  30  31
ENDBRANCH  29  30
ENDBRANCH  28  29
ENDBRANCH   3  28
TORSDOF 15
ENDMDL
MODEL 3
REMARK VINA RESULT:     -12.6      1.787      2.285
REMARK SMILES C[C@H](C(=O)NCC(=O)NCCCNC(=O)c1ccc(-c2c3nc(c(-c4c(F)cccc4F)c4ccc([nH]4)c(-c4c(F)cccc4F)c4nc(c(-c5c(F)cccc5F)c5ccc2[nH]5)C=C4)C=C3)cc1)N1C(=O)/C(=C/c2ccc(O)cc2)SC1=S
REMARK SMILES IDX 7 1 8 2 9 3 6 5 5 6 3 7 4 8 2 10 1 11 70 12 71 13 83 14
REMARK SMILES IDX 72 15 73 16 82 17 84 18 74 19 75 20 76 21 81 22 77 23 80 24
REMARK SMILES IDX 78 25 79 26 10 28 11 29 12 30 13 31 14 32 15 34 16 35 17 36
REMARK SMILES IDX 69 37 18 38 68 39 19 40 20 41 21 42 62 43 22 44 67 45 61 46
REMARK SMILES IDX 63 47 23 48 66 49 60 50 59 51 24 53 50 54 33 55 49 56 34 57
REMARK SMILES IDX 37 58 48 59 64 60 35 61 36 62 47 64 65 65 38 66 25 67 26 68
REMARK SMILES IDX 31 69 27 70 28 71 30 72 32 73 29 74 51 75 52 76 57 77 53 78
REMARK SMILES IDX 54 79 56 80 58 81 55 82 39 83 40 84 45 85 41 86 42 87 44 88
REMARK SMILES IDX 46 89 43 90
REMARK H PARENT 9 4 5 9 79 27 13 33 63 52 37 63
REMARK Flexibility Score: inf
ROOT
ATOM      1  C   UNL A   1      33.400  28.841  23.793  1.00  0.00     0.239 C 
ATOM      2  O   UNL A   1      34.466  29.029  23.206  1.00  0.00    -0.273 OA
ATOM      3  N   UNL A   1      33.060  29.702  24.801  1.00  0.00    -0.355 N 
ATOM      4  H   UNL A   1      33.774  30.274  25.164  1.00  0.00     0.163 HD
ENDROOT
BRANCH   1   5
ATOM      5  C   UNL A   1      32.390  27.774  23.331  1.00  0.00     0.216 C 
BRANCH   5   6
ATOM      6  N   UNL A   1      32.958  26.739  22.458  1.00  0.00    -0.345 N 
ATOM      7  C   UNL A   1      33.059  25.384  22.563  1.00  0.00     0.243 C 
ATOM      8  O   UNL A   1      33.285  24.781  21.503  1.00  0.00    -0.273 OA
ATOM      9  H   UNL A   1      33.345  27.098  21.627  1.00  0.00     0.164 HD
BRANCH   7  10
ATOM     10  C   UNL A   1      32.925  24.559  23.883  1.00  0.00     0.178 C 
ATOM     11  C   UNL A   1      31.587  24.709  24.605  1.00  0.00     0.042 C 
BRANCH  10  12
ATOM     12  N   UNL A   1      33.411  23.168  23.929  1.00  0.00    -0.281 N 
ATOM     13  C   UNL A   1      32.654  22.134  23.430  1.00  0.00     0.266 C 
ATOM     14  C   UNL A   1      34.559  22.788  24.612  1.00  0.00     0.149 C 
ATOM     15  O   UNL A   1      31.687  22.218  22.685  1.00  0.00    -0.268 OA
ATOM     16  C   UNL A   1      33.164  20.829  23.893  1.00  0.00     0.081 C 
ATOM     17  S   UNL A   1      34.605  21.038  24.788  1.00  0.00    -0.054 SA
ATOM     18  S   UNL A   1      35.767  23.744  25.260  1.00  0.00    -0.052 S 
ATOM     19  C   UNL A   1      32.499  19.699  23.622  1.00  0.00     0.029 C 
BRANCH  19  20
ATOM     20  C   UNL A   1      32.890  18.377  24.097  1.00  0.00    -0.024 A 
ATOM     21  C   UNL A   1      32.492  17.955  25.368  1.00  0.00     0.012 A 
ATOM     22  C   UNL A   1      33.650  17.527  23.282  1.00  0.00     0.012 A 
ATOM     23  C   UNL A   1      32.830  16.678  25.811  1.00  0.00     0.047 A 
ATOM     24  C   UNL A   1      33.985  16.249  23.725  1.00  0.00     0.047 A 
ATOM     25  C   UNL A   1      33.566  15.834  24.985  1.00  0.00     0.115 A 
BRANCH  25  26
ATOM     26  O   UNL A   1      33.854  14.586  25.450  1.00  0.00    -0.508 OA
ATOM     27  H   UNL A   1      33.164  14.022  25.739  1.00  0.00     0.293 HD
ENDBRANCH  25  26
ENDBRANCH  19  20
ENDBRANCH  10  12
ENDBRANCH   7  10
ENDBRANCH   5   6
ENDBRANCH   1   5
BRANCH   3  28
ATOM     28  C   UNL A   1      31.751  29.842  25.374  1.00  0.00     0.117 C 
BRANCH  28  29
ATOM     29  C   UNL A   1      31.759  30.416  26.776  1.00  0.00     0.042 C 
BRANCH  29  30
ATOM     30  C   UNL A   1      32.922  31.367  26.974  1.00  0.00     0.118 C 
BRANCH  30  31
ATOM     31  N   UNL A   1      32.484  32.720  27.316  1.00  0.00    -0.352 N 
ATOM     32  C   UNL A   1      33.062  33.654  28.140  1.00  0.00     0.251 C 
ATOM     33  H   UNL A   1      31.642  33.004  26.892  1.00  0.00     0.163 HD
ATOM     34  O   UNL A   1      32.457  34.684  28.420  1.00  0.00    -0.269 OA
BRANCH  32  35
ATOM     35  C   UNL A   1      34.397  33.392  28.708  1.00  0.00     0.039 A 
ATOM     36  C   UNL A   1      34.499  32.712  29.923  1.00  0.00     0.014 A 
ATOM     37  C   UNL A   1      35.544  33.770  28.011  1.00  0.00     0.014 A 
ATOM     38  C   UNL A   1      35.756  32.329  30.389  1.00  0.00     0.010 A 
ATOM     39  C   UNL A   1      36.777  33.281  28.409  1.00  0.00     0.010 A 
ATOM     40  C   UNL A   1      36.899  32.563  29.607  1.00  0.00    -0.014 A 
BRANCH  40  41
ATOM     41  C   UNL A   1      38.241  32.081  30.013  1.00  0.00     0.031 A 
ATOM     42  C   UNL A   1      38.746  30.766  29.488  1.00  0.00     0.074 A 
ATOM     43  C   UNL A   1      38.955  32.774  30.921  1.00  0.00     0.049 A 
ATOM     44  N   UNL A   1      39.824  30.103  29.818  1.00  0.00    -0.248 NA
ATOM     45  C   UNL A   1      37.905  30.083  28.489  1.00  0.00     0.031 C 
ATOM     46  C   UNL A   1      38.544  34.034  31.545  1.00  0.00     0.029 A 
ATOM     47  N   UNL A   1      40.172  32.504  31.493  1.00  0.00    -0.354 N 
ATOM     48  C   UNL A   1      39.775  28.922  29.090  1.00  0.00     0.074 A 
ATOM     49  C   UNL A   1      38.532  28.927  28.352  1.00  0.00     0.031 C 
ATOM     50  C   UNL A   1      39.505  34.440  32.390  1.00  0.00     0.029 A 
ATOM     51  C   UNL A   1      40.574  33.448  32.407  1.00  0.00     0.049 A 
ATOM     52  H   UNL A   1      40.707  31.708  31.269  1.00  0.00     0.167 HD
ATOM     53  C   UNL A   1      40.698  27.934  29.018  1.00  0.00     0.037 A 
ATOM     54  C   UNL A   1      41.674  33.498  33.181  1.00  0.00     0.037 A 
ATOM     55  C   UNL A   1      41.947  27.954  29.729  1.00  0.00     0.049 A 
ATOM     56  C   UNL A   1      42.681  32.385  33.088  1.00  0.00     0.074 A 
ATOM     57  C   UNL A   1      42.982  27.037  29.675  1.00  0.00     0.029 A 
ATOM     58  N   UNL A   1      42.330  28.942  30.623  1.00  0.00    -0.354 N 
ATOM     59  N   UNL A   1      42.658  31.308  32.342  1.00  0.00    -0.248 NA
ATOM     60  C   UNL A   1      43.872  32.497  33.943  1.00  0.00     0.031 C 
ATOM     61  C   UNL A   1      43.970  27.445  30.575  1.00  0.00     0.029 A 
ATOM     62  C   UNL A   1      43.577  28.644  31.147  1.00  0.00     0.049 A 
ATOM     63  H   UNL A   1      41.796  29.736  30.851  1.00  0.00     0.167 HD
ATOM     64  C   UNL A   1      43.839  30.630  32.612  1.00  0.00     0.074 A 
ATOM     65  C   UNL A   1      44.564  31.425  33.583  1.00  0.00     0.031 C 
ATOM     66  C   UNL A   1      44.287  29.457  32.102  1.00  0.00     0.037 A 
BRANCH  53  67
ATOM     67  C   UNL A   1      40.388  26.758  28.138  1.00  0.00     0.057 A 
ATOM     68  C   UNL A   1      39.528  25.731  28.550  1.00  0.00     0.134 A 
ATOM     69  C   UNL A   1      40.933  26.665  26.852  1.00  0.00     0.134 A 
ATOM     70  F   UNL A   1      38.983  25.750  29.775  1.00  0.00    -0.206 F 
ATOM     71  C   UNL A   1      39.247  24.637  27.728  1.00  0.00     0.040 A 
ATOM     72  C   UNL A   1      40.635  25.593  26.008  1.00  0.00     0.040 A 
ATOM     73  F   UNL A   1      41.762  27.614  26.391  1.00  0.00    -0.206 F 
ATOM     74  C   UNL A   1      39.797  24.572  26.449  1.00  0.00     0.006 A 
ENDBRANCH  53  67
BRANCH  54  75
ATOM     75  C   UNL A   1      41.892  34.648  34.094  1.00  0.00     0.057 A 
ATOM     76  C   UNL A   1      41.492  34.590  35.435  1.00  0.00     0.134 A 
ATOM     77  C   UNL A   1      42.495  35.833  33.654  1.00  0.00     0.134 A 
ATOM     78  F   UNL A   1      40.895  33.489  35.913  1.00  0.00    -0.206 F 
ATOM     79  C   UNL A   1      41.661  35.674  36.298  1.00  0.00     0.040 A 
ATOM     80  C   UNL A   1      42.695  36.915  34.512  1.00  0.00     0.040 A 
ATOM     81  F   UNL A   1      42.909  35.950  32.384  1.00  0.00    -0.206 F 
ATOM     82  C   UNL A   1      42.269  36.840  35.837  1.00  0.00     0.006 A 
ENDBRANCH  54  75
BRANCH  66  83
ATOM     83  C   UNL A   1      45.638  28.981  32.548  1.00  0.00     0.057 A 
ATOM     84  C   UNL A   1      45.799  28.123  33.643  1.00  0.00     0.134 A 
ATOM     85  C   UNL A   1      46.788  29.343  31.835  1.00  0.00     0.134 A 
ATOM     86  F   UNL A   1      44.738  27.748  34.375  1.00  0.00    -0.206 F 
ATOM     87  C   UNL A   1      47.057  27.656  34.023  1.00  0.00     0.040 A 
ATOM     88  C   UNL A   1      48.049  28.860  32.188  1.00  0.00     0.040 A 
ATOM     89  F   UNL A   1      46.702  30.154  30.769  1.00  0.00    -0.206 F 
ATOM     90  C   UNL A   1      48.186  28.018  33.289  1.00  0.00     0.006 A 
ENDBRANCH  66  83
ENDBRANCH  40  41
ENDBRANCH  32  35
ENDBRANCH  30  31
ENDBRANCH  29  30
ENDBRANCH  28  29
ENDBRANCH   3  28
TORSDOF 15
ENDMDL
