MODEL 1
REMARK VINA RESULT:     -11.5      0.000      0.000
REMARK SMILES CO[C@H]1C[C@H](C(=O)NCCCNC(=O)c2ccc(-c3c4nc(c(-c5c(F)cccc5F)c5ccc([nH]5)c(-c5c(F)cccc5F)c5nc(c(-c6c(F)cccc6F)c6ccc3[nH]6)C=C5)C=C4)cc2)N(C(=O)[C@H]2C=C[C@@H]([NH3+])C2)C1
REMARK SMILES IDX 9 1 8 2 6 3 7 4 5 6 3 7 4 8 78 9 69 10 2 11 1 12 70 13 71 14
REMARK SMILES IDX 72 15 73 16 77 17 74 18 75 19 76 20 10 24 11 25 12 26 13 27
REMARK SMILES IDX 14 29 15 30 16 31 68 32 17 33 67 34 18 35 19 36 20 37 61 38
REMARK SMILES IDX 21 39 66 40 60 41 62 42 22 43 65 44 59 45 58 46 23 48 49 49
REMARK SMILES IDX 32 50 48 51 33 52 36 53 47 54 63 55 34 56 35 57 46 59 64 60
REMARK SMILES IDX 37 61 24 62 25 63 30 64 26 65 27 66 29 67 31 68 28 69 50 70
REMARK SMILES IDX 51 71 56 72 52 73 53 74 55 75 57 76 54 77 38 78 39 79 44 80
REMARK SMILES IDX 40 81 41 82 43 83 45 84 42 85
REMARK H PARENT 8 5 76 21 76 22 76 23 12 28 62 47 36 58
REMARK Flexibility Score: inf
ROOT
ATOM      1  C   UNL A   1      36.263  19.937  24.999  1.00  0.00     0.117 C 
ENDROOT
BRANCH   1   2
ATOM      2  N   UNL A   1      36.153  21.227  25.652  1.00  0.00    -0.354 N 
ATOM      3  C   UNL A   1      35.108  21.883  26.219  1.00  0.00     0.242 C 
ATOM      4  O   UNL A   1      35.314  23.072  26.497  1.00  0.00    -0.273 OA
ATOM      5  H   UNL A   1      37.001  21.724  25.692  1.00  0.00     0.163 HD
BRANCH   3   6
ATOM      6  C   UNL A   1      33.674  21.316  26.373  1.00  0.00     0.177 C 
ATOM      7  C   UNL A   1      31.889  22.903  26.810  1.00  0.00     0.139 C 
ATOM      8  C   UNL A   1      32.914  22.013  27.511  1.00  0.00     0.069 C 
ATOM      9  C   UNL A   1      31.585  22.175  25.507  1.00  0.00     0.152 C 
ATOM     10  N   UNL A   1      32.737  21.319  25.242  1.00  0.00    -0.327 N 
BRANCH   7  11
ATOM     11  O   UNL A   1      30.760  23.298  27.575  1.00  0.00    -0.380 OA
ATOM     12  C   UNL A   1      29.498  22.787  27.181  1.00  0.00     0.195 C 
ENDBRANCH   7  11
BRANCH  10  13
ATOM     13  C   UNL A   1      32.668  20.479  24.151  1.00  0.00     0.230 C 
ATOM     14  O   UNL A   1      32.813  20.949  23.015  1.00  0.00    -0.274 OA
BRANCH  13  15
ATOM     15  C   UNL A   1      32.370  18.978  24.269  1.00  0.00     0.107 C 
ATOM     16  C   UNL A   1      32.861  18.114  23.154  1.00  0.00    -0.012 C 
ATOM     17  C   UNL A   1      32.920  18.297  25.528  1.00  0.00     0.087 C 
ATOM     18  C   UNL A   1      33.324  16.947  23.615  1.00  0.00     0.033 C 
ATOM     19  C   UNL A   1      33.229  16.853  25.102  1.00  0.00     0.205 C 
BRANCH  19  20
ATOM     20  N   UNL A   1      34.459  16.362  25.696  1.00  0.00    -0.352 N 
ATOM     21  H   UNL A   1      34.240  15.626  26.367  1.00  0.00     0.345 HD
ATOM     22  H   UNL A   1      34.935  17.127  26.172  1.00  0.00     0.345 HD
ATOM     23  H   UNL A   1      35.063  15.988  24.965  1.00  0.00     0.345 HD
ENDBRANCH  19  20
ENDBRANCH  13  15
ENDBRANCH  10  13
ENDBRANCH   3   6
ENDBRANCH   1   2
BRANCH   1  24
ATOM     24  C   UNL A   1      37.718  19.604  24.661  1.00  0.00     0.042 C 
BRANCH  24  25
ATOM     25  C   UNL A   1      38.732  20.051  25.708  1.00  0.00     0.118 C 
BRANCH  25  26
ATOM     26  N   UNL A   1      39.860  19.138  25.810  1.00  0.00    -0.352 N 
ATOM     27  C   UNL A   1      41.189  19.383  26.057  1.00  0.00     0.251 C 
ATOM     28  H   UNL A   1      39.633  18.189  25.680  1.00  0.00     0.163 HD
ATOM     29  O   UNL A   1      41.999  18.474  25.897  1.00  0.00    -0.269 OA
BRANCH  27  30
ATOM     30  C   UNL A   1      41.667  20.714  26.505  1.00  0.00     0.039 A 
ATOM     31  C   UNL A   1      41.994  21.666  25.534  1.00  0.00     0.014 A 
ATOM     32  C   UNL A   1      41.870  21.010  27.855  1.00  0.00     0.014 A 
ATOM     33  C   UNL A   1      42.476  22.923  25.915  1.00  0.00     0.010 A 
ATOM     34  C   UNL A   1      42.282  22.288  28.238  1.00  0.00     0.010 A 
ATOM     35  C   UNL A   1      42.601  23.255  27.272  1.00  0.00    -0.014 A 
BRANCH  35  36
ATOM     36  C   UNL A   1      43.084  24.593  27.701  1.00  0.00     0.031 A 
ATOM     37  C   UNL A   1      42.104  25.644  28.149  1.00  0.00     0.074 A 
ATOM     38  C   UNL A   1      44.398  24.886  27.633  1.00  0.00     0.049 A 
ATOM     39  N   UNL A   1      42.320  26.894  28.472  1.00  0.00    -0.248 NA
ATOM     40  C   UNL A   1      40.690  25.242  28.221  1.00  0.00     0.031 C 
ATOM     41  C   UNL A   1      45.447  23.971  27.180  1.00  0.00     0.029 A 
ATOM     42  N   UNL A   1      45.074  26.043  27.932  1.00  0.00    -0.354 N 
ATOM     43  C   UNL A   1      41.071  27.432  28.762  1.00  0.00     0.074 A 
ATOM     44  C   UNL A   1      40.098  26.385  28.536  1.00  0.00     0.031 C 
ATOM     45  C   UNL A   1      46.634  24.595  27.246  1.00  0.00     0.029 A 
ATOM     46  C   UNL A   1      46.427  25.964  27.711  1.00  0.00     0.049 A 
ATOM     47  H   UNL A   1      44.629  26.853  28.272  1.00  0.00     0.167 HD
ATOM     48  C   UNL A   1      40.764  28.678  29.196  1.00  0.00     0.037 A 
ATOM     49  C   UNL A   1      47.392  26.891  27.859  1.00  0.00     0.037 A 
ATOM     50  C   UNL A   1      41.734  29.708  29.457  1.00  0.00     0.049 A 
ATOM     51  C   UNL A   1      47.026  28.264  28.352  1.00  0.00     0.074 A 
ATOM     52  C   UNL A   1      41.526  30.985  29.950  1.00  0.00     0.029 A 
ATOM     53  N   UNL A   1      43.098  29.577  29.248  1.00  0.00    -0.354 N 
ATOM     54  N   UNL A   1      45.846  28.741  28.668  1.00  0.00    -0.248 NA
ATOM     55  C   UNL A   1      48.126  29.226  28.511  1.00  0.00     0.031 C 
ATOM     56  C   UNL A   1      42.762  31.637  30.013  1.00  0.00     0.029 A 
ATOM     57  C   UNL A   1      43.743  30.753  29.593  1.00  0.00     0.049 A 
ATOM     58  H   UNL A   1      43.543  28.768  28.907  1.00  0.00     0.167 HD
ATOM     59  C   UNL A   1      46.064  30.045  29.090  1.00  0.00     0.074 A 
ATOM     60  C   UNL A   1      47.491  30.282  29.001  1.00  0.00     0.031 C 
ATOM     61  C   UNL A   1      45.165  30.966  29.511  1.00  0.00     0.037 A 
BRANCH  48  62
ATOM     62  C   UNL A   1      39.315  28.993  29.429  1.00  0.00     0.057 A 
ATOM     63  C   UNL A   1      38.719  28.835  30.687  1.00  0.00     0.134 A 
ATOM     64  C   UNL A   1      38.516  29.500  28.396  1.00  0.00     0.134 A 
ATOM     65  F   UNL A   1      39.426  28.344  31.717  1.00  0.00    -0.206 F 
ATOM     66  C   UNL A   1      37.376  29.147  30.904  1.00  0.00     0.040 A 
ATOM     67  C   UNL A   1      37.179  29.840  28.606  1.00  0.00     0.040 A 
ATOM     68  F   UNL A   1      39.026  29.682  27.167  1.00  0.00    -0.206 F 
ATOM     69  C   UNL A   1      36.604  29.659  29.862  1.00  0.00     0.006 A 
ENDBRANCH  48  62
BRANCH  49  70
ATOM     70  C   UNL A   1      48.804  26.552  27.556  1.00  0.00     0.057 A 
ATOM     71  C   UNL A   1      49.333  26.746  26.273  1.00  0.00     0.134 A 
ATOM     72  C   UNL A   1      49.654  26.013  28.529  1.00  0.00     0.134 A 
ATOM     73  F   UNL A   1      48.561  27.240  25.294  1.00  0.00    -0.206 F 
ATOM     74  C   UNL A   1      50.649  26.398  25.964  1.00  0.00     0.040 A 
ATOM     75  C   UNL A   1      50.979  25.683  28.240  1.00  0.00     0.040 A 
ATOM     76  F   UNL A   1      49.209  25.809  29.777  1.00  0.00    -0.206 F 
ATOM     77  C   UNL A   1      51.477  25.869  26.953  1.00  0.00     0.006 A 
ENDBRANCH  49  70
BRANCH  61  78
ATOM     78  C   UNL A   1      45.700  32.299  29.943  1.00  0.00     0.057 A 
ATOM     79  C   UNL A   1      46.112  32.536  31.259  1.00  0.00     0.134 A 
ATOM     80  C   UNL A   1      45.837  33.343  29.021  1.00  0.00     0.134 A 
ATOM     81  F   UNL A   1      45.994  31.580  32.193  1.00  0.00    -0.206 F 
ATOM     82  C   UNL A   1      46.625  33.775  31.649  1.00  0.00     0.040 A 
ATOM     83  C   UNL A   1      46.370  34.578  29.392  1.00  0.00     0.040 A 
ATOM     84  F   UNL A   1      45.466  33.176  27.742  1.00  0.00    -0.206 F 
ATOM     85  C   UNL A   1      46.761  34.798  30.711  1.00  0.00     0.006 A 
ENDBRANCH  61  78
ENDBRANCH  35  36
ENDBRANCH  27  30
ENDBRANCH  25  26
ENDBRANCH  24  25
ENDBRANCH   1  24
TORSDOF 14
ENDMDL
MODEL 2
REMARK VINA RESULT:     -11.5      5.962      9.766
REMARK SMILES CO[C@H]1C[C@H](C(=O)NCCCNC(=O)c2ccc(-c3c4nc(c(-c5c(F)cccc5F)c5ccc([nH]5)c(-c5c(F)cccc5F)c5nc(c(-c6c(F)cccc6F)c6ccc3[nH]6)C=C5)C=C4)cc2)N(C(=O)[C@H]2C=C[C@@H]([NH3+])C2)C1
REMARK SMILES IDX 9 1 8 2 6 3 7 4 5 6 3 7 4 8 78 9 69 10 2 11 1 12 70 13 71 14
REMARK SMILES IDX 72 15 73 16 77 17 74 18 75 19 76 20 10 24 11 25 12 26 13 27
REMARK SMILES IDX 14 29 15 30 16 31 68 32 17 33 67 34 18 35 19 36 20 37 61 38
REMARK SMILES IDX 21 39 66 40 60 41 62 42 22 43 65 44 59 45 58 46 23 48 49 49
REMARK SMILES IDX 32 50 48 51 33 52 36 53 47 54 63 55 34 56 35 57 46 59 64 60
REMARK SMILES IDX 37 61 24 62 25 63 30 64 26 65 27 66 29 67 31 68 28 69 50 70
REMARK SMILES IDX 51 71 56 72 52 73 53 74 55 75 57 76 54 77 38 78 39 79 44 80
REMARK SMILES IDX 40 81 41 82 43 83 45 84 42 85
REMARK H PARENT 8 5 76 21 76 22 76 23 12 28 62 47 36 58
REMARK Flexibility Score: inf
ROOT
ATOM      1  C   UNL A   1      30.821  30.885  25.319  1.00  0.00     0.117 C 
ENDROOT
BRANCH   1   2
ATOM      2  N   UNL A   1      32.060  30.142  25.444  1.00  0.00    -0.354 N 
ATOM      3  C   UNL A   1      32.675  29.241  24.636  1.00  0.00     0.242 C 
ATOM      4  O   UNL A   1      33.624  28.629  25.147  1.00  0.00    -0.273 OA
ATOM      5  H   UNL A   1      32.551  30.328  26.277  1.00  0.00     0.163 HD
BRANCH   3   6
ATOM      6  C   UNL A   1      32.179  28.814  23.232  1.00  0.00     0.177 C 
ATOM      7  C   UNL A   1      33.054  26.739  22.323  1.00  0.00     0.139 C 
ATOM      8  C   UNL A   1      33.324  28.242  22.382  1.00  0.00     0.069 C 
ATOM      9  C   UNL A   1      31.540  26.622  22.432  1.00  0.00     0.152 C 
ATOM     10  N   UNL A   1      31.084  27.847  23.081  1.00  0.00    -0.327 N 
BRANCH   7  11
ATOM     11  O   UNL A   1      33.653  26.026  21.251  1.00  0.00    -0.380 OA
ATOM     12  C   UNL A   1      32.803  25.221  20.453  1.00  0.00     0.195 C 
ENDBRANCH   7  11
BRANCH  10  13
ATOM     13  C   UNL A   1      29.724  28.027  23.217  1.00  0.00     0.230 C 
ATOM     14  O   UNL A   1      29.089  27.287  23.981  1.00  0.00    -0.274 OA
BRANCH  13  15
ATOM     15  C   UNL A   1      28.936  29.079  22.426  1.00  0.00     0.107 C 
ATOM     16  C   UNL A   1      27.776  29.708  23.127  1.00  0.00    -0.012 C 
ATOM     17  C   UNL A   1      29.755  30.277  21.930  1.00  0.00     0.087 C 
ATOM     18  C   UNL A   1      27.688  31.012  22.842  1.00  0.00     0.033 C 
ATOM     19  C   UNL A   1      28.775  31.460  21.921  1.00  0.00     0.205 C 
BRANCH  19  20
ATOM     20  N   UNL A   1      29.399  32.688  22.376  1.00  0.00    -0.352 N 
ATOM     21  H   UNL A   1      30.177  32.463  22.997  1.00  0.00     0.345 HD
ATOM     22  H   UNL A   1      28.714  33.252  22.878  1.00  0.00     0.345 HD
ATOM     23  H   UNL A   1      29.746  33.210  21.572  1.00  0.00     0.345 HD
ENDBRANCH  19  20
ENDBRANCH  13  15
ENDBRANCH  10  13
ENDBRANCH   3   6
ENDBRANCH   1   2
BRANCH   1  24
ATOM     24  C   UNL A   1      30.870  32.192  26.114  1.00  0.00     0.042 C 
BRANCH  24  25
ATOM     25  C   UNL A   1      32.168  32.421  26.881  1.00  0.00     0.118 C 
BRANCH  25  26
ATOM     26  N   UNL A   1      32.352  33.816  27.251  1.00  0.00    -0.352 N 
ATOM     27  C   UNL A   1      33.210  34.397  28.153  1.00  0.00     0.251 C 
ATOM     28  H   UNL A   1      31.764  34.447  26.776  1.00  0.00     0.163 HD
ATOM     29  O   UNL A   1      33.049  35.577  28.449  1.00  0.00    -0.269 OA
BRANCH  27  30
ATOM     30  C   UNL A   1      34.317  33.633  28.779  1.00  0.00     0.039 A 
ATOM     31  C   UNL A   1      35.603  34.185  28.758  1.00  0.00     0.014 A 
ATOM     32  C   UNL A   1      34.126  32.357  29.314  1.00  0.00     0.014 A 
ATOM     33  C   UNL A   1      36.679  33.485  29.312  1.00  0.00     0.010 A 
ATOM     34  C   UNL A   1      35.185  31.689  29.930  1.00  0.00     0.010 A 
ATOM     35  C   UNL A   1      36.476  32.240  29.926  1.00  0.00    -0.014 A 
BRANCH  35  36
ATOM     36  C   UNL A   1      37.599  31.489  30.546  1.00  0.00     0.031 A 
ATOM     37  C   UNL A   1      37.978  31.743  31.980  1.00  0.00     0.074 A 
ATOM     38  C   UNL A   1      38.316  30.622  29.805  1.00  0.00     0.049 A 
ATOM     39  N   UNL A   1      38.980  31.259  32.670  1.00  0.00    -0.248 NA
ATOM     40  C   UNL A   1      37.133  32.684  32.731  1.00  0.00     0.031 C 
ATOM     41  C   UNL A   1      38.076  30.314  28.393  1.00  0.00     0.029 A 
ATOM     42  N   UNL A   1      39.403  29.850  30.133  1.00  0.00    -0.354 N 
ATOM     43  C   UNL A   1      38.899  31.852  33.924  1.00  0.00     0.074 A 
ATOM     44  C   UNL A   1      37.776  32.763  33.888  1.00  0.00     0.031 C 
ATOM     45  C   UNL A   1      38.978  29.407  27.982  1.00  0.00     0.029 A 
ATOM     46  C   UNL A   1      39.880  29.097  29.088  1.00  0.00     0.049 A 
ATOM     47  H   UNL A   1      39.802  29.838  31.033  1.00  0.00     0.167 HD
ATOM     48  C   UNL A   1      39.676  31.643  35.014  1.00  0.00     0.037 A 
ATOM     49  C   UNL A   1      40.931  28.257  29.024  1.00  0.00     0.037 A 
ATOM     50  C   UNL A   1      40.770  30.709  35.063  1.00  0.00     0.049 A 
ATOM     51  C   UNL A   1      41.772  28.035  30.251  1.00  0.00     0.074 A 
ATOM     52  C   UNL A   1      41.582  30.386  36.136  1.00  0.00     0.029 A 
ATOM     53  N   UNL A   1      41.202  29.944  33.990  1.00  0.00    -0.354 N 
ATOM     54  N   UNL A   1      41.651  28.567  31.442  1.00  0.00    -0.248 NA
ATOM     55  C   UNL A   1      42.892  27.092  30.124  1.00  0.00     0.031 C 
ATOM     56  C   UNL A   1      42.525  29.447  35.705  1.00  0.00     0.029 A 
ATOM     57  C   UNL A   1      42.275  29.158  34.374  1.00  0.00     0.049 A 
ATOM     58  H   UNL A   1      40.803  29.956  33.090  1.00  0.00     0.167 HD
ATOM     59  C   UNL A   1      42.659  28.005  32.214  1.00  0.00     0.074 A 
ATOM     60  C   UNL A   1      43.375  27.080  31.359  1.00  0.00     0.031 C 
ATOM     61  C   UNL A   1      42.967  28.234  33.513  1.00  0.00     0.037 A 
BRANCH  48  62
ATOM     62  C   UNL A   1      39.363  32.432  36.252  1.00  0.00     0.057 A 
ATOM     63  C   UNL A   1      38.445  31.973  37.206  1.00  0.00     0.134 A 
ATOM     64  C   UNL A   1      40.015  33.644  36.514  1.00  0.00     0.134 A 
ATOM     65  F   UNL A   1      37.778  30.825  37.010  1.00  0.00    -0.206 F 
ATOM     66  C   UNL A   1      38.170  32.701  38.364  1.00  0.00     0.040 A 
ATOM     67  C   UNL A   1      39.767  34.368  37.680  1.00  0.00     0.040 A 
ATOM     68  F   UNL A   1      40.910  34.138  35.644  1.00  0.00    -0.206 F 
ATOM     69  C   UNL A   1      38.839  33.900  38.607  1.00  0.00     0.006 A 
ENDBRANCH  48  62
BRANCH  49  70
ATOM     70  C   UNL A   1      41.241  27.546  27.759  1.00  0.00     0.057 A 
ATOM     71  C   UNL A   1      40.735  26.263  27.511  1.00  0.00     0.134 A 
ATOM     72  C   UNL A   1      42.057  28.119  26.777  1.00  0.00     0.134 A 
ATOM     73  F   UNL A   1      39.963  25.656  28.423  1.00  0.00    -0.206 F 
ATOM     74  C   UNL A   1      41.047  25.568  26.342  1.00  0.00     0.040 A 
ATOM     75  C   UNL A   1      42.358  27.444  25.593  1.00  0.00     0.040 A 
ATOM     76  F   UNL A   1      42.567  29.346  26.953  1.00  0.00    -0.206 F 
ATOM     77  C   UNL A   1      41.858  26.162  25.376  1.00  0.00     0.006 A 
ENDBRANCH  49  70
BRANCH  61  78
ATOM     78  C   UNL A   1      44.102  27.446  34.098  1.00  0.00     0.057 A 
ATOM     79  C   UNL A   1      45.415  27.930  34.091  1.00  0.00     0.134 A 
ATOM     80  C   UNL A   1      43.869  26.207  34.706  1.00  0.00     0.134 A 
ATOM     81  F   UNL A   1      45.705  29.105  33.512  1.00  0.00    -0.206 F 
ATOM     82  C   UNL A   1      46.463  27.198  34.653  1.00  0.00     0.040 A 
ATOM     83  C   UNL A   1      44.903  25.477  35.291  1.00  0.00     0.040 A 
ATOM     84  F   UNL A   1      42.630  25.692  34.751  1.00  0.00    -0.206 F 
ATOM     85  C   UNL A   1      46.206  25.970  35.261  1.00  0.00     0.006 A 
ENDBRANCH  61  78
ENDBRANCH  35  36
ENDBRANCH  27  30
ENDBRANCH  25  26
ENDBRANCH  24  25
ENDBRANCH   1  24
TORSDOF 14
ENDMDL
MODEL 3
REMARK VINA RESULT:     -11.5      1.246      6.345
REMARK SMILES CO[C@H]1C[C@H](C(=O)NCCCNC(=O)c2ccc(-c3c4nc(c(-c5c(F)cccc5F)c5ccc([nH]5)c(-c5c(F)cccc5F)c5nc(c(-c6c(F)cccc6F)c6ccc3[nH]6)C=C5)C=C4)cc2)N(C(=O)[C@H]2C=C[C@@H]([NH3+])C2)C1
REMARK SMILES IDX 9 1 8 2 6 3 7 4 5 6 3 7 4 8 78 9 69 10 2 11 1 12 70 13 71 14
REMARK SMILES IDX 72 15 73 16 77 17 74 18 75 19 76 20 10 24 11 25 12 26 13 27
REMARK SMILES IDX 14 29 15 30 16 31 68 32 17 33 67 34 18 35 19 36 20 37 61 38
REMARK SMILES IDX 21 39 66 40 60 41 62 42 22 43 65 44 59 45 58 46 23 48 49 49
REMARK SMILES IDX 32 50 48 51 33 52 36 53 47 54 63 55 34 56 35 57 46 59 64 60
REMARK SMILES IDX 37 61 24 62 25 63 30 64 26 65 27 66 29 67 31 68 28 69 50 70
REMARK SMILES IDX 51 71 56 72 52 73 53 74 55 75 57 76 54 77 38 78 39 79 44 80
REMARK SMILES IDX 40 81 41 82 43 83 45 84 42 85
REMARK H PARENT 8 5 76 21 76 22 76 23 12 28 62 47 36 58
REMARK Flexibility Score: inf
ROOT
ATOM      1  C   UNL A   1      36.332  19.799  24.858  1.00  0.00     0.117 C 
ENDROOT
BRANCH   1   2
ATOM      2  N   UNL A   1      36.263  21.113  25.467  1.00  0.00    -0.354 N 
ATOM      3  C   UNL A   1      35.248  21.805  26.046  1.00  0.00     0.242 C 
ATOM      4  O   UNL A   1      35.480  23.001  26.272  1.00  0.00    -0.273 OA
ATOM      5  H   UNL A   1      37.119  21.599  25.457  1.00  0.00     0.163 HD
BRANCH   3   6
ATOM      6  C   UNL A   1      33.813  21.265  26.272  1.00  0.00     0.177 C 
ATOM      7  C   UNL A   1      32.079  22.887  26.777  1.00  0.00     0.139 C 
ATOM      8  C   UNL A   1      33.120  21.985  27.438  1.00  0.00     0.069 C 
ATOM      9  C   UNL A   1      31.701  22.153  25.497  1.00  0.00     0.152 C 
ATOM     10  N   UNL A   1      32.825  21.275  25.187  1.00  0.00    -0.327 N 
BRANCH   7  11
ATOM     11  O   UNL A   1      30.994  23.309  27.590  1.00  0.00    -0.380 OA
ATOM     12  C   UNL A   1      29.712  23.358  26.987  1.00  0.00     0.195 C 
ENDBRANCH   7  11
BRANCH  10  13
ATOM     13  C   UNL A   1      32.690  20.427  24.108  1.00  0.00     0.230 C 
ATOM     14  O   UNL A   1      32.747  20.891  22.962  1.00  0.00    -0.274 OA
BRANCH  13  15
ATOM     15  C   UNL A   1      32.421  18.923  24.256  1.00  0.00     0.107 C 
ATOM     16  C   UNL A   1      32.850  18.057  23.117  1.00  0.00    -0.012 C 
ATOM     17  C   UNL A   1      33.061  18.259  25.480  1.00  0.00     0.087 C 
ATOM     18  C   UNL A   1      33.359  16.899  23.555  1.00  0.00     0.033 C 
ATOM     19  C   UNL A   1      33.362  16.816  25.046  1.00  0.00     0.205 C 
BRANCH  19  20
ATOM     20  N   UNL A   1      34.634  16.346  25.561  1.00  0.00    -0.352 N 
ATOM     21  H   UNL A   1      35.170  17.139  25.915  1.00  0.00     0.345 HD
ATOM     22  H   UNL A   1      35.156  15.890  24.813  1.00  0.00     0.345 HD
ATOM     23  H   UNL A   1      34.470  15.681  26.316  1.00  0.00     0.345 HD
ENDBRANCH  19  20
ENDBRANCH  13  15
ENDBRANCH  10  13
ENDBRANCH   3   6
ENDBRANCH   1   2
BRANCH   1  24
ATOM     24  C   UNL A   1      37.781  19.345  24.671  1.00  0.00     0.042 C 
BRANCH  24  25
ATOM     25  C   UNL A   1      38.762  19.914  25.689  1.00  0.00     0.118 C 
BRANCH  25  26
ATOM     26  N   UNL A   1      39.981  19.125  25.784  1.00  0.00    -0.352 N 
ATOM     27  C   UNL A   1      41.272  19.503  26.060  1.00  0.00     0.251 C 
ATOM     28  H   UNL A   1      39.858  18.162  25.622  1.00  0.00     0.163 HD
ATOM     29  O   UNL A   1      42.177  18.692  25.887  1.00  0.00    -0.269 OA
BRANCH  27  30
ATOM     30  C   UNL A   1      41.598  20.863  26.555  1.00  0.00     0.039 A 
ATOM     31  C   UNL A   1      41.404  21.143  27.912  1.00  0.00     0.014 A 
ATOM     32  C   UNL A   1      42.015  21.882  25.696  1.00  0.00     0.014 A 
ATOM     33  C   UNL A   1      41.672  22.421  28.413  1.00  0.00     0.010 A 
ATOM     34  C   UNL A   1      42.351  23.137  26.207  1.00  0.00     0.010 A 
ATOM     35  C   UNL A   1      42.172  23.424  27.569  1.00  0.00    -0.014 A 
BRANCH  35  36
ATOM     36  C   UNL A   1      42.491  24.781  28.084  1.00  0.00     0.031 A 
ATOM     37  C   UNL A   1      43.897  25.124  28.496  1.00  0.00     0.074 A 
ATOM     38  C   UNL A   1      41.506  25.689  28.236  1.00  0.00     0.049 A 
ATOM     39  N   UNL A   1      44.354  26.218  29.052  1.00  0.00    -0.248 NA
ATOM     40  C   UNL A   1      44.921  24.091  28.276  1.00  0.00     0.031 C 
ATOM     41  C   UNL A   1      40.095  25.471  27.910  1.00  0.00     0.029 A 
ATOM     42  N   UNL A   1      41.541  26.975  28.718  1.00  0.00    -0.354 N 
ATOM     43  C   UNL A   1      45.709  25.995  29.268  1.00  0.00     0.074 A 
ATOM     44  C   UNL A   1      45.992  24.648  28.824  1.00  0.00     0.031 C 
ATOM     45  C   UNL A   1      39.403  26.589  28.186  1.00  0.00     0.029 A 
ATOM     46  C   UNL A   1      40.312  27.588  28.740  1.00  0.00     0.049 A 
ATOM     47  H   UNL A   1      42.369  27.415  29.019  1.00  0.00     0.167 HD
ATOM     48  C   UNL A   1      46.638  26.842  29.773  1.00  0.00     0.037 A 
ATOM     49  C   UNL A   1      39.956  28.814  29.166  1.00  0.00     0.037 A 
ATOM     50  C   UNL A   1      46.366  28.195  30.181  1.00  0.00     0.049 A 
ATOM     51  C   UNL A   1      41.008  29.739  29.713  1.00  0.00     0.074 A 
ATOM     52  C   UNL A   1      47.250  29.149  30.654  1.00  0.00     0.029 A 
ATOM     53  N   UNL A   1      45.112  28.788  30.160  1.00  0.00    -0.354 N 
ATOM     54  N   UNL A   1      42.293  29.531  29.865  1.00  0.00    -0.248 NA
ATOM     55  C   UNL A   1      40.560  31.072  30.144  1.00  0.00     0.031 C 
ATOM     56  C   UNL A   1      46.527  30.310  30.947  1.00  0.00     0.029 A 
ATOM     57  C   UNL A   1      45.199  30.091  30.621  1.00  0.00     0.049 A 
ATOM     58  H   UNL A   1      44.284  28.348  29.860  1.00  0.00     0.167 HD
ATOM     59  C   UNL A   1      42.811  30.710  30.381  1.00  0.00     0.074 A 
ATOM     60  C   UNL A   1      41.704  31.637  30.505  1.00  0.00     0.031 C 
ATOM     61  C   UNL A   1      44.089  31.002  30.724  1.00  0.00     0.037 A 
BRANCH  48  62
ATOM     62  C   UNL A   1      48.044  26.333  29.902  1.00  0.00     0.057 A 
ATOM     63  C   UNL A   1      48.972  26.460  28.860  1.00  0.00     0.134 A 
ATOM     64  C   UNL A   1      48.488  25.747  31.094  1.00  0.00     0.134 A 
ATOM     65  F   UNL A   1      48.608  27.002  27.687  1.00  0.00    -0.206 F 
ATOM     66  C   UNL A   1      50.284  26.001  28.990  1.00  0.00     0.040 A 
ATOM     67  C   UNL A   1      49.804  25.308  31.246  1.00  0.00     0.040 A 
ATOM     68  F   UNL A   1      47.652  25.601  32.134  1.00  0.00    -0.206 F 
ATOM     69  C   UNL A   1      50.705  25.430  30.190  1.00  0.00     0.006 A 
ENDBRANCH  48  62
BRANCH  49  70
ATOM     70  C   UNL A   1      38.540  29.252  29.078  1.00  0.00     0.057 A 
ATOM     71  C   UNL A   1      38.004  29.717  27.871  1.00  0.00     0.134 A 
ATOM     72  C   UNL A   1      37.696  29.232  30.194  1.00  0.00     0.134 A 
ATOM     73  F   UNL A   1      38.770  29.778  26.772  1.00  0.00    -0.206 F 
ATOM     74  C   UNL A   1      36.685  30.165  27.780  1.00  0.00     0.040 A 
ATOM     75  C   UNL A   1      36.368  29.655  30.113  1.00  0.00     0.040 A 
ATOM     76  F   UNL A   1      38.148  28.793  31.377  1.00  0.00    -0.206 F 
ATOM     77  C   UNL A   1      35.862  30.130  28.905  1.00  0.00     0.006 A 
ENDBRANCH  49  70
BRANCH  61  78
ATOM     78  C   UNL A   1      44.364  32.387  31.230  1.00  0.00     0.057 A 
ATOM     79  C   UNL A   1      44.331  32.694  32.595  1.00  0.00     0.134 A 
ATOM     80  C   UNL A   1      44.702  33.414  30.341  1.00  0.00     0.134 A 
ATOM     81  F   UNL A   1      44.001  31.756  33.496  1.00  0.00    -0.206 F 
ATOM     82  C   UNL A   1      44.605  33.982  33.058  1.00  0.00     0.040 A 
ATOM     83  C   UNL A   1      45.001  34.700  30.793  1.00  0.00     0.040 A 
ATOM     84  F   UNL A   1      44.758  33.183  29.020  1.00  0.00    -0.206 F 
ATOM     85  C   UNL A   1      44.947  34.987  32.156  1.00  0.00     0.006 A 
ENDBRANCH  61  78
ENDBRANCH  35  36
ENDBRANCH  27  30
ENDBRANCH  25  26
ENDBRANCH  24  25
ENDBRANCH   1  24
TORSDOF 14
ENDMDL
