MODEL 1
REMARK VINA RESULT:     -13.2      0.000      0.000
REMARK SMILES Cn1c(=O)c(=O)n(C)c2cc(S(=O)(=O)N3CCC[C@H]3C(=O)NCCCNC(=O)c3ccc(-c4c5nc(c(-c6c(F)cccc6F)c6ccc([nH]6)c(-c6c(F)cccc6F)c6nc(c(-c7c(F)cccc7F)c7ccc4[nH]7)C=C6)C=C5)cc3)ccc21
REMARK SMILES IDX 24 1 23 2 22 3 20 4 21 5 19 7 15 8 16 9 17 10 18 11 12 12
REMARK SMILES IDX 13 13 14 14 11 15 1 16 2 17 3 18 85 19 4 20 5 21 9 22 84 23
REMARK SMILES IDX 6 24 7 25 10 26 83 27 8 28 25 29 26 30 27 31 28 33 29 34
REMARK SMILES IDX 30 35 82 36 31 37 81 38 32 39 33 40 34 41 75 42 35 43 80 44
REMARK SMILES IDX 74 45 76 46 36 47 79 48 73 49 72 50 37 52 63 53 46 54 62 55
REMARK SMILES IDX 47 56 50 57 61 58 77 59 48 60 49 61 60 63 78 64 51 65 38 66
REMARK SMILES IDX 39 67 44 68 40 69 41 70 43 71 45 72 42 73 64 74 65 75 70 76
REMARK SMILES IDX 66 77 67 78 69 79 71 80 68 81 52 82 53 83 58 84 54 85 55 86
REMARK SMILES IDX 57 87 59 88 56 89
REMARK H PARENT 22 6 26 32 76 51 50 62
REMARK Flexibility Score: inf
ROOT
ATOM      1  C   UNL A   1      37.833  19.919  24.835  1.00  0.00     0.042 C 
ENDROOT
BRANCH   1   2
ATOM      2  C   UNL A   1      36.617  20.800  25.064  1.00  0.00     0.117 C 
BRANCH   2   3
ATOM      3  N   UNL A   1      35.398  20.026  25.001  1.00  0.00    -0.355 N 
ATOM      4  C   UNL A   1      34.133  20.347  25.374  1.00  0.00     0.238 C 
ATOM      5  O   UNL A   1      33.288  19.449  25.296  1.00  0.00    -0.273 OA
ATOM      6  H   UNL A   1      35.502  19.121  24.629  1.00  0.00     0.163 HD
BRANCH   4   7
ATOM      7  C   UNL A   1      33.714  21.768  25.711  1.00  0.00     0.162 C 
ATOM      8  N   UNL A   1      32.583  22.396  24.978  1.00  0.00    -0.185 NA
ATOM      9  C   UNL A   1      31.571  22.910  25.928  1.00  0.00     0.103 C 
ATOM     10  C   UNL A   1      32.279  22.961  27.271  1.00  0.00     0.019 C 
ATOM     11  C   UNL A   1      33.347  21.883  27.194  1.00  0.00     0.032 C 
BRANCH   8  12
ATOM     12  S   UNL A   1      32.921  23.347  23.612  1.00  0.00     0.243 S 
ATOM     13  O   UNL A   1      31.772  23.217  22.738  1.00  0.00    -0.207 OA
ATOM     14  O   UNL A   1      34.257  23.040  23.156  1.00  0.00    -0.207 OA
BRANCH  12  15
ATOM     15  C   UNL A   1      32.931  25.055  24.167  1.00  0.00     0.084 A 
ATOM     16  C   UNL A   1      33.550  29.311  26.913  1.00  0.00     0.154 C 
ATOM     17  N   UNL A   1      32.659  28.942  25.821  1.00  0.00    -0.305 N 
ATOM     18  C   UNL A   1      31.672  29.846  25.447  1.00  0.00     0.316 A 
ATOM     19  C   UNL A   1      32.768  27.667  25.210  1.00  0.00     0.068 A 
ATOM     20  O   UNL A   1      31.520  30.941  25.981  1.00  0.00    -0.263 OA
ATOM     21  C   UNL A   1      30.734  29.443  24.302  1.00  0.00     0.316 A 
ATOM     22  C   UNL A   1      31.817  27.232  24.269  1.00  0.00     0.069 A 
ATOM     23  C   UNL A   1      33.826  26.817  25.548  1.00  0.00     0.030 A 
ATOM     24  O   UNL A   1      29.943  30.279  23.873  1.00  0.00    -0.263 OA
ATOM     25  N   UNL A   1      30.820  28.137  23.814  1.00  0.00    -0.305 N 
ATOM     26  C   UNL A   1      31.886  25.907  23.783  1.00  0.00     0.050 A 
ATOM     27  C   UNL A   1      33.922  25.540  25.009  1.00  0.00     0.024 A 
ATOM     28  C   UNL A   1      29.902  27.751  22.752  1.00  0.00     0.154 C 
ENDBRANCH  12  15
ENDBRANCH   8  12
ENDBRANCH   4   7
ENDBRANCH   2   3
ENDBRANCH   1   2
BRANCH   1  29
ATOM     29  C   UNL A   1      38.997  20.279  25.751  1.00  0.00     0.118 C 
BRANCH  29  30
ATOM     30  N   UNL A   1      39.980  19.203  25.856  1.00  0.00    -0.352 N 
ATOM     31  C   UNL A   1      41.340  19.268  26.040  1.00  0.00     0.251 C 
ATOM     32  H   UNL A   1      39.611  18.293  25.784  1.00  0.00     0.163 HD
ATOM     33  O   UNL A   1      42.030  18.264  25.892  1.00  0.00    -0.269 OA
BRANCH  31  34
ATOM     34  C   UNL A   1      41.967  20.557  26.388  1.00  0.00     0.039 A 
ATOM     35  C   UNL A   1      42.225  20.873  27.722  1.00  0.00     0.014 A 
ATOM     36  C   UNL A   1      42.278  21.469  25.377  1.00  0.00     0.014 A 
ATOM     37  C   UNL A   1      42.593  22.168  28.060  1.00  0.00     0.010 A 
ATOM     38  C   UNL A   1      42.757  22.738  25.714  1.00  0.00     0.010 A 
ATOM     39  C   UNL A   1      42.864  23.116  27.062  1.00  0.00    -0.014 A 
BRANCH  39  40
ATOM     40  C   UNL A   1      43.245  24.495  27.463  1.00  0.00     0.031 A 
ATOM     41  C   UNL A   1      44.672  24.962  27.357  1.00  0.00     0.074 A 
ATOM     42  C   UNL A   1      42.281  25.351  27.853  1.00  0.00     0.049 A 
ATOM     43  N   UNL A   1      45.179  26.135  27.646  1.00  0.00    -0.248 NA
ATOM     44  C   UNL A   1      45.661  23.987  26.872  1.00  0.00     0.031 C 
ATOM     45  C   UNL A   1      40.859  25.019  27.982  1.00  0.00     0.029 A 
ATOM     46  N   UNL A   1      42.342  26.680  28.181  1.00  0.00    -0.354 N 
ATOM     47  C   UNL A   1      46.543  26.031  27.402  1.00  0.00     0.074 A 
ATOM     48  C   UNL A   1      46.791  24.673  26.969  1.00  0.00     0.031 C 
ATOM     49  C   UNL A   1      40.175  26.128  28.297  1.00  0.00     0.029 A 
ATOM     50  C   UNL A   1      41.115  27.230  28.465  1.00  0.00     0.049 A 
ATOM     51  H   UNL A   1      43.182  27.191  28.212  1.00  0.00     0.167 HD
ATOM     52  C   UNL A   1      47.499  26.984  27.516  1.00  0.00     0.037 A 
ATOM     53  C   UNL A   1      40.785  28.479  28.837  1.00  0.00     0.037 A 
ATOM     54  C   UNL A   1      47.245  28.344  27.918  1.00  0.00     0.049 A 
ATOM     55  C   UNL A   1      41.871  29.501  29.001  1.00  0.00     0.074 A 
ATOM     56  C   UNL A   1      48.141  29.393  28.037  1.00  0.00     0.029 A 
ATOM     57  N   UNL A   1      45.998  28.843  28.266  1.00  0.00    -0.354 N 
ATOM     58  N   UNL A   1      43.155  29.387  28.766  1.00  0.00    -0.248 NA
ATOM     59  C   UNL A   1      41.462  30.820  29.501  1.00  0.00     0.031 C 
ATOM     60  C   UNL A   1      47.443  30.516  28.495  1.00  0.00     0.029 A 
ATOM     61  C   UNL A   1      46.105  30.178  28.624  1.00  0.00     0.049 A 
ATOM     62  H   UNL A   1      45.161  28.326  28.259  1.00  0.00     0.167 HD
ATOM     63  C   UNL A   1      43.708  30.619  29.085  1.00  0.00     0.074 A 
ATOM     64  C   UNL A   1      42.615  31.473  29.501  1.00  0.00     0.031 C 
ATOM     65  C   UNL A   1      45.006  31.006  29.047  1.00  0.00     0.037 A 
BRANCH  52  66
ATOM     66  C   UNL A   1      48.915  26.583  27.217  1.00  0.00     0.057 A 
ATOM     67  C   UNL A   1      49.417  26.662  25.911  1.00  0.00     0.134 A 
ATOM     68  C   UNL A   1      49.775  26.099  28.210  1.00  0.00     0.134 A 
ATOM     69  F   UNL A   1      48.645  27.112  24.911  1.00  0.00    -0.206 F 
ATOM     70  C   UNL A   1      50.723  26.274  25.606  1.00  0.00     0.040 A 
ATOM     71  C   UNL A   1      51.091  25.730  27.922  1.00  0.00     0.040 A 
ATOM     72  F   UNL A   1      49.361  26.011  29.484  1.00  0.00    -0.206 F 
ATOM     73  C   UNL A   1      51.566  25.813  26.613  1.00  0.00     0.006 A 
ENDBRANCH  52  66
BRANCH  53  74
ATOM     74  C   UNL A   1      39.367  28.824  29.106  1.00  0.00     0.057 A 
ATOM     75  C   UNL A   1      38.797  28.633  30.370  1.00  0.00     0.134 A 
ATOM     76  C   UNL A   1      38.551  29.361  28.104  1.00  0.00     0.134 A 
ATOM     77  F   UNL A   1      39.526  28.117  31.371  1.00  0.00    -0.206 F 
ATOM     78  C   UNL A   1      37.465  28.952  30.627  1.00  0.00     0.040 A 
ATOM     79  C   UNL A   1      37.224  29.710  28.353  1.00  0.00     0.040 A 
ATOM     80  F   UNL A   1      39.047  29.586  26.877  1.00  0.00    -0.206 F 
ATOM     81  C   UNL A   1      36.675  29.500  29.617  1.00  0.00     0.006 A 
ENDBRANCH  53  74
BRANCH  65  82
ATOM     82  C   UNL A   1      45.299  32.416  29.464  1.00  0.00     0.057 A 
ATOM     83  C   UNL A   1      45.633  32.716  30.790  1.00  0.00     0.134 A 
ATOM     84  C   UNL A   1      45.247  33.476  28.550  1.00  0.00     0.134 A 
ATOM     85  F   UNL A   1      45.695  31.747  31.714  1.00  0.00    -0.206 F 
ATOM     86  C   UNL A   1      45.908  34.024  31.192  1.00  0.00     0.040 A 
ATOM     87  C   UNL A   1      45.544  34.785  28.935  1.00  0.00     0.040 A 
ATOM     88  F   UNL A   1      44.952  33.249  27.261  1.00  0.00    -0.206 F 
ATOM     89  C   UNL A   1      45.870  35.061  30.260  1.00  0.00     0.006 A 
ENDBRANCH  65  82
ENDBRANCH  39  40
ENDBRANCH  31  34
ENDBRANCH  29  30
ENDBRANCH   1  29
TORSDOF 12
ENDMDL
MODEL 2
REMARK VINA RESULT:     -13.1      4.215      9.910
REMARK SMILES Cn1c(=O)c(=O)n(C)c2cc(S(=O)(=O)N3CCC[C@H]3C(=O)NCCCNC(=O)c3ccc(-c4c5nc(c(-c6c(F)cccc6F)c6ccc([nH]6)c(-c6c(F)cccc6F)c6nc(c(-c7c(F)cccc7F)c7ccc4[nH]7)C=C6)C=C5)cc3)ccc21
REMARK SMILES IDX 24 1 23 2 22 3 20 4 21 5 19 7 15 8 16 9 17 10 18 11 12 12
REMARK SMILES IDX 13 13 14 14 11 15 1 16 2 17 3 18 85 19 4 20 5 21 9 22 84 23
REMARK SMILES IDX 6 24 7 25 10 26 83 27 8 28 25 29 26 30 27 31 28 33 29 34
REMARK SMILES IDX 30 35 82 36 31 37 81 38 32 39 33 40 34 41 75 42 35 43 80 44
REMARK SMILES IDX 74 45 76 46 36 47 79 48 73 49 72 50 37 52 63 53 46 54 62 55
REMARK SMILES IDX 47 56 50 57 61 58 77 59 48 60 49 61 60 63 78 64 51 65 38 66
REMARK SMILES IDX 39 67 44 68 40 69 41 70 43 71 45 72 42 73 64 74 65 75 70 76
REMARK SMILES IDX 66 77 67 78 69 79 71 80 68 81 52 82 53 83 58 84 54 85 55 86
REMARK SMILES IDX 57 87 59 88 56 89
REMARK H PARENT 22 6 26 32 76 51 50 62
REMARK Flexibility Score: inf
ROOT
ATOM      1  C   UNL A   1      31.491  31.742  26.631  1.00  0.00     0.042 C 
ENDROOT
BRANCH   1   2
ATOM      2  C   UNL A   1      31.853  30.447  25.926  1.00  0.00     0.117 C 
BRANCH   2   3
ATOM      3  N   UNL A   1      30.969  30.201  24.809  1.00  0.00    -0.355 N 
ATOM      4  C   UNL A   1      31.069  29.314  23.787  1.00  0.00     0.238 C 
ATOM      5  O   UNL A   1      30.205  29.383  22.906  1.00  0.00    -0.273 OA
ATOM      6  H   UNL A   1      30.165  30.768  24.786  1.00  0.00     0.163 HD
BRANCH   4   7
ATOM      7  C   UNL A   1      32.077  28.176  23.785  1.00  0.00     0.162 C 
ATOM      8  N   UNL A   1      31.612  26.780  23.576  1.00  0.00    -0.185 NA
ATOM      9  C   UNL A   1      32.358  26.146  22.466  1.00  0.00     0.103 C 
ATOM     10  C   UNL A   1      33.577  27.027  22.255  1.00  0.00     0.019 C 
ATOM     11  C   UNL A   1      33.148  28.409  22.715  1.00  0.00     0.032 C 
BRANCH   8  12
ATOM     12  S   UNL A   1      31.273  25.819  24.935  1.00  0.00     0.243 S 
ATOM     13  O   UNL A   1      30.183  24.946  24.547  1.00  0.00    -0.207 OA
ATOM     14  O   UNL A   1      31.180  26.675  26.093  1.00  0.00    -0.207 OA
BRANCH  12  15
ATOM     15  C   UNL A   1      32.699  24.754  25.177  1.00  0.00     0.084 A 
ATOM     16  C   UNL A   1      37.454  22.928  25.487  1.00  0.00     0.154 C 
ATOM     17  N   UNL A   1      36.152  22.307  25.284  1.00  0.00    -0.305 N 
ATOM     18  C   UNL A   1      36.110  20.944  25.014  1.00  0.00     0.316 A 
ATOM     19  C   UNL A   1      34.973  23.096  25.302  1.00  0.00     0.068 A 
ATOM     20  O   UNL A   1      37.112  20.236  24.949  1.00  0.00    -0.263 OA
ATOM     21  C   UNL A   1      34.734  20.303  24.793  1.00  0.00     0.316 A 
ATOM     22  C   UNL A   1      33.728  22.545  24.949  1.00  0.00     0.069 A 
ATOM     23  C   UNL A   1      35.040  24.445  25.664  1.00  0.00     0.030 A 
ATOM     24  O   UNL A   1      34.670  19.081  24.684  1.00  0.00    -0.263 OA
ATOM     25  N   UNL A   1      33.624  21.147  24.716  1.00  0.00    -0.305 N 
ATOM     26  C   UNL A   1      32.603  23.394  24.851  1.00  0.00     0.050 A 
ATOM     27  C   UNL A   1      33.912  25.254  25.631  1.00  0.00     0.024 A 
ATOM     28  C   UNL A   1      32.326  20.535  24.470  1.00  0.00     0.154 C 
ENDBRANCH  12  15
ENDBRANCH   8  12
ENDBRANCH   4   7
ENDBRANCH   2   3
ENDBRANCH   1   2
BRANCH   1  29
ATOM     29  C   UNL A   1      32.705  32.439  27.235  1.00  0.00     0.118 C 
BRANCH  29  30
ATOM     30  N   UNL A   1      32.450  33.845  27.538  1.00  0.00    -0.352 N 
ATOM     31  C   UNL A   1      33.058  34.673  28.451  1.00  0.00     0.251 C 
ATOM     32  H   UNL A   1      31.732  34.262  27.009  1.00  0.00     0.163 HD
ATOM     33  O   UNL A   1      32.568  35.766  28.713  1.00  0.00    -0.269 OA
BRANCH  31  34
ATOM     34  C   UNL A   1      34.289  34.227  29.132  1.00  0.00     0.039 A 
ATOM     35  C   UNL A   1      35.539  34.549  28.603  1.00  0.00     0.014 A 
ATOM     36  C   UNL A   1      34.194  33.459  30.295  1.00  0.00     0.014 A 
ATOM     37  C   UNL A   1      36.675  33.936  29.110  1.00  0.00     0.010 A 
ATOM     38  C   UNL A   1      35.354  32.932  30.872  1.00  0.00     0.010 A 
ATOM     39  C   UNL A   1      36.598  33.121  30.250  1.00  0.00    -0.014 A 
BRANCH  39  40
ATOM     40  C   UNL A   1      37.835  32.472  30.757  1.00  0.00     0.031 A 
ATOM     41  C   UNL A   1      38.492  32.950  32.024  1.00  0.00     0.074 A 
ATOM     42  C   UNL A   1      38.322  31.398  30.107  1.00  0.00     0.049 A 
ATOM     43  N   UNL A   1      39.564  32.491  32.620  1.00  0.00    -0.248 NA
ATOM     44  C   UNL A   1      37.872  34.095  32.708  1.00  0.00     0.031 C 
ATOM     45  C   UNL A   1      37.764  30.831  28.876  1.00  0.00     0.029 A 
ATOM     46  N   UNL A   1      39.373  30.571  30.405  1.00  0.00    -0.354 N 
ATOM     47  C   UNL A   1      39.760  33.303  33.731  1.00  0.00     0.074 A 
ATOM     48  C   UNL A   1      38.714  34.302  33.711  1.00  0.00     0.031 C 
ATOM     49  C   UNL A   1      38.435  29.715  28.560  1.00  0.00     0.029 A 
ATOM     50  C   UNL A   1      39.516  29.527  29.522  1.00  0.00     0.049 A 
ATOM     51  H   UNL A   1      39.969  30.710  31.176  1.00  0.00     0.167 HD
ATOM     52  C   UNL A   1      40.717  33.216  34.686  1.00  0.00     0.037 A 
ATOM     53  C   UNL A   1      40.426  28.539  29.480  1.00  0.00     0.037 A 
ATOM     54  C   UNL A   1      41.740  32.202  34.719  1.00  0.00     0.049 A 
ATOM     55  C   UNL A   1      41.502  28.496  30.524  1.00  0.00     0.074 A 
ATOM     56  C   UNL A   1      42.738  32.011  35.659  1.00  0.00     0.029 A 
ATOM     57  N   UNL A   1      41.893  31.205  33.767  1.00  0.00    -0.354 N 
ATOM     58  N   UNL A   1      41.672  29.271  31.568  1.00  0.00    -0.248 NA
ATOM     59  C   UNL A   1      42.523  27.451  30.373  1.00  0.00     0.031 C 
ATOM     60  C   UNL A   1      43.518  30.922  35.255  1.00  0.00     0.029 A 
ATOM     61  C   UNL A   1      42.984  30.411  34.083  1.00  0.00     0.049 A 
ATOM     62  H   UNL A   1      41.312  31.080  32.982  1.00  0.00     0.167 HD
ATOM     63  C   UNL A   1      42.817  28.806  32.200  1.00  0.00     0.074 A 
ATOM     64  C   UNL A   1      43.281  27.663  31.439  1.00  0.00     0.031 C 
ATOM     65  C   UNL A   1      43.435  29.287  33.306  1.00  0.00     0.037 A 
BRANCH  52  66
ATOM     66  C   UNL A   1      40.712  34.258  35.767  1.00  0.00     0.057 A 
ATOM     67  C   UNL A   1      41.436  35.448  35.611  1.00  0.00     0.134 A 
ATOM     68  C   UNL A   1      40.015  34.080  36.967  1.00  0.00     0.134 A 
ATOM     69  F   UNL A   1      42.131  35.681  34.489  1.00  0.00    -0.206 F 
ATOM     70  C   UNL A   1      41.464  36.422  36.612  1.00  0.00     0.040 A 
ATOM     71  C   UNL A   1      40.016  35.057  37.966  1.00  0.00     0.040 A 
ATOM     72  F   UNL A   1      39.291  32.969  37.175  1.00  0.00    -0.206 F 
ATOM     73  C   UNL A   1      40.747  36.231  37.790  1.00  0.00     0.006 A 
ENDBRANCH  52  66
BRANCH  53  74
ATOM     74  C   UNL A   1      40.374  27.526  28.397  1.00  0.00     0.057 A 
ATOM     75  C   UNL A   1      41.066  27.710  27.194  1.00  0.00     0.134 A 
ATOM     76  C   UNL A   1      39.636  26.346  28.545  1.00  0.00     0.134 A 
ATOM     77  F   UNL A   1      41.786  28.823  26.990  1.00  0.00    -0.206 F 
ATOM     78  C   UNL A   1      41.017  26.763  26.172  1.00  0.00     0.040 A 
ATOM     79  C   UNL A   1      39.600  25.378  27.541  1.00  0.00     0.040 A 
ATOM     80  F   UNL A   1      38.969  26.105  29.684  1.00  0.00    -0.206 F 
ATOM     81  C   UNL A   1      40.288  25.589  26.347  1.00  0.00     0.006 A 
ENDBRANCH  53  74
BRANCH  65  82
ATOM     82  C   UNL A   1      44.674  28.569  33.749  1.00  0.00     0.057 A 
ATOM     83  C   UNL A   1      45.938  28.982  33.311  1.00  0.00     0.134 A 
ATOM     84  C   UNL A   1      44.612  27.464  34.609  1.00  0.00     0.134 A 
ATOM     85  F   UNL A   1      46.064  30.029  32.483  1.00  0.00    -0.206 F 
ATOM     86  C   UNL A   1      47.099  28.322  33.715  1.00  0.00     0.040 A 
ATOM     87  C   UNL A   1      45.769  26.812  35.039  1.00  0.00     0.040 A 
ATOM     88  F   UNL A   1      43.432  27.033  35.077  1.00  0.00    -0.206 F 
ATOM     89  C   UNL A   1      47.016  27.238  34.588  1.00  0.00     0.006 A 
ENDBRANCH  65  82
ENDBRANCH  39  40
ENDBRANCH  31  34
ENDBRANCH  29  30
ENDBRANCH   1  29
TORSDOF 12
ENDMDL
MODEL 3
REMARK VINA RESULT:     -13.0      0.349      6.158
REMARK SMILES Cn1c(=O)c(=O)n(C)c2cc(S(=O)(=O)N3CCC[C@H]3C(=O)NCCCNC(=O)c3ccc(-c4c5nc(c(-c6c(F)cccc6F)c6ccc([nH]6)c(-c6c(F)cccc6F)c6nc(c(-c7c(F)cccc7F)c7ccc4[nH]7)C=C6)C=C5)cc3)ccc21
REMARK SMILES IDX 24 1 23 2 22 3 20 4 21 5 19 7 15 8 16 9 17 10 18 11 12 12
REMARK SMILES IDX 13 13 14 14 11 15 1 16 2 17 3 18 85 19 4 20 5 21 9 22 84 23
REMARK SMILES IDX 6 24 7 25 10 26 83 27 8 28 25 29 26 30 27 31 28 33 29 34
REMARK SMILES IDX 30 35 82 36 31 37 81 38 32 39 33 40 34 41 75 42 35 43 80 44
REMARK SMILES IDX 74 45 76 46 36 47 79 48 73 49 72 50 37 52 63 53 46 54 62 55
REMARK SMILES IDX 47 56 50 57 61 58 77 59 48 60 49 61 60 63 78 64 51 65 38 66
REMARK SMILES IDX 39 67 44 68 40 69 41 70 43 71 45 72 42 73 64 74 65 75 70 76
REMARK SMILES IDX 66 77 67 78 69 79 71 80 68 81 52 82 53 83 58 84 54 85 55 86
REMARK SMILES IDX 57 87 59 88 56 89
REMARK H PARENT 22 6 26 32 76 51 50 62
REMARK Flexibility Score: inf
ROOT
ATOM      1  C   UNL A   1      37.930  19.978  24.861  1.00  0.00     0.042 C 
ENDROOT
BRANCH   1   2
ATOM      2  C   UNL A   1      36.706  20.834  25.133  1.00  0.00     0.117 C 
BRANCH   2   3
ATOM      3  N   UNL A   1      35.499  20.039  25.093  1.00  0.00    -0.355 N 
ATOM      4  C   UNL A   1      34.235  20.341  25.483  1.00  0.00     0.238 C 
ATOM      5  O   UNL A   1      33.404  19.428  25.423  1.00  0.00    -0.273 OA
ATOM      6  H   UNL A   1      35.613  19.134  24.724  1.00  0.00     0.163 HD
BRANCH   4   7
ATOM      7  C   UNL A   1      33.796  21.756  25.818  1.00  0.00     0.162 C 
ATOM      8  N   UNL A   1      32.609  22.341  25.140  1.00  0.00    -0.185 NA
ATOM      9  C   UNL A   1      31.639  22.845  26.139  1.00  0.00     0.103 C 
ATOM     10  C   UNL A   1      32.421  22.940  27.437  1.00  0.00     0.019 C 
ATOM     11  C   UNL A   1      33.511  21.890  27.318  1.00  0.00     0.032 C 
BRANCH   8  12
ATOM     12  S   UNL A   1      32.843  23.274  23.741  1.00  0.00     0.243 S 
ATOM     13  O   UNL A   1      31.623  23.152  22.969  1.00  0.00    -0.207 OA
ATOM     14  O   UNL A   1      34.132  22.945  23.178  1.00  0.00    -0.207 OA
BRANCH  12  15
ATOM     15  C   UNL A   1      32.922  24.987  24.276  1.00  0.00     0.084 A 
ATOM     16  C   UNL A   1      33.773  29.253  26.944  1.00  0.00     0.154 C 
ATOM     17  N   UNL A   1      32.825  28.896  25.897  1.00  0.00    -0.305 N 
ATOM     18  C   UNL A   1      31.845  29.822  25.556  1.00  0.00     0.316 A 
ATOM     19  C   UNL A   1      32.873  27.613  25.296  1.00  0.00     0.068 A 
ATOM     20  O   UNL A   1      31.745  30.927  26.084  1.00  0.00    -0.263 OA
ATOM     21  C   UNL A   1      30.847  29.432  24.458  1.00  0.00     0.316 A 
ATOM     22  C   UNL A   1      31.870  27.194  24.403  1.00  0.00     0.069 A 
ATOM     23  C   UNL A   1      33.923  26.739  25.596  1.00  0.00     0.030 A 
ATOM     24  O   UNL A   1      30.060  30.285  24.056  1.00  0.00    -0.263 OA
ATOM     25  N   UNL A   1      30.877  28.120  23.982  1.00  0.00    -0.305 N 
ATOM     26  C   UNL A   1      31.884  25.862  23.929  1.00  0.00     0.050 A 
ATOM     27  C   UNL A   1      33.961  25.454  25.068  1.00  0.00     0.024 A 
ATOM     28  C   UNL A   1      29.904  27.747  22.966  1.00  0.00     0.154 C 
ENDBRANCH  12  15
ENDBRANCH   8  12
ENDBRANCH   4   7
ENDBRANCH   2   3
ENDBRANCH   1   2
BRANCH   1  29
ATOM     29  C   UNL A   1      39.117  20.358  25.740  1.00  0.00     0.118 C 
BRANCH  29  30
ATOM     30  N   UNL A   1      40.071  19.263  25.895  1.00  0.00    -0.352 N 
ATOM     31  C   UNL A   1      41.429  19.301  26.103  1.00  0.00     0.251 C 
ATOM     32  H   UNL A   1      39.682  18.360  25.842  1.00  0.00     0.163 HD
ATOM     33  O   UNL A   1      42.097  18.278  25.999  1.00  0.00    -0.269 OA
BRANCH  31  34
ATOM     34  C   UNL A   1      42.080  20.585  26.426  1.00  0.00     0.039 A 
ATOM     35  C   UNL A   1      42.202  20.995  27.754  1.00  0.00     0.014 A 
ATOM     36  C   UNL A   1      42.550  21.399  25.393  1.00  0.00     0.014 A 
ATOM     37  C   UNL A   1      42.598  22.294  28.035  1.00  0.00     0.010 A 
ATOM     38  C   UNL A   1      43.055  22.669  25.689  1.00  0.00     0.010 A 
ATOM     39  C   UNL A   1      43.030  23.148  27.008  1.00  0.00    -0.014 A 
BRANCH  39  40
ATOM     40  C   UNL A   1      43.436  24.536  27.347  1.00  0.00     0.031 A 
ATOM     41  C   UNL A   1      42.416  25.551  27.788  1.00  0.00     0.074 A 
ATOM     42  C   UNL A   1      44.743  24.857  27.328  1.00  0.00     0.049 A 
ATOM     43  N   UNL A   1      42.593  26.800  28.138  1.00  0.00    -0.248 NA
ATOM     44  C   UNL A   1      41.012  25.112  27.835  1.00  0.00     0.031 C 
ATOM     45  C   UNL A   1      45.829  23.955  26.933  1.00  0.00     0.029 A 
ATOM     46  N   UNL A   1      45.387  26.015  27.679  1.00  0.00    -0.354 N 
ATOM     47  C   UNL A   1      41.329  27.301  28.422  1.00  0.00     0.074 A 
ATOM     48  C   UNL A   1      40.387  26.230  28.176  1.00  0.00     0.031 C 
ATOM     49  C   UNL A   1      47.005  24.570  27.124  1.00  0.00     0.029 A 
ATOM     50  C   UNL A   1      46.755  25.931  27.584  1.00  0.00     0.049 A 
ATOM     51  H   UNL A   1      44.916  26.829  27.970  1.00  0.00     0.167 HD
ATOM     52  C   UNL A   1      40.985  28.535  28.861  1.00  0.00     0.037 A 
ATOM     53  C   UNL A   1      47.704  26.852  27.824  1.00  0.00     0.037 A 
ATOM     54  C   UNL A   1      41.927  29.591  29.134  1.00  0.00     0.049 A 
ATOM     55  C   UNL A   1      47.291  28.225  28.263  1.00  0.00     0.074 A 
ATOM     56  C   UNL A   1      41.681  30.868  29.608  1.00  0.00     0.029 A 
ATOM     57  N   UNL A   1      43.299  29.488  28.958  1.00  0.00    -0.354 N 
ATOM     58  N   UNL A   1      46.090  28.682  28.528  1.00  0.00    -0.248 NA
ATOM     59  C   UNL A   1      48.363  29.217  28.418  1.00  0.00     0.031 C 
ATOM     60  C   UNL A   1      42.901  31.550  29.681  1.00  0.00     0.029 A 
ATOM     61  C   UNL A   1      43.910  30.686  29.289  1.00  0.00     0.049 A 
ATOM     62  H   UNL A   1      43.769  28.682  28.644  1.00  0.00     0.167 HD
ATOM     63  C   UNL A   1      46.263  30.012  28.884  1.00  0.00     0.074 A 
ATOM     64  C   UNL A   1      47.686  30.279  28.830  1.00  0.00     0.031 C 
ATOM     65  C   UNL A   1      45.327  30.934  29.216  1.00  0.00     0.037 A 
BRANCH  52  66
ATOM     66  C   UNL A   1      39.523  28.818  29.056  1.00  0.00     0.057 A 
ATOM     67  C   UNL A   1      38.912  28.587  30.297  1.00  0.00     0.134 A 
ATOM     68  C   UNL A   1      38.714  29.295  28.018  1.00  0.00     0.134 A 
ATOM     69  F   UNL A   1      39.628  28.125  31.332  1.00  0.00    -0.206 F 
ATOM     70  C   UNL A   1      37.551  28.822  30.495  1.00  0.00     0.040 A 
ATOM     71  C   UNL A   1      37.355  29.556  28.211  1.00  0.00     0.040 A 
ATOM     72  F   UNL A   1      39.238  29.550  26.810  1.00  0.00    -0.206 F 
ATOM     73  C   UNL A   1      36.769  29.314  29.453  1.00  0.00     0.006 A 
ENDBRANCH  52  66
BRANCH  53  74
ATOM     74  C   UNL A   1      49.136  26.513  27.629  1.00  0.00     0.057 A 
ATOM     75  C   UNL A   1      49.758  26.669  26.384  1.00  0.00     0.134 A 
ATOM     76  C   UNL A   1      49.916  26.034  28.686  1.00  0.00     0.134 A 
ATOM     77  F   UNL A   1      49.061  27.119  25.330  1.00  0.00    -0.206 F 
ATOM     78  C   UNL A   1      51.101  26.348  26.194  1.00  0.00     0.040 A 
ATOM     79  C   UNL A   1      51.269  25.735  28.518  1.00  0.00     0.040 A 
ATOM     80  F   UNL A   1      49.381  25.884  29.908  1.00  0.00    -0.206 F 
ATOM     81  C   UNL A   1      51.863  25.887  27.266  1.00  0.00     0.006 A 
ENDBRANCH  53  74
BRANCH  65  82
ATOM     82  C   UNL A   1      45.825  32.308  29.548  1.00  0.00     0.057 A 
ATOM     83  C   UNL A   1      45.939  33.288  28.556  1.00  0.00     0.134 A 
ATOM     84  C   UNL A   1      46.194  32.658  30.854  1.00  0.00     0.134 A 
ATOM     85  F   UNL A   1      45.607  33.015  27.286  1.00  0.00    -0.206 F 
ATOM     86  C   UNL A   1      46.403  34.572  28.851  1.00  0.00     0.040 A 
ATOM     87  C   UNL A   1      46.635  33.945  31.165  1.00  0.00     0.040 A 
ATOM     88  F   UNL A   1      46.089  31.768  31.852  1.00  0.00    -0.206 F 
ATOM     89  C   UNL A   1      46.745  34.904  30.161  1.00  0.00     0.006 A 
ENDBRANCH  65  82
ENDBRANCH  39  40
ENDBRANCH  31  34
ENDBRANCH  29  30
ENDBRANCH   1  29
TORSDOF 12
ENDMDL
