MODEL 1
REMARK VINA RESULT:     -13.5      0.000      0.000
REMARK SMILES Cc1c(C(=O)NCCCNC(=O)c2ccc(-c3c4nc(c(-c5c(F)cccc5F)c5ccc([nH]5)c(-c5c(F)cccc5F)c5nc(c(-c6c(F)cccc6F)c6ccc3[nH]6)C=C5)C=C4)cc2)oc2c1/C(=N/NC(=O)C(c1ccccc1)c1ccccc1)CCC2
REMARK SMILES IDX 7 1 6 2 4 3 5 4 3 6 1 7 2 8 69 9 67 10 68 11 70 12 90 13
REMARK SMILES IDX 71 14 88 15 89 16 72 17 73 18 74 20 75 21 76 22 77 23 81 24
REMARK SMILES IDX 78 25 80 26 79 27 82 28 83 29 87 30 84 31 86 32 85 33 8 34
REMARK SMILES IDX 9 35 10 36 11 37 12 39 13 40 14 41 66 42 15 43 65 44 16 45
REMARK SMILES IDX 17 46 18 47 59 48 19 49 64 50 58 51 60 52 20 53 63 54 57 55
REMARK SMILES IDX 56 56 21 58 47 59 30 60 46 61 31 62 34 63 45 64 61 65 32 66
REMARK SMILES IDX 33 67 44 69 62 70 35 71 22 72 23 73 28 74 24 75 25 76 27 77
REMARK SMILES IDX 29 78 26 79 48 80 49 81 54 82 50 83 51 84 53 85 55 86 52 87
REMARK SMILES IDX 36 88 37 89 42 90 38 91 39 92 41 93 43 94 40 95
REMARK H PARENT 6 5 72 19 10 38 60 57 34 68
REMARK Flexibility Score: inf
ROOT
ATOM      1  C   UNL A   1      37.774  21.342  25.301  1.00  0.00     0.118 C 
ENDROOT
BRANCH   1   2
ATOM      2  N   UNL A   1      36.842  20.199  25.259  1.00  0.00    -0.349 N 
ATOM      3  C   UNL A   1      35.475  20.174  24.962  1.00  0.00     0.287 C 
ATOM      4  O   UNL A   1      34.944  19.083  24.765  1.00  0.00    -0.266 OA
ATOM      5  H   UNL A   1      37.241  19.324  25.474  1.00  0.00     0.163 HD
BRANCH   3   6
ATOM      6  C   UNL A   1      34.787  21.442  24.862  1.00  0.00     0.195 A 
ATOM      7  C   UNL A   1      34.281  22.392  27.229  1.00  0.00     0.049 C 
ATOM      8  C   UNL A   1      34.224  22.370  25.747  1.00  0.00     0.010 A 
ATOM      9  C   UNL A   1      33.412  23.221  24.920  1.00  0.00     0.043 A 
ATOM     10  O   UNL A   1      34.554  21.846  23.593  1.00  0.00    -0.455 OA
ATOM     11  C   UNL A   1      33.619  22.772  23.636  1.00  0.00     0.114 A 
ATOM     12  C   UNL A   1      32.408  24.261  25.134  1.00  0.00     0.072 C 
ATOM     13  C   UNL A   1      32.906  23.028  22.376  1.00  0.00     0.076 C 
ATOM     14  N   UNL A   1      32.452  24.882  26.275  1.00  0.00    -0.177 NA
ATOM     15  C   UNL A   1      31.472  24.313  23.939  1.00  0.00     0.059 C 
ATOM     16  C   UNL A   1      32.152  24.314  22.567  1.00  0.00     0.014 C 
BRANCH  14  17
ATOM     17  N   UNL A   1      31.759  25.905  26.878  1.00  0.00    -0.246 N 
ATOM     18  C   UNL A   1      31.582  27.275  26.776  1.00  0.00     0.252 C 
ATOM     19  H   UNL A   1      31.216  25.551  27.618  1.00  0.00     0.193 HD
ATOM     20  O   UNL A   1      30.917  27.826  27.667  1.00  0.00    -0.272 OA
BRANCH  18  21
ATOM     21  C   UNL A   1      32.136  28.119  25.616  1.00  0.00     0.140 C 
BRANCH  21  22
ATOM     22  C   UNL A   1      30.920  28.444  24.653  1.00  0.00    -0.031 A 
ATOM     23  C   UNL A   1      30.652  29.787  24.252  1.00  0.00     0.005 A 
ATOM     24  C   UNL A   1      30.062  27.477  24.108  1.00  0.00     0.005 A 
ATOM     25  C   UNL A   1      29.739  30.128  23.252  1.00  0.00     0.000 A 
ATOM     26  C   UNL A   1      29.105  27.825  23.126  1.00  0.00     0.000 A 
ATOM     27  C   UNL A   1      28.969  29.139  22.673  1.00  0.00     0.000 A 
ENDBRANCH  21  22
BRANCH  21  28
ATOM     28  C   UNL A   1      33.111  29.191  26.270  1.00  0.00    -0.031 A 
ATOM     29  C   UNL A   1      32.712  30.454  26.741  1.00  0.00     0.005 A 
ATOM     30  C   UNL A   1      34.465  28.839  26.533  1.00  0.00     0.005 A 
ATOM     31  C   UNL A   1      33.546  31.190  27.612  1.00  0.00     0.000 A 
ATOM     32  C   UNL A   1      35.275  29.546  27.425  1.00  0.00     0.000 A 
ATOM     33  C   UNL A   1      34.800  30.710  27.995  1.00  0.00     0.000 A 
ENDBRANCH  21  28
ENDBRANCH  18  21
ENDBRANCH  14  17
ENDBRANCH   3   6
ENDBRANCH   1   2
BRANCH   1  34
ATOM     34  C   UNL A   1      39.181  21.022  25.849  1.00  0.00     0.042 C 
BRANCH  34  35
ATOM     35  C   UNL A   1      39.906  22.250  26.358  1.00  0.00     0.118 C 
BRANCH  35  36
ATOM     36  N   UNL A   1      41.268  22.361  25.825  1.00  0.00    -0.352 N 
ATOM     37  C   UNL A   1      42.091  23.475  25.757  1.00  0.00     0.251 C 
ATOM     38  H   UNL A   1      41.651  21.529  25.465  1.00  0.00     0.163 HD
ATOM     39  O   UNL A   1      43.036  23.514  24.997  1.00  0.00    -0.269 OA
BRANCH  37  40
ATOM     40  C   UNL A   1      41.782  24.616  26.637  1.00  0.00     0.039 A 
ATOM     41  C   UNL A   1      42.300  24.715  27.930  1.00  0.00     0.014 A 
ATOM     42  C   UNL A   1      41.011  25.637  26.099  1.00  0.00     0.014 A 
ATOM     43  C   UNL A   1      42.102  25.903  28.630  1.00  0.00     0.010 A 
ATOM     44  C   UNL A   1      41.045  26.873  26.674  1.00  0.00     0.010 A 
ATOM     45  C   UNL A   1      41.498  26.990  27.977  1.00  0.00    -0.014 A 
BRANCH  45  46
ATOM     46  C   UNL A   1      41.403  28.302  28.600  1.00  0.00     0.031 A 
ATOM     47  C   UNL A   1      42.523  29.203  28.243  1.00  0.00     0.074 A 
ATOM     48  C   UNL A   1      40.304  28.735  29.258  1.00  0.00     0.049 A 
ATOM     49  N   UNL A   1      43.555  29.483  28.965  1.00  0.00    -0.248 NA
ATOM     50  C   UNL A   1      42.614  29.703  26.861  1.00  0.00     0.031 C 
ATOM     51  C   UNL A   1      38.990  28.080  29.357  1.00  0.00     0.029 A 
ATOM     52  N   UNL A   1      40.095  29.911  29.915  1.00  0.00    -0.354 N 
ATOM     53  C   UNL A   1      44.268  30.430  28.237  1.00  0.00     0.074 A 
ATOM     54  C   UNL A   1      43.793  30.332  26.884  1.00  0.00     0.031 C 
ATOM     55  C   UNL A   1      38.071  28.958  29.811  1.00  0.00     0.029 A 
ATOM     56  C   UNL A   1      38.763  30.158  30.234  1.00  0.00     0.049 A 
ATOM     57  H   UNL A   1      40.824  30.532  30.142  1.00  0.00     0.167 HD
ATOM     58  C   UNL A   1      44.909  31.440  28.889  1.00  0.00     0.037 A 
ATOM     59  C   UNL A   1      38.264  31.270  30.825  1.00  0.00     0.037 A 
ATOM     60  C   UNL A   1      44.933  31.178  30.308  1.00  0.00     0.049 A 
ATOM     61  C   UNL A   1      39.381  31.924  31.540  1.00  0.00     0.074 A 
ATOM     62  C   UNL A   1      45.616  30.355  31.175  1.00  0.00     0.029 A 
ATOM     63  N   UNL A   1      43.791  31.586  30.945  1.00  0.00    -0.354 N 
ATOM     64  N   UNL A   1      39.983  31.392  32.568  1.00  0.00    -0.248 NA
ATOM     65  C   UNL A   1      40.092  33.022  30.896  1.00  0.00     0.031 C 
ATOM     66  C   UNL A   1      44.766  30.177  32.310  1.00  0.00     0.029 A 
ATOM     67  C   UNL A   1      43.610  30.933  32.133  1.00  0.00     0.049 A 
ATOM     68  H   UNL A   1      43.174  32.266  30.591  1.00  0.00     0.167 HD
ATOM     69  C   UNL A   1      41.300  31.780  32.427  1.00  0.00     0.074 A 
ATOM     70  C   UNL A   1      41.274  32.912  31.508  1.00  0.00     0.031 C 
ATOM     71  C   UNL A   1      42.317  30.942  32.782  1.00  0.00     0.037 A 
BRANCH  58  72
ATOM     72  C   UNL A   1      45.033  32.867  28.390  1.00  0.00     0.057 A 
ATOM     73  C   UNL A   1      43.855  33.609  28.177  1.00  0.00     0.134 A 
ATOM     74  C   UNL A   1      46.194  33.423  27.816  1.00  0.00     0.134 A 
ATOM     75  F   UNL A   1      42.676  33.185  28.659  1.00  0.00    -0.206 F 
ATOM     76  C   UNL A   1      43.826  34.771  27.395  1.00  0.00     0.040 A 
ATOM     77  C   UNL A   1      46.184  34.607  27.073  1.00  0.00     0.040 A 
ATOM     78  F   UNL A   1      47.380  32.807  27.846  1.00  0.00    -0.206 F 
ATOM     79  C   UNL A   1      44.992  35.271  26.833  1.00  0.00     0.006 A 
ENDBRANCH  58  72
BRANCH  59  80
ATOM     80  C   UNL A   1      36.963  31.938  30.616  1.00  0.00     0.057 A 
ATOM     81  C   UNL A   1      35.931  31.828  31.559  1.00  0.00     0.134 A 
ATOM     82  C   UNL A   1      36.816  32.949  29.650  1.00  0.00     0.134 A 
ATOM     83  F   UNL A   1      35.999  30.911  32.535  1.00  0.00    -0.206 F 
ATOM     84  C   UNL A   1      34.838  32.704  31.572  1.00  0.00     0.040 A 
ATOM     85  C   UNL A   1      35.729  33.829  29.651  1.00  0.00     0.040 A 
ATOM     86  F   UNL A   1      37.773  33.173  28.737  1.00  0.00    -0.206 F 
ATOM     87  C   UNL A   1      34.745  33.720  30.627  1.00  0.00     0.006 A 
ENDBRANCH  59  80
BRANCH  71  88
ATOM     88  C   UNL A   1      42.022  29.879  33.793  1.00  0.00     0.057 A 
ATOM     89  C   UNL A   1      41.694  28.551  33.491  1.00  0.00     0.134 A 
ATOM     90  C   UNL A   1      42.157  30.210  35.146  1.00  0.00     0.134 A 
ATOM     91  F   UNL A   1      41.610  28.126  32.224  1.00  0.00    -0.206 F 
ATOM     92  C   UNL A   1      41.476  27.604  34.498  1.00  0.00     0.040 A 
ATOM     93  C   UNL A   1      41.973  29.268  36.158  1.00  0.00     0.040 A 
ATOM     94  F   UNL A   1      42.505  31.456  35.505  1.00  0.00    -0.206 F 
ATOM     95  C   UNL A   1      41.621  27.961  35.836  1.00  0.00     0.006 A 
ENDBRANCH  71  88
ENDBRANCH  45  46
ENDBRANCH  37  40
ENDBRANCH  35  36
ENDBRANCH  34  35
ENDBRANCH   1  34
TORSDOF 14
ENDMDL
MODEL 2
REMARK VINA RESULT:     -13.5      1.441      3.048
REMARK SMILES Cc1c(C(=O)NCCCNC(=O)c2ccc(-c3c4nc(c(-c5c(F)cccc5F)c5ccc([nH]5)c(-c5c(F)cccc5F)c5nc(c(-c6c(F)cccc6F)c6ccc3[nH]6)C=C5)C=C4)cc2)oc2c1/C(=N/NC(=O)C(c1ccccc1)c1ccccc1)CCC2
REMARK SMILES IDX 7 1 6 2 4 3 5 4 3 6 1 7 2 8 69 9 67 10 68 11 70 12 90 13
REMARK SMILES IDX 71 14 88 15 89 16 72 17 73 18 74 20 75 21 76 22 77 23 81 24
REMARK SMILES IDX 78 25 80 26 79 27 82 28 83 29 87 30 84 31 86 32 85 33 8 34
REMARK SMILES IDX 9 35 10 36 11 37 12 39 13 40 14 41 66 42 15 43 65 44 16 45
REMARK SMILES IDX 17 46 18 47 59 48 19 49 64 50 58 51 60 52 20 53 63 54 57 55
REMARK SMILES IDX 56 56 21 58 47 59 30 60 46 61 31 62 34 63 45 64 61 65 32 66
REMARK SMILES IDX 33 67 44 69 62 70 35 71 22 72 23 73 28 74 24 75 25 76 27 77
REMARK SMILES IDX 29 78 26 79 48 80 49 81 54 82 50 83 51 84 53 85 55 86 52 87
REMARK SMILES IDX 36 88 37 89 42 90 38 91 39 92 41 93 43 94 40 95
REMARK H PARENT 6 5 72 19 10 38 60 57 34 68
REMARK Flexibility Score: inf
ROOT
ATOM      1  C   UNL A   1      35.999  21.375  25.804  1.00  0.00     0.118 C 
ENDROOT
BRANCH   1   2
ATOM      2  N   UNL A   1      35.134  20.256  25.389  1.00  0.00    -0.349 N 
ATOM      3  C   UNL A   1      33.911  20.279  24.709  1.00  0.00     0.287 C 
ATOM      4  O   UNL A   1      33.473  19.220  24.266  1.00  0.00    -0.266 OA
ATOM      5  H   UNL A   1      35.464  19.359  25.627  1.00  0.00     0.163 HD
BRANCH   3   6
ATOM      6  C   UNL A   1      33.265  21.562  24.533  1.00  0.00     0.195 A 
ATOM      7  C   UNL A   1      34.699  23.100  23.004  1.00  0.00     0.049 C 
ATOM      8  C   UNL A   1      33.560  22.774  23.896  1.00  0.00     0.010 A 
ATOM      9  C   UNL A   1      32.611  23.711  24.433  1.00  0.00     0.043 A 
ATOM     10  O   UNL A   1      32.091  21.683  25.191  1.00  0.00    -0.455 OA
ATOM     11  C   UNL A   1      31.811  22.968  25.270  1.00  0.00     0.114 A 
ATOM     12  C   UNL A   1      32.416  25.159  24.398  1.00  0.00     0.072 C 
ATOM     13  C   UNL A   1      30.840  23.354  26.303  1.00  0.00     0.076 C 
ATOM     14  N   UNL A   1      32.947  25.790  23.393  1.00  0.00    -0.177 NA
ATOM     15  C   UNL A   1      31.665  25.598  25.643  1.00  0.00     0.059 C 
ATOM     16  C   UNL A   1      30.428  24.766  25.995  1.00  0.00     0.014 C 
BRANCH  14  17
ATOM     17  N   UNL A   1      32.995  27.090  22.949  1.00  0.00    -0.246 N 
ATOM     18  C   UNL A   1      32.392  28.316  23.177  1.00  0.00     0.252 C 
ATOM     19  H   UNL A   1      33.676  27.177  22.243  1.00  0.00     0.193 HD
ATOM     20  O   UNL A   1      32.687  29.242  22.407  1.00  0.00    -0.272 OA
BRANCH  18  21
ATOM     21  C   UNL A   1      31.416  28.579  24.335  1.00  0.00     0.140 C 
BRANCH  21  22
ATOM     22  C   UNL A   1      32.254  29.233  25.511  1.00  0.00    -0.031 A 
ATOM     23  C   UNL A   1      33.520  28.693  25.885  1.00  0.00     0.005 A 
ATOM     24  C   UNL A   1      31.854  30.370  26.230  1.00  0.00     0.005 A 
ATOM     25  C   UNL A   1      34.404  29.330  26.760  1.00  0.00     0.000 A 
ATOM     26  C   UNL A   1      32.729  30.992  27.151  1.00  0.00     0.000 A 
ATOM     27  C   UNL A   1      34.013  30.495  27.387  1.00  0.00     0.000 A 
ENDBRANCH  21  22
BRANCH  21  28
ATOM     28  C   UNL A   1      30.102  29.192  23.683  1.00  0.00    -0.031 A 
ATOM     29  C   UNL A   1      29.100  28.442  23.045  1.00  0.00     0.005 A 
ATOM     30  C   UNL A   1      29.818  30.578  23.848  1.00  0.00     0.005 A 
ATOM     31  C   UNL A   1      27.824  29.001  22.812  1.00  0.00     0.000 A 
ATOM     32  C   UNL A   1      28.546  31.122  23.655  1.00  0.00     0.000 A 
ATOM     33  C   UNL A   1      27.533  30.320  23.167  1.00  0.00     0.000 A 
ENDBRANCH  21  28
ENDBRANCH  18  21
ENDBRANCH  14  17
ENDBRANCH   3   6
ENDBRANCH   1   2
BRANCH   1  34
ATOM     34  C   UNL A   1      37.374  21.436  25.105  1.00  0.00     0.042 C 
BRANCH  34  35
ATOM     35  C   UNL A   1      38.331  22.400  25.775  1.00  0.00     0.118 C 
BRANCH  35  36
ATOM     36  N   UNL A   1      39.235  21.732  26.718  1.00  0.00    -0.352 N 
ATOM     37  C   UNL A   1      40.328  22.249  27.395  1.00  0.00     0.251 C 
ATOM     38  H   UNL A   1      39.037  20.783  26.894  1.00  0.00     0.163 HD
ATOM     39  O   UNL A   1      41.180  21.522  27.865  1.00  0.00    -0.269 OA
BRANCH  37  40
ATOM     40  C   UNL A   1      40.428  23.713  27.528  1.00  0.00     0.039 A 
ATOM     41  C   UNL A   1      39.322  24.549  27.363  1.00  0.00     0.014 A 
ATOM     42  C   UNL A   1      41.662  24.229  27.903  1.00  0.00     0.014 A 
ATOM     43  C   UNL A   1      39.464  25.899  27.675  1.00  0.00     0.010 A 
ATOM     44  C   UNL A   1      41.724  25.477  28.450  1.00  0.00     0.010 A 
ATOM     45  C   UNL A   1      40.666  26.346  28.249  1.00  0.00    -0.014 A 
BRANCH  45  46
ATOM     46  C   UNL A   1      40.820  27.708  28.739  1.00  0.00     0.031 A 
ATOM     47  C   UNL A   1      41.986  28.413  28.159  1.00  0.00     0.074 A 
ATOM     48  C   UNL A   1      39.881  28.343  29.477  1.00  0.00     0.049 A 
ATOM     49  N   UNL A   1      43.132  28.611  28.718  1.00  0.00    -0.248 NA
ATOM     50  C   UNL A   1      41.954  28.773  26.732  1.00  0.00     0.031 C 
ATOM     51  C   UNL A   1      38.520  27.886  29.800  1.00  0.00     0.029 A 
ATOM     52  N   UNL A   1      39.910  29.590  30.028  1.00  0.00    -0.354 N 
ATOM     53  C   UNL A   1      43.854  29.383  27.815  1.00  0.00     0.074 A 
ATOM     54  C   UNL A   1      43.195  29.234  26.547  1.00  0.00     0.031 C 
ATOM     55  C   UNL A   1      37.787  28.919  30.268  1.00  0.00     0.029 A 
ATOM     56  C   UNL A   1      38.674  30.045  30.478  1.00  0.00     0.049 A 
ATOM     57  H   UNL A   1      40.734  30.123  30.100  1.00  0.00     0.167 HD
ATOM     58  C   UNL A   1      44.698  30.348  28.276  1.00  0.00     0.037 A 
ATOM     59  C   UNL A   1      38.401  31.261  31.006  1.00  0.00     0.037 A 
ATOM     60  C   UNL A   1      44.877  30.210  29.703  1.00  0.00     0.049 A 
ATOM     61  C   UNL A   1      39.676  31.816  31.510  1.00  0.00     0.074 A 
ATOM     62  C   UNL A   1      45.561  29.380  30.562  1.00  0.00     0.029 A 
ATOM     63  N   UNL A   1      43.890  30.825  30.426  1.00  0.00    -0.354 N 
ATOM     64  N   UNL A   1      40.338  31.298  32.507  1.00  0.00    -0.248 NA
ATOM     65  C   UNL A   1      40.426  32.746  30.674  1.00  0.00     0.031 C 
ATOM     66  C   UNL A   1      44.855  29.420  31.803  1.00  0.00     0.029 A 
ATOM     67  C   UNL A   1      43.789  30.310  31.688  1.00  0.00     0.049 A 
ATOM     68  H   UNL A   1      43.322  31.550  30.080  1.00  0.00     0.167 HD
ATOM     69  C   UNL A   1      41.663  31.487  32.169  1.00  0.00     0.074 A 
ATOM     70  C   UNL A   1      41.656  32.528  31.148  1.00  0.00     0.031 C 
ATOM     71  C   UNL A   1      42.605  30.553  32.484  1.00  0.00     0.037 A 
BRANCH  58  72
ATOM     72  C   UNL A   1      44.931  31.696  27.621  1.00  0.00     0.057 A 
ATOM     73  C   UNL A   1      46.162  31.925  26.974  1.00  0.00     0.134 A 
ATOM     74  C   UNL A   1      44.167  32.855  27.865  1.00  0.00     0.134 A 
ATOM     75  F   UNL A   1      46.993  30.909  26.695  1.00  0.00    -0.206 F 
ATOM     76  C   UNL A   1      46.624  33.211  26.664  1.00  0.00     0.040 A 
ATOM     77  C   UNL A   1      44.597  34.139  27.515  1.00  0.00     0.040 A 
ATOM     78  F   UNL A   1      43.016  32.831  28.544  1.00  0.00    -0.206 F 
ATOM     79  C   UNL A   1      45.843  34.325  26.940  1.00  0.00     0.006 A 
ENDBRANCH  58  72
BRANCH  59  80
ATOM     80  C   UNL A   1      37.178  32.081  30.887  1.00  0.00     0.057 A 
ATOM     81  C   UNL A   1      36.874  32.763  29.700  1.00  0.00     0.134 A 
ATOM     82  C   UNL A   1      36.132  31.961  31.818  1.00  0.00     0.134 A 
ATOM     83  F   UNL A   1      37.801  32.902  28.741  1.00  0.00    -0.206 F 
ATOM     84  C   UNL A   1      35.589  33.253  29.431  1.00  0.00     0.040 A 
ATOM     85  C   UNL A   1      34.846  32.447  31.563  1.00  0.00     0.040 A 
ATOM     86  F   UNL A   1      36.304  31.280  32.961  1.00  0.00    -0.206 F 
ATOM     87  C   UNL A   1      34.566  33.079  30.356  1.00  0.00     0.006 A 
ENDBRANCH  59  80
BRANCH  71  88
ATOM     88  C   UNL A   1      42.317  29.632  33.628  1.00  0.00     0.057 A 
ATOM     89  C   UNL A   1      41.781  28.344  33.508  1.00  0.00     0.134 A 
ATOM     90  C   UNL A   1      42.678  30.054  34.913  1.00  0.00     0.134 A 
ATOM     91  F   UNL A   1      41.470  27.828  32.312  1.00  0.00    -0.206 F 
ATOM     92  C   UNL A   1      41.582  27.526  34.626  1.00  0.00     0.040 A 
ATOM     93  C   UNL A   1      42.515  29.238  36.031  1.00  0.00     0.040 A 
ATOM     94  F   UNL A   1      43.231  31.264  35.095  1.00  0.00    -0.206 F 
ATOM     95  C   UNL A   1      41.956  27.971  35.892  1.00  0.00     0.006 A 
ENDBRANCH  71  88
ENDBRANCH  45  46
ENDBRANCH  37  40
ENDBRANCH  35  36
ENDBRANCH  34  35
ENDBRANCH   1  34
TORSDOF 14
ENDMDL
MODEL 3
REMARK VINA RESULT:     -13.0      1.069      2.528
REMARK SMILES Cc1c(C(=O)NCCCNC(=O)c2ccc(-c3c4nc(c(-c5c(F)cccc5F)c5ccc([nH]5)c(-c5c(F)cccc5F)c5nc(c(-c6c(F)cccc6F)c6ccc3[nH]6)C=C5)C=C4)cc2)oc2c1/C(=N/NC(=O)C(c1ccccc1)c1ccccc1)CCC2
REMARK SMILES IDX 7 1 6 2 4 3 5 4 3 6 1 7 2 8 69 9 67 10 68 11 70 12 90 13
REMARK SMILES IDX 71 14 88 15 89 16 72 17 73 18 74 20 75 21 76 22 77 23 81 24
REMARK SMILES IDX 78 25 80 26 79 27 82 28 83 29 87 30 84 31 86 32 85 33 8 34
REMARK SMILES IDX 9 35 10 36 11 37 12 39 13 40 14 41 66 42 15 43 65 44 16 45
REMARK SMILES IDX 17 46 18 47 59 48 19 49 64 50 58 51 60 52 20 53 63 54 57 55
REMARK SMILES IDX 56 56 21 58 47 59 30 60 46 61 31 62 34 63 45 64 61 65 32 66
REMARK SMILES IDX 33 67 44 69 62 70 35 71 22 72 23 73 28 74 24 75 25 76 27 77
REMARK SMILES IDX 29 78 26 79 48 80 49 81 54 82 50 83 51 84 53 85 55 86 52 87
REMARK SMILES IDX 36 88 37 89 42 90 38 91 39 92 41 93 43 94 40 95
REMARK H PARENT 6 5 72 19 10 38 60 57 34 68
REMARK Flexibility Score: inf
ROOT
ATOM      1  C   UNL A   1      37.527  22.477  25.755  1.00  0.00     0.118 C 
ENDROOT
BRANCH   1   2
ATOM      2  N   UNL A   1      37.465  22.318  24.290  1.00  0.00    -0.349 N 
ATOM      3  C   UNL A   1      36.443  22.662  23.399  1.00  0.00     0.287 C 
ATOM      4  O   UNL A   1      36.693  22.648  22.196  1.00  0.00    -0.266 OA
ATOM      5  H   UNL A   1      38.260  21.907  23.879  1.00  0.00     0.163 HD
BRANCH   3   6
ATOM      6  C   UNL A   1      35.169  23.056  23.959  1.00  0.00     0.195 A 
ATOM      7  C   UNL A   1      35.330  25.431  25.005  1.00  0.00     0.049 C 
ATOM      8  C   UNL A   1      34.663  24.147  24.675  1.00  0.00     0.010 A 
ATOM      9  C   UNL A   1      33.399  23.695  25.191  1.00  0.00     0.043 A 
ATOM     10  O   UNL A   1      34.196  22.125  23.828  1.00  0.00    -0.455 OA
ATOM     11  C   UNL A   1      33.242  22.425  24.684  1.00  0.00     0.114 A 
ATOM     12  C   UNL A   1      32.411  24.182  26.151  1.00  0.00     0.072 C 
ATOM     13  C   UNL A   1      32.317  21.336  25.027  1.00  0.00     0.076 C 
ATOM     14  N   UNL A   1      32.398  25.464  26.368  1.00  0.00    -0.177 NA
ATOM     15  C   UNL A   1      31.654  23.004  26.738  1.00  0.00     0.059 C 
ATOM     16  C   UNL A   1      31.148  21.973  25.725  1.00  0.00     0.014 C 
BRANCH  14  17
ATOM     17  N   UNL A   1      31.657  26.336  27.130  1.00  0.00    -0.246 N 
ATOM     18  C   UNL A   1      31.364  27.687  27.220  1.00  0.00     0.252 C 
ATOM     19  H   UNL A   1      31.184  25.842  27.838  1.00  0.00     0.193 HD
ATOM     20  O   UNL A   1      30.705  28.057  28.204  1.00  0.00    -0.272 OA
BRANCH  18  21
ATOM     21  C   UNL A   1      31.787  28.720  26.163  1.00  0.00     0.140 C 
BRANCH  21  22
ATOM     22  C   UNL A   1      33.119  29.402  26.682  1.00  0.00    -0.031 A 
ATOM     23  C   UNL A   1      33.119  30.766  27.100  1.00  0.00     0.005 A 
ATOM     24  C   UNL A   1      34.351  28.742  26.802  1.00  0.00     0.005 A 
ATOM     25  C   UNL A   1      34.191  31.373  27.759  1.00  0.00     0.000 A 
ATOM     26  C   UNL A   1      35.454  29.369  27.429  1.00  0.00     0.000 A 
ATOM     27  C   UNL A   1      35.363  30.666  27.939  1.00  0.00     0.000 A 
ENDBRANCH  21  22
BRANCH  21  28
ATOM     28  C   UNL A   1      31.597  28.016  24.750  1.00  0.00    -0.031 A 
ATOM     29  C   UNL A   1      32.632  27.772  23.832  1.00  0.00     0.005 A 
ATOM     30  C   UNL A   1      30.330  27.463  24.406  1.00  0.00     0.005 A 
ATOM     31  C   UNL A   1      32.454  26.845  22.780  1.00  0.00     0.000 A 
ATOM     32  C   UNL A   1      30.163  26.519  23.391  1.00  0.00     0.000 A 
ATOM     33  C   UNL A   1      31.240  26.181  22.595  1.00  0.00     0.000 A 
ENDBRANCH  21  28
ENDBRANCH  18  21
ENDBRANCH  14  17
ENDBRANCH   3   6
ENDBRANCH   1   2
BRANCH   1  34
ATOM     34  C   UNL A   1      38.484  23.581  26.256  1.00  0.00     0.042 C 
BRANCH  34  35
ATOM     35  C   UNL A   1      39.535  23.057  27.211  1.00  0.00     0.118 C 
BRANCH  35  36
ATOM     36  N   UNL A   1      40.766  22.649  26.525  1.00  0.00    -0.352 N 
ATOM     37  C   UNL A   1      41.779  23.441  26.004  1.00  0.00     0.251 C 
ATOM     38  H   UNL A   1      40.890  21.678  26.418  1.00  0.00     0.163 HD
ATOM     39  O   UNL A   1      42.552  23.009  25.174  1.00  0.00    -0.269 OA
BRANCH  37  40
ATOM     40  C   UNL A   1      41.888  24.828  26.488  1.00  0.00     0.039 A 
ATOM     41  C   UNL A   1      41.324  25.901  25.793  1.00  0.00     0.014 A 
ATOM     42  C   UNL A   1      42.512  25.022  27.713  1.00  0.00     0.014 A 
ATOM     43  C   UNL A   1      41.322  27.152  26.404  1.00  0.00     0.010 A 
ATOM     44  C   UNL A   1      42.277  26.172  28.407  1.00  0.00     0.010 A 
ATOM     45  C   UNL A   1      41.775  27.269  27.729  1.00  0.00    -0.014 A 
BRANCH  45  46
ATOM     46  C   UNL A   1      41.654  28.514  28.473  1.00  0.00     0.031 A 
ATOM     47  C   UNL A   1      42.771  29.455  28.229  1.00  0.00     0.074 A 
ATOM     48  C   UNL A   1      40.537  28.872  29.147  1.00  0.00     0.049 A 
ATOM     49  N   UNL A   1      43.785  29.674  28.996  1.00  0.00    -0.248 NA
ATOM     50  C   UNL A   1      42.885  30.087  26.903  1.00  0.00     0.031 C 
ATOM     51  C   UNL A   1      39.228  28.199  29.154  1.00  0.00     0.029 A 
ATOM     52  N   UNL A   1      40.303  29.978  29.909  1.00  0.00    -0.354 N 
ATOM     53  C   UNL A   1      44.502  30.692  28.377  1.00  0.00     0.074 A 
ATOM     54  C   UNL A   1      44.056  30.721  27.012  1.00  0.00     0.031 C 
ATOM     55  C   UNL A   1      38.292  29.021  29.671  1.00  0.00     0.029 A 
ATOM     56  C   UNL A   1      38.962  30.181  30.223  1.00  0.00     0.049 A 
ATOM     57  H   UNL A   1      41.020  30.580  30.210  1.00  0.00     0.167 HD
ATOM     58  C   UNL A   1      45.120  31.640  29.137  1.00  0.00     0.037 A 
ATOM     59  C   UNL A   1      38.439  31.226  30.907  1.00  0.00     0.037 A 
ATOM     60  C   UNL A   1      45.118  31.243  30.525  1.00  0.00     0.049 A 
ATOM     61  C   UNL A   1      39.534  31.818  31.705  1.00  0.00     0.074 A 
ATOM     62  C   UNL A   1      45.791  30.347  31.323  1.00  0.00     0.029 A 
ATOM     63  N   UNL A   1      43.958  31.578  31.173  1.00  0.00    -0.354 N 
ATOM     64  N   UNL A   1      40.121  31.195  32.690  1.00  0.00    -0.248 NA
ATOM     65  C   UNL A   1      40.246  32.979  31.185  1.00  0.00     0.031 C 
ATOM     66  C   UNL A   1      44.921  30.052  32.417  1.00  0.00     0.029 A 
ATOM     67  C   UNL A   1      43.761  30.812  32.289  1.00  0.00     0.049 A 
ATOM     68  H   UNL A   1      43.342  32.284  30.873  1.00  0.00     0.167 HD
ATOM     69  C   UNL A   1      41.436  31.606  32.614  1.00  0.00     0.074 A 
ATOM     70  C   UNL A   1      41.416  32.821  31.809  1.00  0.00     0.031 C 
ATOM     71  C   UNL A   1      42.455  30.747  32.908  1.00  0.00     0.037 A 
BRANCH  58  72
ATOM     72  C   UNL A   1      45.238  33.110  28.780  1.00  0.00     0.057 A 
ATOM     73  C   UNL A   1      44.059  33.836  28.521  1.00  0.00     0.134 A 
ATOM     74  C   UNL A   1      46.427  33.748  28.373  1.00  0.00     0.134 A 
ATOM     75  F   UNL A   1      42.857  33.337  28.848  1.00  0.00    -0.206 F 
ATOM     76  C   UNL A   1      44.061  35.063  27.845  1.00  0.00     0.040 A 
ATOM     77  C   UNL A   1      46.444  34.995  27.740  1.00  0.00     0.040 A 
ATOM     78  F   UNL A   1      47.626  33.165  28.463  1.00  0.00    -0.206 F 
ATOM     79  C   UNL A   1      45.257  35.644  27.445  1.00  0.00     0.006 A 
ENDBRANCH  58  72
BRANCH  59  80
ATOM     80  C   UNL A   1      37.136  31.900  30.736  1.00  0.00     0.057 A 
ATOM     81  C   UNL A   1      36.082  31.683  31.636  1.00  0.00     0.134 A 
ATOM     82  C   UNL A   1      36.999  33.003  29.876  1.00  0.00     0.134 A 
ATOM     83  F   UNL A   1      36.139  30.670  32.514  1.00  0.00    -0.206 F 
ATOM     84  C   UNL A   1      34.979  32.542  31.712  1.00  0.00     0.040 A 
ATOM     85  C   UNL A   1      35.901  33.868  29.941  1.00  0.00     0.040 A 
ATOM     86  F   UNL A   1      37.975  33.330  29.016  1.00  0.00    -0.206 F 
ATOM     87  C   UNL A   1      34.896  33.650  30.875  1.00  0.00     0.006 A 
ENDBRANCH  59  80
BRANCH  71  88
ATOM     88  C   UNL A   1      42.151  29.589  33.806  1.00  0.00     0.057 A 
ATOM     89  C   UNL A   1      41.819  28.300  33.371  1.00  0.00     0.134 A 
ATOM     90  C   UNL A   1      42.280  29.781  35.186  1.00  0.00     0.134 A 
ATOM     91  F   UNL A   1      41.740  28.004  32.067  1.00  0.00    -0.206 F 
ATOM     92  C   UNL A   1      41.593  27.257  34.276  1.00  0.00     0.040 A 
ATOM     93  C   UNL A   1      42.088  28.744  36.098  1.00  0.00     0.040 A 
ATOM     94  F   UNL A   1      42.632  30.983  35.670  1.00  0.00    -0.206 F 
ATOM     95  C   UNL A   1      41.733  27.477  35.644  1.00  0.00     0.006 A 
ENDBRANCH  71  88
ENDBRANCH  45  46
ENDBRANCH  37  40
ENDBRANCH  35  36
ENDBRANCH  34  35
ENDBRANCH   1  34
TORSDOF 14
ENDMDL
