MODEL 1
REMARK VINA RESULT:     -13.7      0.000      0.000
REMARK SMILES O=C(NCCCNC(=O)[C@H]1[C@H](C(=O)Nc2ccccc2-c2ccccc2)[C@@H]2C=C[C@H]1O2)c1ccc(-c2c3nc(c(-c4c(F)cccc4F)c4ccc([nH]4)c(-c4c(F)cccc4F)c4nc(c(-c5c(F)cccc5F)c5ccc2[nH]5)C=C4)C=C3)cc1
REMARK SMILES IDX 5 1 4 2 3 3 1 4 2 5 32 7 33 8 85 9 34 10 84 11 35 12 36 13
REMARK SMILES IDX 37 14 78 15 38 16 83 17 77 18 79 19 39 20 82 21 76 22 75 23
REMARK SMILES IDX 40 25 66 26 49 27 65 28 50 29 53 30 64 31 80 32 51 33 52 34
REMARK SMILES IDX 63 36 81 37 54 38 41 39 42 40 47 41 43 42 44 43 46 44 48 45
REMARK SMILES IDX 45 46 67 47 68 48 73 49 69 50 70 51 72 52 74 53 71 54 55 55
REMARK SMILES IDX 56 56 61 57 57 58 58 59 60 60 62 61 59 62 6 63 7 64 8 65
REMARK SMILES IDX 9 67 10 68 11 69 30 70 27 71 29 72 31 73 28 74 12 75 13 76
REMARK SMILES IDX 14 77 15 79 16 80 20 81 17 82 19 83 18 84 21 85 22 86 26 87
REMARK SMILES IDX 23 88 25 89 24 90
REMARK H PARENT 3 6 79 24 53 35 7 66 14 78
REMARK Flexibility Score: inf
ROOT
ATOM      1  C   UNL A   1      33.895  28.431  25.760  1.00  0.00     0.042 C 
ENDROOT
BRANCH   1   2
ATOM      2  C   UNL A   1      33.928  28.598  27.262  1.00  0.00     0.118 C 
BRANCH   2   3
ATOM      3  N   UNL A   1      33.910  30.013  27.644  1.00  0.00    -0.352 N 
ATOM      4  O   UNL A   1      34.422  31.816  28.898  1.00  0.00    -0.269 OA
ATOM      5  C   UNL A   1      34.780  30.746  28.417  1.00  0.00     0.251 C 
ATOM      6  H   UNL A   1      33.148  30.524  27.287  1.00  0.00     0.163 HD
BRANCH   5   7
ATOM      7  C   UNL A   1      36.145  30.243  28.667  1.00  0.00     0.039 A 
ATOM      8  C   UNL A   1      37.117  30.392  27.682  1.00  0.00     0.014 A 
ATOM      9  C   UNL A   1      36.479  29.660  29.893  1.00  0.00     0.014 A 
ATOM     10  C   UNL A   1      38.334  29.760  27.809  1.00  0.00     0.010 A 
ATOM     11  C   UNL A   1      37.781  29.198  30.099  1.00  0.00     0.010 A 
ATOM     12  C   UNL A   1      38.709  29.232  29.046  1.00  0.00    -0.014 A 
BRANCH  12  13
ATOM     13  C   UNL A   1      40.125  28.853  29.234  1.00  0.00     0.031 A 
ATOM     14  C   UNL A   1      41.106  29.816  29.817  1.00  0.00     0.074 A 
ATOM     15  C   UNL A   1      40.498  27.610  28.871  1.00  0.00     0.049 A 
ATOM     16  N   UNL A   1      42.395  29.675  29.976  1.00  0.00    -0.248 NA
ATOM     17  C   UNL A   1      40.578  31.113  30.266  1.00  0.00     0.031 C 
ATOM     18  C   UNL A   1      39.604  26.594  28.301  1.00  0.00     0.029 A 
ATOM     19  N   UNL A   1      41.712  26.981  28.925  1.00  0.00    -0.354 N 
ATOM     20  C   UNL A   1      42.841  30.875  30.508  1.00  0.00     0.074 A 
ATOM     21  C   UNL A   1      41.687  31.743  30.620  1.00  0.00     0.031 C 
ATOM     22  C   UNL A   1      40.287  25.464  28.097  1.00  0.00     0.029 A 
ATOM     23  C   UNL A   1      41.686  25.710  28.406  1.00  0.00     0.049 A 
ATOM     24  H   UNL A   1      42.522  27.398  29.298  1.00  0.00     0.167 HD
ATOM     25  C   UNL A   1      44.104  31.212  30.861  1.00  0.00     0.037 A 
ATOM     26  C   UNL A   1      42.687  24.855  28.141  1.00  0.00     0.037 A 
ATOM     27  C   UNL A   1      45.231  30.326  30.720  1.00  0.00     0.049 A 
ATOM     28  C   UNL A   1      44.083  25.275  28.473  1.00  0.00     0.074 A 
ATOM     29  C   UNL A   1      46.550  30.546  31.067  1.00  0.00     0.029 A 
ATOM     30  N   UNL A   1      45.170  29.053  30.163  1.00  0.00    -0.354 N 
ATOM     31  N   UNL A   1      44.495  26.405  28.997  1.00  0.00    -0.248 NA
ATOM     32  C   UNL A   1      45.151  24.316  28.181  1.00  0.00     0.031 C 
ATOM     33  C   UNL A   1      47.300  29.446  30.643  1.00  0.00     0.029 A 
ATOM     34  C   UNL A   1      46.437  28.496  30.118  1.00  0.00     0.049 A 
ATOM     35  H   UNL A   1      44.348  28.612  29.847  1.00  0.00     0.167 HD
ATOM     36  C   UNL A   1      45.871  26.284  29.122  1.00  0.00     0.074 A 
ATOM     37  C   UNL A   1      46.218  24.968  28.622  1.00  0.00     0.031 C 
ATOM     38  C   UNL A   1      46.760  27.179  29.618  1.00  0.00     0.037 A 
BRANCH  25  39
ATOM     39  C   UNL A   1      44.330  32.613  31.358  1.00  0.00     0.057 A 
ATOM     40  C   UNL A   1      44.261  32.952  32.716  1.00  0.00     0.134 A 
ATOM     41  C   UNL A   1      44.598  33.649  30.452  1.00  0.00     0.134 A 
ATOM     42  F   UNL A   1      43.998  32.016  33.640  1.00  0.00    -0.206 F 
ATOM     43  C   UNL A   1      44.396  34.274  33.149  1.00  0.00     0.040 A 
ATOM     44  C   UNL A   1      44.773  34.967  30.876  1.00  0.00     0.040 A 
ATOM     45  F   UNL A   1      44.688  33.400  29.137  1.00  0.00    -0.206 F 
ATOM     46  C   UNL A   1      44.654  35.286  32.226  1.00  0.00     0.006 A 
ENDBRANCH  25  39
BRANCH  26  47
ATOM     47  C   UNL A   1      42.379  23.559  27.488  1.00  0.00     0.057 A 
ATOM     48  C   UNL A   1      42.461  23.405  26.101  1.00  0.00     0.134 A 
ATOM     49  C   UNL A   1      42.064  22.422  28.247  1.00  0.00     0.134 A 
ATOM     50  F   UNL A   1      42.757  24.456  25.322  1.00  0.00    -0.206 F 
ATOM     51  C   UNL A   1      42.235  22.172  25.490  1.00  0.00     0.040 A 
ATOM     52  C   UNL A   1      41.868  21.176  27.652  1.00  0.00     0.040 A 
ATOM     53  F   UNL A   1      41.995  22.498  29.584  1.00  0.00    -0.206 F 
ATOM     54  C   UNL A   1      41.946  21.049  26.268  1.00  0.00     0.006 A 
ENDBRANCH  26  47
BRANCH  38  55
ATOM     55  C   UNL A   1      48.194  26.750  29.699  1.00  0.00     0.057 A 
ATOM     56  C   UNL A   1      48.689  25.992  30.765  1.00  0.00     0.134 A 
ATOM     57  C   UNL A   1      49.069  27.033  28.640  1.00  0.00     0.134 A 
ATOM     58  F   UNL A   1      47.908  25.703  31.817  1.00  0.00    -0.206 F 
ATOM     59  C   UNL A   1      50.007  25.531  30.778  1.00  0.00     0.040 A 
ATOM     60  C   UNL A   1      50.376  26.550  28.625  1.00  0.00     0.040 A 
ATOM     61  F   UNL A   1      48.652  27.752  27.586  1.00  0.00    -0.206 F 
ATOM     62  C   UNL A   1      50.849  25.798  29.699  1.00  0.00     0.006 A 
ENDBRANCH  38  55
ENDBRANCH  12  13
ENDBRANCH   5   7
ENDBRANCH   2   3
ENDBRANCH   1   2
BRANCH   1  63
ATOM     63  C   UNL A   1      32.480  28.506  25.224  1.00  0.00     0.117 C 
BRANCH  63  64
ATOM     64  N   UNL A   1      31.485  27.843  26.026  1.00  0.00    -0.356 N 
ATOM     65  C   UNL A   1      31.253  26.491  26.110  1.00  0.00     0.227 C 
ATOM     66  H   UNL A   1      30.909  28.422  26.577  1.00  0.00     0.163 HD
ATOM     67  O   UNL A   1      30.279  26.110  26.758  1.00  0.00    -0.275 OA
BRANCH  65  68
ATOM     68  C   UNL A   1      32.174  25.514  25.265  1.00  0.00     0.127 C 
ATOM     69  C   UNL A   1      32.045  23.298  25.329  1.00  0.00     0.127 C 
ATOM     70  C   UNL A   1      31.904  25.569  23.111  1.00  0.00     0.155 C 
ATOM     71  C   UNL A   1      32.219  22.528  23.352  1.00  0.00     0.155 C 
ATOM     72  C   UNL A   1      33.107  24.978  21.405  1.00  0.00     0.004 C 
ATOM     73  O   UNL A   1      31.211  23.577  23.206  1.00  0.00    -0.365 OA
ATOM     74  C   UNL A   1      33.040  23.159  21.512  1.00  0.00     0.004 C 
BRANCH  69  75
ATOM     75  C   UNL A   1      32.204  22.842  26.749  1.00  0.00     0.231 C 
ATOM     76  O   UNL A   1      31.337  22.883  27.609  1.00  0.00    -0.274 OA
ATOM     77  N   UNL A   1      33.489  22.372  26.983  1.00  0.00    -0.325 N 
ATOM     78  H   UNL A   1      33.669  21.925  27.842  1.00  0.00     0.169 HD
BRANCH  77  79
ATOM     79  C   UNL A   1      34.567  22.500  26.050  1.00  0.00     0.049 A 
ATOM     80  C   UNL A   1      35.044  23.811  25.892  1.00  0.00     0.027 A 
ATOM     81  C   UNL A   1      35.036  21.445  25.179  1.00  0.00     0.005 A 
ATOM     82  C   UNL A   1      35.897  24.138  24.838  1.00  0.00     0.002 A 
ATOM     83  C   UNL A   1      35.980  21.821  24.178  1.00  0.00     0.011 A 
ATOM     84  C   UNL A   1      36.364  23.148  23.984  1.00  0.00     0.001 A 
BRANCH  81  85
ATOM     85  C   UNL A   1      34.369  19.831  24.982  1.00  0.00    -0.016 A 
ATOM     86  C   UNL A   1      33.192  19.708  25.285  1.00  0.00     0.009 A 
ATOM     87  C   UNL A   1      35.104  17.995  24.449  1.00  0.00     0.009 A 
ATOM     88  C   UNL A   1      32.356  17.810  25.291  1.00  0.00     0.001 A 
ATOM     89  C   UNL A   1      34.465  16.465  24.549  1.00  0.00     0.001 A 
ATOM     90  C   UNL A   1      33.062  16.374  24.978  1.00  0.00     0.000 A 
ENDBRANCH  81  85
ENDBRANCH  77  79
ENDBRANCH  69  75
ENDBRANCH  65  68
ENDBRANCH  63  64
ENDBRANCH   1  63
TORSDOF 13
ENDMDL
MODEL 2
REMARK VINA RESULT:     -13.6      4.452      9.308
REMARK SMILES O=C(NCCCNC(=O)[C@H]1[C@H](C(=O)Nc2ccccc2-c2ccccc2)[C@@H]2C=C[C@H]1O2)c1ccc(-c2c3nc(c(-c4c(F)cccc4F)c4ccc([nH]4)c(-c4c(F)cccc4F)c4nc(c(-c5c(F)cccc5F)c5ccc2[nH]5)C=C4)C=C3)cc1
REMARK SMILES IDX 5 1 4 2 3 3 1 4 2 5 32 7 33 8 85 9 34 10 84 11 35 12 36 13
REMARK SMILES IDX 37 14 78 15 38 16 83 17 77 18 79 19 39 20 82 21 76 22 75 23
REMARK SMILES IDX 40 25 66 26 49 27 65 28 50 29 53 30 64 31 80 32 51 33 52 34
REMARK SMILES IDX 63 36 81 37 54 38 41 39 42 40 47 41 43 42 44 43 46 44 48 45
REMARK SMILES IDX 45 46 67 47 68 48 73 49 69 50 70 51 72 52 74 53 71 54 55 55
REMARK SMILES IDX 56 56 61 57 57 58 58 59 60 60 62 61 59 62 6 63 7 64 8 65
REMARK SMILES IDX 9 67 10 68 11 69 30 70 27 71 29 72 31 73 28 74 12 75 13 76
REMARK SMILES IDX 14 77 15 79 16 80 20 81 17 82 19 83 18 84 21 85 22 86 26 87
REMARK SMILES IDX 23 88 25 89 24 90
REMARK H PARENT 3 6 79 24 53 35 7 66 14 78
REMARK Flexibility Score: inf
ROOT
ATOM      1  C   UNL A   1      37.660  22.970  25.620  1.00  0.00     0.042 C 
ENDROOT
BRANCH   1   2
ATOM      2  C   UNL A   1      38.422  24.046  26.358  1.00  0.00     0.118 C 
BRANCH   2   3
ATOM      3  N   UNL A   1      39.864  23.940  26.120  1.00  0.00    -0.352 N 
ATOM      4  O   UNL A   1      41.970  24.700  25.842  1.00  0.00    -0.269 OA
ATOM      5  C   UNL A   1      40.890  24.807  26.416  1.00  0.00     0.251 C 
ATOM      6  H   UNL A   1      40.146  23.108  25.674  1.00  0.00     0.163 HD
BRANCH   5   7
ATOM      7  C   UNL A   1      40.691  25.866  27.423  1.00  0.00     0.039 A 
ATOM      8  C   UNL A   1      39.890  25.610  28.532  1.00  0.00     0.014 A 
ATOM      9  C   UNL A   1      41.330  27.103  27.297  1.00  0.00     0.014 A 
ATOM     10  C   UNL A   1      39.528  26.635  29.377  1.00  0.00     0.010 A 
ATOM     11  C   UNL A   1      41.123  28.083  28.270  1.00  0.00     0.010 A 
ATOM     12  C   UNL A   1      40.204  27.855  29.307  1.00  0.00    -0.014 A 
BRANCH  12  13
ATOM     13  C   UNL A   1      40.021  28.810  30.419  1.00  0.00     0.031 A 
ATOM     14  C   UNL A   1      38.976  29.874  30.354  1.00  0.00     0.074 A 
ATOM     15  C   UNL A   1      40.824  28.684  31.495  1.00  0.00     0.049 A 
ATOM     16  N   UNL A   1      38.736  30.839  31.202  1.00  0.00    -0.248 NA
ATOM     17  C   UNL A   1      38.093  29.866  29.178  1.00  0.00     0.031 C 
ATOM     18  C   UNL A   1      41.869  27.666  31.654  1.00  0.00     0.029 A 
ATOM     19  N   UNL A   1      40.891  29.402  32.658  1.00  0.00    -0.354 N 
ATOM     20  C   UNL A   1      37.701  31.576  30.648  1.00  0.00     0.074 A 
ATOM     21  C   UNL A   1      37.376  30.962  29.377  1.00  0.00     0.031 C 
ATOM     22  C   UNL A   1      42.443  27.799  32.853  1.00  0.00     0.029 A 
ATOM     23  C   UNL A   1      41.893  28.980  33.497  1.00  0.00     0.049 A 
ATOM     24  H   UNL A   1      40.283  30.146  32.872  1.00  0.00     0.167 HD
ATOM     25  C   UNL A   1      37.090  32.670  31.160  1.00  0.00     0.037 A 
ATOM     26  C   UNL A   1      42.368  29.521  34.631  1.00  0.00     0.037 A 
ATOM     27  C   UNL A   1      37.451  33.263  32.423  1.00  0.00     0.049 A 
ATOM     28  C   UNL A   1      41.724  30.770  35.143  1.00  0.00     0.074 A 
ATOM     29  C   UNL A   1      36.887  34.354  33.056  1.00  0.00     0.029 A 
ATOM     30  N   UNL A   1      38.492  32.823  33.234  1.00  0.00    -0.354 N 
ATOM     31  N   UNL A   1      40.731  31.451  34.624  1.00  0.00    -0.248 NA
ATOM     32  C   UNL A   1      42.260  31.329  36.387  1.00  0.00     0.031 C 
ATOM     33  C   UNL A   1      37.638  34.627  34.203  1.00  0.00     0.029 A 
ATOM     34  C   UNL A   1      38.612  33.649  34.339  1.00  0.00     0.049 A 
ATOM     35  H   UNL A   1      39.060  32.040  33.049  1.00  0.00     0.167 HD
ATOM     36  C   UNL A   1      40.502  32.508  35.492  1.00  0.00     0.074 A 
ATOM     37  C   UNL A   1      41.461  32.372  36.571  1.00  0.00     0.031 C 
ATOM     38  C   UNL A   1      39.574  33.492  35.405  1.00  0.00     0.037 A 
BRANCH  25  39
ATOM     39  C   UNL A   1      36.029  33.325  30.319  1.00  0.00     0.057 A 
ATOM     40  C   UNL A   1      34.661  33.197  30.596  1.00  0.00     0.134 A 
ATOM     41  C   UNL A   1      36.387  34.079  29.193  1.00  0.00     0.134 A 
ATOM     42  F   UNL A   1      34.243  32.482  31.652  1.00  0.00    -0.206 F 
ATOM     43  C   UNL A   1      33.689  33.747  29.756  1.00  0.00     0.040 A 
ATOM     44  C   UNL A   1      35.427  34.667  28.368  1.00  0.00     0.040 A 
ATOM     45  F   UNL A   1      37.677  34.253  28.869  1.00  0.00    -0.206 F 
ATOM     46  C   UNL A   1      34.073  34.487  28.638  1.00  0.00     0.006 A 
ENDBRANCH  25  39
BRANCH  26  47
ATOM     47  C   UNL A   1      43.535  28.895  35.298  1.00  0.00     0.057 A 
ATOM     48  C   UNL A   1      44.843  29.276  34.987  1.00  0.00     0.134 A 
ATOM     49  C   UNL A   1      43.364  27.948  36.319  1.00  0.00     0.134 A 
ATOM     50  F   UNL A   1      45.071  30.176  34.019  1.00  0.00    -0.206 F 
ATOM     51  C   UNL A   1      45.939  28.735  35.659  1.00  0.00     0.040 A 
ATOM     52  C   UNL A   1      44.448  27.423  37.022  1.00  0.00     0.040 A 
ATOM     53  F   UNL A   1      42.133  27.559  36.683  1.00  0.00    -0.206 F 
ATOM     54  C   UNL A   1      45.743  27.812  36.687  1.00  0.00     0.006 A 
ENDBRANCH  26  47
BRANCH  38  55
ATOM     55  C   UNL A   1      39.508  34.475  36.535  1.00  0.00     0.057 A 
ATOM     56  C   UNL A   1      38.843  34.193  37.733  1.00  0.00     0.134 A 
ATOM     57  C   UNL A   1      40.199  35.691  36.445  1.00  0.00     0.134 A 
ATOM     58  F   UNL A   1      38.148  33.054  37.876  1.00  0.00    -0.206 F 
ATOM     59  C   UNL A   1      38.867  35.088  38.804  1.00  0.00     0.040 A 
ATOM     60  C   UNL A   1      40.258  36.578  37.519  1.00  0.00     0.040 A 
ATOM     61  F   UNL A   1      40.860  36.017  35.324  1.00  0.00    -0.206 F 
ATOM     62  C   UNL A   1      39.588  36.277  38.703  1.00  0.00     0.006 A 
ENDBRANCH  38  55
ENDBRANCH  12  13
ENDBRANCH   5   7
ENDBRANCH   2   3
ENDBRANCH   1   2
BRANCH   1  63
ATOM     63  C   UNL A   1      36.255  23.420  25.276  1.00  0.00     0.117 C 
BRANCH  63  64
ATOM     64  N   UNL A   1      35.869  23.227  23.903  1.00  0.00    -0.356 N 
ATOM     65  C   UNL A   1      34.742  23.711  23.281  1.00  0.00     0.227 C 
ATOM     66  H   UNL A   1      36.480  22.691  23.347  1.00  0.00     0.163 HD
ATOM     67  O   UNL A   1      34.514  23.345  22.129  1.00  0.00    -0.275 OA
BRANCH  65  68
ATOM     68  C   UNL A   1      33.740  24.606  24.126  1.00  0.00     0.127 C 
ATOM     69  C   UNL A   1      32.370  26.121  23.255  1.00  0.00     0.127 C 
ATOM     70  C   UNL A   1      32.116  23.554  25.111  1.00  0.00     0.155 C 
ATOM     71  C   UNL A   1      30.473  25.982  24.211  1.00  0.00     0.155 C 
ATOM     72  C   UNL A   1      30.792  23.999  26.770  1.00  0.00     0.004 C 
ATOM     73  O   UNL A   1      30.766  24.591  23.864  1.00  0.00    -0.365 OA
ATOM     74  C   UNL A   1      29.717  25.287  26.056  1.00  0.00     0.004 C 
BRANCH  69  75
ATOM     75  C   UNL A   1      33.174  27.099  22.452  1.00  0.00     0.231 C 
ATOM     76  O   UNL A   1      33.638  26.893  21.341  1.00  0.00    -0.274 OA
ATOM     77  N   UNL A   1      33.347  28.291  23.142  1.00  0.00    -0.325 N 
ATOM     78  H   UNL A   1      33.744  29.052  22.660  1.00  0.00     0.169 HD
BRANCH  77  79
ATOM     79  C   UNL A   1      32.982  28.478  24.514  1.00  0.00     0.049 A 
ATOM     80  C   UNL A   1      33.787  27.780  25.428  1.00  0.00     0.027 A 
ATOM     81  C   UNL A   1      31.789  29.157  24.967  1.00  0.00     0.005 A 
ATOM     82  C   UNL A   1      33.402  27.646  26.762  1.00  0.00     0.002 A 
ATOM     83  C   UNL A   1      31.494  29.064  26.359  1.00  0.00     0.011 A 
ATOM     84  C   UNL A   1      32.260  28.285  27.226  1.00  0.00     0.001 A 
BRANCH  81  85
ATOM     85  C   UNL A   1      30.486  29.817  23.990  1.00  0.00    -0.016 A 
ATOM     86  C   UNL A   1      30.212  29.184  22.981  1.00  0.00     0.009 A 
ATOM     87  C   UNL A   1      29.317  31.499  24.045  1.00  0.00     0.009 A 
ATOM     88  C   UNL A   1      28.837  29.978  21.647  1.00  0.00     0.001 A 
ATOM     89  C   UNL A   1      28.291  32.182  22.931  1.00  0.00     0.001 A 
ATOM     90  C   UNL A   1      28.047  31.403  21.710  1.00  0.00     0.000 A 
ENDBRANCH  81  85
ENDBRANCH  77  79
ENDBRANCH  69  75
ENDBRANCH  65  68
ENDBRANCH  63  64
ENDBRANCH   1  63
TORSDOF 13
ENDMDL
MODEL 3
REMARK VINA RESULT:     -13.5      3.145      8.613
REMARK SMILES O=C(NCCCNC(=O)[C@H]1[C@H](C(=O)Nc2ccccc2-c2ccccc2)[C@@H]2C=C[C@H]1O2)c1ccc(-c2c3nc(c(-c4c(F)cccc4F)c4ccc([nH]4)c(-c4c(F)cccc4F)c4nc(c(-c5c(F)cccc5F)c5ccc2[nH]5)C=C4)C=C3)cc1
REMARK SMILES IDX 5 1 4 2 3 3 1 4 2 5 32 7 33 8 85 9 34 10 84 11 35 12 36 13
REMARK SMILES IDX 37 14 78 15 38 16 83 17 77 18 79 19 39 20 82 21 76 22 75 23
REMARK SMILES IDX 40 25 66 26 49 27 65 28 50 29 53 30 64 31 80 32 51 33 52 34
REMARK SMILES IDX 63 36 81 37 54 38 41 39 42 40 47 41 43 42 44 43 46 44 48 45
REMARK SMILES IDX 45 46 67 47 68 48 73 49 69 50 70 51 72 52 74 53 71 54 55 55
REMARK SMILES IDX 56 56 61 57 57 58 58 59 60 60 62 61 59 62 6 63 7 64 8 65
REMARK SMILES IDX 9 67 10 68 11 69 30 70 27 71 29 72 31 73 28 74 12 75 13 76
REMARK SMILES IDX 14 77 15 79 16 80 20 81 17 82 19 83 18 84 21 85 22 86 26 87
REMARK SMILES IDX 23 88 25 89 24 90
REMARK H PARENT 3 6 79 24 53 35 7 66 14 78
REMARK Flexibility Score: inf
ROOT
ATOM      1  C   UNL A   1      35.987  23.334  26.058  1.00  0.00     0.042 C 
ENDROOT
BRANCH   1   2
ATOM      2  C   UNL A   1      37.270  23.724  25.363  1.00  0.00     0.118 C 
BRANCH   2   3
ATOM      3  N   UNL A   1      38.361  22.803  25.697  1.00  0.00    -0.352 N 
ATOM      4  O   UNL A   1      40.495  22.195  26.102  1.00  0.00    -0.269 OA
ATOM      5  C   UNL A   1      39.614  23.042  26.211  1.00  0.00     0.251 C 
ATOM      6  H   UNL A   1      38.163  21.854  25.524  1.00  0.00     0.163 HD
BRANCH   5   7
ATOM      7  C   UNL A   1      39.898  24.321  26.892  1.00  0.00     0.039 A 
ATOM      8  C   UNL A   1      39.496  24.492  28.213  1.00  0.00     0.014 A 
ATOM      9  C   UNL A   1      40.600  25.338  26.239  1.00  0.00     0.014 A 
ATOM     10  C   UNL A   1      39.570  25.734  28.803  1.00  0.00     0.010 A 
ATOM     11  C   UNL A   1      40.856  26.534  26.914  1.00  0.00     0.010 A 
ATOM     12  C   UNL A   1      40.323  26.741  28.197  1.00  0.00    -0.014 A 
BRANCH  12  13
ATOM     13  C   UNL A   1      40.646  27.940  28.997  1.00  0.00     0.031 A 
ATOM     14  C   UNL A   1      41.942  28.049  29.730  1.00  0.00     0.074 A 
ATOM     15  C   UNL A   1      39.735  28.933  29.037  1.00  0.00     0.049 A 
ATOM     16  N   UNL A   1      42.348  28.991  30.539  1.00  0.00    -0.248 NA
ATOM     17  C   UNL A   1      42.903  26.952  29.545  1.00  0.00     0.031 C 
ATOM     18  C   UNL A   1      38.441  28.920  28.343  1.00  0.00     0.029 A 
ATOM     19  N   UNL A   1      39.748  30.143  29.677  1.00  0.00    -0.354 N 
ATOM     20  C   UNL A   1      43.595  28.587  30.990  1.00  0.00     0.074 A 
ATOM     21  C   UNL A   1      43.867  27.299  30.384  1.00  0.00     0.031 C 
ATOM     22  C   UNL A   1      37.807  30.076  28.560  1.00  0.00     0.029 A 
ATOM     23  C   UNL A   1      38.590  30.860  29.502  1.00  0.00     0.049 A 
ATOM     24  H   UNL A   1      40.511  30.466  30.209  1.00  0.00     0.167 HD
ATOM     25  C   UNL A   1      44.425  29.236  31.839  1.00  0.00     0.037 A 
ATOM     26  C   UNL A   1      38.168  31.993  30.087  1.00  0.00     0.037 A 
ATOM     27  C   UNL A   1      44.113  30.511  32.434  1.00  0.00     0.049 A 
ATOM     28  C   UNL A   1      39.071  32.658  31.075  1.00  0.00     0.074 A 
ATOM     29  C   UNL A   1      44.886  31.277  33.286  1.00  0.00     0.029 A 
ATOM     30  N   UNL A   1      42.915  31.195  32.255  1.00  0.00    -0.354 N 
ATOM     31  N   UNL A   1      40.260  32.280  31.482  1.00  0.00    -0.248 NA
ATOM     32  C   UNL A   1      38.586  33.897  31.689  1.00  0.00     0.031 C 
ATOM     33  C   UNL A   1      44.125  32.377  33.690  1.00  0.00     0.029 A 
ATOM     34  C   UNL A   1      42.914  32.352  33.016  1.00  0.00     0.049 A 
ATOM     35  H   UNL A   1      42.178  30.900  31.673  1.00  0.00     0.167 HD
ATOM     36  C   UNL A   1      40.678  33.249  32.381  1.00  0.00     0.074 A 
ATOM     37  C   UNL A   1      39.615  34.231  32.455  1.00  0.00     0.031 C 
ATOM     38  C   UNL A   1      41.843  33.320  33.071  1.00  0.00     0.037 A 
BRANCH  25  39
ATOM     39  C   UNL A   1      45.704  28.542  32.220  1.00  0.00     0.057 A 
ATOM     40  C   UNL A   1      45.797  27.689  33.328  1.00  0.00     0.134 A 
ATOM     41  C   UNL A   1      46.871  28.752  31.473  1.00  0.00     0.134 A 
ATOM     42  F   UNL A   1      44.723  27.447  34.095  1.00  0.00    -0.206 F 
ATOM     43  C   UNL A   1      47.013  27.116  33.710  1.00  0.00     0.040 A 
ATOM     44  C   UNL A   1      48.083  28.155  31.822  1.00  0.00     0.040 A 
ATOM     45  F   UNL A   1      46.857  29.549  30.393  1.00  0.00    -0.206 F 
ATOM     46  C   UNL A   1      48.161  27.348  32.954  1.00  0.00     0.006 A 
ENDBRANCH  25  39
BRANCH  26  47
ATOM     47  C   UNL A   1      36.813  32.508  29.773  1.00  0.00     0.057 A 
ATOM     48  C   UNL A   1      35.701  32.147  30.538  1.00  0.00     0.134 A 
ATOM     49  C   UNL A   1      36.613  33.436  28.740  1.00  0.00     0.134 A 
ATOM     50  F   UNL A   1      35.829  31.263  31.539  1.00  0.00    -0.206 F 
ATOM     51  C   UNL A   1      34.437  32.681  30.284  1.00  0.00     0.040 A 
ATOM     52  C   UNL A   1      35.363  34.003  28.496  1.00  0.00     0.040 A 
ATOM     53  F   UNL A   1      37.645  33.843  27.985  1.00  0.00    -0.206 F 
ATOM     54  C   UNL A   1      34.267  33.621  29.266  1.00  0.00     0.006 A 
ENDBRANCH  26  47
BRANCH  38  55
ATOM     55  C   UNL A   1      42.060  34.530  33.929  1.00  0.00     0.057 A 
ATOM     56  C   UNL A   1      42.610  35.714  33.427  1.00  0.00     0.134 A 
ATOM     57  C   UNL A   1      41.625  34.529  35.262  1.00  0.00     0.134 A 
ATOM     58  F   UNL A   1      43.062  35.775  32.165  1.00  0.00    -0.206 F 
ATOM     59  C   UNL A   1      42.724  36.856  34.222  1.00  0.00     0.040 A 
ATOM     60  C   UNL A   1      41.702  35.672  36.056  1.00  0.00     0.040 A 
ATOM     61  F   UNL A   1      41.083  33.425  35.801  1.00  0.00    -0.206 F 
ATOM     62  C   UNL A   1      42.256  36.840  35.536  1.00  0.00     0.006 A 
ENDBRANCH  38  55
ENDBRANCH  12  13
ENDBRANCH   5   7
ENDBRANCH   2   3
ENDBRANCH   1   2
BRANCH   1  63
ATOM     63  C   UNL A   1      35.245  22.259  25.291  1.00  0.00     0.117 C 
BRANCH  63  64
ATOM     64  N   UNL A   1      35.171  22.462  23.868  1.00  0.00    -0.356 N 
ATOM     65  C   UNL A   1      34.378  23.364  23.199  1.00  0.00     0.227 C 
ATOM     66  H   UNL A   1      35.753  21.894  23.313  1.00  0.00     0.163 HD
ATOM     67  O   UNL A   1      34.358  23.317  21.969  1.00  0.00    -0.275 OA
BRANCH  65  68
ATOM     68  C   UNL A   1      33.444  24.324  24.050  1.00  0.00     0.127 C 
ATOM     69  C   UNL A   1      32.147  25.906  23.184  1.00  0.00     0.127 C 
ATOM     70  C   UNL A   1      31.779  23.377  25.073  1.00  0.00     0.155 C 
ATOM     71  C   UNL A   1      30.262  25.886  24.172  1.00  0.00     0.155 C 
ATOM     72  C   UNL A   1      30.510  23.914  26.749  1.00  0.00     0.004 C 
ATOM     73  O   UNL A   1      30.469  24.477  23.836  1.00  0.00    -0.365 OA
ATOM     74  C   UNL A   1      29.499  25.254  26.037  1.00  0.00     0.004 C 
BRANCH  69  75
ATOM     75  C   UNL A   1      32.992  26.828  22.357  1.00  0.00     0.231 C 
ATOM     76  O   UNL A   1      33.428  26.582  21.242  1.00  0.00    -0.274 OA
ATOM     77  N   UNL A   1      33.239  28.017  23.028  1.00  0.00    -0.325 N 
ATOM     78  H   UNL A   1      33.671  28.749  22.530  1.00  0.00     0.169 HD
BRANCH  77  79
ATOM     79  C   UNL A   1      32.905  28.242  24.402  1.00  0.00     0.049 A 
ATOM     80  C   UNL A   1      33.668  27.494  25.314  1.00  0.00     0.027 A 
ATOM     81  C   UNL A   1      31.770  29.010  24.861  1.00  0.00     0.005 A 
ATOM     82  C   UNL A   1      33.289  27.400  26.652  1.00  0.00     0.002 A 
ATOM     83  C   UNL A   1      31.486  28.951  26.258  1.00  0.00     0.011 A 
ATOM     84  C   UNL A   1      32.202  28.125  27.123  1.00  0.00     0.001 A 
BRANCH  81  85
ATOM     85  C   UNL A   1      30.507  29.756  23.892  1.00  0.00    -0.016 A 
ATOM     86  C   UNL A   1      30.255  29.196  22.837  1.00  0.00     0.009 A 
ATOM     87  C   UNL A   1      29.363  31.450  24.025  1.00  0.00     0.009 A 
ATOM     88  C   UNL A   1      28.934  30.099  21.518  1.00  0.00     0.001 A 
ATOM     89  C   UNL A   1      28.382  32.223  22.930  1.00  0.00     0.001 A 
ATOM     90  C   UNL A   1      28.164  31.530  21.652  1.00  0.00     0.000 A 
ENDBRANCH  81  85
ENDBRANCH  77  79
ENDBRANCH  69  75
ENDBRANCH  65  68
ENDBRANCH  63  64
ENDBRANCH   1  63
TORSDOF 13
ENDMDL
