MODEL 1
REMARK VINA RESULT:     -14.0      0.000      0.000
REMARK SMILES C[C@]12CCC[C@](C)(C(=O)NCCCNC(=O)c3ccc(-c4c5nc(c(-c6c(F)cccc6F)c6ccc([nH]6)c(-c6c(F)cccc6F)c6nc(c(-c7c(F)cccc7F)c7ccc4[nH]7)C=C6)C=C5)cc3)[C@@H]1CC[C@]13C=C(CO)[C@H](CC[C@H]12)C3
REMARK SMILES IDX 12 1 11 2 10 3 8 4 9 5 6 7 1 8 2 9 3 10 71 11 82 12 4 13
REMARK SMILES IDX 72 14 74 15 81 16 5 17 7 18 73 19 75 20 83 21 80 22 76 23
REMARK SMILES IDX 79 24 77 25 78 26 13 28 14 29 15 30 16 32 17 33 18 34 70 35
REMARK SMILES IDX 19 36 69 37 20 38 21 39 22 40 63 41 23 42 68 43 62 44 64 45
REMARK SMILES IDX 24 46 67 47 61 48 60 49 25 51 51 52 34 53 50 54 35 55 38 56
REMARK SMILES IDX 49 57 65 58 36 59 37 60 48 62 66 63 39 64 26 65 27 66 32 67
REMARK SMILES IDX 28 68 29 69 31 70 33 71 30 72 52 73 53 74 58 75 54 76 55 77
REMARK SMILES IDX 57 78 59 79 56 80 40 81 41 82 46 83 42 84 43 85 45 86 47 87
REMARK SMILES IDX 44 88
REMARK H PARENT 10 6 78 27 14 31 64 50 38 61
REMARK Flexibility Score: inf
ROOT
ATOM      1  C   UNL A   1      39.367  21.510  25.934  1.00  0.00     0.042 C 
ENDROOT
BRANCH   1   2
ATOM      2  C   UNL A   1      38.607  22.874  26.112  1.00  0.00     0.117 C 
BRANCH   2   3
ATOM      3  N   UNL A   1      37.495  23.240  25.194  1.00  0.00    -0.356 N 
ATOM      4  C   UNL A   1      36.513  22.481  24.571  1.00  0.00     0.226 C 
ATOM      5  O   UNL A   1      36.742  22.351  23.353  1.00  0.00    -0.274 OA
ATOM      6  H   UNL A   1      37.446  24.202  24.989  1.00  0.00     0.163 HD
BRANCH   4   7
ATOM      7  C   UNL A   1      35.035  21.987  25.140  1.00  0.00     0.050 C 
ATOM      8  C   UNL A   1      34.438  24.704  25.614  1.00  0.00     0.012 C 
ATOM      9  C   UNL A   1      33.221  23.816  25.286  1.00  0.00    -0.025 C 
ATOM     10  C   UNL A   1      32.690  23.315  26.631  1.00  0.00     0.007 C 
ATOM     11  C   UNL A   1      33.737  22.610  24.460  1.00  0.00     0.010 C 
ATOM     12  C   UNL A   1      32.253  24.773  24.542  1.00  0.00     0.005 C 
ATOM     13  C   UNL A   1      33.838  22.777  27.486  1.00  0.00     0.002 C 
ATOM     14  C   UNL A   1      33.889  22.837  22.936  1.00  0.00     0.006 C 
ATOM     15  C   UNL A   1      32.648  25.122  23.051  1.00  0.00    -0.008 C 
ATOM     16  C   UNL A   1      30.759  24.997  24.731  1.00  0.00     0.006 C 
ATOM     17  C   UNL A   1      34.890  21.920  26.734  1.00  0.00     0.017 C 
ATOM     18  C   UNL A   1      35.050  20.448  24.785  1.00  0.00     0.022 C 
ATOM     19  C   UNL A   1      32.969  23.862  22.256  1.00  0.00     0.012 C 
ATOM     20  C   UNL A   1      33.647  26.231  23.197  1.00  0.00    -0.018 C 
ATOM     21  C   UNL A   1      31.601  26.021  22.347  1.00  0.00     0.019 C 
ATOM     22  C   UNL A   1      30.572  26.560  24.520  1.00  0.00     0.008 C 
ATOM     23  C   UNL A   1      32.998  27.316  23.667  1.00  0.00    -0.045 C 
ATOM     24  C   UNL A   1      31.492  27.147  23.390  1.00  0.00     0.018 C 
BRANCH  23  25
ATOM     25  C   UNL A   1      33.624  28.385  24.503  1.00  0.00     0.187 C 
BRANCH  25  26
ATOM     26  O   UNL A   1      33.307  29.676  23.985  1.00  0.00    -0.392 OA
ATOM     27  H   UNL A   1      33.771  30.353  24.500  1.00  0.00     0.211 HD
ENDBRANCH  25  26
ENDBRANCH  23  25
ENDBRANCH   4   7
ENDBRANCH   2   3
ENDBRANCH   1   2
BRANCH   1  28
ATOM     28  C   UNL A   1      40.877  21.281  26.153  1.00  0.00     0.118 C 
BRANCH  28  29
ATOM     29  N   UNL A   1      41.896  22.031  25.410  1.00  0.00    -0.352 N 
ATOM     30  C   UNL A   1      42.622  23.194  25.546  1.00  0.00     0.251 C 
ATOM     31  H   UNL A   1      42.129  21.569  24.572  1.00  0.00     0.163 HD
ATOM     32  O   UNL A   1      43.589  23.343  24.776  1.00  0.00    -0.269 OA
BRANCH  30  33
ATOM     33  C   UNL A   1      42.338  24.313  26.486  1.00  0.00     0.039 A 
ATOM     34  C   UNL A   1      42.939  25.573  26.243  1.00  0.00     0.014 A 
ATOM     35  C   UNL A   1      41.523  24.184  27.600  1.00  0.00     0.014 A 
ATOM     36  C   UNL A   1      42.691  26.686  27.069  1.00  0.00     0.010 A 
ATOM     37  C   UNL A   1      41.245  25.299  28.401  1.00  0.00     0.010 A 
ATOM     38  C   UNL A   1      41.827  26.560  28.158  1.00  0.00    -0.014 A 
BRANCH  38  39
ATOM     39  C   UNL A   1      41.564  27.650  29.147  1.00  0.00     0.031 A 
ATOM     40  C   UNL A   1      42.332  27.627  30.446  1.00  0.00     0.074 A 
ATOM     41  C   UNL A   1      40.569  28.546  28.984  1.00  0.00     0.049 A 
ATOM     42  N   UNL A   1      42.066  28.208  31.587  1.00  0.00    -0.248 NA
ATOM     43  C   UNL A   1      43.528  26.771  30.466  1.00  0.00     0.031 C 
ATOM     44  C   UNL A   1      39.741  28.698  27.790  1.00  0.00     0.029 A 
ATOM     45  N   UNL A   1      40.056  29.473  29.864  1.00  0.00    -0.354 N 
ATOM     46  C   UNL A   1      43.014  27.722  32.481  1.00  0.00     0.074 A 
ATOM     47  C   UNL A   1      43.835  26.776  31.758  1.00  0.00     0.031 C 
ATOM     48  C   UNL A   1      38.811  29.644  28.016  1.00  0.00     0.029 A 
ATOM     49  C   UNL A   1      38.948  30.135  29.387  1.00  0.00     0.049 A 
ATOM     50  H   UNL A   1      40.445  29.645  30.751  1.00  0.00     0.167 HD
ATOM     51  C   UNL A   1      43.195  28.044  33.786  1.00  0.00     0.037 A 
ATOM     52  C   UNL A   1      38.122  31.012  29.993  1.00  0.00     0.037 A 
ATOM     53  C   UNL A   1      42.431  29.045  34.480  1.00  0.00     0.049 A 
ATOM     54  C   UNL A   1      38.364  31.388  31.435  1.00  0.00     0.074 A 
ATOM     55  C   UNL A   1      42.595  29.513  35.772  1.00  0.00     0.029 A 
ATOM     56  N   UNL A   1      41.369  29.746  33.932  1.00  0.00    -0.354 N 
ATOM     57  N   UNL A   1      39.280  30.948  32.265  1.00  0.00    -0.248 NA
ATOM     58  C   UNL A   1      37.457  32.386  32.026  1.00  0.00     0.031 C 
ATOM     59  C   UNL A   1      41.608  30.471  36.018  1.00  0.00     0.029 A 
ATOM     60  C   UNL A   1      40.861  30.636  34.862  1.00  0.00     0.049 A 
ATOM     61  H   UNL A   1      41.026  29.629  33.016  1.00  0.00     0.167 HD
ATOM     62  C   UNL A   1      39.083  31.638  33.456  1.00  0.00     0.074 A 
ATOM     63  C   UNL A   1      37.967  32.534  33.241  1.00  0.00     0.031 C 
ATOM     64  C   UNL A   1      39.763  31.539  34.625  1.00  0.00     0.037 A 
BRANCH  51  65
ATOM     65  C   UNL A   1      44.264  27.306  34.543  1.00  0.00     0.057 A 
ATOM     66  C   UNL A   1      45.571  27.798  34.658  1.00  0.00     0.134 A 
ATOM     67  C   UNL A   1      43.973  26.096  35.188  1.00  0.00     0.134 A 
ATOM     68  F   UNL A   1      45.921  28.946  34.058  1.00  0.00    -0.206 F 
ATOM     69  C   UNL A   1      46.559  27.093  35.349  1.00  0.00     0.040 A 
ATOM     70  C   UNL A   1      44.944  25.401  35.912  1.00  0.00     0.040 A 
ATOM     71  F   UNL A   1      42.740  25.571  35.130  1.00  0.00    -0.206 F 
ATOM     72  C   UNL A   1      46.245  25.895  35.985  1.00  0.00     0.006 A 
ENDBRANCH  51  65
BRANCH  52  73
ATOM     73  C   UNL A   1      36.983  31.617  29.248  1.00  0.00     0.057 A 
ATOM     74  C   UNL A   1      37.062  32.925  28.754  1.00  0.00     0.134 A 
ATOM     75  C   UNL A   1      35.784  30.925  29.039  1.00  0.00     0.134 A 
ATOM     76  F   UNL A   1      38.173  33.651  28.945  1.00  0.00    -0.206 F 
ATOM     77  C   UNL A   1      35.986  33.531  28.101  1.00  0.00     0.040 A 
ATOM     78  C   UNL A   1      34.709  31.508  28.363  1.00  0.00     0.040 A 
ATOM     79  F   UNL A   1      35.640  29.668  29.483  1.00  0.00    -0.206 F 
ATOM     80  C   UNL A   1      34.807  32.818  27.899  1.00  0.00     0.006 A 
ENDBRANCH  52  73
BRANCH  64  81
ATOM     81  C   UNL A   1      39.362  32.457  35.743  1.00  0.00     0.057 A 
ATOM     82  C   UNL A   1      39.883  33.751  35.867  1.00  0.00     0.134 A 
ATOM     83  C   UNL A   1      38.396  32.057  36.677  1.00  0.00     0.134 A 
ATOM     84  F   UNL A   1      40.818  34.192  35.012  1.00  0.00    -0.206 F 
ATOM     85  C   UNL A   1      39.474  34.606  36.892  1.00  0.00     0.040 A 
ATOM     86  C   UNL A   1      37.958  32.913  37.689  1.00  0.00     0.040 A 
ATOM     87  F   UNL A   1      37.848  30.834  36.609  1.00  0.00    -0.206 F 
ATOM     88  C   UNL A   1      38.503  34.190  37.801  1.00  0.00     0.006 A 
ENDBRANCH  64  81
ENDBRANCH  38  39
ENDBRANCH  30  33
ENDBRANCH  28  29
ENDBRANCH   1  28
TORSDOF 12
ENDMDL
MODEL 2
REMARK VINA RESULT:     -13.6      4.222      9.318
REMARK SMILES C[C@]12CCC[C@](C)(C(=O)NCCCNC(=O)c3ccc(-c4c5nc(c(-c6c(F)cccc6F)c6ccc([nH]6)c(-c6c(F)cccc6F)c6nc(c(-c7c(F)cccc7F)c7ccc4[nH]7)C=C6)C=C5)cc3)[C@@H]1CC[C@]13C=C(CO)[C@H](CC[C@H]12)C3
REMARK SMILES IDX 12 1 11 2 10 3 8 4 9 5 6 7 1 8 2 9 3 10 71 11 82 12 4 13
REMARK SMILES IDX 72 14 74 15 81 16 5 17 7 18 73 19 75 20 83 21 80 22 76 23
REMARK SMILES IDX 79 24 77 25 78 26 13 28 14 29 15 30 16 32 17 33 18 34 70 35
REMARK SMILES IDX 19 36 69 37 20 38 21 39 22 40 63 41 23 42 68 43 62 44 64 45
REMARK SMILES IDX 24 46 67 47 61 48 60 49 25 51 51 52 34 53 50 54 35 55 38 56
REMARK SMILES IDX 49 57 65 58 36 59 37 60 48 62 66 63 39 64 26 65 27 66 32 67
REMARK SMILES IDX 28 68 29 69 31 70 33 71 30 72 52 73 53 74 58 75 54 76 55 77
REMARK SMILES IDX 57 78 59 79 56 80 40 81 41 82 46 83 42 84 43 85 45 86 47 87
REMARK SMILES IDX 44 88
REMARK H PARENT 10 6 78 27 14 31 64 50 38 61
REMARK Flexibility Score: inf
ROOT
ATOM      1  C   UNL A   1      33.677  31.692  27.718  1.00  0.00     0.042 C 
ENDROOT
BRANCH   1   2
ATOM      2  C   UNL A   1      34.391  30.292  27.692  1.00  0.00     0.117 C 
BRANCH   2   3
ATOM      3  N   UNL A   1      33.600  29.049  27.485  1.00  0.00    -0.356 N 
ATOM      4  C   UNL A   1      32.405  28.805  26.820  1.00  0.00     0.226 C 
ATOM      5  O   UNL A   1      31.472  28.609  27.621  1.00  0.00    -0.274 OA
ATOM      6  H   UNL A   1      34.000  28.248  27.896  1.00  0.00     0.163 HD
BRANCH   4   7
ATOM      7  C   UNL A   1      32.130  28.492  25.215  1.00  0.00     0.050 C 
ATOM      8  C   UNL A   1      33.784  26.222  25.492  1.00  0.00     0.012 C 
ATOM      9  C   UNL A   1      32.673  26.095  24.430  1.00  0.00    -0.025 C 
ATOM     10  C   UNL A   1      33.294  26.565  23.113  1.00  0.00     0.007 C 
ATOM     11  C   UNL A   1      31.534  27.066  24.833  1.00  0.00     0.010 C 
ATOM     12  C   UNL A   1      32.308  24.587  24.454  1.00  0.00     0.005 C 
ATOM     13  C   UNL A   1      34.028  27.891  23.317  1.00  0.00     0.002 C 
ATOM     14  C   UNL A   1      30.509  26.531  25.862  1.00  0.00     0.006 C 
ATOM     15  C   UNL A   1      31.449  24.111  25.693  1.00  0.00    -0.008 C 
ATOM     16  C   UNL A   1      32.118  23.607  23.304  1.00  0.00     0.006 C 
ATOM     17  C   UNL A   1      33.300  28.930  24.210  1.00  0.00     0.017 C 
ATOM     18  C   UNL A   1      31.027  29.565  24.861  1.00  0.00     0.022 C 
ATOM     19  C   UNL A   1      30.245  25.019  25.912  1.00  0.00     0.012 C 
ATOM     20  C   UNL A   1      32.469  23.890  26.770  1.00  0.00    -0.018 C 
ATOM     21  C   UNL A   1      31.060  22.614  25.614  1.00  0.00     0.019 C 
ATOM     22  C   UNL A   1      32.738  22.249  23.847  1.00  0.00     0.008 C 
ATOM     23  C   UNL A   1      33.223  22.829  26.418  1.00  0.00    -0.045 C 
ATOM     24  C   UNL A   1      32.451  22.003  25.371  1.00  0.00     0.018 C 
BRANCH  23  25
ATOM     25  C   UNL A   1      34.647  22.626  26.823  1.00  0.00     0.187 C 
BRANCH  25  26
ATOM     26  O   UNL A   1      34.779  21.453  27.624  1.00  0.00    -0.392 OA
ATOM     27  H   UNL A   1      33.914  21.214  27.991  1.00  0.00     0.211 HD
ENDBRANCH  25  26
ENDBRANCH  23  25
ENDBRANCH   4   7
ENDBRANCH   2   3
ENDBRANCH   1   2
BRANCH   1  28
ATOM     28  C   UNL A   1      34.031  32.870  28.649  1.00  0.00     0.118 C 
BRANCH  28  29
ATOM     29  N   UNL A   1      34.206  32.696  30.096  1.00  0.00    -0.352 N 
ATOM     30  C   UNL A   1      35.200  32.326  30.976  1.00  0.00     0.251 C 
ATOM     31  H   UNL A   1      33.372  32.904  30.577  1.00  0.00     0.163 HD
ATOM     32  O   UNL A   1      34.990  32.552  32.182  1.00  0.00    -0.269 OA
BRANCH  30  33
ATOM     33  C   UNL A   1      36.476  31.640  30.636  1.00  0.00     0.039 A 
ATOM     34  C   UNL A   1      37.135  30.894  31.644  1.00  0.00     0.014 A 
ATOM     35  C   UNL A   1      37.065  31.704  29.383  1.00  0.00     0.014 A 
ATOM     36  C   UNL A   1      38.328  30.190  31.388  1.00  0.00     0.010 A 
ATOM     37  C   UNL A   1      38.231  30.975  29.115  1.00  0.00     0.010 A 
ATOM     38  C   UNL A   1      38.884  30.217  30.108  1.00  0.00    -0.014 A 
BRANCH  38  39
ATOM     39  C   UNL A   1      40.190  29.582  29.752  1.00  0.00     0.031 A 
ATOM     40  C   UNL A   1      41.403  30.472  29.637  1.00  0.00     0.074 A 
ATOM     41  C   UNL A   1      40.284  28.288  29.383  1.00  0.00     0.049 A 
ATOM     42  N   UNL A   1      42.538  30.268  29.021  1.00  0.00    -0.248 NA
ATOM     43  C   UNL A   1      41.279  31.803  30.251  1.00  0.00     0.031 C 
ATOM     44  C   UNL A   1      39.209  27.301  29.440  1.00  0.00     0.029 A 
ATOM     45  N   UNL A   1      41.342  27.595  28.836  1.00  0.00    -0.354 N 
ATOM     46  C   UNL A   1      43.228  31.472  29.102  1.00  0.00     0.074 A 
ATOM     47  C   UNL A   1      42.370  32.408  29.795  1.00  0.00     0.031 C 
ATOM     48  C   UNL A   1      39.651  26.137  28.929  1.00  0.00     0.029 A 
ATOM     49  C   UNL A   1      41.028  26.306  28.468  1.00  0.00     0.049 A 
ATOM     50  H   UNL A   1      42.237  27.985  28.719  1.00  0.00     0.167 HD
ATOM     51  C   UNL A   1      44.471  31.772  28.653  1.00  0.00     0.037 A 
ATOM     52  C   UNL A   1      41.756  25.381  27.810  1.00  0.00     0.037 A 
ATOM     53  C   UNL A   1      45.355  30.818  28.038  1.00  0.00     0.049 A 
ATOM     54  C   UNL A   1      43.153  25.720  27.352  1.00  0.00     0.074 A 
ATOM     55  C   UNL A   1      46.667  30.993  27.631  1.00  0.00     0.029 A 
ATOM     56  N   UNL A   1      45.021  29.503  27.757  1.00  0.00    -0.354 N 
ATOM     57  N   UNL A   1      43.810  26.851  27.460  1.00  0.00    -0.248 NA
ATOM     58  C   UNL A   1      43.914  24.653  26.682  1.00  0.00     0.031 C 
ATOM     59  C   UNL A   1      47.114  29.794  27.071  1.00  0.00     0.029 A 
ATOM     60  C   UNL A   1      46.099  28.857  27.174  1.00  0.00     0.049 A 
ATOM     61  H   UNL A   1      44.148  29.088  27.944  1.00  0.00     0.167 HD
ATOM     62  C   UNL A   1      45.065  26.621  26.906  1.00  0.00     0.074 A 
ATOM     63  C   UNL A   1      45.084  25.240  26.473  1.00  0.00     0.031 C 
ATOM     64  C   UNL A   1      46.109  27.475  26.768  1.00  0.00     0.037 A 
BRANCH  51  65
ATOM     65  C   UNL A   1      44.948  33.188  28.813  1.00  0.00     0.057 A 
ATOM     66  C   UNL A   1      45.715  33.597  29.912  1.00  0.00     0.134 A 
ATOM     67  C   UNL A   1      44.653  34.153  27.840  1.00  0.00     0.134 A 
ATOM     68  F   UNL A   1      46.026  32.728  30.886  1.00  0.00    -0.206 F 
ATOM     69  C   UNL A   1      46.136  34.921  30.059  1.00  0.00     0.040 A 
ATOM     70  C   UNL A   1      45.099  35.471  27.958  1.00  0.00     0.040 A 
ATOM     71  F   UNL A   1      43.932  33.831  26.756  1.00  0.00    -0.206 F 
ATOM     72  C   UNL A   1      45.834  35.860  29.076  1.00  0.00     0.006 A 
ENDBRANCH  51  65
BRANCH  52  73
ATOM     73  C   UNL A   1      41.194  24.028  27.543  1.00  0.00     0.057 A 
ATOM     74  C   UNL A   1      41.627  22.913  28.273  1.00  0.00     0.134 A 
ATOM     75  C   UNL A   1      40.243  23.806  26.540  1.00  0.00     0.134 A 
ATOM     76  F   UNL A   1      42.557  23.054  29.228  1.00  0.00    -0.206 F 
ATOM     77  C   UNL A   1      41.154  21.628  28.001  1.00  0.00     0.040 A 
ATOM     78  C   UNL A   1      39.739  22.529  26.276  1.00  0.00     0.040 A 
ATOM     79  F   UNL A   1      39.782  24.828  25.804  1.00  0.00    -0.206 F 
ATOM     80  C   UNL A   1      40.202  21.434  27.003  1.00  0.00     0.006 A 
ENDBRANCH  52  73
BRANCH  64  81
ATOM     81  C   UNL A   1      47.379  26.932  26.177  1.00  0.00     0.057 A 
ATOM     82  C   UNL A   1      47.658  27.019  24.808  1.00  0.00     0.134 A 
ATOM     83  C   UNL A   1      48.360  26.366  27.003  1.00  0.00     0.134 A 
ATOM     84  F   UNL A   1      46.757  27.541  23.961  1.00  0.00    -0.206 F 
ATOM     85  C   UNL A   1      48.859  26.542  24.278  1.00  0.00     0.040 A 
ATOM     86  C   UNL A   1      49.575  25.912  26.488  1.00  0.00     0.040 A 
ATOM     87  F   UNL A   1      48.161  26.264  28.326  1.00  0.00    -0.206 F 
ATOM     88  C   UNL A   1      49.824  25.995  25.121  1.00  0.00     0.006 A 
ENDBRANCH  64  81
ENDBRANCH  38  39
ENDBRANCH  30  33
ENDBRANCH  28  29
ENDBRANCH   1  28
TORSDOF 12
ENDMDL
MODEL 3
REMARK VINA RESULT:     -13.4      4.527      9.430
REMARK SMILES C[C@]12CCC[C@](C)(C(=O)NCCCNC(=O)c3ccc(-c4c5nc(c(-c6c(F)cccc6F)c6ccc([nH]6)c(-c6c(F)cccc6F)c6nc(c(-c7c(F)cccc7F)c7ccc4[nH]7)C=C6)C=C5)cc3)[C@@H]1CC[C@]13C=C(CO)[C@H](CC[C@H]12)C3
REMARK SMILES IDX 12 1 11 2 10 3 8 4 9 5 6 7 1 8 2 9 3 10 71 11 82 12 4 13
REMARK SMILES IDX 72 14 74 15 81 16 5 17 7 18 73 19 75 20 83 21 80 22 76 23
REMARK SMILES IDX 79 24 77 25 78 26 13 28 14 29 15 30 16 32 17 33 18 34 70 35
REMARK SMILES IDX 19 36 69 37 20 38 21 39 22 40 63 41 23 42 68 43 62 44 64 45
REMARK SMILES IDX 24 46 67 47 61 48 60 49 25 51 51 52 34 53 50 54 35 55 38 56
REMARK SMILES IDX 49 57 65 58 36 59 37 60 48 62 66 63 39 64 26 65 27 66 32 67
REMARK SMILES IDX 28 68 29 69 31 70 33 71 30 72 52 73 53 74 58 75 54 76 55 77
REMARK SMILES IDX 57 78 59 79 56 80 40 81 41 82 46 83 42 84 43 85 45 86 47 87
REMARK SMILES IDX 44 88
REMARK H PARENT 10 6 78 27 14 31 64 50 38 61
REMARK Flexibility Score: inf
ROOT
ATOM      1  C   UNL A   1      32.657  28.237  27.232  1.00  0.00     0.042 C 
ENDROOT
BRANCH   1   2
ATOM      2  C   UNL A   1      31.501  28.541  26.211  1.00  0.00     0.117 C 
BRANCH   2   3
ATOM      3  N   UNL A   1      31.761  28.496  24.747  1.00  0.00    -0.356 N 
ATOM      4  C   UNL A   1      32.388  27.555  23.940  1.00  0.00     0.226 C 
ATOM      5  O   UNL A   1      33.510  27.949  23.570  1.00  0.00    -0.274 OA
ATOM      6  H   UNL A   1      31.424  29.282  24.257  1.00  0.00     0.163 HD
BRANCH   4   7
ATOM      7  C   UNL A   1      31.772  26.188  23.231  1.00  0.00     0.050 C 
ATOM      8  C   UNL A   1      34.329  25.028  23.510  1.00  0.00     0.012 C 
ATOM      9  C   UNL A   1      33.151  24.033  23.560  1.00  0.00    -0.025 C 
ATOM     10  C   UNL A   1      32.936  23.563  22.120  1.00  0.00     0.007 C 
ATOM     11  C   UNL A   1      31.901  24.819  24.032  1.00  0.00     0.010 C 
ATOM     12  C   UNL A   1      33.645  22.920  24.520  1.00  0.00     0.005 C 
ATOM     13  C   UNL A   1      32.904  24.761  21.170  1.00  0.00     0.002 C 
ATOM     14  C   UNL A   1      31.731  24.982  25.562  1.00  0.00     0.006 C 
ATOM     15  C   UNL A   1      33.649  23.295  26.057  1.00  0.00    -0.008 C 
ATOM     16  C   UNL A   1      33.596  21.405  24.373  1.00  0.00     0.006 C 
ATOM     17  C   UNL A   1      32.113  25.996  21.677  1.00  0.00     0.017 C 
ATOM     18  C   UNL A   1      30.233  26.533  23.150  1.00  0.00     0.022 C 
ATOM     19  C   UNL A   1      32.316  23.899  26.481  1.00  0.00     0.012 C 
ATOM     20  C   UNL A   1      34.940  24.037  26.239  1.00  0.00    -0.018 C 
ATOM     21  C   UNL A   1      34.084  22.114  26.961  1.00  0.00     0.019 C 
ATOM     22  C   UNL A   1      34.967  20.910  25.002  1.00  0.00     0.008 C 
ATOM     23  C   UNL A   1      35.951  23.161  26.074  1.00  0.00    -0.045 C 
ATOM     24  C   UNL A   1      35.402  21.734  26.266  1.00  0.00     0.018 C 
BRANCH  23  25
ATOM     25  C   UNL A   1      37.313  23.520  25.576  1.00  0.00     0.187 C 
BRANCH  25  26
ATOM     26  O   UNL A   1      37.400  23.323  24.166  1.00  0.00    -0.392 OA
ATOM     27  H   UNL A   1      36.536  23.494  23.762  1.00  0.00     0.211 HD
ENDBRANCH  25  26
ENDBRANCH  23  25
ENDBRANCH   4   7
ENDBRANCH   2   3
ENDBRANCH   1   2
BRANCH   1  28
ATOM     28  C   UNL A   1      34.046  28.908  27.251  1.00  0.00     0.118 C 
BRANCH  28  29
ATOM     29  N   UNL A   1      34.390  29.963  28.212  1.00  0.00    -0.352 N 
ATOM     30  C   UNL A   1      35.521  30.526  28.762  1.00  0.00     0.251 C 
ATOM     31  H   UNL A   1      33.578  30.393  28.566  1.00  0.00     0.163 HD
ATOM     32  O   UNL A   1      35.368  31.597  29.378  1.00  0.00    -0.269 OA
BRANCH  30  33
ATOM     33  C   UNL A   1      36.896  29.959  28.737  1.00  0.00     0.039 A 
ATOM     34  C   UNL A   1      37.408  29.366  29.919  1.00  0.00     0.014 A 
ATOM     35  C   UNL A   1      37.714  29.991  27.619  1.00  0.00     0.014 A 
ATOM     36  C   UNL A   1      38.687  28.778  29.962  1.00  0.00     0.010 A 
ATOM     37  C   UNL A   1      38.972  29.374  27.648  1.00  0.00     0.010 A 
ATOM     38  C   UNL A   1      39.482  28.768  28.815  1.00  0.00    -0.014 A 
BRANCH  38  39
ATOM     39  C   UNL A   1      40.884  28.253  28.775  1.00  0.00     0.031 A 
ATOM     40  C   UNL A   1      42.009  29.251  28.903  1.00  0.00     0.074 A 
ATOM     41  C   UNL A   1      41.172  26.970  28.476  1.00  0.00     0.049 A 
ATOM     42  N   UNL A   1      43.266  29.146  28.558  1.00  0.00    -0.248 NA
ATOM     43  C   UNL A   1      41.635  30.571  29.433  1.00  0.00     0.031 C 
ATOM     44  C   UNL A   1      40.202  25.888  28.324  1.00  0.00     0.029 A 
ATOM     45  N   UNL A   1      42.381  26.372  28.198  1.00  0.00    -0.354 N 
ATOM     46  C   UNL A   1      43.812  30.410  28.753  1.00  0.00     0.074 A 
ATOM     47  C   UNL A   1      42.743  31.269  29.210  1.00  0.00     0.031 C 
ATOM     48  C   UNL A   1      40.847  24.765  27.960  1.00  0.00     0.029 A 
ATOM     49  C   UNL A   1      42.272  25.056  27.809  1.00  0.00     0.049 A 
ATOM     50  H   UNL A   1      43.243  26.842  28.268  1.00  0.00     0.167 HD
ATOM     51  C   UNL A   1      45.093  30.819  28.579  1.00  0.00     0.037 A 
ATOM     52  C   UNL A   1      43.207  24.195  27.357  1.00  0.00     0.037 A 
ATOM     53  C   UNL A   1      46.172  29.944  28.204  1.00  0.00     0.049 A 
ATOM     54  C   UNL A   1      44.636  24.658  27.208  1.00  0.00     0.074 A 
ATOM     55  C   UNL A   1      47.520  30.237  28.092  1.00  0.00     0.029 A 
ATOM     56  N   UNL A   1      46.026  28.601  27.898  1.00  0.00    -0.354 N 
ATOM     57  N   UNL A   1      45.149  25.846  27.422  1.00  0.00    -0.248 NA
ATOM     58  C   UNL A   1      45.617  23.658  26.755  1.00  0.00     0.031 C 
ATOM     59  C   UNL A   1      48.185  29.079  27.681  1.00  0.00     0.029 A 
ATOM     60  C   UNL A   1      47.259  28.052  27.586  1.00  0.00     0.049 A 
ATOM     61  H   UNL A   1      45.173  28.109  27.900  1.00  0.00     0.167 HD
ATOM     62  C   UNL A   1      46.512  25.727  27.167  1.00  0.00     0.074 A 
ATOM     63  C   UNL A   1      46.748  24.350  26.792  1.00  0.00     0.031 C 
ATOM     64  C   UNL A   1      47.481  26.673  27.236  1.00  0.00     0.037 A 
BRANCH  51  65
ATOM     65  C   UNL A   1      45.396  32.275  28.797  1.00  0.00     0.057 A 
ATOM     66  C   UNL A   1      45.789  32.777  30.045  1.00  0.00     0.134 A 
ATOM     67  C   UNL A   1      45.314  33.186  27.735  1.00  0.00     0.134 A 
ATOM     68  F   UNL A   1      45.879  31.963  31.108  1.00  0.00    -0.206 F 
ATOM     69  C   UNL A   1      46.048  34.135  30.239  1.00  0.00     0.040 A 
ATOM     70  C   UNL A   1      45.607  34.540  27.908  1.00  0.00     0.040 A 
ATOM     71  F   UNL A   1      44.954  32.775  26.510  1.00  0.00    -0.206 F 
ATOM     72  C   UNL A   1      45.965  35.020  29.166  1.00  0.00     0.006 A 
ENDBRANCH  51  65
BRANCH  52  73
ATOM     73  C   UNL A   1      42.839  22.793  27.014  1.00  0.00     0.057 A 
ATOM     74  C   UNL A   1      42.564  21.857  28.019  1.00  0.00     0.134 A 
ATOM     75  C   UNL A   1      42.786  22.345  25.689  1.00  0.00     0.134 A 
ATOM     76  F   UNL A   1      42.626  22.216  29.309  1.00  0.00    -0.206 F 
ATOM     77  C   UNL A   1      42.272  20.524  27.722  1.00  0.00     0.040 A 
ATOM     78  C   UNL A   1      42.467  21.020  25.375  1.00  0.00     0.040 A 
ATOM     79  F   UNL A   1      43.035  23.188  24.677  1.00  0.00    -0.206 F 
ATOM     80  C   UNL A   1      42.217  20.104  26.395  1.00  0.00     0.006 A 
ENDBRANCH  52  73
BRANCH  64  81
ATOM     81  C   UNL A   1      48.893  26.244  26.956  1.00  0.00     0.057 A 
ATOM     82  C   UNL A   1      49.693  25.636  27.931  1.00  0.00     0.134 A 
ATOM     83  C   UNL A   1      49.437  26.391  25.672  1.00  0.00     0.134 A 
ATOM     84  F   UNL A   1      49.236  25.474  29.182  1.00  0.00    -0.206 F 
ATOM     85  C   UNL A   1      50.992  25.211  27.645  1.00  0.00     0.040 A 
ATOM     86  C   UNL A   1      50.723  25.945  25.368  1.00  0.00     0.040 A 
ATOM     87  F   UNL A   1      48.719  26.955  24.689  1.00  0.00    -0.206 F 
ATOM     88  C   UNL A   1      51.507  25.357  26.358  1.00  0.00     0.006 A 
ENDBRANCH  64  81
ENDBRANCH  38  39
ENDBRANCH  30  33
ENDBRANCH  28  29
ENDBRANCH   1  28
TORSDOF 12
ENDMDL
