MODEL 1
REMARK VINA RESULT:     -11.7      0.000      0.000
REMARK SMILES Cc1cnn([C@H]2CC[C@@]([NH3+])(C(=O)NCCCNC(=O)c3ccc(-c4c5nc(c(-c6c(F)cccc6F)c6ccc([nH]6)c(-c6c(F)cccc6F)c6nc(c(-c7c(F)cccc7F)c7ccc4[nH]7)C=C6)C=C5)cc3)C2)c1
REMARK SMILES IDX 15 1 14 2 13 3 11 4 12 5 9 7 6 8 7 9 74 10 8 11 5 12 1 13
REMARK SMILES IDX 2 14 3 15 75 16 4 17 10 18 16 22 17 23 18 24 19 26 20 27
REMARK SMILES IDX 21 28 73 29 22 30 72 31 23 32 24 33 25 34 66 35 26 36 71 37
REMARK SMILES IDX 65 38 67 39 27 40 70 41 64 42 63 43 28 45 54 46 37 47 53 48
REMARK SMILES IDX 38 49 41 50 52 51 68 52 39 53 40 54 51 56 69 57 42 58 29 59
REMARK SMILES IDX 30 60 35 61 31 62 32 63 34 64 36 65 33 66 55 67 56 68 61 69
REMARK SMILES IDX 57 70 58 71 60 72 62 73 59 74 43 75 44 76 49 77 45 78 46 79
REMARK SMILES IDX 48 80 50 81 47 82
REMARK H PARENT 13 6 10 19 10 20 10 21 17 25 67 44 41 55
REMARK Flexibility Score: inf
ROOT
ATOM      1  C   UNL A   1      33.733  28.566  27.243  1.00  0.00     0.042 C 
ENDROOT
BRANCH   1   2
ATOM      2  C   UNL A   1      32.846  29.067  26.103  1.00  0.00     0.118 C 
BRANCH   2   3
ATOM      3  N   UNL A   1      33.546  29.281  24.843  1.00  0.00    -0.351 N 
ATOM      4  C   UNL A   1      33.583  28.482  23.730  1.00  0.00     0.281 C 
ATOM      5  O   UNL A   1      33.864  29.029  22.663  1.00  0.00    -0.268 OA
ATOM      6  H   UNL A   1      34.065  30.116  24.783  1.00  0.00     0.163 HD
BRANCH   4   7
ATOM      7  C   UNL A   1      33.189  26.970  23.813  1.00  0.00     0.176 C 
ATOM      8  C   UNL A   1      30.835  26.859  23.121  1.00  0.00     0.114 C 
ATOM      9  C   UNL A   1      31.700  26.343  21.954  1.00  0.00     0.034 C 
ATOM     10  C   UNL A   1      31.766  26.707  24.335  1.00  0.00     0.106 C 
ATOM     11  C   UNL A   1      33.159  26.314  22.429  1.00  0.00     0.081 C 
BRANCH   8  12
ATOM     12  N   UNL A   1      30.280  28.190  22.920  1.00  0.00    -0.269 N 
ATOM     13  C   UNL A   1      29.068  31.455  23.933  1.00  0.00     0.048 C 
ATOM     14  C   UNL A   1      29.486  30.209  23.258  1.00  0.00    -0.013 A 
ATOM     15  C   UNL A   1      29.869  30.003  21.918  1.00  0.00     0.138 A 
ATOM     16  C   UNL A   1      29.621  28.965  23.832  1.00  0.00     0.112 A 
ATOM     17  N   UNL A   1      30.304  28.759  21.696  1.00  0.00    -0.181 NA
ENDBRANCH   8  12
BRANCH   7  18
ATOM     18  N   UNL A   1      34.146  26.329  24.743  1.00  0.00    -0.345 N 
ATOM     19  H   UNL A   1      34.408  26.992  25.472  1.00  0.00     0.345 HD
ATOM     20  H   UNL A   1      34.978  26.041  24.230  1.00  0.00     0.345 HD
ATOM     21  H   UNL A   1      33.709  25.511  25.169  1.00  0.00     0.345 HD
ENDBRANCH   7  18
ENDBRANCH   4   7
ENDBRANCH   2   3
ENDBRANCH   1   2
BRANCH   1  22
ATOM     22  C   UNL A   1      35.075  29.267  27.321  1.00  0.00     0.118 C 
BRANCH  22  23
ATOM     23  N   UNL A   1      35.251  30.069  28.531  1.00  0.00    -0.352 N 
ATOM     24  C   UNL A   1      36.293  30.007  29.443  1.00  0.00     0.251 C 
ATOM     25  H   UNL A   1      34.547  30.730  28.721  1.00  0.00     0.163 HD
ATOM     26  O   UNL A   1      36.178  30.469  30.564  1.00  0.00    -0.269 OA
BRANCH  24  27
ATOM     27  C   UNL A   1      37.553  29.362  29.022  1.00  0.00     0.039 A 
ATOM     28  C   UNL A   1      38.215  29.751  27.856  1.00  0.00     0.014 A 
ATOM     29  C   UNL A   1      38.090  28.377  29.848  1.00  0.00     0.014 A 
ATOM     30  C   UNL A   1      39.463  29.194  27.581  1.00  0.00     0.010 A 
ATOM     31  C   UNL A   1      39.384  27.967  29.673  1.00  0.00     0.010 A 
ATOM     32  C   UNL A   1      40.055  28.322  28.513  1.00  0.00    -0.014 A 
BRANCH  32  33
ATOM     33  C   UNL A   1      41.446  27.903  28.370  1.00  0.00     0.031 A 
ATOM     34  C   UNL A   1      41.584  26.632  27.616  1.00  0.00     0.074 A 
ATOM     35  C   UNL A   1      42.504  28.684  28.691  1.00  0.00     0.049 A 
ATOM     36  N   UNL A   1      41.870  25.470  28.099  1.00  0.00    -0.248 NA
ATOM     37  C   UNL A   1      41.167  26.595  26.202  1.00  0.00     0.031 C 
ATOM     38  C   UNL A   1      42.478  30.083  29.138  1.00  0.00     0.029 A 
ATOM     39  N   UNL A   1      43.845  28.428  28.602  1.00  0.00    -0.354 N 
ATOM     40  C   UNL A   1      41.959  24.622  26.999  1.00  0.00     0.074 A 
ATOM     41  C   UNL A   1      41.286  25.294  25.922  1.00  0.00     0.031 C 
ATOM     42  C   UNL A   1      43.718  30.617  29.058  1.00  0.00     0.029 A 
ATOM     43  C   UNL A   1      44.655  29.557  28.739  1.00  0.00     0.049 A 
ATOM     44  H   UNL A   1      44.208  27.525  28.454  1.00  0.00     0.167 HD
ATOM     45  C   UNL A   1      42.888  23.626  26.995  1.00  0.00     0.037 A 
ATOM     46  C   UNL A   1      46.006  29.618  28.624  1.00  0.00     0.037 A 
ATOM     47  C   UNL A   1      43.429  23.451  28.321  1.00  0.00     0.049 A 
ATOM     48  C   UNL A   1      46.527  28.253  28.835  1.00  0.00     0.074 A 
ATOM     49  C   UNL A   1      43.017  22.906  29.517  1.00  0.00     0.029 A 
ATOM     50  N   UNL A   1      44.462  24.307  28.597  1.00  0.00    -0.354 N 
ATOM     51  N   UNL A   1      46.488  27.647  29.987  1.00  0.00    -0.248 NA
ATOM     52  C   UNL A   1      46.781  27.397  27.682  1.00  0.00     0.031 C 
ATOM     53  C   UNL A   1      43.760  23.573  30.538  1.00  0.00     0.029 A 
ATOM     54  C   UNL A   1      44.648  24.464  29.941  1.00  0.00     0.049 A 
ATOM     55  H   UNL A   1      45.004  24.755  27.909  1.00  0.00     0.167 HD
ATOM     56  C   UNL A   1      46.252  26.328  29.660  1.00  0.00     0.074 A 
ATOM     57  C   UNL A   1      46.633  26.202  28.258  1.00  0.00     0.031 C 
ATOM     58  C   UNL A   1      45.445  25.558  30.444  1.00  0.00     0.037 A 
BRANCH  45  59
ATOM     59  C   UNL A   1      43.704  23.198  25.786  1.00  0.00     0.057 A 
ATOM     60  C   UNL A   1      43.788  21.824  25.484  1.00  0.00     0.134 A 
ATOM     61  C   UNL A   1      44.651  24.005  25.120  1.00  0.00     0.134 A 
ATOM     62  F   UNL A   1      42.951  20.942  26.054  1.00  0.00    -0.206 F 
ATOM     63  C   UNL A   1      44.783  21.290  24.655  1.00  0.00     0.040 A 
ATOM     64  C   UNL A   1      45.620  23.486  24.255  1.00  0.00     0.040 A 
ATOM     65  F   UNL A   1      44.764  25.318  25.339  1.00  0.00    -0.206 F 
ATOM     66  C   UNL A   1      45.710  22.121  24.043  1.00  0.00     0.006 A 
ENDBRANCH  45  59
BRANCH  46  67
ATOM     67  C   UNL A   1      46.900  30.718  28.203  1.00  0.00     0.057 A 
ATOM     68  C   UNL A   1      46.787  31.309  26.934  1.00  0.00     0.134 A 
ATOM     69  C   UNL A   1      47.665  31.421  29.147  1.00  0.00     0.134 A 
ATOM     70  F   UNL A   1      46.056  30.725  25.973  1.00  0.00    -0.206 F 
ATOM     71  C   UNL A   1      47.358  32.552  26.636  1.00  0.00     0.040 A 
ATOM     72  C   UNL A   1      48.241  32.665  28.862  1.00  0.00     0.040 A 
ATOM     73  F   UNL A   1      47.791  30.967  30.403  1.00  0.00    -0.206 F 
ATOM     74  C   UNL A   1      48.072  33.245  27.609  1.00  0.00     0.006 A 
ENDBRANCH  46  67
BRANCH  58  75
ATOM     75  C   UNL A   1      45.278  25.975  31.871  1.00  0.00     0.057 A 
ATOM     76  C   UNL A   1      46.219  25.761  32.886  1.00  0.00     0.134 A 
ATOM     77  C   UNL A   1      44.113  26.668  32.217  1.00  0.00     0.134 A 
ATOM     78  F   UNL A   1      47.393  25.167  32.632  1.00  0.00    -0.206 F 
ATOM     79  C   UNL A   1      45.990  26.184  34.200  1.00  0.00     0.040 A 
ATOM     80  C   UNL A   1      43.886  27.124  33.514  1.00  0.00     0.040 A 
ATOM     81  F   UNL A   1      43.186  26.938  31.285  1.00  0.00    -0.206 F 
ATOM     82  C   UNL A   1      44.820  26.871  34.515  1.00  0.00     0.006 A 
ENDBRANCH  58  75
ENDBRANCH  32  33
ENDBRANCH  24  27
ENDBRANCH  22  23
ENDBRANCH   1  22
TORSDOF 12
ENDMDL
MODEL 2
REMARK VINA RESULT:     -11.7      0.833      2.170
REMARK SMILES Cc1cnn([C@H]2CC[C@@]([NH3+])(C(=O)NCCCNC(=O)c3ccc(-c4c5nc(c(-c6c(F)cccc6F)c6ccc([nH]6)c(-c6c(F)cccc6F)c6nc(c(-c7c(F)cccc7F)c7ccc4[nH]7)C=C6)C=C5)cc3)C2)c1
REMARK SMILES IDX 15 1 14 2 13 3 11 4 12 5 9 7 6 8 7 9 74 10 8 11 5 12 1 13
REMARK SMILES IDX 2 14 3 15 75 16 4 17 10 18 16 22 17 23 18 24 19 26 20 27
REMARK SMILES IDX 21 28 73 29 22 30 72 31 23 32 24 33 25 34 66 35 26 36 71 37
REMARK SMILES IDX 65 38 67 39 27 40 70 41 64 42 63 43 28 45 54 46 37 47 53 48
REMARK SMILES IDX 38 49 41 50 52 51 68 52 39 53 40 54 51 56 69 57 42 58 29 59
REMARK SMILES IDX 30 60 35 61 31 62 32 63 34 64 36 65 33 66 55 67 56 68 61 69
REMARK SMILES IDX 57 70 58 71 60 72 62 73 59 74 43 75 44 76 49 77 45 78 46 79
REMARK SMILES IDX 48 80 50 81 47 82
REMARK H PARENT 13 6 10 19 10 20 10 21 17 25 67 44 41 55
REMARK Flexibility Score: inf
ROOT
ATOM      1  C   UNL A   1      33.660  28.940  26.972  1.00  0.00     0.042 C 
ENDROOT
BRANCH   1   2
ATOM      2  C   UNL A   1      33.233  29.528  25.626  1.00  0.00     0.118 C 
BRANCH   2   3
ATOM      3  N   UNL A   1      33.933  28.973  24.475  1.00  0.00    -0.351 N 
ATOM      4  C   UNL A   1      33.453  28.709  23.219  1.00  0.00     0.281 C 
ATOM      5  O   UNL A   1      34.281  28.653  22.309  1.00  0.00    -0.268 OA
ATOM      6  H   UNL A   1      34.882  28.758  24.620  1.00  0.00     0.163 HD
BRANCH   4   7
ATOM      7  C   UNL A   1      31.916  28.584  22.955  1.00  0.00     0.176 C 
ATOM      8  C   UNL A   1      31.322  26.282  23.573  1.00  0.00     0.114 C 
ATOM      9  C   UNL A   1      30.830  27.218  24.694  1.00  0.00     0.034 C 
ATOM     10  C   UNL A   1      31.475  27.230  22.373  1.00  0.00     0.106 C 
ATOM     11  C   UNL A   1      31.108  28.663  24.254  1.00  0.00     0.081 C 
BRANCH   8  12
ATOM     12  N   UNL A   1      32.505  25.503  23.911  1.00  0.00    -0.269 N 
ATOM     13  C   UNL A   1      35.243  23.208  23.287  1.00  0.00     0.048 C 
ATOM     14  C   UNL A   1      34.227  24.144  23.810  1.00  0.00    -0.013 A 
ATOM     15  C   UNL A   1      34.292  25.007  24.922  1.00  0.00     0.138 A 
ATOM     16  C   UNL A   1      32.982  24.392  23.276  1.00  0.00     0.112 A 
ATOM     17  N   UNL A   1      33.221  25.800  25.017  1.00  0.00    -0.181 NA
ENDBRANCH   8  12
BRANCH   7  18
ATOM     18  N   UNL A   1      31.561  29.640  21.981  1.00  0.00    -0.345 N 
ATOM     19  H   UNL A   1      31.118  29.216  21.166  1.00  0.00     0.345 HD
ATOM     20  H   UNL A   1      32.405  30.134  21.692  1.00  0.00     0.345 HD
ATOM     21  H   UNL A   1      30.914  30.299  22.415  1.00  0.00     0.345 HD
ENDBRANCH   7  18
ENDBRANCH   4   7
ENDBRANCH   2   3
ENDBRANCH   1   2
BRANCH   1  22
ATOM     22  C   UNL A   1      35.108  29.221  27.323  1.00  0.00     0.118 C 
BRANCH  22  23
ATOM     23  N   UNL A   1      35.276  29.999  28.550  1.00  0.00    -0.352 N 
ATOM     24  C   UNL A   1      36.317  29.926  29.462  1.00  0.00     0.251 C 
ATOM     25  H   UNL A   1      34.566  30.650  28.752  1.00  0.00     0.163 HD
ATOM     26  O   UNL A   1      36.196  30.365  30.592  1.00  0.00    -0.269 OA
BRANCH  24  27
ATOM     27  C   UNL A   1      37.582  29.300  29.031  1.00  0.00     0.039 A 
ATOM     28  C   UNL A   1      38.263  29.742  27.896  1.00  0.00     0.014 A 
ATOM     29  C   UNL A   1      38.104  28.274  29.817  1.00  0.00     0.014 A 
ATOM     30  C   UNL A   1      39.514  29.197  27.613  1.00  0.00     0.010 A 
ATOM     31  C   UNL A   1      39.401  27.870  29.642  1.00  0.00     0.010 A 
ATOM     32  C   UNL A   1      40.090  28.280  28.511  1.00  0.00    -0.014 A 
BRANCH  32  33
ATOM     33  C   UNL A   1      41.483  27.865  28.371  1.00  0.00     0.031 A 
ATOM     34  C   UNL A   1      41.625  26.592  27.620  1.00  0.00     0.074 A 
ATOM     35  C   UNL A   1      42.538  28.649  28.691  1.00  0.00     0.049 A 
ATOM     36  N   UNL A   1      41.915  25.432  28.106  1.00  0.00    -0.248 NA
ATOM     37  C   UNL A   1      41.209  26.550  26.206  1.00  0.00     0.031 C 
ATOM     38  C   UNL A   1      42.507  30.049  29.134  1.00  0.00     0.029 A 
ATOM     39  N   UNL A   1      43.880  28.398  28.603  1.00  0.00    -0.354 N 
ATOM     40  C   UNL A   1      42.007  24.582  27.008  1.00  0.00     0.074 A 
ATOM     41  C   UNL A   1      41.333  25.249  25.929  1.00  0.00     0.031 C 
ATOM     42  C   UNL A   1      43.745  30.587  29.054  1.00  0.00     0.029 A 
ATOM     43  C   UNL A   1      44.686  29.529  28.738  1.00  0.00     0.049 A 
ATOM     44  H   UNL A   1      44.245  27.495  28.458  1.00  0.00     0.167 HD
ATOM     45  C   UNL A   1      42.940  23.589  27.007  1.00  0.00     0.037 A 
ATOM     46  C   UNL A   1      46.037  29.595  28.624  1.00  0.00     0.037 A 
ATOM     47  C   UNL A   1      43.480  23.418  28.334  1.00  0.00     0.049 A 
ATOM     48  C   UNL A   1      46.562  28.231  28.839  1.00  0.00     0.074 A 
ATOM     49  C   UNL A   1      43.068  22.875  29.531  1.00  0.00     0.029 A 
ATOM     50  N   UNL A   1      44.510  24.278  28.608  1.00  0.00    -0.354 N 
ATOM     51  N   UNL A   1      46.524  27.628  29.992  1.00  0.00    -0.248 NA
ATOM     52  C   UNL A   1      46.820  27.374  27.688  1.00  0.00     0.031 C 
ATOM     53  C   UNL A   1      43.809  23.547  30.551  1.00  0.00     0.029 A 
ATOM     54  C   UNL A   1      44.694  24.439  29.952  1.00  0.00     0.049 A 
ATOM     55  H   UNL A   1      45.051  24.726  27.919  1.00  0.00     0.167 HD
ATOM     56  C   UNL A   1      46.293  26.307  29.668  1.00  0.00     0.074 A 
ATOM     57  C   UNL A   1      46.675  26.179  28.267  1.00  0.00     0.031 C 
ATOM     58  C   UNL A   1      45.488  25.537  30.453  1.00  0.00     0.037 A 
BRANCH  45  59
ATOM     59  C   UNL A   1      43.758  23.160  25.800  1.00  0.00     0.057 A 
ATOM     60  C   UNL A   1      43.845  21.786  25.500  1.00  0.00     0.134 A 
ATOM     61  C   UNL A   1      44.703  23.969  25.134  1.00  0.00     0.134 A 
ATOM     62  F   UNL A   1      43.010  20.903  26.071  1.00  0.00    -0.206 F 
ATOM     63  C   UNL A   1      44.842  21.252  24.673  1.00  0.00     0.040 A 
ATOM     64  C   UNL A   1      45.674  23.450  24.270  1.00  0.00     0.040 A 
ATOM     65  F   UNL A   1      44.813  25.282  25.349  1.00  0.00    -0.206 F 
ATOM     66  C   UNL A   1      45.768  22.085  24.060  1.00  0.00     0.006 A 
ENDBRANCH  45  59
BRANCH  46  67
ATOM     67  C   UNL A   1      46.928  30.696  28.201  1.00  0.00     0.057 A 
ATOM     68  C   UNL A   1      46.802  31.296  26.938  1.00  0.00     0.134 A 
ATOM     69  C   UNL A   1      47.704  31.392  29.142  1.00  0.00     0.134 A 
ATOM     70  F   UNL A   1      46.060  30.720  25.981  1.00  0.00    -0.206 F 
ATOM     71  C   UNL A   1      47.372  32.541  26.642  1.00  0.00     0.040 A 
ATOM     72  C   UNL A   1      48.279  32.637  28.860  1.00  0.00     0.040 A 
ATOM     73  F   UNL A   1      47.843  30.929  30.393  1.00  0.00    -0.206 F 
ATOM     74  C   UNL A   1      48.097  33.225  27.612  1.00  0.00     0.006 A 
ENDBRANCH  46  67
BRANCH  58  75
ATOM     75  C   UNL A   1      45.318  25.957  31.879  1.00  0.00     0.057 A 
ATOM     76  C   UNL A   1      46.261  25.751  32.895  1.00  0.00     0.134 A 
ATOM     77  C   UNL A   1      44.149  26.644  32.223  1.00  0.00     0.134 A 
ATOM     78  F   UNL A   1      47.438  25.164  32.642  1.00  0.00    -0.206 F 
ATOM     79  C   UNL A   1      46.029  26.176  34.207  1.00  0.00     0.040 A 
ATOM     80  C   UNL A   1      43.919  27.102  33.520  1.00  0.00     0.040 A 
ATOM     81  F   UNL A   1      43.221  26.905  31.290  1.00  0.00    -0.206 F 
ATOM     82  C   UNL A   1      44.855  26.857  34.520  1.00  0.00     0.006 A 
ENDBRANCH  58  75
ENDBRANCH  32  33
ENDBRANCH  24  27
ENDBRANCH  22  23
ENDBRANCH   1  22
TORSDOF 12
ENDMDL
MODEL 3
REMARK VINA RESULT:     -11.3      3.432      7.427
REMARK SMILES Cc1cnn([C@H]2CC[C@@]([NH3+])(C(=O)NCCCNC(=O)c3ccc(-c4c5nc(c(-c6c(F)cccc6F)c6ccc([nH]6)c(-c6c(F)cccc6F)c6nc(c(-c7c(F)cccc7F)c7ccc4[nH]7)C=C6)C=C5)cc3)C2)c1
REMARK SMILES IDX 15 1 14 2 13 3 11 4 12 5 9 7 6 8 7 9 74 10 8 11 5 12 1 13
REMARK SMILES IDX 2 14 3 15 75 16 4 17 10 18 16 22 17 23 18 24 19 26 20 27
REMARK SMILES IDX 21 28 73 29 22 30 72 31 23 32 24 33 25 34 66 35 26 36 71 37
REMARK SMILES IDX 65 38 67 39 27 40 70 41 64 42 63 43 28 45 54 46 37 47 53 48
REMARK SMILES IDX 38 49 41 50 52 51 68 52 39 53 40 54 51 56 69 57 42 58 29 59
REMARK SMILES IDX 30 60 35 61 31 62 32 63 34 64 36 65 33 66 55 67 56 68 61 69
REMARK SMILES IDX 57 70 58 71 60 72 62 73 59 74 43 75 44 76 49 77 45 78 46 79
REMARK SMILES IDX 48 80 50 81 47 82
REMARK H PARENT 13 6 10 19 10 20 10 21 17 25 67 44 41 55
REMARK Flexibility Score: inf
ROOT
ATOM      1  C   UNL A   1      37.744  20.249  24.623  1.00  0.00     0.042 C 
ENDROOT
BRANCH   1   2
ATOM      2  C   UNL A   1      36.319  20.355  25.168  1.00  0.00     0.118 C 
BRANCH   2   3
ATOM      3  N   UNL A   1      35.981  21.658  25.726  1.00  0.00    -0.351 N 
ATOM      4  C   UNL A   1      34.781  22.101  26.218  1.00  0.00     0.281 C 
ATOM      5  O   UNL A   1      34.820  23.046  27.007  1.00  0.00    -0.268 OA
ATOM      6  H   UNL A   1      36.717  22.311  25.753  1.00  0.00     0.163 HD
BRANCH   4   7
ATOM      7  C   UNL A   1      33.446  21.368  25.860  1.00  0.00     0.176 C 
ATOM      8  C   UNL A   1      32.036  23.056  24.766  1.00  0.00     0.114 C 
ATOM      9  C   UNL A   1      32.587  22.115  23.676  1.00  0.00     0.034 C 
ATOM     10  C   UNL A   1      32.179  22.220  26.048  1.00  0.00     0.106 C 
ATOM     11  C   UNL A   1      33.379  21.001  24.375  1.00  0.00     0.081 C 
BRANCH   8  12
ATOM     12  N   UNL A   1      32.661  24.370  24.802  1.00  0.00    -0.269 N 
ATOM     13  C   UNL A   1      33.654  27.519  26.303  1.00  0.00     0.048 C 
ATOM     14  C   UNL A   1      33.369  26.344  25.455  1.00  0.00    -0.013 A 
ATOM     15  C   UNL A   1      34.031  25.895  24.295  1.00  0.00     0.138 A 
ATOM     16  C   UNL A   1      32.386  25.401  25.655  1.00  0.00     0.112 A 
ATOM     17  N   UNL A   1      33.567  24.719  23.864  1.00  0.00    -0.181 NA
ENDBRANCH   8  12
BRANCH   7  18
ATOM     18  N   UNL A   1      33.348  20.195  26.757  1.00  0.00    -0.345 N 
ATOM     19  H   UNL A   1      34.126  20.205  27.417  1.00  0.00     0.345 HD
ATOM     20  H   UNL A   1      33.383  19.339  26.204  1.00  0.00     0.345 HD
ATOM     21  H   UNL A   1      32.467  20.231  27.270  1.00  0.00     0.345 HD
ENDBRANCH   7  18
ENDBRANCH   4   7
ENDBRANCH   2   3
ENDBRANCH   1   2
BRANCH   1  22
ATOM     22  C   UNL A   1      38.813  20.476  25.674  1.00  0.00     0.118 C 
BRANCH  22  23
ATOM     23  N   UNL A   1      39.834  19.430  25.710  1.00  0.00    -0.352 N 
ATOM     24  C   UNL A   1      41.196  19.584  25.917  1.00  0.00     0.251 C 
ATOM     25  H   UNL A   1      39.518  18.509  25.571  1.00  0.00     0.163 HD
ATOM     26  O   UNL A   1      41.984  18.712  25.602  1.00  0.00    -0.269 OA
BRANCH  24  27
ATOM     27  C   UNL A   1      41.672  20.840  26.532  1.00  0.00     0.039 A 
ATOM     28  C   UNL A   1      42.030  21.941  25.753  1.00  0.00     0.014 A 
ATOM     29  C   UNL A   1      41.717  20.910  27.923  1.00  0.00     0.014 A 
ATOM     30  C   UNL A   1      42.349  23.137  26.395  1.00  0.00     0.010 A 
ATOM     31  C   UNL A   1      41.855  22.123  28.543  1.00  0.00     0.010 A 
ATOM     32  C   UNL A   1      42.230  23.227  27.793  1.00  0.00    -0.014 A 
BRANCH  32  33
ATOM     33  C   UNL A   1      42.331  24.514  28.475  1.00  0.00     0.031 A 
ATOM     34  C   UNL A   1      41.160  25.389  28.215  1.00  0.00     0.074 A 
ATOM     35  C   UNL A   1      43.268  24.801  29.409  1.00  0.00     0.049 A 
ATOM     36  N   UNL A   1      41.123  26.430  27.453  1.00  0.00    -0.248 NA
ATOM     37  C   UNL A   1      39.832  24.960  28.690  1.00  0.00     0.031 C 
ATOM     38  C   UNL A   1      44.271  23.889  29.975  1.00  0.00     0.029 A 
ATOM     39  N   UNL A   1      43.473  25.946  30.127  1.00  0.00    -0.354 N 
ATOM     40  C   UNL A   1      39.839  26.949  27.595  1.00  0.00     0.074 A 
ATOM     41  C   UNL A   1      39.041  25.891  28.150  1.00  0.00     0.031 C 
ATOM     42  C   UNL A   1      44.813  24.432  31.088  1.00  0.00     0.029 A 
ATOM     43  C   UNL A   1      44.340  25.798  31.210  1.00  0.00     0.049 A 
ATOM     44  H   UNL A   1      43.046  26.803  29.898  1.00  0.00     0.167 HD
ATOM     45  C   UNL A   1      39.658  28.299  27.583  1.00  0.00     0.037 A 
ATOM     46  C   UNL A   1      44.671  26.735  32.133  1.00  0.00     0.037 A 
ATOM     47  C   UNL A   1      40.853  28.953  27.106  1.00  0.00     0.049 A 
ATOM     48  C   UNL A   1      44.382  28.057  31.540  1.00  0.00     0.074 A 
ATOM     49  C   UNL A   1      41.488  29.141  25.898  1.00  0.00     0.029 A 
ATOM     50  N   UNL A   1      41.778  29.165  28.092  1.00  0.00    -0.354 N 
ATOM     51  N   UNL A   1      45.063  28.556  30.548  1.00  0.00    -0.248 NA
ATOM     52  C   UNL A   1      43.099  28.697  31.807  1.00  0.00     0.031 C 
ATOM     53  C   UNL A   1      42.869  29.345  26.201  1.00  0.00     0.029 A 
ATOM     54  C   UNL A   1      43.034  29.336  27.583  1.00  0.00     0.049 A 
ATOM     55  H   UNL A   1      41.564  29.190  29.052  1.00  0.00     0.167 HD
ATOM     56  C   UNL A   1      44.119  29.234  29.806  1.00  0.00     0.074 A 
ATOM     57  C   UNL A   1      42.996  29.451  30.710  1.00  0.00     0.031 C 
ATOM     58  C   UNL A   1      44.190  29.240  28.445  1.00  0.00     0.037 A 
BRANCH  45  59
ATOM     59  C   UNL A   1      38.689  29.058  28.474  1.00  0.00     0.057 A 
ATOM     60  C   UNL A   1      38.755  28.853  29.867  1.00  0.00     0.134 A 
ATOM     61  C   UNL A   1      37.517  29.706  28.030  1.00  0.00     0.134 A 
ATOM     62  F   UNL A   1      39.813  28.243  30.423  1.00  0.00    -0.206 F 
ATOM     63  C   UNL A   1      37.706  29.189  30.733  1.00  0.00     0.040 A 
ATOM     64  C   UNL A   1      36.483  30.085  28.893  1.00  0.00     0.040 A 
ATOM     65  F   UNL A   1      37.252  29.919  26.738  1.00  0.00    -0.206 F 
ATOM     66  C   UNL A   1      36.559  29.799  30.245  1.00  0.00     0.006 A 
ENDBRANCH  45  59
BRANCH  46  67
ATOM     67  C   UNL A   1      45.081  26.610  33.549  1.00  0.00     0.057 A 
ATOM     68  C   UNL A   1      44.233  26.034  34.508  1.00  0.00     0.134 A 
ATOM     69  C   UNL A   1      46.426  26.759  33.921  1.00  0.00     0.134 A 
ATOM     70  F   UNL A   1      42.936  25.827  34.235  1.00  0.00    -0.206 F 
ATOM     71  C   UNL A   1      44.705  25.583  35.747  1.00  0.00     0.040 A 
ATOM     72  C   UNL A   1      46.912  26.312  35.156  1.00  0.00     0.040 A 
ATOM     73  F   UNL A   1      47.327  27.251  33.057  1.00  0.00    -0.206 F 
ATOM     74  C   UNL A   1      46.054  25.704  36.067  1.00  0.00     0.006 A 
ENDBRANCH  46  67
BRANCH  58  75
ATOM     75  C   UNL A   1      45.529  28.987  27.827  1.00  0.00     0.057 A 
ATOM     76  C   UNL A   1      46.559  29.932  27.727  1.00  0.00     0.134 A 
ATOM     77  C   UNL A   1      45.795  27.700  27.350  1.00  0.00     0.134 A 
ATOM     78  F   UNL A   1      46.417  31.169  28.219  1.00  0.00    -0.206 F 
ATOM     79  C   UNL A   1      47.787  29.617  27.136  1.00  0.00     0.040 A 
ATOM     80  C   UNL A   1      47.027  27.363  26.789  1.00  0.00     0.040 A 
ATOM     81  F   UNL A   1      44.865  26.738  27.448  1.00  0.00    -0.206 F 
ATOM     82  C   UNL A   1      48.023  28.327  26.668  1.00  0.00     0.006 A 
ENDBRANCH  58  75
ENDBRANCH  32  33
ENDBRANCH  24  27
ENDBRANCH  22  23
ENDBRANCH   1  22
TORSDOF 12
ENDMDL
