MODEL 1
REMARK VINA RESULT:     -12.8      0.000      0.000
REMARK SMILES NS(=O)(=O)c1ccc(-n2nc(C(=O)NCCCNC(=O)c3ccc(-c4c5nc(c(-c6c(F)cccc6F)c6ccc([nH]6)c(-c6c(F)cccc6F)c6nc(c(-c7c(F)cccc7F)c7ccc4[nH]7)C=C6)C=C5)cc3)cc2-c2ccc(Cl)s2)cc1
REMARK SMILES IDX 15 1 14 2 12 3 13 4 11 6 9 7 10 8 76 9 75 10 8 11 5 12 6 13
REMARK SMILES IDX 84 14 7 15 83 16 2 17 3 18 4 19 1 20 77 23 78 24 82 25 79 26
REMARK SMILES IDX 80 27 81 28 16 29 17 30 18 31 19 32 20 34 21 35 22 36 74 37
REMARK SMILES IDX 23 38 73 39 24 40 25 41 26 42 67 43 27 44 72 45 66 46 68 47
REMARK SMILES IDX 28 48 71 49 65 50 64 51 29 53 55 54 38 55 54 56 39 57 42 58
REMARK SMILES IDX 53 59 69 60 40 61 41 62 52 64 70 65 43 66 30 67 31 68 36 69
REMARK SMILES IDX 32 70 33 71 35 72 37 73 34 74 56 75 57 76 62 77 58 78 59 79
REMARK SMILES IDX 61 80 63 81 60 82 44 83 45 84 50 85 46 86 47 87 49 88 51 89
REMARK SMILES IDX 48 90
REMARK H PARENT 14 5 1 21 1 22 18 33 68 52 42 63
REMARK Flexibility Score: inf
ROOT
ATOM      1  C   UNL A   1      32.655  28.135  26.947  1.00  0.00     0.118 C 
ENDROOT
BRANCH   1   2
ATOM      2  N   UNL A   1      31.636  28.008  25.917  1.00  0.00    -0.351 N 
ATOM      3  C   UNL A   1      31.383  27.029  24.978  1.00  0.00     0.271 C 
ATOM      4  O   UNL A   1      30.376  27.195  24.286  1.00  0.00    -0.267 OA
ATOM      5  H   UNL A   1      31.007  28.764  25.884  1.00  0.00     0.163 HD
BRANCH   3   6
ATOM      6  C   UNL A   1      32.262  25.845  24.835  1.00  0.00     0.151 A 
ATOM      7  N   UNL A   1      32.793  23.759  24.674  1.00  0.00    -0.231 N 
ATOM      8  N   UNL A   1      31.742  24.615  24.631  1.00  0.00    -0.162 NA
ATOM      9  C   UNL A   1      33.994  24.426  24.784  1.00  0.00     0.085 A 
ATOM     10  C   UNL A   1      33.671  25.760  24.832  1.00  0.00     0.066 A 
BRANCH   7  11
ATOM     11  C   UNL A   1      32.599  22.365  24.537  1.00  0.00     0.065 A 
ATOM     12  C   UNL A   1      32.556  19.619  24.159  1.00  0.00     0.082 A 
ATOM     13  C   UNL A   1      32.785  20.133  25.439  1.00  0.00     0.024 A 
ATOM     14  C   UNL A   1      32.306  20.469  23.075  1.00  0.00     0.024 A 
ATOM     15  C   UNL A   1      32.822  21.513  25.626  1.00  0.00     0.030 A 
ATOM     16  C   UNL A   1      32.292  21.850  23.270  1.00  0.00     0.030 A 
BRANCH  12  17
ATOM     17  S   UNL A   1      32.641  17.874  23.894  1.00  0.00     0.238 S 
ATOM     18  O   UNL A   1      31.798  17.199  24.849  1.00  0.00    -0.207 OA
ATOM     19  O   UNL A   1      34.024  17.505  23.679  1.00  0.00    -0.207 OA
BRANCH  17  20
ATOM     20  N   UNL A   1      31.872  17.703  22.413  1.00  0.00    -0.225 NA
ATOM     21  H   UNL A   1      31.180  18.444  22.302  1.00  0.00     0.137 HD
ATOM     22  H   UNL A   1      31.408  16.796  22.373  1.00  0.00     0.137 HD
ENDBRANCH  17  20
ENDBRANCH  12  17
ENDBRANCH   7  11
BRANCH   9  23
ATOM     23  C   UNL A   1      35.319  23.897  24.712  1.00  0.00     0.054 A 
ATOM     24  C   UNL A   1      35.901  23.305  23.606  1.00  0.00     0.024 A 
ATOM     25  S   UNL A   1      36.318  23.768  26.098  1.00  0.00    -0.122 S 
ATOM     26  C   UNL A   1      37.165  22.720  23.912  1.00  0.00     0.033 A 
ATOM     27  C   UNL A   1      37.483  22.899  25.233  1.00  0.00     0.094 A 
ATOM     28  Cl  UNL A   1      38.883  22.318  26.038  1.00  0.00    -0.072 Cl
ENDBRANCH   9  23
ENDBRANCH   3   6
ENDBRANCH   1   2
BRANCH   1  29
ATOM     29  C   UNL A   1      33.705  29.203  26.606  1.00  0.00     0.042 C 
BRANCH  29  30
ATOM     30  C   UNL A   1      35.016  28.955  27.334  1.00  0.00     0.118 C 
BRANCH  30  31
ATOM     31  N   UNL A   1      35.206  29.887  28.454  1.00  0.00    -0.352 N 
ATOM     32  C   UNL A   1      36.254  29.986  29.348  1.00  0.00     0.251 C 
ATOM     33  H   UNL A   1      34.478  30.537  28.588  1.00  0.00     0.163 HD
ATOM     34  O   UNL A   1      36.122  30.588  30.407  1.00  0.00    -0.269 OA
BRANCH  32  35
ATOM     35  C   UNL A   1      37.539  29.362  29.003  1.00  0.00     0.039 A 
ATOM     36  C   UNL A   1      38.250  29.708  27.850  1.00  0.00     0.014 A 
ATOM     37  C   UNL A   1      38.049  28.436  29.904  1.00  0.00     0.014 A 
ATOM     38  C   UNL A   1      39.519  29.167  27.660  1.00  0.00     0.010 A 
ATOM     39  C   UNL A   1      39.365  28.094  29.836  1.00  0.00     0.010 A 
ATOM     40  C   UNL A   1      40.072  28.372  28.674  1.00  0.00    -0.014 A 
BRANCH  40  41
ATOM     41  C   UNL A   1      41.443  27.888  28.621  1.00  0.00     0.031 A 
ATOM     42  C   UNL A   1      41.589  26.626  27.852  1.00  0.00     0.074 A 
ATOM     43  C   UNL A   1      42.481  28.684  28.968  1.00  0.00     0.049 A 
ATOM     44  N   UNL A   1      41.866  25.448  28.303  1.00  0.00    -0.248 NA
ATOM     45  C   UNL A   1      41.199  26.636  26.428  1.00  0.00     0.031 C 
ATOM     46  C   UNL A   1      42.420  30.097  29.381  1.00  0.00     0.029 A 
ATOM     47  N   UNL A   1      43.823  28.457  28.896  1.00  0.00    -0.354 N 
ATOM     48  C   UNL A   1      41.959  24.636  27.173  1.00  0.00     0.074 A 
ATOM     49  C   UNL A   1      41.288  25.341  26.117  1.00  0.00     0.031 C 
ATOM     50  C   UNL A   1      43.643  30.657  29.281  1.00  0.00     0.029 A 
ATOM     51  C   UNL A   1      44.601  29.610  28.989  1.00  0.00     0.049 A 
ATOM     52  H   UNL A   1      44.208  27.558  28.789  1.00  0.00     0.167 HD
ATOM     53  C   UNL A   1      42.891  23.643  27.116  1.00  0.00     0.037 A 
ATOM     54  C   UNL A   1      45.943  29.697  28.824  1.00  0.00     0.037 A 
ATOM     55  C   UNL A   1      43.464  23.429  28.423  1.00  0.00     0.049 A 
ATOM     56  C   UNL A   1      46.493  28.334  28.985  1.00  0.00     0.074 A 
ATOM     57  C   UNL A   1      43.060  22.886  29.621  1.00  0.00     0.029 A 
ATOM     58  N   UNL A   1      44.546  24.231  28.675  1.00  0.00    -0.354 N 
ATOM     59  N   UNL A   1      46.467  27.678  30.112  1.00  0.00    -0.248 NA
ATOM     60  C   UNL A   1      46.735  27.525  27.797  1.00  0.00     0.031 C 
ATOM     61  C   UNL A   1      43.827  23.546  30.628  1.00  0.00     0.029 A 
ATOM     62  C   UNL A   1      44.715  24.431  30.017  1.00  0.00     0.049 A 
ATOM     63  H   UNL A   1      45.126  24.616  27.980  1.00  0.00     0.167 HD
ATOM     64  C   UNL A   1      46.255  26.365  29.739  1.00  0.00     0.074 A 
ATOM     65  C   UNL A   1      46.606  26.305  28.325  1.00  0.00     0.031 C 
ATOM     66  C   UNL A   1      45.499  25.537  30.518  1.00  0.00     0.037 A 
BRANCH  53  67
ATOM     67  C   UNL A   1      43.672  23.241  25.876  1.00  0.00     0.057 A 
ATOM     68  C   UNL A   1      43.723  21.876  25.528  1.00  0.00     0.134 A 
ATOM     69  C   UNL A   1      44.615  24.053  25.213  1.00  0.00     0.134 A 
ATOM     70  F   UNL A   1      42.887  20.991  26.092  1.00  0.00    -0.206 F 
ATOM     71  C   UNL A   1      44.686  21.354  24.654  1.00  0.00     0.040 A 
ATOM     72  C   UNL A   1      45.548  23.549  24.301  1.00  0.00     0.040 A 
ATOM     73  F   UNL A   1      44.764  25.355  25.475  1.00  0.00    -0.206 F 
ATOM     74  C   UNL A   1      45.609  22.190  24.043  1.00  0.00     0.006 A 
ENDBRANCH  53  67
BRANCH  54  75
ATOM     75  C   UNL A   1      46.753  30.822  28.311  1.00  0.00     0.057 A 
ATOM     76  C   UNL A   1      46.637  31.265  26.986  1.00  0.00     0.134 A 
ATOM     77  C   UNL A   1      47.453  31.668  29.189  1.00  0.00     0.134 A 
ATOM     78  F   UNL A   1      45.959  30.541  26.086  1.00  0.00    -0.206 F 
ATOM     79  C   UNL A   1      47.161  32.494  26.565  1.00  0.00     0.040 A 
ATOM     80  C   UNL A   1      47.982  32.897  28.781  1.00  0.00     0.040 A 
ATOM     81  F   UNL A   1      47.563  31.367  30.492  1.00  0.00    -0.206 F 
ATOM     82  C   UNL A   1      47.824  33.322  27.467  1.00  0.00     0.006 A 
ENDBRANCH  54  75
BRANCH  66  83
ATOM     83  C   UNL A   1      45.341  25.900  31.963  1.00  0.00     0.057 A 
ATOM     84  C   UNL A   1      46.317  25.704  32.950  1.00  0.00     0.134 A 
ATOM     85  C   UNL A   1      44.179  26.578  32.342  1.00  0.00     0.134 A 
ATOM     86  F   UNL A   1      47.492  25.130  32.661  1.00  0.00    -0.206 F 
ATOM     87  C   UNL A   1      46.125  26.138  34.265  1.00  0.00     0.040 A 
ATOM     88  C   UNL A   1      43.989  27.046  33.642  1.00  0.00     0.040 A 
ATOM     89  F   UNL A   1      43.223  26.836  31.436  1.00  0.00    -0.206 F 
ATOM     90  C   UNL A   1      44.960  26.819  34.612  1.00  0.00     0.006 A 
ENDBRANCH  66  83
ENDBRANCH  40  41
ENDBRANCH  32  35
ENDBRANCH  30  31
ENDBRANCH  29  30
ENDBRANCH   1  29
TORSDOF 14
ENDMDL
MODEL 2
REMARK VINA RESULT:     -12.4      3.622      7.685
REMARK SMILES NS(=O)(=O)c1ccc(-n2nc(C(=O)NCCCNC(=O)c3ccc(-c4c5nc(c(-c6c(F)cccc6F)c6ccc([nH]6)c(-c6c(F)cccc6F)c6nc(c(-c7c(F)cccc7F)c7ccc4[nH]7)C=C6)C=C5)cc3)cc2-c2ccc(Cl)s2)cc1
REMARK SMILES IDX 15 1 14 2 12 3 13 4 11 6 9 7 10 8 76 9 75 10 8 11 5 12 6 13
REMARK SMILES IDX 84 14 7 15 83 16 2 17 3 18 4 19 1 20 77 23 78 24 82 25 79 26
REMARK SMILES IDX 80 27 81 28 16 29 17 30 18 31 19 32 20 34 21 35 22 36 74 37
REMARK SMILES IDX 23 38 73 39 24 40 25 41 26 42 67 43 27 44 72 45 66 46 68 47
REMARK SMILES IDX 28 48 71 49 65 50 64 51 29 53 55 54 38 55 54 56 39 57 42 58
REMARK SMILES IDX 53 59 69 60 40 61 41 62 52 64 70 65 43 66 30 67 31 68 36 69
REMARK SMILES IDX 32 70 33 71 35 72 37 73 34 74 56 75 57 76 62 77 58 78 59 79
REMARK SMILES IDX 61 80 63 81 60 82 44 83 45 84 50 85 46 86 47 87 49 88 51 89
REMARK SMILES IDX 48 90
REMARK H PARENT 14 5 1 21 1 22 18 33 68 52 42 63
REMARK Flexibility Score: inf
ROOT
ATOM      1  C   UNL A   1      35.862  23.082  23.998  1.00  0.00     0.118 C 
ENDROOT
BRANCH   1   2
ATOM      2  N   UNL A   1      34.672  22.251  23.911  1.00  0.00    -0.351 N 
ATOM      3  C   UNL A   1      33.328  22.539  24.038  1.00  0.00     0.271 C 
ATOM      4  O   UNL A   1      32.555  21.601  23.833  1.00  0.00    -0.267 OA
ATOM      5  H   UNL A   1      34.861  21.303  23.727  1.00  0.00     0.163 HD
BRANCH   3   6
ATOM      6  C   UNL A   1      32.855  23.901  24.378  1.00  0.00     0.151 A 
ATOM      7  N   UNL A   1      31.811  25.774  24.127  1.00  0.00    -0.231 N 
ATOM      8  N   UNL A   1      31.918  24.519  23.625  1.00  0.00    -0.162 NA
ATOM      9  C   UNL A   1      32.576  25.940  25.262  1.00  0.00     0.085 A 
ATOM     10  C   UNL A   1      33.203  24.735  25.462  1.00  0.00     0.066 A 
BRANCH   7  11
ATOM     11  C   UNL A   1      30.936  26.717  23.541  1.00  0.00     0.065 A 
ATOM     12  C   UNL A   1      29.245  28.745  22.696  1.00  0.00     0.082 A 
ATOM     13  C   UNL A   1      30.597  28.785  22.340  1.00  0.00     0.024 A 
ATOM     14  C   UNL A   1      28.726  27.677  23.436  1.00  0.00     0.024 A 
ATOM     15  C   UNL A   1      31.450  27.774  22.777  1.00  0.00     0.030 A 
ATOM     16  C   UNL A   1      29.568  26.637  23.832  1.00  0.00     0.030 A 
BRANCH  12  17
ATOM     17  S   UNL A   1      28.190  30.093  22.257  1.00  0.00     0.238 S 
ATOM     18  O   UNL A   1      27.051  30.122  23.141  1.00  0.00    -0.207 OA
ATOM     19  O   UNL A   1      28.058  30.127  20.816  1.00  0.00    -0.207 OA
BRANCH  17  20
ATOM     20  N   UNL A   1      29.121  31.423  22.677  1.00  0.00    -0.225 NA
ATOM     21  H   UNL A   1      28.559  32.071  23.229  1.00  0.00     0.137 HD
ATOM     22  H   UNL A   1      29.448  31.891  21.832  1.00  0.00     0.137 HD
ENDBRANCH  17  20
ENDBRANCH  12  17
ENDBRANCH   7  11
BRANCH   9  23
ATOM     23  C   UNL A   1      32.618  27.055  26.155  1.00  0.00     0.054 A 
ATOM     24  C   UNL A   1      31.609  27.450  27.013  1.00  0.00     0.024 A 
ATOM     25  S   UNL A   1      33.909  28.181  26.134  1.00  0.00    -0.122 S 
ATOM     26  C   UNL A   1      31.891  28.702  27.635  1.00  0.00     0.033 A 
ATOM     27  C   UNL A   1      33.103  29.193  27.223  1.00  0.00     0.094 A 
ATOM     28  Cl  UNL A   1      33.811  30.688  27.681  1.00  0.00    -0.072 Cl
ENDBRANCH   9  23
ENDBRANCH   3   6
ENDBRANCH   1   2
BRANCH   1  29
ATOM     29  C   UNL A   1      37.096  22.295  24.464  1.00  0.00     0.042 C 
BRANCH  29  30
ATOM     30  C   UNL A   1      37.751  22.943  25.672  1.00  0.00     0.118 C 
BRANCH  30  31
ATOM     31  N   UNL A   1      38.695  22.034  26.337  1.00  0.00    -0.352 N 
ATOM     32  C   UNL A   1      39.916  22.307  26.922  1.00  0.00     0.251 C 
ATOM     33  H   UNL A   1      38.416  21.090  26.371  1.00  0.00     0.163 HD
ATOM     34  O   UNL A   1      40.721  21.410  27.142  1.00  0.00    -0.269 OA
BRANCH  32  35
ATOM     35  C   UNL A   1      40.233  23.696  27.283  1.00  0.00     0.039 A 
ATOM     36  C   UNL A   1      39.411  24.766  26.918  1.00  0.00     0.014 A 
ATOM     37  C   UNL A   1      41.371  23.901  28.052  1.00  0.00     0.014 A 
ATOM     38  C   UNL A   1      39.710  26.035  27.407  1.00  0.00     0.010 A 
ATOM     39  C   UNL A   1      41.527  25.082  28.710  1.00  0.00     0.010 A 
ATOM     40  C   UNL A   1      40.765  26.174  28.319  1.00  0.00    -0.014 A 
BRANCH  40  41
ATOM     41  C   UNL A   1      41.053  27.434  28.989  1.00  0.00     0.031 A 
ATOM     42  C   UNL A   1      42.287  28.093  28.491  1.00  0.00     0.074 A 
ATOM     43  C   UNL A   1      40.117  28.057  29.742  1.00  0.00     0.049 A 
ATOM     44  N   UNL A   1      43.411  28.244  29.108  1.00  0.00    -0.248 NA
ATOM     45  C   UNL A   1      42.342  28.470  27.065  1.00  0.00     0.031 C 
ATOM     46  C   UNL A   1      38.724  27.632  29.962  1.00  0.00     0.029 A 
ATOM     47  N   UNL A   1      40.154  29.271  30.361  1.00  0.00    -0.354 N 
ATOM     48  C   UNL A   1      44.210  28.985  28.237  1.00  0.00     0.074 A 
ATOM     49  C   UNL A   1      43.614  28.854  26.938  1.00  0.00     0.031 C 
ATOM     50  C   UNL A   1      37.998  28.665  30.438  1.00  0.00     0.029 A 
ATOM     51  C   UNL A   1      38.902  29.756  30.738  1.00  0.00     0.049 A 
ATOM     52  H   UNL A   1      40.991  29.761  30.527  1.00  0.00     0.167 HD
ATOM     53  C   UNL A   1      45.063  29.929  28.724  1.00  0.00     0.037 A 
ATOM     54  C   UNL A   1      38.630  30.979  31.252  1.00  0.00     0.037 A 
ATOM     55  C   UNL A   1      45.185  29.793  30.155  1.00  0.00     0.049 A 
ATOM     56  C   UNL A   1      39.900  31.532  31.767  1.00  0.00     0.074 A 
ATOM     57  C   UNL A   1      45.771  28.912  31.034  1.00  0.00     0.029 A 
ATOM     58  N   UNL A   1      44.238  30.500  30.848  1.00  0.00    -0.354 N 
ATOM     59  N   UNL A   1      40.546  31.024  32.780  1.00  0.00    -0.248 NA
ATOM     60  C   UNL A   1      40.676  32.429  30.919  1.00  0.00     0.031 C 
ATOM     61  C   UNL A   1      45.004  28.987  32.235  1.00  0.00     0.029 A 
ATOM     62  C   UNL A   1      44.008  29.951  32.078  1.00  0.00     0.049 A 
ATOM     63  H   UNL A   1      43.781  31.301  30.503  1.00  0.00     0.167 HD
ATOM     64  C   UNL A   1      41.879  31.183  32.452  1.00  0.00     0.074 A 
ATOM     65  C   UNL A   1      41.898  32.198  31.405  1.00  0.00     0.031 C 
ATOM     66  C   UNL A   1      42.799  30.242  32.815  1.00  0.00     0.037 A 
BRANCH  53  67
ATOM     67  C   UNL A   1      45.360  31.267  28.067  1.00  0.00     0.057 A 
ATOM     68  C   UNL A   1      44.282  32.131  27.786  1.00  0.00     0.134 A 
ATOM     69  C   UNL A   1      46.567  31.603  27.420  1.00  0.00     0.134 A 
ATOM     70  F   UNL A   1      43.072  31.921  28.328  1.00  0.00    -0.206 F 
ATOM     71  C   UNL A   1      44.380  33.191  26.874  1.00  0.00     0.040 A 
ATOM     72  C   UNL A   1      46.688  32.689  26.546  1.00  0.00     0.040 A 
ATOM     73  F   UNL A   1      47.670  30.854  27.507  1.00  0.00    -0.206 F 
ATOM     74  C   UNL A   1      45.585  33.468  26.243  1.00  0.00     0.006 A 
ENDBRANCH  53  67
BRANCH  54  75
ATOM     75  C   UNL A   1      37.406  31.798  31.123  1.00  0.00     0.057 A 
ATOM     76  C   UNL A   1      37.050  32.399  29.908  1.00  0.00     0.134 A 
ATOM     77  C   UNL A   1      36.412  31.775  32.117  1.00  0.00     0.134 A 
ATOM     78  F   UNL A   1      37.921  32.439  28.890  1.00  0.00    -0.206 F 
ATOM     79  C   UNL A   1      35.769  32.920  29.682  1.00  0.00     0.040 A 
ATOM     80  C   UNL A   1      35.130  32.292  31.906  1.00  0.00     0.040 A 
ATOM     81  F   UNL A   1      36.630  31.165  33.292  1.00  0.00    -0.206 F 
ATOM     82  C   UNL A   1      34.799  32.855  30.678  1.00  0.00     0.006 A 
ENDBRANCH  54  75
BRANCH  66  83
ATOM     83  C   UNL A   1      42.451  29.342  33.961  1.00  0.00     0.057 A 
ATOM     84  C   UNL A   1      41.896  28.061  33.834  1.00  0.00     0.134 A 
ATOM     85  C   UNL A   1      42.798  29.761  35.248  1.00  0.00     0.134 A 
ATOM     86  F   UNL A   1      41.601  27.547  32.633  1.00  0.00    -0.206 F 
ATOM     87  C   UNL A   1      41.668  27.248  34.949  1.00  0.00     0.040 A 
ATOM     88  C   UNL A   1      42.607  28.948  36.366  1.00  0.00     0.040 A 
ATOM     89  F   UNL A   1      43.372  30.959  35.436  1.00  0.00    -0.206 F 
ATOM     90  C   UNL A   1      42.031  27.689  36.219  1.00  0.00     0.006 A 
ENDBRANCH  66  83
ENDBRANCH  40  41
ENDBRANCH  32  35
ENDBRANCH  30  31
ENDBRANCH  29  30
ENDBRANCH   1  29
TORSDOF 14
ENDMDL
MODEL 3
REMARK VINA RESULT:     -12.3      1.895      5.927
REMARK SMILES NS(=O)(=O)c1ccc(-n2nc(C(=O)NCCCNC(=O)c3ccc(-c4c5nc(c(-c6c(F)cccc6F)c6ccc([nH]6)c(-c6c(F)cccc6F)c6nc(c(-c7c(F)cccc7F)c7ccc4[nH]7)C=C6)C=C5)cc3)cc2-c2ccc(Cl)s2)cc1
REMARK SMILES IDX 15 1 14 2 12 3 13 4 11 6 9 7 10 8 76 9 75 10 8 11 5 12 6 13
REMARK SMILES IDX 84 14 7 15 83 16 2 17 3 18 4 19 1 20 77 23 78 24 82 25 79 26
REMARK SMILES IDX 80 27 81 28 16 29 17 30 18 31 19 32 20 34 21 35 22 36 74 37
REMARK SMILES IDX 23 38 73 39 24 40 25 41 26 42 67 43 27 44 72 45 66 46 68 47
REMARK SMILES IDX 28 48 71 49 65 50 64 51 29 53 55 54 38 55 54 56 39 57 42 58
REMARK SMILES IDX 53 59 69 60 40 61 41 62 52 64 70 65 43 66 30 67 31 68 36 69
REMARK SMILES IDX 32 70 33 71 35 72 37 73 34 74 56 75 57 76 62 77 58 78 59 79
REMARK SMILES IDX 61 80 63 81 60 82 44 83 45 84 50 85 46 86 47 87 49 88 51 89
REMARK SMILES IDX 48 90
REMARK H PARENT 14 5 1 21 1 22 18 33 68 52 42 63
REMARK Flexibility Score: inf
ROOT
ATOM      1  C   UNL A   1      31.815  27.664  26.793  1.00  0.00     0.118 C 
ENDROOT
BRANCH   1   2
ATOM      2  N   UNL A   1      31.424  27.877  25.409  1.00  0.00    -0.351 N 
ATOM      3  C   UNL A   1      31.659  27.155  24.257  1.00  0.00     0.271 C 
ATOM      4  O   UNL A   1      31.115  27.579  23.235  1.00  0.00    -0.267 OA
ATOM      5  H   UNL A   1      30.890  28.692  25.267  1.00  0.00     0.163 HD
BRANCH   3   6
ATOM      6  C   UNL A   1      32.496  25.933  24.265  1.00  0.00     0.151 A 
ATOM      7  N   UNL A   1      32.951  23.823  24.283  1.00  0.00    -0.231 N 
ATOM      8  N   UNL A   1      31.944  24.711  24.099  1.00  0.00    -0.162 NA
ATOM      9  C   UNL A   1      34.166  24.452  24.450  1.00  0.00     0.085 A 
ATOM     10  C   UNL A   1      33.896  25.797  24.385  1.00  0.00     0.066 A 
BRANCH   7  11
ATOM     11  C   UNL A   1      32.711  22.431  24.221  1.00  0.00     0.065 A 
ATOM     12  C   UNL A   1      32.575  19.672  23.982  1.00  0.00     0.082 A 
ATOM     13  C   UNL A   1      32.854  20.241  25.229  1.00  0.00     0.024 A 
ATOM     14  C   UNL A   1      32.322  20.475  22.864  1.00  0.00     0.024 A 
ATOM     15  C   UNL A   1      32.938  21.627  25.346  1.00  0.00     0.030 A 
ATOM     16  C   UNL A   1      32.356  21.864  22.990  1.00  0.00     0.030 A 
BRANCH  12  17
ATOM     17  S   UNL A   1      32.600  17.914  23.803  1.00  0.00     0.238 S 
ATOM     18  O   UNL A   1      31.730  17.317  24.786  1.00  0.00    -0.207 OA
ATOM     19  O   UNL A   1      33.969  17.487  23.612  1.00  0.00    -0.207 OA
BRANCH  17  20
ATOM     20  N   UNL A   1      31.829  17.699  22.328  1.00  0.00    -0.225 NA
ATOM     21  H   UNL A   1      31.576  16.717  22.217  1.00  0.00     0.137 HD
ATOM     22  H   UNL A   1      32.455  17.976  21.573  1.00  0.00     0.137 HD
ENDBRANCH  17  20
ENDBRANCH  12  17
ENDBRANCH   7  11
BRANCH   9  23
ATOM     23  C   UNL A   1      35.471  23.872  24.523  1.00  0.00     0.054 A 
ATOM     24  C   UNL A   1      36.096  23.146  23.526  1.00  0.00     0.024 A 
ATOM     25  S   UNL A   1      36.373  23.855  25.979  1.00  0.00    -0.122 S 
ATOM     26  C   UNL A   1      37.312  22.552  23.976  1.00  0.00     0.033 A 
ATOM     27  C   UNL A   1      37.552  22.859  25.290  1.00  0.00     0.094 A 
ATOM     28  Cl  UNL A   1      38.873  22.317  26.243  1.00  0.00    -0.072 Cl
ENDBRANCH   9  23
ENDBRANCH   3   6
ENDBRANCH   1   2
BRANCH   1  29
ATOM     29  C   UNL A   1      32.354  28.942  27.455  1.00  0.00     0.042 C 
BRANCH  29  30
ATOM     30  C   UNL A   1      33.776  29.245  27.015  1.00  0.00     0.118 C 
BRANCH  30  31
ATOM     31  N   UNL A   1      34.029  30.691  26.935  1.00  0.00    -0.352 N 
ATOM     32  C   UNL A   1      35.005  31.448  27.553  1.00  0.00     0.251 C 
ATOM     33  H   UNL A   1      33.411  31.194  26.356  1.00  0.00     0.163 HD
ATOM     34  O   UNL A   1      34.890  32.665  27.645  1.00  0.00    -0.269 OA
BRANCH  32  35
ATOM     35  C   UNL A   1      36.191  30.770  28.094  1.00  0.00     0.039 A 
ATOM     36  C   UNL A   1      36.414  29.402  27.911  1.00  0.00     0.014 A 
ATOM     37  C   UNL A   1      37.116  31.561  28.762  1.00  0.00     0.014 A 
ATOM     38  C   UNL A   1      37.623  28.859  28.342  1.00  0.00     0.010 A 
ATOM     39  C   UNL A   1      38.375  31.084  28.970  1.00  0.00     0.010 A 
ATOM     40  C   UNL A   1      38.603  29.719  28.855  1.00  0.00    -0.014 A 
BRANCH  40  41
ATOM     41  C   UNL A   1      39.942  29.259  29.192  1.00  0.00     0.031 A 
ATOM     42  C   UNL A   1      40.199  29.228  30.654  1.00  0.00     0.074 A 
ATOM     43  C   UNL A   1      40.720  28.637  28.276  1.00  0.00     0.049 A 
ATOM     44  N   UNL A   1      40.982  29.993  31.339  1.00  0.00    -0.248 NA
ATOM     45  C   UNL A   1      39.344  28.361  31.488  1.00  0.00     0.031 C 
ATOM     46  C   UNL A   1      40.361  28.293  26.889  1.00  0.00     0.029 A 
ATOM     47  N   UNL A   1      41.943  28.053  28.416  1.00  0.00    -0.354 N 
ATOM     48  C   UNL A   1      40.919  29.506  32.645  1.00  0.00     0.074 A 
ATOM     49  C   UNL A   1      39.727  28.710  32.718  1.00  0.00     0.031 C 
ATOM     50  C   UNL A   1      41.217  27.366  26.410  1.00  0.00     0.029 A 
ATOM     51  C   UNL A   1      42.288  27.197  27.371  1.00  0.00     0.049 A 
ATOM     52  H   UNL A   1      42.532  28.222  29.186  1.00  0.00     0.167 HD
ATOM     53  C   UNL A   1      42.034  29.496  33.427  1.00  0.00     0.037 A 
ATOM     54  C   UNL A   1      43.377  26.394  27.308  1.00  0.00     0.037 A 
ATOM     55  C   UNL A   1      43.074  30.287  32.816  1.00  0.00     0.049 A 
ATOM     56  C   UNL A   1      44.355  26.903  28.292  1.00  0.00     0.074 A 
ATOM     57  C   UNL A   1      43.324  31.623  32.598  1.00  0.00     0.029 A 
ATOM     58  N   UNL A   1      43.855  29.572  31.946  1.00  0.00    -0.354 N 
ATOM     59  N   UNL A   1      44.947  28.060  28.183  1.00  0.00    -0.248 NA
ATOM     60  C   UNL A   1      44.401  26.301  29.619  1.00  0.00     0.031 C 
ATOM     61  C   UNL A   1      44.145  31.682  31.432  1.00  0.00     0.029 A 
ATOM     62  C   UNL A   1      44.421  30.384  31.003  1.00  0.00     0.049 A 
ATOM     63  H   UNL A   1      43.991  28.599  31.994  1.00  0.00     0.167 HD
ATOM     64  C   UNL A   1      45.050  28.517  29.484  1.00  0.00     0.074 A 
ATOM     65  C   UNL A   1      44.869  27.337  30.321  1.00  0.00     0.031 C 
ATOM     66  C   UNL A   1      44.932  29.848  29.761  1.00  0.00     0.037 A 
BRANCH  53  67
ATOM     67  C   UNL A   1      42.404  28.403  34.417  1.00  0.00     0.057 A 
ATOM     68  C   UNL A   1      42.667  27.110  33.921  1.00  0.00     0.134 A 
ATOM     69  C   UNL A   1      42.202  28.468  35.811  1.00  0.00     0.134 A 
ATOM     70  F   UNL A   1      42.869  26.904  32.610  1.00  0.00    -0.206 F 
ATOM     71  C   UNL A   1      42.651  25.970  34.736  1.00  0.00     0.040 A 
ATOM     72  C   UNL A   1      42.232  27.342  36.640  1.00  0.00     0.040 A 
ATOM     73  F   UNL A   1      41.864  29.596  36.443  1.00  0.00    -0.206 F 
ATOM     74  C   UNL A   1      42.424  26.082  36.100  1.00  0.00     0.006 A 
ENDBRANCH  53  67
BRANCH  54  75
ATOM     75  C   UNL A   1      43.543  25.090  26.631  1.00  0.00     0.057 A 
ATOM     76  C   UNL A   1      42.787  23.969  27.004  1.00  0.00     0.134 A 
ATOM     77  C   UNL A   1      44.242  24.989  25.416  1.00  0.00     0.134 A 
ATOM     78  F   UNL A   1      42.061  23.985  28.130  1.00  0.00    -0.206 F 
ATOM     79  C   UNL A   1      42.708  22.825  26.200  1.00  0.00     0.040 A 
ATOM     80  C   UNL A   1      44.173  23.853  24.604  1.00  0.00     0.040 A 
ATOM     81  F   UNL A   1      44.941  26.030  24.938  1.00  0.00    -0.206 F 
ATOM     82  C   UNL A   1      43.391  22.769  24.988  1.00  0.00     0.006 A 
ENDBRANCH  54  75
BRANCH  66  83
ATOM     83  C   UNL A   1      45.195  30.813  28.646  1.00  0.00     0.057 A 
ATOM     84  C   UNL A   1      46.467  31.173  28.180  1.00  0.00     0.134 A 
ATOM     85  C   UNL A   1      44.095  31.317  27.947  1.00  0.00     0.134 A 
ATOM     86  F   UNL A   1      47.578  30.680  28.742  1.00  0.00    -0.206 F 
ATOM     87  C   UNL A   1      46.632  32.025  27.084  1.00  0.00     0.040 A 
ATOM     88  C   UNL A   1      44.244  32.141  26.831  1.00  0.00     0.040 A 
ATOM     89  F   UNL A   1      42.849  30.979  28.314  1.00  0.00    -0.206 F 
ATOM     90  C   UNL A   1      45.517  32.505  26.401  1.00  0.00     0.006 A 
ENDBRANCH  66  83
ENDBRANCH  40  41
ENDBRANCH  32  35
ENDBRANCH  30  31
ENDBRANCH  29  30
ENDBRANCH   1  29
TORSDOF 14
ENDMDL
