MODEL 1
REMARK VINA RESULT:     -10.1      0.000      0.000
REMARK SMILES CCCCCC[C@@H](C(=O)NCCCNC(=O)c1ccc(-c2c3nc(c(-c4c(F)cccc4F)c4ccc([nH]4)c(-c4c(F)cccc4F)c4nc(c(-c5c(F)cccc5F)c5ccc2[nH]5)C=C4)C=C3)cc1)c1ccccc1C
REMARK SMILES IDX 8 1 9 2 10 3 7 5 6 6 5 7 4 8 3 9 2 10 1 11 71 12 72 13 76 14
REMARK SMILES IDX 73 15 75 16 77 17 74 18 11 19 12 20 13 21 14 22 15 23 16 25
REMARK SMILES IDX 17 26 18 27 70 28 19 29 69 30 20 31 21 32 22 33 63 34 23 35
REMARK SMILES IDX 68 36 62 37 64 38 24 39 67 40 61 41 60 42 25 44 51 45 34 46
REMARK SMILES IDX 50 47 35 48 38 49 49 50 65 51 36 52 37 53 48 55 66 56 39 57
REMARK SMILES IDX 26 58 27 59 32 60 28 61 29 62 31 63 33 64 30 65 52 66 53 67
REMARK SMILES IDX 58 68 54 69 55 70 57 71 59 72 56 73 40 74 41 75 46 76 42 77
REMARK SMILES IDX 43 78 45 79 47 80 44 81
REMARK H PARENT 10 4 14 24 64 43 38 54
REMARK Flexibility Score: inf
ROOT
ATOM      1  C   UNL A   1      35.642  22.692  25.691  1.00  0.00     0.227 C 
ATOM      2  O   UNL A   1      36.203  23.611  26.297  1.00  0.00    -0.274 OA
ATOM      3  N   UNL A   1      36.280  21.482  25.738  1.00  0.00    -0.356 N 
ATOM      4  H   UNL A   1      37.000  21.436  26.408  1.00  0.00     0.163 HD
ENDROOT
BRANCH   1   5
ATOM      5  C   UNL A   1      34.276  22.888  24.975  1.00  0.00     0.109 C 
BRANCH   5   6
ATOM      6  C   UNL A   1      34.383  22.814  23.438  1.00  0.00     0.018 C 
BRANCH   6   7
ATOM      7  C   UNL A   1      33.140  23.001  22.578  1.00  0.00     0.001 C 
BRANCH   7   8
ATOM      8  C   UNL A   1      33.050  24.308  21.794  1.00  0.00     0.000 C 
BRANCH   8   9
ATOM      9  C   UNL A   1      31.914  25.230  22.239  1.00  0.00    -0.000 C 
BRANCH   9  10
ATOM     10  C   UNL A   1      30.853  24.585  23.138  1.00  0.00    -0.003 C 
ATOM     11  C   UNL A   1      29.935  25.580  23.832  1.00  0.00     0.004 C 
ENDBRANCH   9  10
ENDBRANCH   8   9
ENDBRANCH   7   8
ENDBRANCH   6   7
ENDBRANCH   5   6
BRANCH   5  12
ATOM     12  C   UNL A   1      33.598  24.196  25.492  1.00  0.00    -0.033 A 
ATOM     13  C   UNL A   1      34.214  25.401  25.067  1.00  0.00     0.005 A 
ATOM     14  C   UNL A   1      32.435  24.314  26.302  1.00  0.00    -0.047 A 
ATOM     15  C   UNL A   1      33.738  26.659  25.450  1.00  0.00     0.000 A 
ATOM     16  C   UNL A   1      32.003  25.596  26.713  1.00  0.00     0.004 A 
ATOM     17  C   UNL A   1      31.580  23.178  26.802  1.00  0.00     0.044 C 
ATOM     18  C   UNL A   1      32.641  26.756  26.289  1.00  0.00     0.000 A 
ENDBRANCH   5  12
ENDBRANCH   1   5
BRANCH   3  19
ATOM     19  C   UNL A   1      36.096  20.251  24.986  1.00  0.00     0.117 C 
BRANCH  19  20
ATOM     20  C   UNL A   1      37.408  19.462  24.913  1.00  0.00     0.042 C 
BRANCH  20  21
ATOM     21  C   UNL A   1      38.633  20.183  25.450  1.00  0.00     0.118 C 
BRANCH  21  22
ATOM     22  N   UNL A   1      39.768  19.296  25.636  1.00  0.00    -0.352 N 
ATOM     23  C   UNL A   1      41.058  19.556  26.039  1.00  0.00     0.251 C 
ATOM     24  H   UNL A   1      39.584  18.348  25.440  1.00  0.00     0.163 HD
ATOM     25  O   UNL A   1      41.897  18.665  25.944  1.00  0.00    -0.269 OA
BRANCH  23  26
ATOM     26  C   UNL A   1      41.470  20.887  26.563  1.00  0.00     0.039 A 
ATOM     27  C   UNL A   1      41.382  21.120  27.941  1.00  0.00     0.014 A 
ATOM     28  C   UNL A   1      41.880  21.926  25.725  1.00  0.00     0.014 A 
ATOM     29  C   UNL A   1      41.749  22.362  28.473  1.00  0.00     0.010 A 
ATOM     30  C   UNL A   1      42.346  23.125  26.265  1.00  0.00     0.010 A 
ATOM     31  C   UNL A   1      42.266  23.368  27.643  1.00  0.00    -0.014 A 
BRANCH  31  32
ATOM     32  C   UNL A   1      42.679  24.692  28.185  1.00  0.00     0.031 A 
ATOM     33  C   UNL A   1      41.650  25.770  28.414  1.00  0.00     0.074 A 
ATOM     34  C   UNL A   1      43.981  24.950  28.419  1.00  0.00     0.049 A 
ATOM     35  N   UNL A   1      41.819  27.010  28.799  1.00  0.00    -0.248 NA
ATOM     36  C   UNL A   1      40.247  25.416  28.144  1.00  0.00     0.031 C 
ATOM     37  C   UNL A   1      45.085  24.014  28.199  1.00  0.00     0.029 A 
ATOM     38  N   UNL A   1      44.598  26.085  28.888  1.00  0.00    -0.354 N 
ATOM     39  C   UNL A   1      40.553  27.585  28.794  1.00  0.00     0.074 A 
ATOM     40  C   UNL A   1      39.634  26.578  28.314  1.00  0.00     0.031 C 
ATOM     41  C   UNL A   1      46.239  24.601  28.556  1.00  0.00     0.029 A 
ATOM     42  C   UNL A   1      45.965  25.967  28.991  1.00  0.00     0.049 A 
ATOM     43  H   UNL A   1      44.109  26.904  29.126  1.00  0.00     0.167 HD
ATOM     44  C   UNL A   1      40.182  28.830  29.179  1.00  0.00     0.037 A 
ATOM     45  C   UNL A   1      46.891  26.860  29.387  1.00  0.00     0.037 A 
ATOM     46  C   UNL A   1      41.090  29.820  29.695  1.00  0.00     0.049 A 
ATOM     47  C   UNL A   1      46.454  28.235  29.815  1.00  0.00     0.074 A 
ATOM     48  C   UNL A   1      40.803  31.088  30.171  1.00  0.00     0.029 A 
ATOM     49  N   UNL A   1      42.461  29.651  29.806  1.00  0.00    -0.354 N 
ATOM     50  N   UNL A   1      45.246  28.740  29.863  1.00  0.00    -0.248 NA
ATOM     51  C   UNL A   1      47.510  29.160  30.252  1.00  0.00     0.031 C 
ATOM     52  C   UNL A   1      42.005  31.702  30.534  1.00  0.00     0.029 A 
ATOM     53  C   UNL A   1      43.037  30.799  30.327  1.00  0.00     0.049 A 
ATOM     54  H   UNL A   1      42.953  28.838  29.553  1.00  0.00     0.167 HD
ATOM     55  C   UNL A   1      45.393  30.030  30.359  1.00  0.00     0.074 A 
ATOM     56  C   UNL A   1      46.805  30.222  30.613  1.00  0.00     0.031 C 
ATOM     57  C   UNL A   1      44.443  30.970  30.586  1.00  0.00     0.037 A 
BRANCH  44  58
ATOM     58  C   UNL A   1      38.727  29.187  29.067  1.00  0.00     0.057 A 
ATOM     59  C   UNL A   1      37.866  29.132  30.170  1.00  0.00     0.134 A 
ATOM     60  C   UNL A   1      38.189  29.625  27.850  1.00  0.00     0.134 A 
ATOM     61  F   UNL A   1      38.314  28.710  31.363  1.00  0.00    -0.206 F 
ATOM     62  C   UNL A   1      36.516  29.472  30.062  1.00  0.00     0.040 A 
ATOM     63  C   UNL A   1      36.847  29.995  27.736  1.00  0.00     0.040 A 
ATOM     64  F   UNL A   1      38.959  29.710  26.755  1.00  0.00    -0.206 F 
ATOM     65  C   UNL A   1      36.005  29.913  28.843  1.00  0.00     0.006 A 
ENDBRANCH  44  58
BRANCH  45  66
ATOM     66  C   UNL A   1      48.327  26.481  29.421  1.00  0.00     0.057 A 
ATOM     67  C   UNL A   1      48.878  25.839  30.537  1.00  0.00     0.134 A 
ATOM     68  C   UNL A   1      49.186  26.763  28.352  1.00  0.00     0.134 A 
ATOM     69  F   UNL A   1      48.111  25.559  31.600  1.00  0.00    -0.206 F 
ATOM     70  C   UNL A   1      50.234  25.510  30.598  1.00  0.00     0.040 A 
ATOM     71  C   UNL A   1      50.538  26.418  28.388  1.00  0.00     0.040 A 
ATOM     72  F   UNL A   1      48.720  27.370  27.251  1.00  0.00    -0.206 F 
ATOM     73  C   UNL A   1      51.068  25.797  29.518  1.00  0.00     0.006 A 
ENDBRANCH  45  66
BRANCH  57  74
ATOM     74  C   UNL A   1      44.893  32.276  31.170  1.00  0.00     0.057 A 
ATOM     75  C   UNL A   1      44.989  32.473  32.554  1.00  0.00     0.134 A 
ATOM     76  C   UNL A   1      45.275  33.335  30.337  1.00  0.00     0.134 A 
ATOM     77  F   UNL A   1      44.626  31.503  33.406  1.00  0.00    -0.206 F 
ATOM     78  C   UNL A   1      45.427  33.686  33.087  1.00  0.00     0.040 A 
ATOM     79  C   UNL A   1      45.741  34.542  30.859  1.00  0.00     0.040 A 
ATOM     80  F   UNL A   1      45.217  33.208  29.002  1.00  0.00    -0.206 F 
ATOM     81  C   UNL A   1      45.812  34.722  32.238  1.00  0.00     0.006 A 
ENDBRANCH  57  74
ENDBRANCH  31  32
ENDBRANCH  23  26
ENDBRANCH  21  22
ENDBRANCH  20  21
ENDBRANCH  19  20
ENDBRANCH   3  19
TORSDOF 16
ENDMDL
MODEL 2
REMARK VINA RESULT:     -10.0      2.492      7.257
REMARK SMILES CCCCCC[C@@H](C(=O)NCCCNC(=O)c1ccc(-c2c3nc(c(-c4c(F)cccc4F)c4ccc([nH]4)c(-c4c(F)cccc4F)c4nc(c(-c5c(F)cccc5F)c5ccc2[nH]5)C=C4)C=C3)cc1)c1ccccc1C
REMARK SMILES IDX 8 1 9 2 10 3 7 5 6 6 5 7 4 8 3 9 2 10 1 11 71 12 72 13 76 14
REMARK SMILES IDX 73 15 75 16 77 17 74 18 11 19 12 20 13 21 14 22 15 23 16 25
REMARK SMILES IDX 17 26 18 27 70 28 19 29 69 30 20 31 21 32 22 33 63 34 23 35
REMARK SMILES IDX 68 36 62 37 64 38 24 39 67 40 61 41 60 42 25 44 51 45 34 46
REMARK SMILES IDX 50 47 35 48 38 49 49 50 65 51 36 52 37 53 48 55 66 56 39 57
REMARK SMILES IDX 26 58 27 59 32 60 28 61 29 62 31 63 33 64 30 65 52 66 53 67
REMARK SMILES IDX 58 68 54 69 55 70 57 71 59 72 56 73 40 74 41 75 46 76 42 77
REMARK SMILES IDX 43 78 45 79 47 80 44 81
REMARK H PARENT 10 4 14 24 64 43 38 54
REMARK Flexibility Score: inf
ROOT
ATOM      1  C   UNL A   1      33.715  23.980  25.432  1.00  0.00     0.227 C 
ATOM      2  O   UNL A   1      33.582  23.875  26.655  1.00  0.00    -0.274 OA
ATOM      3  N   UNL A   1      34.390  22.955  24.825  1.00  0.00    -0.356 N 
ATOM      4  H   UNL A   1      34.515  22.165  25.398  1.00  0.00     0.163 HD
ENDROOT
BRANCH   1   5
ATOM      5  C   UNL A   1      33.104  25.165  24.633  1.00  0.00     0.109 C 
BRANCH   5   6
ATOM      6  C   UNL A   1      33.986  25.614  23.449  1.00  0.00     0.018 C 
BRANCH   6   7
ATOM      7  C   UNL A   1      33.401  26.505  22.361  1.00  0.00     0.001 C 
BRANCH   7   8
ATOM      8  C   UNL A   1      33.900  27.948  22.327  1.00  0.00     0.000 C 
BRANCH   8   9
ATOM      9  C   UNL A   1      32.988  28.943  23.046  1.00  0.00    -0.000 C 
BRANCH   9  10
ATOM     10  C   UNL A   1      31.488  28.782  22.773  1.00  0.00    -0.003 C 
ATOM     11  C   UNL A   1      30.592  29.346  23.866  1.00  0.00     0.004 C 
ENDBRANCH   9  10
ENDBRANCH   8   9
ENDBRANCH   7   8
ENDBRANCH   6   7
ENDBRANCH   5   6
BRANCH   5  12
ATOM     12  C   UNL A   1      32.738  26.323  25.615  1.00  0.00    -0.033 A 
ATOM     13  C   UNL A   1      33.823  27.155  25.994  1.00  0.00     0.005 A 
ATOM     14  C   UNL A   1      31.457  26.650  26.139  1.00  0.00    -0.047 A 
ATOM     15  C   UNL A   1      33.667  28.229  26.876  1.00  0.00     0.000 A 
ATOM     16  C   UNL A   1      31.337  27.713  27.064  1.00  0.00     0.004 A 
ATOM     17  C   UNL A   1      30.159  25.956  25.813  1.00  0.00     0.044 C 
ATOM     18  C   UNL A   1      32.425  28.498  27.425  1.00  0.00     0.000 A 
ENDBRANCH   5  12
ENDBRANCH   1   5
BRANCH   3  19
ATOM     19  C   UNL A   1      34.956  22.812  23.492  1.00  0.00     0.117 C 
BRANCH  19  20
ATOM     20  C   UNL A   1      36.487  22.809  23.555  1.00  0.00     0.042 C 
BRANCH  20  21
ATOM     21  C   UNL A   1      37.088  23.350  24.841  1.00  0.00     0.118 C 
BRANCH  21  22
ATOM     22  N   UNL A   1      37.977  22.400  25.486  1.00  0.00    -0.352 N 
ATOM     23  C   UNL A   1      39.114  22.596  26.237  1.00  0.00     0.251 C 
ATOM     24  H   UNL A   1      37.725  21.455  25.366  1.00  0.00     0.163 HD
ATOM     25  O   UNL A   1      39.806  21.623  26.526  1.00  0.00    -0.269 OA
BRANCH  23  26
ATOM     26  C   UNL A   1      39.539  23.948  26.690  1.00  0.00     0.039 A 
ATOM     27  C   UNL A   1      39.279  24.324  28.013  1.00  0.00     0.014 A 
ATOM     28  C   UNL A   1      40.130  24.874  25.827  1.00  0.00     0.014 A 
ATOM     29  C   UNL A   1      39.653  25.592  28.476  1.00  0.00     0.010 A 
ATOM     30  C   UNL A   1      40.598  26.094  26.315  1.00  0.00     0.010 A 
ATOM     31  C   UNL A   1      40.346  26.479  27.639  1.00  0.00    -0.014 A 
BRANCH  31  32
ATOM     32  C   UNL A   1      40.770  27.827  28.110  1.00  0.00     0.031 A 
ATOM     33  C   UNL A   1      42.232  28.195  28.132  1.00  0.00     0.074 A 
ATOM     34  C   UNL A   1      39.853  28.701  28.569  1.00  0.00     0.049 A 
ATOM     35  N   UNL A   1      42.807  29.282  28.581  1.00  0.00    -0.248 NA
ATOM     36  C   UNL A   1      43.176  27.194  27.608  1.00  0.00     0.031 C 
ATOM     37  C   UNL A   1      38.411  28.459  28.646  1.00  0.00     0.029 A 
ATOM     38  N   UNL A   1      40.001  29.973  29.070  1.00  0.00    -0.354 N 
ATOM     39  C   UNL A   1      44.174  29.084  28.416  1.00  0.00     0.074 A 
ATOM     40  C   UNL A   1      44.346  27.753  27.878  1.00  0.00     0.031 C 
ATOM     41  C   UNL A   1      37.806  29.552  29.137  1.00  0.00     0.029 A 
ATOM     42  C   UNL A   1      38.816  30.558  29.448  1.00  0.00     0.049 A 
ATOM     43  H   UNL A   1      40.873  30.422  29.150  1.00  0.00     0.167 HD
ATOM     44  C   UNL A   1      45.193  29.942  28.661  1.00  0.00     0.037 A 
ATOM     45  C   UNL A   1      38.572  31.767  29.989  1.00  0.00     0.037 A 
ATOM     46  C   UNL A   1      45.021  31.281  29.158  1.00  0.00     0.049 A 
ATOM     47  C   UNL A   1      39.721  32.704  30.249  1.00  0.00     0.074 A 
ATOM     48  C   UNL A   1      45.986  32.249  29.381  1.00  0.00     0.029 A 
ATOM     49  N   UNL A   1      43.803  31.843  29.505  1.00  0.00    -0.354 N 
ATOM     50  N   UNL A   1      41.000  32.524  30.028  1.00  0.00    -0.248 NA
ATOM     51  C   UNL A   1      39.390  34.014  30.826  1.00  0.00     0.031 C 
ATOM     52  C   UNL A   1      45.355  33.383  29.900  1.00  0.00     0.029 A 
ATOM     53  C   UNL A   1      43.992  33.139  29.957  1.00  0.00     0.049 A 
ATOM     54  H   UNL A   1      42.931  31.389  29.440  1.00  0.00     0.167 HD
ATOM     55  C   UNL A   1      41.622  33.705  30.412  1.00  0.00     0.074 A 
ATOM     56  C   UNL A   1      40.578  34.600  30.864  1.00  0.00     0.031 C 
ATOM     57  C   UNL A   1      42.940  34.022  30.392  1.00  0.00     0.037 A 
BRANCH  44  58
ATOM     58  C   UNL A   1      46.589  29.458  28.386  1.00  0.00     0.057 A 
ATOM     59  C   UNL A   1      47.194  29.625  27.134  1.00  0.00     0.134 A 
ATOM     60  C   UNL A   1      47.350  28.852  29.394  1.00  0.00     0.134 A 
ATOM     61  F   UNL A   1      46.518  30.187  26.121  1.00  0.00    -0.206 F 
ATOM     62  C   UNL A   1      48.494  29.180  26.885  1.00  0.00     0.040 A 
ATOM     63  C   UNL A   1      48.661  28.429  29.165  1.00  0.00     0.040 A 
ATOM     64  F   UNL A   1      46.835  28.669  30.620  1.00  0.00    -0.206 F 
ATOM     65  C   UNL A   1      49.234  28.587  27.906  1.00  0.00     0.006 A 
ENDBRANCH  44  58
BRANCH  45  66
ATOM     66  C   UNL A   1      37.179  32.176  30.304  1.00  0.00     0.057 A 
ATOM     67  C   UNL A   1      36.408  32.886  29.376  1.00  0.00     0.134 A 
ATOM     68  C   UNL A   1      36.592  31.886  31.541  1.00  0.00     0.134 A 
ATOM     69  F   UNL A   1      36.922  33.211  28.181  1.00  0.00    -0.206 F 
ATOM     70  C   UNL A   1      35.111  33.310  29.672  1.00  0.00     0.040 A 
ATOM     71  C   UNL A   1      35.286  32.281  31.842  1.00  0.00     0.040 A 
ATOM     72  F   UNL A   1      37.274  31.204  32.472  1.00  0.00    -0.206 F 
ATOM     73  C   UNL A   1      34.545  33.004  30.909  1.00  0.00     0.006 A 
ENDBRANCH  45  66
BRANCH  57  74
ATOM     74  C   UNL A   1      43.324  35.402  30.834  1.00  0.00     0.057 A 
ATOM     75  C   UNL A   1      43.439  36.464  29.928  1.00  0.00     0.134 A 
ATOM     76  C   UNL A   1      43.539  35.681  32.190  1.00  0.00     0.134 A 
ATOM     77  F   UNL A   1      43.258  36.260  28.614  1.00  0.00    -0.206 F 
ATOM     78  C   UNL A   1      43.778  37.749  30.353  1.00  0.00     0.040 A 
ATOM     79  C   UNL A   1      43.851  36.968  32.629  1.00  0.00     0.040 A 
ATOM     80  F   UNL A   1      43.434  34.711  33.111  1.00  0.00    -0.206 F 
ATOM     81  C   UNL A   1      43.977  38.006  31.708  1.00  0.00     0.006 A 
ENDBRANCH  57  74
ENDBRANCH  31  32
ENDBRANCH  23  26
ENDBRANCH  21  22
ENDBRANCH  20  21
ENDBRANCH  19  20
ENDBRANCH   3  19
TORSDOF 16
ENDMDL
MODEL 3
REMARK VINA RESULT:     -10.0      0.807      6.612
REMARK SMILES CCCCCC[C@@H](C(=O)NCCCNC(=O)c1ccc(-c2c3nc(c(-c4c(F)cccc4F)c4ccc([nH]4)c(-c4c(F)cccc4F)c4nc(c(-c5c(F)cccc5F)c5ccc2[nH]5)C=C4)C=C3)cc1)c1ccccc1C
REMARK SMILES IDX 8 1 9 2 10 3 7 5 6 6 5 7 4 8 3 9 2 10 1 11 71 12 72 13 76 14
REMARK SMILES IDX 73 15 75 16 77 17 74 18 11 19 12 20 13 21 14 22 15 23 16 25
REMARK SMILES IDX 17 26 18 27 70 28 19 29 69 30 20 31 21 32 22 33 63 34 23 35
REMARK SMILES IDX 68 36 62 37 64 38 24 39 67 40 61 41 60 42 25 44 51 45 34 46
REMARK SMILES IDX 50 47 35 48 38 49 49 50 65 51 36 52 37 53 48 55 66 56 39 57
REMARK SMILES IDX 26 58 27 59 32 60 28 61 29 62 31 63 33 64 30 65 52 66 53 67
REMARK SMILES IDX 58 68 54 69 55 70 57 71 59 72 56 73 40 74 41 75 46 76 42 77
REMARK SMILES IDX 43 78 45 79 47 80 44 81
REMARK H PARENT 10 4 14 24 64 43 38 54
REMARK Flexibility Score: inf
ROOT
ATOM      1  C   UNL A   1      37.164  23.181  25.646  1.00  0.00     0.227 C 
ATOM      2  O   UNL A   1      37.915  24.158  25.736  1.00  0.00    -0.274 OA
ATOM      3  N   UNL A   1      37.762  22.016  25.246  1.00  0.00    -0.356 N 
ATOM      4  H   UNL A   1      38.746  22.044  25.270  1.00  0.00     0.163 HD
ENDROOT
BRANCH   1   5
ATOM      5  C   UNL A   1      35.657  23.260  26.018  1.00  0.00     0.109 C 
BRANCH   5   6
ATOM      6  C   UNL A   1      35.105  21.937  26.589  1.00  0.00     0.018 C 
BRANCH   6   7
ATOM      7  C   UNL A   1      33.865  21.949  27.473  1.00  0.00     0.001 C 
BRANCH   7   8
ATOM      8  C   UNL A   1      32.530  22.161  26.762  1.00  0.00     0.000 C 
BRANCH   8   9
ATOM      9  C   UNL A   1      31.834  23.476  27.114  1.00  0.00    -0.000 C 
BRANCH   9  10
ATOM     10  C   UNL A   1      30.982  24.093  25.998  1.00  0.00    -0.003 C 
ATOM     11  C   UNL A   1      30.899  23.245  24.737  1.00  0.00     0.004 C 
ENDBRANCH   9  10
ENDBRANCH   8   9
ENDBRANCH   7   8
ENDBRANCH   6   7
ENDBRANCH   5   6
BRANCH   5  12
ATOM     12  C   UNL A   1      34.845  23.802  24.799  1.00  0.00    -0.033 A 
ATOM     13  C   UNL A   1      34.681  22.884  23.730  1.00  0.00     0.005 A 
ATOM     14  C   UNL A   1      34.236  25.079  24.655  1.00  0.00    -0.047 A 
ATOM     15  C   UNL A   1      33.991  23.215  22.560  1.00  0.00     0.000 A 
ATOM     16  C   UNL A   1      33.583  25.403  23.443  1.00  0.00     0.004 A 
ATOM     17  C   UNL A   1      34.216  26.176  25.688  1.00  0.00     0.044 C 
ATOM     18  C   UNL A   1      33.456  24.483  22.409  1.00  0.00     0.000 A 
ENDBRANCH   5  12
ENDBRANCH   1   5
BRANCH   3  19
ATOM     19  C   UNL A   1      37.219  20.745  24.793  1.00  0.00     0.117 C 
BRANCH  19  20
ATOM     20  C   UNL A   1      38.296  19.655  24.832  1.00  0.00     0.042 C 
BRANCH  20  21
ATOM     21  C   UNL A   1      39.159  19.635  26.081  1.00  0.00     0.118 C 
BRANCH  21  22
ATOM     22  N   UNL A   1      40.456  19.020  25.856  1.00  0.00    -0.352 N 
ATOM     23  C   UNL A   1      41.726  19.548  25.914  1.00  0.00     0.251 C 
ATOM     24  H   UNL A   1      40.421  18.064  25.622  1.00  0.00     0.163 HD
ATOM     25  O   UNL A   1      42.665  18.873  25.501  1.00  0.00    -0.269 OA
BRANCH  23  26
ATOM     26  C   UNL A   1      41.991  20.914  26.440  1.00  0.00     0.039 A 
ATOM     27  C   UNL A   1      41.912  21.127  27.822  1.00  0.00     0.014 A 
ATOM     28  C   UNL A   1      42.253  22.000  25.602  1.00  0.00     0.014 A 
ATOM     29  C   UNL A   1      42.144  22.401  28.356  1.00  0.00     0.010 A 
ATOM     30  C   UNL A   1      42.588  23.243  26.140  1.00  0.00     0.010 A 
ATOM     31  C   UNL A   1      42.516  23.466  27.522  1.00  0.00    -0.014 A 
BRANCH  31  32
ATOM     32  C   UNL A   1      42.784  24.827  28.065  1.00  0.00     0.031 A 
ATOM     33  C   UNL A   1      44.180  25.213  28.483  1.00  0.00     0.074 A 
ATOM     34  C   UNL A   1      41.770  25.697  28.237  1.00  0.00     0.049 A 
ATOM     35  N   UNL A   1      44.601  26.314  29.053  1.00  0.00    -0.248 NA
ATOM     36  C   UNL A   1      45.239  24.215  28.259  1.00  0.00     0.031 C 
ATOM     37  C   UNL A   1      40.364  25.438  27.918  1.00  0.00     0.029 A 
ATOM     38  N   UNL A   1      41.764  26.979  28.734  1.00  0.00    -0.354 N 
ATOM     39  C   UNL A   1      45.961  26.131  29.274  1.00  0.00     0.074 A 
ATOM     40  C   UNL A   1      46.285  24.793  28.831  1.00  0.00     0.031 C 
ATOM     41  C   UNL A   1      39.639  26.533  28.201  1.00  0.00     0.029 A 
ATOM     42  C   UNL A   1      40.516  27.556  28.759  1.00  0.00     0.049 A 
ATOM     43  H   UNL A   1      42.577  27.439  29.043  1.00  0.00     0.167 HD
ATOM     44  C   UNL A   1      46.867  27.005  29.775  1.00  0.00     0.037 A 
ATOM     45  C   UNL A   1      40.124  28.771  29.188  1.00  0.00     0.037 A 
ATOM     46  C   UNL A   1      46.555  28.350  30.179  1.00  0.00     0.049 A 
ATOM     47  C   UNL A   1      41.150  29.725  29.737  1.00  0.00     0.074 A 
ATOM     48  C   UNL A   1      47.414  29.333  30.641  1.00  0.00     0.029 A 
ATOM     49  N   UNL A   1      45.284  28.902  30.165  1.00  0.00    -0.354 N 
ATOM     50  N   UNL A   1      42.442  29.557  29.881  1.00  0.00    -0.248 NA
ATOM     51  C   UNL A   1      40.663  31.041  30.174  1.00  0.00     0.031 C 
ATOM     52  C   UNL A   1      46.656  30.468  30.944  1.00  0.00     0.029 A 
ATOM     53  C   UNL A   1      45.332  30.207  30.627  1.00  0.00     0.049 A 
ATOM     54  H   UNL A   1      44.468  28.437  29.871  1.00  0.00     0.167 HD
ATOM     55  C   UNL A   1      42.925  30.752  30.399  1.00  0.00     0.074 A 
ATOM     56  C   UNL A   1      41.790  31.642  30.528  1.00  0.00     0.031 C 
ATOM     57  C   UNL A   1      44.195  31.085  30.737  1.00  0.00     0.037 A 
BRANCH  44  58
ATOM     58  C   UNL A   1      48.288  26.533  29.905  1.00  0.00     0.057 A 
ATOM     59  C   UNL A   1      49.238  26.769  28.903  1.00  0.00     0.134 A 
ATOM     60  C   UNL A   1      48.721  25.869  31.060  1.00  0.00     0.134 A 
ATOM     61  F   UNL A   1      48.889  27.390  27.766  1.00  0.00    -0.206 F 
ATOM     62  C   UNL A   1      50.560  26.335  29.032  1.00  0.00     0.040 A 
ATOM     63  C   UNL A   1      50.046  25.456  31.212  1.00  0.00     0.040 A 
ATOM     64  F   UNL A   1      47.865  25.618  32.063  1.00  0.00    -0.206 F 
ATOM     65  C   UNL A   1      50.968  25.684  30.194  1.00  0.00     0.006 A 
ENDBRANCH  44  58
BRANCH  45  66
ATOM     66  C   UNL A   1      38.695  29.168  29.099  1.00  0.00     0.057 A 
ATOM     67  C   UNL A   1      38.143  29.608  27.890  1.00  0.00     0.134 A 
ATOM     68  C   UNL A   1      37.854  29.135  30.217  1.00  0.00     0.134 A 
ATOM     69  F   UNL A   1      38.904  29.681  26.788  1.00  0.00    -0.206 F 
ATOM     70  C   UNL A   1      36.813  30.020  27.799  1.00  0.00     0.040 A 
ATOM     71  C   UNL A   1      36.514  29.520  30.136  1.00  0.00     0.040 A 
ATOM     72  F   UNL A   1      38.319  28.717  31.403  1.00  0.00    -0.206 F 
ATOM     73  C   UNL A   1      35.992  29.973  28.925  1.00  0.00     0.006 A 
ENDBRANCH  45  66
BRANCH  57  74
ATOM     74  C   UNL A   1      44.431  32.477  31.241  1.00  0.00     0.057 A 
ATOM     75  C   UNL A   1      44.400  32.785  32.607  1.00  0.00     0.134 A 
ATOM     76  C   UNL A   1      44.734  33.514  30.350  1.00  0.00     0.134 A 
ATOM     77  F   UNL A   1      44.103  31.838  33.511  1.00  0.00    -0.206 F 
ATOM     78  C   UNL A   1      44.641  34.080  33.067  1.00  0.00     0.040 A 
ATOM     79  C   UNL A   1      45.004  34.807  30.801  1.00  0.00     0.040 A 
ATOM     80  F   UNL A   1      44.790  33.285  29.029  1.00  0.00    -0.206 F 
ATOM     81  C   UNL A   1      44.951  35.094  32.163  1.00  0.00     0.006 A 
ENDBRANCH  57  74
ENDBRANCH  31  32
ENDBRANCH  23  26
ENDBRANCH  21  22
ENDBRANCH  20  21
ENDBRANCH  19  20
ENDBRANCH   3  19
TORSDOF 16
ENDMDL
