MODEL 1
REMARK VINA RESULT:     -11.2      0.000      0.000
REMARK SMILES C[C@@H](NC(=O)[C@@H]([NH3+])CC(=O)NCCCNC(=O)c1ccc(-c2c3nc(c(-c4c(F)cccc4F)c4ccc([nH]4)c(-c4c(F)cccc4F)c4nc(c(-c5c(F)cccc5F)c5ccc2[nH]5)C=C4)C=C3)cc1)C(=O)NC1C(C)(C)SC1(C)C
REMARK SMILES IDX 9 1 10 2 11 3 8 5 6 6 4 7 3 8 5 10 2 11 1 12 72 13 73 14
REMARK SMILES IDX 74 15 75 17 76 18 80 19 77 20 78 21 79 22 81 23 82 24 7 25
REMARK SMILES IDX 12 29 13 30 14 31 15 32 16 33 17 35 18 36 19 37 71 38 20 39
REMARK SMILES IDX 70 40 21 41 22 42 23 43 64 44 24 45 69 46 63 47 65 48 25 49
REMARK SMILES IDX 68 50 62 51 61 52 26 54 52 55 35 56 51 57 36 58 39 59 50 60
REMARK SMILES IDX 66 61 37 62 38 63 49 65 67 66 40 67 27 68 28 69 33 70 29 71
REMARK SMILES IDX 30 72 32 73 34 74 31 75 53 76 54 77 59 78 55 79 56 80 58 81
REMARK SMILES IDX 60 82 57 83 41 84 42 85 47 86 43 87 44 88 46 89 48 90 45 91
REMARK H PARENT 11 4 3 9 74 16 7 26 7 27 7 28 15 34 65 53 39 64
REMARK Flexibility Score: inf
ROOT
ATOM      1  C   UNL A   1      35.907  22.326  25.522  1.00  0.00     0.226 C 
ATOM      2  O   UNL A   1      35.627  23.177  26.367  1.00  0.00    -0.275 OA
ATOM      3  N   UNL A   1      37.206  21.948  25.380  1.00  0.00    -0.356 N 
ATOM      4  H   UNL A   1      37.828  22.308  26.052  1.00  0.00     0.163 HD
ENDROOT
BRANCH   1   5
ATOM      5  C   UNL A   1      34.844  21.715  24.642  1.00  0.00     0.175 C 
BRANCH   5   6
ATOM      6  C   UNL A   1      34.158  20.562  25.360  1.00  0.00     0.280 C 
BRANCH   6   7
ATOM      7  C   UNL A   1      32.606  20.584  25.402  1.00  0.00     0.279 C 
ATOM      8  N   UNL A   1      31.844  21.525  26.015  1.00  0.00    -0.339 N 
ATOM      9  H   UNL A   1      30.873  21.390  25.920  1.00  0.00     0.164 HD
ATOM     10  O   UNL A   1      31.972  19.734  24.764  1.00  0.00    -0.268 OA
BRANCH   8  11
ATOM     11  C   UNL A   1      32.217  22.702  26.790  1.00  0.00     0.168 C 
ATOM     12  C   UNL A   1      32.837  22.301  28.130  1.00  0.00     0.041 C 
BRANCH  11  13
ATOM     13  C   UNL A   1      31.037  23.657  27.008  1.00  0.00     0.242 C 
ATOM     14  O   UNL A   1      29.940  23.221  27.370  1.00  0.00    -0.273 OA
ATOM     15  N   UNL A   1      31.133  24.993  26.708  1.00  0.00    -0.349 N 
ATOM     16  H   UNL A   1      30.545  25.585  27.229  1.00  0.00     0.163 HD
BRANCH  15  17
ATOM     17  C   UNL A   1      31.997  25.677  25.710  1.00  0.00     0.113 C 
ATOM     18  C   UNL A   1      31.191  25.930  24.374  1.00  0.00     0.032 C 
ATOM     19  C   UNL A   1      32.370  27.211  25.919  1.00  0.00     0.032 C 
ATOM     20  C   UNL A   1      31.541  24.909  23.295  1.00  0.00     0.025 C 
ATOM     21  C   UNL A   1      29.677  26.126  24.468  1.00  0.00     0.025 C 
ATOM     22  S   UNL A   1      32.043  27.518  24.118  1.00  0.00    -0.145 SA
ATOM     23  C   UNL A   1      31.505  28.128  26.784  1.00  0.00     0.025 C 
ATOM     24  C   UNL A   1      33.854  27.491  26.187  1.00  0.00     0.025 C 
ENDBRANCH  15  17
ENDBRANCH  11  13
ENDBRANCH   8  11
ENDBRANCH   6   7
BRANCH   6  25
ATOM     25  N   UNL A   1      34.609  19.286  24.777  1.00  0.00    -0.347 N 
ATOM     26  H   UNL A   1      35.563  19.389  24.431  1.00  0.00     0.345 HD
ATOM     27  H   UNL A   1      33.994  19.026  24.007  1.00  0.00     0.345 HD
ATOM     28  H   UNL A   1      34.585  18.558  25.491  1.00  0.00     0.345 HD
ENDBRANCH   6  25
ENDBRANCH   5   6
ENDBRANCH   1   5
BRANCH   3  29
ATOM     29  C   UNL A   1      37.802  21.089  24.375  1.00  0.00     0.117 C 
BRANCH  29  30
ATOM     30  C   UNL A   1      38.243  19.770  24.986  1.00  0.00     0.042 C 
BRANCH  30  31
ATOM     31  C   UNL A   1      39.222  19.895  26.132  1.00  0.00     0.118 C 
BRANCH  31  32
ATOM     32  N   UNL A   1      40.458  19.178  25.887  1.00  0.00    -0.352 N 
ATOM     33  C   UNL A   1      41.753  19.613  25.937  1.00  0.00     0.251 C 
ATOM     34  H   UNL A   1      40.347  18.230  25.647  1.00  0.00     0.163 HD
ATOM     35  O   UNL A   1      42.642  18.869  25.513  1.00  0.00    -0.269 OA
BRANCH  33  36
ATOM     36  C   UNL A   1      42.107  20.948  26.471  1.00  0.00     0.039 A 
ATOM     37  C   UNL A   1      42.130  21.117  27.860  1.00  0.00     0.014 A 
ATOM     38  C   UNL A   1      42.355  22.047  25.642  1.00  0.00     0.014 A 
ATOM     39  C   UNL A   1      42.406  22.370  28.407  1.00  0.00     0.010 A 
ATOM     40  C   UNL A   1      42.741  23.267  26.187  1.00  0.00     0.010 A 
ATOM     41  C   UNL A   1      42.725  23.454  27.575  1.00  0.00    -0.014 A 
BRANCH  41  42
ATOM     42  C   UNL A   1      42.961  24.804  28.140  1.00  0.00     0.031 A 
ATOM     43  C   UNL A   1      44.356  25.223  28.525  1.00  0.00     0.074 A 
ATOM     44  C   UNL A   1      41.924  25.640  28.328  1.00  0.00     0.049 A 
ATOM     45  N   UNL A   1      44.768  26.352  29.044  1.00  0.00    -0.248 NA
ATOM     46  C   UNL A   1      45.425  24.231  28.330  1.00  0.00     0.031 C 
ATOM     47  C   UNL A   1      40.521  25.325  28.051  1.00  0.00     0.029 A 
ATOM     48  N   UNL A   1      41.890  26.929  28.795  1.00  0.00    -0.354 N 
ATOM     49  C   UNL A   1      46.133  26.196  29.250  1.00  0.00     0.074 A 
ATOM     50  C   UNL A   1      46.468  24.843  28.868  1.00  0.00     0.031 C 
ATOM     51  C   UNL A   1      39.768  26.403  28.324  1.00  0.00     0.029 A 
ATOM     52  C   UNL A   1      40.629  27.472  28.820  1.00  0.00     0.049 A 
ATOM     53  H   UNL A   1      42.693  27.419  29.086  1.00  0.00     0.167 HD
ATOM     54  C   UNL A   1      47.034  27.107  29.688  1.00  0.00     0.037 A 
ATOM     55  C   UNL A   1      40.218  28.697  29.195  1.00  0.00     0.037 A 
ATOM     56  C   UNL A   1      46.701  28.462  30.035  1.00  0.00     0.049 A 
ATOM     57  C   UNL A   1      41.239  29.703  29.644  1.00  0.00     0.074 A 
ATOM     58  C   UNL A   1      47.542  29.483  30.440  1.00  0.00     0.029 A 
ATOM     59  N   UNL A   1      45.416  28.985  30.012  1.00  0.00    -0.354 N 
ATOM     60  N   UNL A   1      42.537  29.563  29.773  1.00  0.00    -0.248 NA
ATOM     61  C   UNL A   1      40.742  31.042  29.985  1.00  0.00     0.031 C 
ATOM     62  C   UNL A   1      46.761  30.616  30.694  1.00  0.00     0.029 A 
ATOM     63  C   UNL A   1      45.440  30.313  30.404  1.00  0.00     0.049 A 
ATOM     64  H   UNL A   1      44.607  28.486  29.753  1.00  0.00     0.167 HD
ATOM     65  C   UNL A   1      43.014  30.799  30.188  1.00  0.00     0.074 A 
ATOM     66  C   UNL A   1      41.867  31.681  30.270  1.00  0.00     0.031 C 
ATOM     67  C   UNL A   1      44.286  31.172  30.477  1.00  0.00     0.037 A 
BRANCH  54  68
ATOM     68  C   UNL A   1      48.464  26.661  29.799  1.00  0.00     0.057 A 
ATOM     69  C   UNL A   1      48.950  26.018  30.946  1.00  0.00     0.134 A 
ATOM     70  C   UNL A   1      49.365  26.872  28.749  1.00  0.00     0.134 A 
ATOM     71  F   UNL A   1      48.144  25.797  31.995  1.00  0.00    -0.206 F 
ATOM     72  C   UNL A   1      50.288  25.631  31.057  1.00  0.00     0.040 A 
ATOM     73  C   UNL A   1      50.698  26.465  28.837  1.00  0.00     0.040 A 
ATOM     74  F   UNL A   1      48.967  27.479  27.620  1.00  0.00    -0.206 F 
ATOM     75  C   UNL A   1      51.165  25.850  29.997  1.00  0.00     0.006 A 
ENDBRANCH  54  68
BRANCH  55  76
ATOM     76  C   UNL A   1      38.778  29.046  29.121  1.00  0.00     0.057 A 
ATOM     77  C   UNL A   1      37.959  28.982  30.254  1.00  0.00     0.134 A 
ATOM     78  C   UNL A   1      38.190  29.467  27.922  1.00  0.00     0.134 A 
ATOM     79  F   UNL A   1      38.461  28.572  31.429  1.00  0.00    -0.206 F 
ATOM     80  C   UNL A   1      36.603  29.307  30.195  1.00  0.00     0.040 A 
ATOM     81  C   UNL A   1      36.841  29.817  27.854  1.00  0.00     0.040 A 
ATOM     82  F   UNL A   1      38.925  29.562  26.805  1.00  0.00    -0.206 F 
ATOM     83  C   UNL A   1      36.042  29.732  28.992  1.00  0.00     0.006 A 
ENDBRANCH  55  76
BRANCH  67  84
ATOM     84  C   UNL A   1      44.502  32.599  30.880  1.00  0.00     0.057 A 
ATOM     85  C   UNL A   1      44.743  33.605  29.936  1.00  0.00     0.134 A 
ATOM     86  C   UNL A   1      44.438  32.976  32.228  1.00  0.00     0.134 A 
ATOM     87  F   UNL A   1      44.827  33.307  28.630  1.00  0.00    -0.206 F 
ATOM     88  C   UNL A   1      44.939  34.932  30.321  1.00  0.00     0.040 A 
ATOM     89  C   UNL A   1      44.607  34.303  32.622  1.00  0.00     0.040 A 
ATOM     90  F   UNL A   1      44.202  32.061  33.180  1.00  0.00    -0.206 F 
ATOM     91  C   UNL A   1      44.865  35.285  31.668  1.00  0.00     0.006 A 
ENDBRANCH  67  84
ENDBRANCH  41  42
ENDBRANCH  33  36
ENDBRANCH  31  32
ENDBRANCH  30  31
ENDBRANCH  29  30
ENDBRANCH   3  29
TORSDOF 16
ENDMDL
MODEL 2
REMARK VINA RESULT:     -11.1      1.063      6.267
REMARK SMILES C[C@@H](NC(=O)[C@@H]([NH3+])CC(=O)NCCCNC(=O)c1ccc(-c2c3nc(c(-c4c(F)cccc4F)c4ccc([nH]4)c(-c4c(F)cccc4F)c4nc(c(-c5c(F)cccc5F)c5ccc2[nH]5)C=C4)C=C3)cc1)C(=O)NC1C(C)(C)SC1(C)C
REMARK SMILES IDX 9 1 10 2 11 3 8 5 6 6 4 7 3 8 5 10 2 11 1 12 72 13 73 14
REMARK SMILES IDX 74 15 75 17 76 18 80 19 77 20 78 21 79 22 81 23 82 24 7 25
REMARK SMILES IDX 12 29 13 30 14 31 15 32 16 33 17 35 18 36 19 37 71 38 20 39
REMARK SMILES IDX 70 40 21 41 22 42 23 43 64 44 24 45 69 46 63 47 65 48 25 49
REMARK SMILES IDX 68 50 62 51 61 52 26 54 52 55 35 56 51 57 36 58 39 59 50 60
REMARK SMILES IDX 66 61 37 62 38 63 49 65 67 66 40 67 27 68 28 69 33 70 29 71
REMARK SMILES IDX 30 72 32 73 34 74 31 75 53 76 54 77 59 78 55 79 56 80 58 81
REMARK SMILES IDX 60 82 57 83 41 84 42 85 47 86 43 87 44 88 46 89 48 90 45 91
REMARK H PARENT 11 4 3 9 74 16 7 26 7 27 7 28 15 34 65 53 39 64
REMARK Flexibility Score: inf
ROOT
ATOM      1  C   UNL A   1      35.900  22.314  25.357  1.00  0.00     0.226 C 
ATOM      2  O   UNL A   1      35.675  23.232  26.147  1.00  0.00    -0.275 OA
ATOM      3  N   UNL A   1      37.180  21.879  25.207  1.00  0.00    -0.356 N 
ATOM      4  H   UNL A   1      37.834  22.261  25.836  1.00  0.00     0.163 HD
ENDROOT
BRANCH   1   5
ATOM      5  C   UNL A   1      34.791  21.683  24.551  1.00  0.00     0.175 C 
BRANCH   5   6
ATOM      6  C   UNL A   1      34.159  20.535  25.323  1.00  0.00     0.280 C 
BRANCH   6   7
ATOM      7  C   UNL A   1      32.610  20.521  25.422  1.00  0.00     0.279 C 
ATOM      8  N   UNL A   1      31.847  21.472  26.017  1.00  0.00    -0.339 N 
ATOM      9  H   UNL A   1      30.877  21.309  25.965  1.00  0.00     0.164 HD
ATOM     10  O   UNL A   1      31.976  19.626  24.849  1.00  0.00    -0.268 OA
BRANCH   8  11
ATOM     11  C   UNL A   1      32.217  22.694  26.721  1.00  0.00     0.168 C 
ATOM     12  C   UNL A   1      32.936  22.374  28.032  1.00  0.00     0.041 C 
BRANCH  11  13
ATOM     13  C   UNL A   1      31.013  23.609  26.978  1.00  0.00     0.242 C 
ATOM     14  O   UNL A   1      29.937  23.134  27.353  1.00  0.00    -0.273 OA
ATOM     15  N   UNL A   1      31.063  24.952  26.699  1.00  0.00    -0.349 N 
ATOM     16  H   UNL A   1      30.467  25.517  27.242  1.00  0.00     0.163 HD
BRANCH  15  17
ATOM     17  C   UNL A   1      31.885  25.678  25.697  1.00  0.00     0.113 C 
ATOM     18  C   UNL A   1      31.010  26.041  24.432  1.00  0.00     0.032 C 
ATOM     19  C   UNL A   1      32.315  27.185  25.982  1.00  0.00     0.032 C 
ATOM     20  C   UNL A   1      31.264  25.085  23.270  1.00  0.00     0.025 C 
ATOM     21  C   UNL A   1      29.509  26.268  24.631  1.00  0.00     0.025 C 
ATOM     22  S   UNL A   1      31.891  27.620  24.227  1.00  0.00    -0.145 SA
ATOM     23  C   UNL A   1      31.531  28.065  26.955  1.00  0.00     0.025 C 
ATOM     24  C   UNL A   1      33.820  27.408  26.176  1.00  0.00     0.025 C 
ENDBRANCH  15  17
ENDBRANCH  11  13
ENDBRANCH   8  11
ENDBRANCH   6   7
BRANCH   6  25
ATOM     25  N   UNL A   1      34.621  19.254  24.758  1.00  0.00    -0.347 N 
ATOM     26  H   UNL A   1      35.626  19.160  24.905  1.00  0.00     0.345 HD
ATOM     27  H   UNL A   1      34.419  19.231  23.758  1.00  0.00     0.345 HD
ATOM     28  H   UNL A   1      34.137  18.484  25.220  1.00  0.00     0.345 HD
ENDBRANCH   6  25
ENDBRANCH   5   6
ENDBRANCH   1   5
BRANCH   3  29
ATOM     29  C   UNL A   1      37.716  20.931  24.250  1.00  0.00     0.117 C 
BRANCH  29  30
ATOM     30  C   UNL A   1      38.286  19.714  24.958  1.00  0.00     0.042 C 
BRANCH  30  31
ATOM     31  C   UNL A   1      39.288  20.023  26.049  1.00  0.00     0.118 C 
BRANCH  31  32
ATOM     32  N   UNL A   1      40.409  19.104  26.050  1.00  0.00    -0.352 N 
ATOM     33  C   UNL A   1      41.749  19.349  26.156  1.00  0.00     0.251 C 
ATOM     34  H   UNL A   1      40.166  18.154  25.961  1.00  0.00     0.163 HD
ATOM     35  O   UNL A   1      42.537  18.421  25.952  1.00  0.00    -0.269 OA
BRANCH  33  36
ATOM     36  C   UNL A   1      42.272  20.693  26.495  1.00  0.00     0.039 A 
ATOM     37  C   UNL A   1      42.267  21.082  27.839  1.00  0.00     0.014 A 
ATOM     38  C   UNL A   1      42.705  21.597  25.520  1.00  0.00     0.014 A 
ATOM     39  C   UNL A   1      42.700  22.359  28.198  1.00  0.00     0.010 A 
ATOM     40  C   UNL A   1      43.242  22.826  25.889  1.00  0.00     0.010 A 
ATOM     41  C   UNL A   1      43.201  23.238  27.227  1.00  0.00    -0.014 A 
BRANCH  41  42
ATOM     42  C   UNL A   1      43.608  24.618  27.586  1.00  0.00     0.031 A 
ATOM     43  C   UNL A   1      42.559  25.644  27.927  1.00  0.00     0.074 A 
ATOM     44  C   UNL A   1      44.911  24.953  27.584  1.00  0.00     0.049 A 
ATOM     45  N   UNL A   1      42.708  26.903  28.255  1.00  0.00    -0.248 NA
ATOM     46  C   UNL A   1      41.155  25.207  27.860  1.00  0.00     0.031 C 
ATOM     47  C   UNL A   1      46.012  24.064  27.212  1.00  0.00     0.029 A 
ATOM     48  N   UNL A   1      45.529  26.133  27.906  1.00  0.00    -0.354 N 
ATOM     49  C   UNL A   1      41.422  27.405  28.416  1.00  0.00     0.074 A 
ATOM     50  C   UNL A   1      40.505  26.339  28.082  1.00  0.00     0.031 C 
ATOM     51  C   UNL A   1      47.175  24.721  27.358  1.00  0.00     0.029 A 
ATOM     52  C   UNL A   1      46.898  26.082  27.806  1.00  0.00     0.049 A 
ATOM     53  H   UNL A   1      45.039  26.941  28.183  1.00  0.00     0.167 HD
ATOM     54  C   UNL A   1      41.038  28.634  28.835  1.00  0.00     0.037 A 
ATOM     55  C   UNL A   1      47.822  27.027  28.054  1.00  0.00     0.037 A 
ATOM     56  C   UNL A   1      41.955  29.680  29.199  1.00  0.00     0.049 A 
ATOM     57  C   UNL A   1      47.376  28.372  28.551  1.00  0.00     0.074 A 
ATOM     58  C   UNL A   1      41.675  30.945  29.686  1.00  0.00     0.029 A 
ATOM     59  N   UNL A   1      43.335  29.577  29.118  1.00  0.00    -0.354 N 
ATOM     60  N   UNL A   1      46.159  28.813  28.762  1.00  0.00    -0.248 NA
ATOM     61  C   UNL A   1      48.431  29.346  28.863  1.00  0.00     0.031 C 
ATOM     62  C   UNL A   1      42.888  31.619  29.869  1.00  0.00     0.029 A 
ATOM     63  C   UNL A   1      43.922  30.759  29.538  1.00  0.00     0.049 A 
ATOM     64  H   UNL A   1      43.826  28.781  28.809  1.00  0.00     0.167 HD
ATOM     65  C   UNL A   1      46.301  30.106  29.249  1.00  0.00     0.074 A 
ATOM     66  C   UNL A   1      47.725  30.369  29.321  1.00  0.00     0.031 C 
ATOM     67  C   UNL A   1      45.342  30.997  29.604  1.00  0.00     0.037 A 
BRANCH  54  68
ATOM     68  C   UNL A   1      39.562  28.897  28.932  1.00  0.00     0.057 A 
ATOM     69  C   UNL A   1      38.817  29.343  27.832  1.00  0.00     0.134 A 
ATOM     70  C   UNL A   1      38.875  28.699  30.136  1.00  0.00     0.134 A 
ATOM     71  F   UNL A   1      39.415  29.568  26.652  1.00  0.00    -0.206 F 
ATOM     72  C   UNL A   1      37.451  29.615  27.933  1.00  0.00     0.040 A 
ATOM     73  C   UNL A   1      37.504  28.940  30.243  1.00  0.00     0.040 A 
ATOM     74  F   UNL A   1      39.525  28.270  31.229  1.00  0.00    -0.206 F 
ATOM     75  C   UNL A   1      36.790  29.408  29.141  1.00  0.00     0.006 A 
ENDBRANCH  54  68
BRANCH  55  76
ATOM     76  C   UNL A   1      49.262  26.716  27.872  1.00  0.00     0.057 A 
ATOM     77  C   UNL A   1      50.023  26.174  28.913  1.00  0.00     0.134 A 
ATOM     78  C   UNL A   1      49.907  26.937  26.649  1.00  0.00     0.134 A 
ATOM     79  F   UNL A   1      49.465  25.953  30.113  1.00  0.00    -0.206 F 
ATOM     80  C   UNL A   1      51.378  25.880  28.753  1.00  0.00     0.040 A 
ATOM     81  C   UNL A   1      51.255  26.626  26.467  1.00  0.00     0.040 A 
ATOM     82  F   UNL A   1      49.229  27.442  25.608  1.00  0.00    -0.206 F 
ATOM     83  C   UNL A   1      51.996  26.101  27.523  1.00  0.00     0.006 A 
ENDBRANCH  55  76
BRANCH  67  84
ATOM     84  C   UNL A   1      45.804  32.323  30.126  1.00  0.00     0.057 A 
ATOM     85  C   UNL A   1      46.067  32.530  31.486  1.00  0.00     0.134 A 
ATOM     86  C   UNL A   1      46.018  33.397  29.253  1.00  0.00     0.134 A 
ATOM     87  F   UNL A   1      45.870  31.544  32.375  1.00  0.00    -0.206 F 
ATOM     88  C   UNL A   1      46.501  33.768  31.963  1.00  0.00     0.040 A 
ATOM     89  C   UNL A   1      46.477  34.631  29.714  1.00  0.00     0.040 A 
ATOM     90  F   UNL A   1      45.793  33.261  27.938  1.00  0.00    -0.206 F 
ATOM     91  C   UNL A   1      46.713  34.821  31.074  1.00  0.00     0.006 A 
ENDBRANCH  67  84
ENDBRANCH  41  42
ENDBRANCH  33  36
ENDBRANCH  31  32
ENDBRANCH  30  31
ENDBRANCH  29  30
ENDBRANCH   3  29
TORSDOF 16
ENDMDL
MODEL 3
REMARK VINA RESULT:     -11.0      5.719     10.663
REMARK SMILES C[C@@H](NC(=O)[C@@H]([NH3+])CC(=O)NCCCNC(=O)c1ccc(-c2c3nc(c(-c4c(F)cccc4F)c4ccc([nH]4)c(-c4c(F)cccc4F)c4nc(c(-c5c(F)cccc5F)c5ccc2[nH]5)C=C4)C=C3)cc1)C(=O)NC1C(C)(C)SC1(C)C
REMARK SMILES IDX 9 1 10 2 11 3 8 5 6 6 4 7 3 8 5 10 2 11 1 12 72 13 73 14
REMARK SMILES IDX 74 15 75 17 76 18 80 19 77 20 78 21 79 22 81 23 82 24 7 25
REMARK SMILES IDX 12 29 13 30 14 31 15 32 16 33 17 35 18 36 19 37 71 38 20 39
REMARK SMILES IDX 70 40 21 41 22 42 23 43 64 44 24 45 69 46 63 47 65 48 25 49
REMARK SMILES IDX 68 50 62 51 61 52 26 54 52 55 35 56 51 57 36 58 39 59 50 60
REMARK SMILES IDX 66 61 37 62 38 63 49 65 67 66 40 67 27 68 28 69 33 70 29 71
REMARK SMILES IDX 30 72 32 73 34 74 31 75 53 76 54 77 59 78 55 79 56 80 58 81
REMARK SMILES IDX 60 82 57 83 41 84 42 85 47 86 43 87 44 88 46 89 48 90 45 91
REMARK H PARENT 11 4 3 9 74 16 7 26 7 27 7 28 15 34 65 53 39 64
REMARK Flexibility Score: inf
ROOT
ATOM      1  C   UNL A   1      35.797  33.905  28.805  1.00  0.00     0.226 C 
ATOM      2  O   UNL A   1      36.844  33.892  29.453  1.00  0.00    -0.275 OA
ATOM      3  N   UNL A   1      34.858  34.845  29.096  1.00  0.00    -0.356 N 
ATOM      4  H   UNL A   1      35.135  35.534  29.743  1.00  0.00     0.163 HD
ENDROOT
BRANCH   1   5
ATOM      5  C   UNL A   1      35.537  32.893  27.715  1.00  0.00     0.175 C 
BRANCH   5   6
ATOM      6  C   UNL A   1      34.610  31.797  28.217  1.00  0.00     0.280 C 
BRANCH   6   7
ATOM      7  C   UNL A   1      34.779  30.389  27.586  1.00  0.00     0.279 C 
ATOM      8  N   UNL A   1      33.771  29.577  27.180  1.00  0.00    -0.339 N 
ATOM      9  H   UNL A   1      34.067  28.726  26.782  1.00  0.00     0.164 HD
ATOM     10  O   UNL A   1      35.918  29.970  27.340  1.00  0.00    -0.268 OA
BRANCH   8  11
ATOM     11  C   UNL A   1      32.324  29.749  27.232  1.00  0.00     0.168 C 
ATOM     12  C   UNL A   1      31.620  28.403  27.414  1.00  0.00     0.041 C 
BRANCH  11  13
ATOM     13  C   UNL A   1      31.777  30.480  26.001  1.00  0.00     0.242 C 
ATOM     14  O   UNL A   1      31.217  31.574  26.122  1.00  0.00    -0.273 OA
ATOM     15  N   UNL A   1      31.797  29.901  24.756  1.00  0.00    -0.349 N 
ATOM     16  H   UNL A   1      31.830  30.529  24.000  1.00  0.00     0.163 HD
BRANCH  15  17
ATOM     17  C   UNL A   1      31.775  28.462  24.385  1.00  0.00     0.113 C 
ATOM     18  C   UNL A   1      30.799  28.228  23.165  1.00  0.00     0.032 C 
ATOM     19  C   UNL A   1      33.038  27.824  23.654  1.00  0.00     0.032 C 
ATOM     20  C   UNL A   1      29.455  27.659  23.611  1.00  0.00     0.025 C 
ATOM     21  C   UNL A   1      30.603  29.370  22.165  1.00  0.00     0.025 C 
ATOM     22  S   UNL A   1      31.895  26.943  22.486  1.00  0.00    -0.145 SA
ATOM     23  C   UNL A   1      34.030  28.692  22.879  1.00  0.00     0.025 C 
ATOM     24  C   UNL A   1      33.796  26.766  24.465  1.00  0.00     0.025 C 
ENDBRANCH  15  17
ENDBRANCH  11  13
ENDBRANCH   8  11
ENDBRANCH   6   7
BRANCH   6  25
ATOM     25  N   UNL A   1      34.729  31.690  29.682  1.00  0.00    -0.347 N 
ATOM     26  H   UNL A   1      35.490  32.288  30.006  1.00  0.00     0.345 HD
ATOM     27  H   UNL A   1      34.925  30.722  29.939  1.00  0.00     0.345 HD
ATOM     28  H   UNL A   1      33.856  31.987  30.117  1.00  0.00     0.345 HD
ENDBRANCH   6  25
ENDBRANCH   5   6
ENDBRANCH   1   5
BRANCH   3  29
ATOM     29  C   UNL A   1      33.507  34.974  28.586  1.00  0.00     0.117 C 
BRANCH  29  30
ATOM     30  C   UNL A   1      32.934  36.341  28.920  1.00  0.00     0.042 C 
BRANCH  30  31
ATOM     31  C   UNL A   1      33.342  36.890  30.269  1.00  0.00     0.118 C 
BRANCH  31  32
ATOM     32  N   UNL A   1      32.440  36.487  31.329  1.00  0.00    -0.352 N 
ATOM     33  C   UNL A   1      32.586  35.531  32.295  1.00  0.00     0.251 C 
ATOM     34  H   UNL A   1      31.587  36.978  31.358  1.00  0.00     0.163 HD
ATOM     35  O   UNL A   1      31.609  35.234  32.986  1.00  0.00    -0.269 OA
BRANCH  33  36
ATOM     36  C   UNL A   1      33.879  34.841  32.519  1.00  0.00     0.039 A 
ATOM     37  C   UNL A   1      33.854  33.467  32.783  1.00  0.00     0.014 A 
ATOM     38  C   UNL A   1      35.100  35.522  32.537  1.00  0.00     0.014 A 
ATOM     39  C   UNL A   1      35.041  32.786  33.054  1.00  0.00     0.010 A 
ATOM     40  C   UNL A   1      36.292  34.823  32.694  1.00  0.00     0.010 A 
ATOM     41  C   UNL A   1      36.273  33.458  33.000  1.00  0.00    -0.014 A 
BRANCH  41  42
ATOM     42  C   UNL A   1      37.535  32.760  33.344  1.00  0.00     0.031 A 
ATOM     43  C   UNL A   1      38.250  33.093  34.628  1.00  0.00     0.074 A 
ATOM     44  C   UNL A   1      38.048  31.850  32.497  1.00  0.00     0.049 A 
ATOM     45  N   UNL A   1      39.368  32.606  35.103  1.00  0.00    -0.248 NA
ATOM     46  C   UNL A   1      37.646  34.134  35.475  1.00  0.00     0.031 C 
ATOM     47  C   UNL A   1      37.478  31.488  31.198  1.00  0.00     0.029 A 
ATOM     48  N   UNL A   1      39.164  31.061  32.603  1.00  0.00    -0.354 N 
ATOM     49  C   UNL A   1      39.605  33.291  36.288  1.00  0.00     0.074 A 
ATOM     50  C   UNL A   1      38.556  34.275  36.426  1.00  0.00     0.031 C 
ATOM     51  C   UNL A   1      38.232  30.525  30.642  1.00  0.00     0.029 A 
ATOM     52  C   UNL A   1      39.349  30.223  31.531  1.00  0.00     0.049 A 
ATOM     53  H   UNL A   1      39.775  31.092  33.375  1.00  0.00     0.167 HD
ATOM     54  C   UNL A   1      40.588  33.097  37.198  1.00  0.00     0.037 A 
ATOM     55  C   UNL A   1      40.310  29.311  31.298  1.00  0.00     0.037 A 
ATOM     56  C   UNL A   1      41.611  32.094  37.073  1.00  0.00     0.049 A 
ATOM     57  C   UNL A   1      41.372  29.088  32.336  1.00  0.00     0.074 A 
ATOM     58  C   UNL A   1      42.625  31.776  37.959  1.00  0.00     0.029 A 
ATOM     59  N   UNL A   1      41.743  31.240  35.988  1.00  0.00    -0.354 N 
ATOM     60  N   UNL A   1      41.547  29.698  33.484  1.00  0.00    -0.248 NA
ATOM     61  C   UNL A   1      42.361  28.039  32.056  1.00  0.00     0.031 C 
ATOM     62  C   UNL A   1      43.392  30.750  37.394  1.00  0.00     0.029 A 
ATOM     63  C   UNL A   1      42.829  30.400  36.178  1.00  0.00     0.049 A 
ATOM     64  H   UNL A   1      41.153  31.230  35.200  1.00  0.00     0.167 HD
ATOM     65  C   UNL A   1      42.650  29.094  34.072  1.00  0.00     0.074 A 
ATOM     66  C   UNL A   1      43.091  28.057  33.162  1.00  0.00     0.031 C 
ATOM     67  C   UNL A   1      43.247  29.373  35.258  1.00  0.00     0.037 A 
BRANCH  54  68
ATOM     68  C   UNL A   1      40.589  33.984  38.411  1.00  0.00     0.057 A 
ATOM     69  C   UNL A   1      41.345  35.163  38.463  1.00  0.00     0.134 A 
ATOM     70  C   UNL A   1      39.823  33.660  39.537  1.00  0.00     0.134 A 
ATOM     71  F   UNL A   1      42.113  35.525  37.424  1.00  0.00    -0.206 F 
ATOM     72  C   UNL A   1      41.365  35.970  39.603  1.00  0.00     0.040 A 
ATOM     73  C   UNL A   1      39.813  34.474  40.672  1.00  0.00     0.040 A 
ATOM     74  F   UNL A   1      39.073  32.548  39.555  1.00  0.00    -0.206 F 
ATOM     75  C   UNL A   1      40.593  35.628  40.710  1.00  0.00     0.006 A 
ENDBRANCH  54  68
BRANCH  55  76
ATOM     76  C   UNL A   1      40.284  28.516  30.045  1.00  0.00     0.057 A 
ATOM     77  C   UNL A   1      39.478  27.379  29.926  1.00  0.00     0.134 A 
ATOM     78  C   UNL A   1      41.050  28.884  28.932  1.00  0.00     0.134 A 
ATOM     79  F   UNL A   1      38.732  26.968  30.962  1.00  0.00    -0.206 F 
ATOM     80  C   UNL A   1      39.448  26.623  28.753  1.00  0.00     0.040 A 
ATOM     81  C   UNL A   1      41.012  28.152  27.745  1.00  0.00     0.040 A 
ATOM     82  F   UNL A   1      41.833  29.972  28.979  1.00  0.00    -0.206 F 
ATOM     83  C   UNL A   1      40.213  27.014  27.655  1.00  0.00     0.006 A 
ENDBRANCH  55  76
BRANCH  67  84
ATOM     84  C   UNL A   1      44.421  28.525  35.646  1.00  0.00     0.057 A 
ATOM     85  C   UNL A   1      44.268  27.351  36.393  1.00  0.00     0.134 A 
ATOM     86  C   UNL A   1      45.715  28.873  35.240  1.00  0.00     0.134 A 
ATOM     87  F   UNL A   1      43.055  26.970  36.822  1.00  0.00    -0.206 F 
ATOM     88  C   UNL A   1      45.366  26.565  36.746  1.00  0.00     0.040 A 
ATOM     89  C   UNL A   1      46.818  28.081  35.564  1.00  0.00     0.040 A 
ATOM     90  F   UNL A   1      45.927  29.981  34.514  1.00  0.00    -0.206 F 
ATOM     91  C   UNL A   1      46.645  26.927  36.325  1.00  0.00     0.006 A 
ENDBRANCH  67  84
ENDBRANCH  41  42
ENDBRANCH  33  36
ENDBRANCH  31  32
ENDBRANCH  30  31
ENDBRANCH  29  30
ENDBRANCH   3  29
TORSDOF 16
ENDMDL
