MODEL 1
REMARK VINA RESULT:     -13.2      0.000      0.000
REMARK SMILES COc1cccc(C(=O)Nc2ccc(NC(=O)[C@@H]3[C@@H](C(=O)NCCCNC(=O)c4ccc(-c5c6nc(c(-c7c(F)cccc7F)c7ccc([nH]7)c(-c7c(F)cccc7F)c7nc(c(-c8c(F)cccc8F)c8ccc5[nH]8)C=C7)C=C6)cc4)[C@@H]4C=C[C@H]3C4)cc2)c1
REMARK SMILES IDX 20 1 21 2 22 3 19 5 18 6 86 7 83 8 85 9 87 10 84 11 16 12
REMARK SMILES IDX 15 13 17 15 14 16 11 17 12 18 89 19 13 20 88 21 10 22 8 23
REMARK SMILES IDX 9 24 7 26 3 27 4 28 90 29 5 30 6 31 2 32 1 33 23 34 24 35
REMARK SMILES IDX 25 36 26 37 27 38 28 40 29 41 30 42 82 43 31 44 81 45 32 46
REMARK SMILES IDX 33 47 34 48 75 49 35 50 80 51 74 52 76 53 36 54 79 55 73 56
REMARK SMILES IDX 72 57 37 59 63 60 46 61 62 62 47 63 50 64 61 65 77 66 48 67
REMARK SMILES IDX 49 68 60 70 78 71 51 72 38 73 39 74 44 75 40 76 41 77 43 78
REMARK SMILES IDX 45 79 42 80 64 81 65 82 70 83 66 84 67 85 69 86 71 87 68 88
REMARK SMILES IDX 52 89 53 90 58 91 54 92 55 93 57 94 59 95 56 96
REMARK H PARENT 22 4 15 14 10 25 26 39 76 58 50 69
REMARK Flexibility Score: inf
ROOT
ATOM      1  C   UNL A   1      31.440  29.626  24.139  1.00  0.00     0.224 C 
ATOM      2  O   UNL A   1      32.233  29.266  23.258  1.00  0.00    -0.275 OA
ATOM      3  N   UNL A   1      32.005  29.993  25.307  1.00  0.00    -0.356 N 
ATOM      4  H   UNL A   1      32.986  29.921  25.317  1.00  0.00     0.163 HD
ENDROOT
BRANCH   1   5
ATOM      5  C   UNL A   1      29.953  29.673  23.805  1.00  0.00     0.098 C 
ATOM      6  C   UNL A   1      29.419  28.459  23.016  1.00  0.00     0.099 C 
ATOM      7  C   UNL A   1      28.332  29.112  22.101  1.00  0.00     0.025 C 
ATOM      8  C   UNL A   1      29.289  30.877  23.094  1.00  0.00     0.025 C 
ATOM      9  C   UNL A   1      27.259  29.796  22.914  1.00  0.00    -0.027 C 
ATOM     10  C   UNL A   1      29.054  30.391  21.663  1.00  0.00     0.017 C 
ATOM     11  C   UNL A   1      27.825  30.856  23.512  1.00  0.00    -0.027 C 
BRANCH   6  12
ATOM     12  C   UNL A   1      28.922  27.156  23.668  1.00  0.00     0.228 C 
ATOM     13  N   UNL A   1      29.717  26.209  24.244  1.00  0.00    -0.326 N 
ATOM     14  H   UNL A   1      29.285  25.695  24.964  1.00  0.00     0.169 HD
ATOM     15  O   UNL A   1      27.704  27.042  23.872  1.00  0.00    -0.274 OA
BRANCH  13  16
ATOM     16  C   UNL A   1      31.037  25.849  23.985  1.00  0.00     0.041 A 
ATOM     17  C   UNL A   1      33.608  24.900  23.543  1.00  0.00     0.041 A 
ATOM     18  C   UNL A   1      33.317  25.590  24.718  1.00  0.00     0.028 A 
ATOM     19  C   UNL A   1      32.633  24.715  22.566  1.00  0.00     0.028 A 
ATOM     20  C   UNL A   1      32.050  26.134  24.893  1.00  0.00     0.028 A 
ATOM     21  C   UNL A   1      31.346  25.219  22.776  1.00  0.00     0.028 A 
BRANCH  17  22
ATOM     22  N   UNL A   1      34.896  24.409  23.355  1.00  0.00    -0.322 N 
ATOM     23  C   UNL A   1      35.353  23.124  23.566  1.00  0.00     0.255 C 
ATOM     24  O   UNL A   1      36.407  22.779  23.032  1.00  0.00    -0.269 OA
ATOM     25  H   UNL A   1      35.564  25.058  23.034  1.00  0.00     0.170 HD
BRANCH  23  26
ATOM     26  C   UNL A   1      34.700  22.206  24.554  1.00  0.00     0.043 A 
ATOM     27  C   UNL A   1      33.142  20.452  25.214  1.00  0.00     0.119 A 
ATOM     28  C   UNL A   1      33.419  20.714  26.551  1.00  0.00     0.046 A 
ATOM     29  C   UNL A   1      33.821  21.167  24.228  1.00  0.00     0.060 A 
ATOM     30  C   UNL A   1      34.350  21.693  26.899  1.00  0.00     0.005 A 
ATOM     31  C   UNL A   1      34.981  22.442  25.905  1.00  0.00     0.014 A 
BRANCH  27  32
ATOM     32  O   UNL A   1      32.202  19.483  24.979  1.00  0.00    -0.497 OA
ATOM     33  C   UNL A   1      32.534  18.154  25.374  1.00  0.00     0.278 C 
ENDBRANCH  27  32
ENDBRANCH  23  26
ENDBRANCH  17  22
ENDBRANCH  13  16
ENDBRANCH   6  12
ENDBRANCH   1   5
BRANCH   3  34
ATOM     34  C   UNL A   1      31.442  30.472  26.546  1.00  0.00     0.117 C 
BRANCH  34  35
ATOM     35  C   UNL A   1      31.393  31.994  26.583  1.00  0.00     0.042 C 
BRANCH  35  36
ATOM     36  C   UNL A   1      32.735  32.611  26.951  1.00  0.00     0.118 C 
BRANCH  36  37
ATOM     37  N   UNL A   1      32.564  33.981  27.405  1.00  0.00    -0.352 N 
ATOM     38  C   UNL A   1      33.059  34.586  28.528  1.00  0.00     0.251 C 
ATOM     39  H   UNL A   1      32.016  34.554  26.823  1.00  0.00     0.163 HD
ATOM     40  O   UNL A   1      32.529  35.625  28.936  1.00  0.00    -0.269 OA
BRANCH  38  41
ATOM     41  C   UNL A   1      34.219  34.023  29.249  1.00  0.00     0.039 A 
ATOM     42  C   UNL A   1      35.509  34.377  28.841  1.00  0.00     0.014 A 
ATOM     43  C   UNL A   1      34.046  33.082  30.270  1.00  0.00     0.014 A 
ATOM     44  C   UNL A   1      36.619  33.807  29.469  1.00  0.00     0.010 A 
ATOM     45  C   UNL A   1      35.150  32.575  30.948  1.00  0.00     0.010 A 
ATOM     46  C   UNL A   1      36.447  32.910  30.536  1.00  0.00    -0.014 A 
BRANCH  46  47
ATOM     47  C   UNL A   1      37.608  32.272  31.200  1.00  0.00     0.031 A 
ATOM     48  C   UNL A   1      38.360  31.173  30.500  1.00  0.00     0.074 A 
ATOM     49  C   UNL A   1      37.947  32.638  32.451  1.00  0.00     0.049 A 
ATOM     50  N   UNL A   1      39.349  30.436  30.939  1.00  0.00    -0.248 NA
ATOM     51  C   UNL A   1      37.921  30.835  29.136  1.00  0.00     0.031 C 
ATOM     52  C   UNL A   1      37.265  33.658  33.248  1.00  0.00     0.029 A 
ATOM     53  N   UNL A   1      38.946  32.185  33.273  1.00  0.00    -0.354 N 
ATOM     54  C   UNL A   1      39.633  29.537  29.918  1.00  0.00     0.074 A 
ATOM     55  C   UNL A   1      38.682  29.787  28.857  1.00  0.00     0.031 C 
ATOM     56  C   UNL A   1      37.878  33.768  34.437  1.00  0.00     0.029 A 
ATOM     57  C   UNL A   1      38.974  32.806  34.497  1.00  0.00     0.049 A 
ATOM     58  H   UNL A   1      39.583  31.482  33.010  1.00  0.00     0.167 HD
ATOM     59  C   UNL A   1      40.612  28.603  29.861  1.00  0.00     0.037 A 
ATOM     60  C   UNL A   1      39.791  32.617  35.549  1.00  0.00     0.037 A 
ATOM     61  C   UNL A   1      41.580  28.386  30.902  1.00  0.00     0.049 A 
ATOM     62  C   UNL A   1      40.885  31.592  35.452  1.00  0.00     0.074 A 
ATOM     63  C   UNL A   1      42.652  27.512  30.916  1.00  0.00     0.029 A 
ATOM     64  N   UNL A   1      41.595  29.058  32.115  1.00  0.00    -0.354 N 
ATOM     65  N   UNL A   1      41.178  30.789  34.458  1.00  0.00    -0.248 NA
ATOM     66  C   UNL A   1      41.766  31.451  36.620  1.00  0.00     0.031 C 
ATOM     67  C   UNL A   1      43.299  27.634  32.151  1.00  0.00     0.029 A 
ATOM     68  C   UNL A   1      42.649  28.609  32.891  1.00  0.00     0.049 A 
ATOM     69  H   UNL A   1      40.950  29.752  32.385  1.00  0.00     0.167 HD
ATOM     70  C   UNL A   1      42.288  30.063  34.869  1.00  0.00     0.074 A 
ATOM     71  C   UNL A   1      42.624  30.533  36.199  1.00  0.00     0.031 C 
ATOM     72  C   UNL A   1      42.968  29.095  34.209  1.00  0.00     0.037 A 
BRANCH  59  73
ATOM     73  C   UNL A   1      40.685  27.752  28.627  1.00  0.00     0.057 A 
ATOM     74  C   UNL A   1      39.951  26.566  28.503  1.00  0.00     0.134 A 
ATOM     75  C   UNL A   1      41.479  28.137  27.539  1.00  0.00     0.134 A 
ATOM     76  F   UNL A   1      39.181  26.134  29.514  1.00  0.00    -0.206 F 
ATOM     77  C   UNL A   1      40.024  25.777  27.354  1.00  0.00     0.040 A 
ATOM     78  C   UNL A   1      41.542  27.369  26.374  1.00  0.00     0.040 A 
ATOM     79  F   UNL A   1      42.205  29.263  27.588  1.00  0.00    -0.206 F 
ATOM     80  C   UNL A   1      40.818  26.182  26.282  1.00  0.00     0.006 A 
ENDBRANCH  59  73
BRANCH  60  81
ATOM     81  C   UNL A   1      39.625  33.441  36.772  1.00  0.00     0.057 A 
ATOM     82  C   UNL A   1      40.306  34.654  36.919  1.00  0.00     0.134 A 
ATOM     83  C   UNL A   1      38.780  33.042  37.813  1.00  0.00     0.134 A 
ATOM     84  F   UNL A   1      41.143  35.079  35.961  1.00  0.00    -0.206 F 
ATOM     85  C   UNL A   1      40.165  35.437  38.066  1.00  0.00     0.040 A 
ATOM     86  C   UNL A   1      38.613  33.826  38.957  1.00  0.00     0.040 A 
ATOM     87  F   UNL A   1      38.092  31.895  37.727  1.00  0.00    -0.206 F 
ATOM     88  C   UNL A   1      39.311  35.025  39.087  1.00  0.00     0.006 A 
ENDBRANCH  60  81
BRANCH  72  89
ATOM     89  C   UNL A   1      44.156  28.502  34.904  1.00  0.00     0.057 A 
ATOM     90  C   UNL A   1      45.433  29.061  34.785  1.00  0.00     0.134 A 
ATOM     91  C   UNL A   1      44.012  27.379  35.728  1.00  0.00     0.134 A 
ATOM     92  F   UNL A   1      45.637  30.130  33.999  1.00  0.00    -0.206 F 
ATOM     93  C   UNL A   1      46.532  28.513  35.447  1.00  0.00     0.040 A 
ATOM     94  C   UNL A   1      45.098  26.836  36.414  1.00  0.00     0.040 A 
ATOM     95  F   UNL A   1      42.811  26.801  35.890  1.00  0.00    -0.206 F 
ATOM     96  C   UNL A   1      46.364  27.400  36.270  1.00  0.00     0.006 A 
ENDBRANCH  72  89
ENDBRANCH  46  47
ENDBRANCH  38  41
ENDBRANCH  36  37
ENDBRANCH  35  36
ENDBRANCH  34  35
ENDBRANCH   3  34
TORSDOF 15
ENDMDL
MODEL 2
REMARK VINA RESULT:     -13.2      1.711      2.834
REMARK SMILES COc1cccc(C(=O)Nc2ccc(NC(=O)[C@@H]3[C@@H](C(=O)NCCCNC(=O)c4ccc(-c5c6nc(c(-c7c(F)cccc7F)c7ccc([nH]7)c(-c7c(F)cccc7F)c7nc(c(-c8c(F)cccc8F)c8ccc5[nH]8)C=C7)C=C6)cc4)[C@@H]4C=C[C@H]3C4)cc2)c1
REMARK SMILES IDX 20 1 21 2 22 3 19 5 18 6 86 7 83 8 85 9 87 10 84 11 16 12
REMARK SMILES IDX 15 13 17 15 14 16 11 17 12 18 89 19 13 20 88 21 10 22 8 23
REMARK SMILES IDX 9 24 7 26 3 27 4 28 90 29 5 30 6 31 2 32 1 33 23 34 24 35
REMARK SMILES IDX 25 36 26 37 27 38 28 40 29 41 30 42 82 43 31 44 81 45 32 46
REMARK SMILES IDX 33 47 34 48 75 49 35 50 80 51 74 52 76 53 36 54 79 55 73 56
REMARK SMILES IDX 72 57 37 59 63 60 46 61 62 62 47 63 50 64 61 65 77 66 48 67
REMARK SMILES IDX 49 68 60 70 78 71 51 72 38 73 39 74 44 75 40 76 41 77 43 78
REMARK SMILES IDX 45 79 42 80 64 81 65 82 70 83 66 84 67 85 69 86 71 87 68 88
REMARK SMILES IDX 52 89 53 90 58 91 54 92 55 93 57 94 59 95 56 96
REMARK H PARENT 22 4 15 14 10 25 26 39 76 58 50 69
REMARK Flexibility Score: inf
ROOT
ATOM      1  C   UNL A   1      31.719  28.533  26.948  1.00  0.00     0.224 C 
ATOM      2  O   UNL A   1      31.534  27.856  27.969  1.00  0.00    -0.275 OA
ATOM      3  N   UNL A   1      31.425  29.844  27.065  1.00  0.00    -0.356 N 
ATOM      4  H   UNL A   1      31.089  30.100  27.954  1.00  0.00     0.163 HD
ENDROOT
BRANCH   1   5
ATOM      5  C   UNL A   1      32.299  27.848  25.716  1.00  0.00     0.098 C 
ATOM      6  C   UNL A   1      31.833  26.393  25.493  1.00  0.00     0.099 C 
ATOM      7  C   UNL A   1      33.108  25.728  24.879  1.00  0.00     0.025 C 
ATOM      8  C   UNL A   1      33.818  27.780  25.429  1.00  0.00     0.025 C 
ATOM      9  C   UNL A   1      33.527  26.409  23.596  1.00  0.00    -0.027 C 
ATOM     10  C   UNL A   1      34.204  26.337  25.760  1.00  0.00     0.017 C 
ATOM     11  C   UNL A   1      33.955  27.640  23.919  1.00  0.00    -0.027 C 
BRANCH   6  12
ATOM     12  C   UNL A   1      30.552  26.005  24.734  1.00  0.00     0.228 C 
ATOM     13  N   UNL A   1      30.108  24.731  24.535  1.00  0.00    -0.326 N 
ATOM     14  H   UNL A   1      29.132  24.647  24.442  1.00  0.00     0.169 HD
ATOM     15  O   UNL A   1      29.752  26.910  24.451  1.00  0.00    -0.274 OA
BRANCH  13  16
ATOM     16  C   UNL A   1      30.805  23.528  24.443  1.00  0.00     0.041 A 
ATOM     17  C   UNL A   1      32.399  21.258  24.325  1.00  0.00     0.041 A 
ATOM     18  C   UNL A   1      32.097  21.953  23.156  1.00  0.00     0.028 A 
ATOM     19  C   UNL A   1      31.877  21.665  25.551  1.00  0.00     0.028 A 
ATOM     20  C   UNL A   1      31.231  23.039  23.213  1.00  0.00     0.028 A 
ATOM     21  C   UNL A   1      31.050  22.791  25.604  1.00  0.00     0.028 A 
BRANCH  17  22
ATOM     22  N   UNL A   1      33.222  20.139  24.247  1.00  0.00    -0.322 N 
ATOM     23  C   UNL A   1      34.545  20.032  24.625  1.00  0.00     0.255 C 
ATOM     24  O   UNL A   1      35.014  18.909  24.812  1.00  0.00    -0.269 OA
ATOM     25  H   UNL A   1      32.812  19.325  23.874  1.00  0.00     0.170 HD
BRANCH  23  26
ATOM     26  C   UNL A   1      35.460  21.219  24.644  1.00  0.00     0.043 A 
ATOM     27  C   UNL A   1      37.349  22.512  25.481  1.00  0.00     0.119 A 
ATOM     28  C   UNL A   1      36.946  23.595  24.705  1.00  0.00     0.046 A 
ATOM     29  C   UNL A   1      36.630  21.320  25.406  1.00  0.00     0.060 A 
ATOM     30  C   UNL A   1      35.826  23.492  23.879  1.00  0.00     0.005 A 
ATOM     31  C   UNL A   1      35.082  22.312  23.856  1.00  0.00     0.014 A 
BRANCH  27  32
ATOM     32  O   UNL A   1      38.450  22.722  26.268  1.00  0.00    -0.497 OA
ATOM     33  C   UNL A   1      39.529  21.800  26.126  1.00  0.00     0.278 C 
ENDBRANCH  27  32
ENDBRANCH  23  26
ENDBRANCH  17  22
ENDBRANCH  13  16
ENDBRANCH   6  12
ENDBRANCH   1   5
BRANCH   3  34
ATOM     34  C   UNL A   1      31.510  30.941  26.133  1.00  0.00     0.117 C 
BRANCH  34  35
ATOM     35  C   UNL A   1      31.373  32.283  26.840  1.00  0.00     0.042 C 
BRANCH  35  36
ATOM     36  C   UNL A   1      32.720  32.904  27.179  1.00  0.00     0.118 C 
BRANCH  36  37
ATOM     37  N   UNL A   1      32.555  34.278  27.626  1.00  0.00    -0.352 N 
ATOM     38  C   UNL A   1      33.052  34.886  28.747  1.00  0.00     0.251 C 
ATOM     39  H   UNL A   1      32.009  34.851  27.042  1.00  0.00     0.163 HD
ATOM     40  O   UNL A   1      32.528  35.929  29.150  1.00  0.00    -0.269 OA
BRANCH  38  41
ATOM     41  C   UNL A   1      34.210  34.320  29.471  1.00  0.00     0.039 A 
ATOM     42  C   UNL A   1      35.499  34.563  28.985  1.00  0.00     0.014 A 
ATOM     43  C   UNL A   1      34.030  33.483  30.576  1.00  0.00     0.014 A 
ATOM     44  C   UNL A   1      36.602  33.986  29.618  1.00  0.00     0.010 A 
ATOM     45  C   UNL A   1      35.133  32.974  31.254  1.00  0.00     0.010 A 
ATOM     46  C   UNL A   1      36.427  33.196  30.766  1.00  0.00    -0.014 A 
BRANCH  46  47
ATOM     47  C   UNL A   1      37.580  32.551  31.439  1.00  0.00     0.031 A 
ATOM     48  C   UNL A   1      38.276  31.391  30.784  1.00  0.00     0.074 A 
ATOM     49  C   UNL A   1      37.958  32.970  32.662  1.00  0.00     0.049 A 
ATOM     50  N   UNL A   1      39.248  30.642  31.241  1.00  0.00    -0.248 NA
ATOM     51  C   UNL A   1      37.797  30.998  29.449  1.00  0.00     0.031 C 
ATOM     52  C   UNL A   1      37.330  34.054  33.418  1.00  0.00     0.029 A 
ATOM     53  N   UNL A   1      38.959  32.524  33.486  1.00  0.00    -0.354 N 
ATOM     54  C   UNL A   1      39.478  29.681  30.264  1.00  0.00     0.074 A 
ATOM     55  C   UNL A   1      38.513  29.910  29.210  1.00  0.00     0.031 C 
ATOM     56  C   UNL A   1      37.973  34.203  34.586  1.00  0.00     0.029 A 
ATOM     57  C   UNL A   1      39.035  33.207  34.676  1.00  0.00     0.049 A 
ATOM     58  H   UNL A   1      39.565  31.785  33.249  1.00  0.00     0.167 HD
ATOM     59  C   UNL A   1      40.421  28.711  30.236  1.00  0.00     0.037 A 
ATOM     60  C   UNL A   1      39.868  33.043  35.719  1.00  0.00     0.037 A 
ATOM     61  C   UNL A   1      41.404  28.514  31.268  1.00  0.00     0.049 A 
ATOM     62  C   UNL A   1      40.922  31.975  35.655  1.00  0.00     0.074 A 
ATOM     63  C   UNL A   1      42.445  27.603  31.306  1.00  0.00     0.029 A 
ATOM     64  N   UNL A   1      41.469  29.247  32.443  1.00  0.00    -0.354 N 
ATOM     65  N   UNL A   1      41.165  31.111  34.699  1.00  0.00    -0.248 NA
ATOM     66  C   UNL A   1      41.823  31.863  36.811  1.00  0.00     0.031 C 
ATOM     67  C   UNL A   1      43.122  27.765  32.521  1.00  0.00     0.029 A 
ATOM     68  C   UNL A   1      42.524  28.800  33.221  1.00  0.00     0.049 A 
ATOM     69  H   UNL A   1      40.856  29.977  32.689  1.00  0.00     0.167 HD
ATOM     70  C   UNL A   1      42.257  30.368  35.126  1.00  0.00     0.074 A 
ATOM     71  C   UNL A   1      42.639  30.894  36.422  1.00  0.00     0.031 C 
ATOM     72  C   UNL A   1      42.888  29.342  34.504  1.00  0.00     0.037 A 
BRANCH  59  73
ATOM     73  C   UNL A   1      40.437  27.795  29.047  1.00  0.00     0.057 A 
ATOM     74  C   UNL A   1      41.225  28.061  27.921  1.00  0.00     0.134 A 
ATOM     75  C   UNL A   1      39.675  26.620  29.039  1.00  0.00     0.134 A 
ATOM     76  F   UNL A   1      41.969  29.178  27.860  1.00  0.00    -0.206 F 
ATOM     77  C   UNL A   1      41.235  27.208  26.816  1.00  0.00     0.040 A 
ATOM     78  C   UNL A   1      39.695  25.745  27.950  1.00  0.00     0.040 A 
ATOM     79  F   UNL A   1      38.901  26.301  30.086  1.00  0.00    -0.206 F 
ATOM     80  C   UNL A   1      40.472  26.042  26.832  1.00  0.00     0.006 A 
ENDBRANCH  59  73
BRANCH  60  81
ATOM     81  C   UNL A   1      39.758  33.935  36.900  1.00  0.00     0.057 A 
ATOM     82  C   UNL A   1      40.453  35.149  36.952  1.00  0.00     0.134 A 
ATOM     83  C   UNL A   1      38.953  33.603  37.996  1.00  0.00     0.134 A 
ATOM     84  F   UNL A   1      41.252  35.512  35.938  1.00  0.00    -0.206 F 
ATOM     85  C   UNL A   1      40.364  35.995  38.058  1.00  0.00     0.040 A 
ATOM     86  C   UNL A   1      38.838  34.451  39.099  1.00  0.00     0.040 A 
ATOM     87  F   UNL A   1      38.254  32.459  38.002  1.00  0.00    -0.206 F 
ATOM     88  C   UNL A   1      39.550  35.648  39.134  1.00  0.00     0.006 A 
ENDBRANCH  60  81
BRANCH  72  89
ATOM     89  C   UNL A   1      44.069  28.743  35.206  1.00  0.00     0.057 A 
ATOM     90  C   UNL A   1      45.367  29.230  35.008  1.00  0.00     0.134 A 
ATOM     91  C   UNL A   1      43.900  27.692  36.115  1.00  0.00     0.134 A 
ATOM     92  F   UNL A   1      45.594  30.227  34.140  1.00  0.00    -0.206 F 
ATOM     93  C   UNL A   1      46.460  28.677  35.676  1.00  0.00     0.040 A 
ATOM     94  C   UNL A   1      44.982  27.147  36.807  1.00  0.00     0.040 A 
ATOM     95  F   UNL A   1      42.680  27.187  36.354  1.00  0.00    -0.206 F 
ATOM     96  C   UNL A   1      46.267  27.636  36.584  1.00  0.00     0.006 A 
ENDBRANCH  72  89
ENDBRANCH  46  47
ENDBRANCH  38  41
ENDBRANCH  36  37
ENDBRANCH  35  36
ENDBRANCH  34  35
ENDBRANCH   3  34
TORSDOF 15
ENDMDL
MODEL 3
REMARK VINA RESULT:     -13.1      1.771      6.455
REMARK SMILES COc1cccc(C(=O)Nc2ccc(NC(=O)[C@@H]3[C@@H](C(=O)NCCCNC(=O)c4ccc(-c5c6nc(c(-c7c(F)cccc7F)c7ccc([nH]7)c(-c7c(F)cccc7F)c7nc(c(-c8c(F)cccc8F)c8ccc5[nH]8)C=C7)C=C6)cc4)[C@@H]4C=C[C@H]3C4)cc2)c1
REMARK SMILES IDX 20 1 21 2 22 3 19 5 18 6 86 7 83 8 85 9 87 10 84 11 16 12
REMARK SMILES IDX 15 13 17 15 14 16 11 17 12 18 89 19 13 20 88 21 10 22 8 23
REMARK SMILES IDX 9 24 7 26 3 27 4 28 90 29 5 30 6 31 2 32 1 33 23 34 24 35
REMARK SMILES IDX 25 36 26 37 27 38 28 40 29 41 30 42 82 43 31 44 81 45 32 46
REMARK SMILES IDX 33 47 34 48 75 49 35 50 80 51 74 52 76 53 36 54 79 55 73 56
REMARK SMILES IDX 72 57 37 59 63 60 46 61 62 62 47 63 50 64 61 65 77 66 48 67
REMARK SMILES IDX 49 68 60 70 78 71 51 72 38 73 39 74 44 75 40 76 41 77 43 78
REMARK SMILES IDX 45 79 42 80 64 81 65 82 70 83 66 84 67 85 69 86 71 87 68 88
REMARK SMILES IDX 52 89 53 90 58 91 54 92 55 93 57 94 59 95 56 96
REMARK H PARENT 22 4 15 14 10 25 26 39 76 58 50 69
REMARK Flexibility Score: inf
ROOT
ATOM      1  C   UNL A   1      31.771  28.688  26.848  1.00  0.00     0.224 C 
ATOM      2  O   UNL A   1      31.704  28.056  27.911  1.00  0.00    -0.275 OA
ATOM      3  N   UNL A   1      31.385  29.978  26.919  1.00  0.00    -0.356 N 
ATOM      4  H   UNL A   1      31.088  30.257  27.816  1.00  0.00     0.163 HD
ENDROOT
BRANCH   1   5
ATOM      5  C   UNL A   1      32.322  27.981  25.615  1.00  0.00     0.098 C 
ATOM      6  C   UNL A   1      31.831  26.531  25.415  1.00  0.00     0.099 C 
ATOM      7  C   UNL A   1      33.086  25.840  24.789  1.00  0.00     0.025 C 
ATOM      8  C   UNL A   1      33.835  27.887  25.306  1.00  0.00     0.025 C 
ATOM      9  C   UNL A   1      33.495  26.501  23.493  1.00  0.00    -0.027 C 
ATOM     10  C   UNL A   1      34.204  26.442  25.647  1.00  0.00     0.017 C 
ATOM     11  C   UNL A   1      33.947  27.728  23.796  1.00  0.00    -0.027 C 
BRANCH   6  12
ATOM     12  C   UNL A   1      30.533  26.154  24.679  1.00  0.00     0.228 C 
ATOM     13  N   UNL A   1      30.064  24.886  24.505  1.00  0.00    -0.326 N 
ATOM     14  H   UNL A   1      29.085  24.817  24.426  1.00  0.00     0.169 HD
ATOM     15  O   UNL A   1      29.745  27.070  24.395  1.00  0.00    -0.274 OA
BRANCH  13  16
ATOM     16  C   UNL A   1      30.739  23.670  24.419  1.00  0.00     0.041 A 
ATOM     17  C   UNL A   1      32.293  21.372  24.307  1.00  0.00     0.041 A 
ATOM     18  C   UNL A   1      31.966  22.045  23.132  1.00  0.00     0.028 A 
ATOM     19  C   UNL A   1      31.815  21.816  25.538  1.00  0.00     0.028 A 
ATOM     20  C   UNL A   1      31.119  23.145  23.189  1.00  0.00     0.028 A 
ATOM     21  C   UNL A   1      31.008  22.956  25.590  1.00  0.00     0.028 A 
BRANCH  17  22
ATOM     22  N   UNL A   1      33.096  20.239  24.230  1.00  0.00    -0.322 N 
ATOM     23  C   UNL A   1      34.413  20.105  24.620  1.00  0.00     0.255 C 
ATOM     24  O   UNL A   1      34.860  18.972  24.805  1.00  0.00    -0.269 OA
ATOM     25  H   UNL A   1      32.674  19.434  23.850  1.00  0.00     0.170 HD
BRANCH  23  26
ATOM     26  C   UNL A   1      35.350  21.274  24.654  1.00  0.00     0.043 A 
ATOM     27  C   UNL A   1      37.253  22.529  25.516  1.00  0.00     0.119 A 
ATOM     28  C   UNL A   1      36.879  23.621  24.740  1.00  0.00     0.046 A 
ATOM     29  C   UNL A   1      36.513  21.350  25.428  1.00  0.00     0.060 A 
ATOM     30  C   UNL A   1      35.766  23.543  23.902  1.00  0.00     0.005 A 
ATOM     31  C   UNL A   1      35.000  22.377  23.866  1.00  0.00     0.014 A 
BRANCH  27  32
ATOM     32  O   UNL A   1      38.350  22.714  26.315  1.00  0.00    -0.497 OA
ATOM     33  C   UNL A   1      39.398  21.755  26.205  1.00  0.00     0.278 C 
ENDBRANCH  27  32
ENDBRANCH  23  26
ENDBRANCH  17  22
ENDBRANCH  13  16
ENDBRANCH   6  12
ENDBRANCH   1   5
BRANCH   3  34
ATOM     34  C   UNL A   1      31.326  31.026  25.931  1.00  0.00     0.117 C 
BRANCH  34  35
ATOM     35  C   UNL A   1      31.335  32.404  26.579  1.00  0.00     0.042 C 
BRANCH  35  36
ATOM     36  C   UNL A   1      32.639  32.696  27.308  1.00  0.00     0.118 C 
BRANCH  36  37
ATOM     37  N   UNL A   1      32.683  34.080  27.749  1.00  0.00    -0.352 N 
ATOM     38  C   UNL A   1      33.379  34.633  28.789  1.00  0.00     0.251 C 
ATOM     39  H   UNL A   1      32.135  34.709  27.226  1.00  0.00     0.163 HD
ATOM     40  O   UNL A   1      33.026  35.730  29.236  1.00  0.00    -0.269 OA
BRANCH  38  41
ATOM     41  C   UNL A   1      34.549  33.946  29.374  1.00  0.00     0.039 A 
ATOM     42  C   UNL A   1      35.829  34.265  28.907  1.00  0.00     0.014 A 
ATOM     43  C   UNL A   1      34.388  32.927  30.319  1.00  0.00     0.014 A 
ATOM     44  C   UNL A   1      36.941  33.582  29.402  1.00  0.00     0.010 A 
ATOM     45  C   UNL A   1      35.502  32.303  30.870  1.00  0.00     0.010 A 
ATOM     46  C   UNL A   1      36.787  32.603  30.397  1.00  0.00    -0.014 A 
BRANCH  46  47
ATOM     47  C   UNL A   1      37.950  31.846  30.919  1.00  0.00     0.031 A 
ATOM     48  C   UNL A   1      38.527  32.193  32.264  1.00  0.00     0.074 A 
ATOM     49  C   UNL A   1      38.520  30.891  30.161  1.00  0.00     0.049 A 
ATOM     50  N   UNL A   1      39.584  31.706  32.863  1.00  0.00    -0.248 NA
ATOM     51  C   UNL A   1      37.842  33.251  33.026  1.00  0.00     0.031 C 
ATOM     52  C   UNL A   1      38.078  30.498  28.822  1.00  0.00     0.029 A 
ATOM     53  N   UNL A   1      39.601  30.084  30.406  1.00  0.00    -0.354 N 
ATOM     54  C   UNL A   1      39.704  32.413  34.054  1.00  0.00     0.074 A 
ATOM     55  C   UNL A   1      38.640  33.394  34.073  1.00  0.00     0.031 C 
ATOM     56  C   UNL A   1      38.869  29.510  28.372  1.00  0.00     0.029 A 
ATOM     57  C   UNL A   1      39.889  29.224  29.375  1.00  0.00     0.049 A 
ATOM     58  H   UNL A   1      40.120  30.118  31.242  1.00  0.00     0.167 HD
ATOM     59  C   UNL A   1      40.603  32.243  35.051  1.00  0.00     0.037 A 
ATOM     60  C   UNL A   1      40.869  28.310  29.255  1.00  0.00     0.037 A 
ATOM     61  C   UNL A   1      41.633  31.239  35.045  1.00  0.00     0.049 A 
ATOM     62  C   UNL A   1      41.840  28.124  30.386  1.00  0.00     0.074 A 
ATOM     63  C   UNL A   1      42.553  30.940  36.034  1.00  0.00     0.029 A 
ATOM     64  N   UNL A   1      41.873  30.364  33.996  1.00  0.00    -0.354 N 
ATOM     65  N   UNL A   1      41.906  28.759  31.531  1.00  0.00    -0.248 NA
ATOM     66  C   UNL A   1      42.870  27.089  30.211  1.00  0.00     0.031 C 
ATOM     67  C   UNL A   1      43.371  29.903  35.570  1.00  0.00     0.029 A 
ATOM     68  C   UNL A   1      42.936  29.534  34.308  1.00  0.00     0.049 A 
ATOM     69  H   UNL A   1      41.363  30.338  33.154  1.00  0.00     0.167 HD
ATOM     70  C   UNL A   1      42.966  28.189  32.222  1.00  0.00     0.074 A 
ATOM     71  C   UNL A   1      43.506  27.146  31.372  1.00  0.00     0.031 C 
ATOM     72  C   UNL A   1      43.452  28.500  33.448  1.00  0.00     0.037 A 
BRANCH  59  73
ATOM     73  C   UNL A   1      40.505  33.162  36.234  1.00  0.00     0.057 A 
ATOM     74  C   UNL A   1      39.608  32.923  37.283  1.00  0.00     0.134 A 
ATOM     75  C   UNL A   1      41.335  34.285  36.339  1.00  0.00     0.134 A 
ATOM     76  F   UNL A   1      38.774  31.871  37.237  1.00  0.00    -0.206 F 
ATOM     77  C   UNL A   1      39.519  33.781  38.380  1.00  0.00     0.040 A 
ATOM     78  C   UNL A   1      41.273  35.138  37.443  1.00  0.00     0.040 A 
ATOM     79  F   UNL A   1      42.221  34.572  35.373  1.00  0.00    -0.206 F 
ATOM     80  C   UNL A   1      40.358  34.890  38.464  1.00  0.00     0.006 A 
ENDBRANCH  59  73
BRANCH  60  81
ATOM     81  C   UNL A   1      40.958  27.478  28.030  1.00  0.00     0.057 A 
ATOM     82  C   UNL A   1      40.299  26.247  27.946  1.00  0.00     0.134 A 
ATOM     83  C   UNL A   1      41.693  27.896  26.914  1.00  0.00     0.134 A 
ATOM     84  F   UNL A   1      39.593  25.788  28.991  1.00  0.00    -0.206 F 
ATOM     85  C   UNL A   1      40.378  25.451  26.803  1.00  0.00     0.040 A 
ATOM     86  C   UNL A   1      41.763  27.119  25.755  1.00  0.00     0.040 A 
ATOM     87  F   UNL A   1      42.338  29.071  26.928  1.00  0.00    -0.206 F 
ATOM     88  C   UNL A   1      41.108  25.890  25.700  1.00  0.00     0.006 A 
ENDBRANCH  60  81
BRANCH  72  89
ATOM     89  C   UNL A   1      44.606  27.685  33.951  1.00  0.00     0.057 A 
ATOM     90  C   UNL A   1      45.931  28.099  33.775  1.00  0.00     0.134 A 
ATOM     91  C   UNL A   1      44.384  26.492  34.648  1.00  0.00     0.134 A 
ATOM     92  F   UNL A   1      46.207  29.228  33.103  1.00  0.00    -0.206 F 
ATOM     93  C   UNL A   1      46.999  27.344  34.259  1.00  0.00     0.040 A 
ATOM     94  C   UNL A   1      45.443  25.739  35.157  1.00  0.00     0.040 A 
ATOM     95  F   UNL A   1      43.136  26.045  34.857  1.00  0.00    -0.206 F 
ATOM     96  C   UNL A   1      46.755  26.162  34.958  1.00  0.00     0.006 A 
ENDBRANCH  72  89
ENDBRANCH  46  47
ENDBRANCH  38  41
ENDBRANCH  36  37
ENDBRANCH  35  36
ENDBRANCH  34  35
ENDBRANCH   3  34
TORSDOF 15
ENDMDL
