MODEL 1
REMARK VINA RESULT:     -10.8      0.000      0.000
REMARK SMILES Cc1cc2occ(CC(=O)NCCC(=O)NCCCNC(=O)c3ccc(-c4c5nc(c(-c6c(F)cccc6F)c6ccc([nH]6)c(-c6c(F)cccc6F)c6nc(c(-c7c(F)cccc7F)c7ccc4[nH]7)C=C6)C=C5)cc3)c2cc1C
REMARK SMILES IDX 17 1 16 2 14 3 15 4 13 6 12 7 11 8 9 9 10 10 8 12 7 13 1 14
REMARK SMILES IDX 2 15 3 16 79 17 4 18 78 19 80 20 5 21 77 22 6 23 18 24 19 25
REMARK SMILES IDX 20 26 21 27 22 29 23 30 24 31 76 32 25 33 75 34 26 35 27 36
REMARK SMILES IDX 28 37 69 38 29 39 74 40 68 41 70 42 30 43 73 44 67 45 66 46
REMARK SMILES IDX 31 48 57 49 40 50 56 51 41 52 44 53 55 54 71 55 42 56 43 57
REMARK SMILES IDX 54 59 72 60 45 61 32 62 33 63 38 64 34 65 35 66 37 67 39 68
REMARK SMILES IDX 36 69 58 70 59 71 64 72 60 73 61 74 63 75 65 76 62 77 46 78
REMARK SMILES IDX 47 79 52 80 48 81 49 82 51 83 53 84 50 85
REMARK H PARENT 16 5 11 11 20 28 70 47 44 58
REMARK Flexibility Score: inf
ROOT
ATOM      1  C   UNL A   1      33.221  29.284  24.882  1.00  0.00     0.117 C 
ENDROOT
BRANCH   1   2
ATOM      2  N   UNL A   1      31.794  29.053  24.705  1.00  0.00    -0.356 N 
ATOM      3  C   UNL A   1      31.128  28.218  23.858  1.00  0.00     0.221 C 
ATOM      4  O   UNL A   1      29.897  28.269  23.841  1.00  0.00    -0.275 OA
ATOM      5  H   UNL A   1      31.214  29.588  25.294  1.00  0.00     0.163 HD
BRANCH   3   6
ATOM      6  C   UNL A   1      31.877  27.267  22.954  1.00  0.00     0.121 C 
BRANCH   6   7
ATOM      7  C   UNL A   1      31.839  25.836  23.481  1.00  0.00     0.125 C 
BRANCH   7   8
ATOM      8  N   UNL A   1      31.170  25.739  24.766  1.00  0.00    -0.355 N 
ATOM      9  C   UNL A   1      31.528  25.072  25.900  1.00  0.00     0.224 C 
ATOM     10  O   UNL A   1      30.659  24.902  26.761  1.00  0.00    -0.275 OA
ATOM     11  H   UNL A   1      30.320  26.233  24.828  1.00  0.00     0.163 HD
BRANCH   9  12
ATOM     12  C   UNL A   1      32.967  24.670  26.154  1.00  0.00     0.139 C 
BRANCH  12  13
ATOM     13  C   UNL A   1      33.352  23.303  25.711  1.00  0.00     0.008 A 
ATOM     14  C   UNL A   1      37.899  19.932  24.907  1.00  0.00     0.045 C 
ATOM     15  C   UNL A   1      36.790  20.914  25.182  1.00  0.00    -0.044 A 
ATOM     16  C   UNL A   1      35.474  20.510  24.902  1.00  0.00     0.051 A 
ATOM     17  C   UNL A   1      37.044  22.209  25.688  1.00  0.00    -0.047 A 
ATOM     18  C   UNL A   1      34.457  21.431  25.132  1.00  0.00     0.134 A 
ATOM     19  C   UNL A   1      35.972  23.107  25.922  1.00  0.00     0.016 A 
ATOM     20  C   UNL A   1      38.436  22.704  25.986  1.00  0.00     0.044 C 
ATOM     21  O   UNL A   1      33.139  21.210  24.891  1.00  0.00    -0.464 OA
ATOM     22  C   UNL A   1      34.653  22.711  25.633  1.00  0.00     0.024 A 
ATOM     23  C   UNL A   1      32.484  22.347  25.215  1.00  0.00     0.200 A 
ENDBRANCH  12  13
ENDBRANCH   9  12
ENDBRANCH   7   8
ENDBRANCH   6   7
ENDBRANCH   3   6
ENDBRANCH   1   2
BRANCH   1  24
ATOM     24  C   UNL A   1      33.869  28.199  25.739  1.00  0.00     0.042 C 
BRANCH  24  25
ATOM     25  C   UNL A   1      33.706  28.402  27.240  1.00  0.00     0.118 C 
BRANCH  25  26
ATOM     26  N   UNL A   1      33.617  29.806  27.608  1.00  0.00    -0.352 N 
ATOM     27  C   UNL A   1      34.539  30.619  28.214  1.00  0.00     0.251 C 
ATOM     28  H   UNL A   1      32.761  30.239  27.386  1.00  0.00     0.163 HD
ATOM     29  O   UNL A   1      34.184  31.730  28.620  1.00  0.00    -0.269 OA
BRANCH  27  30
ATOM     30  C   UNL A   1      35.945  30.191  28.409  1.00  0.00     0.039 A 
ATOM     31  C   UNL A   1      36.332  29.699  29.660  1.00  0.00     0.014 A 
ATOM     32  C   UNL A   1      36.901  30.321  27.397  1.00  0.00     0.014 A 
ATOM     33  C   UNL A   1      37.652  29.292  29.878  1.00  0.00     0.010 A 
ATOM     34  C   UNL A   1      38.195  29.836  27.588  1.00  0.00     0.010 A 
ATOM     35  C   UNL A   1      38.590  29.329  28.835  1.00  0.00    -0.014 A 
BRANCH  35  36
ATOM     36  C   UNL A   1      39.991  28.872  29.036  1.00  0.00     0.031 A 
ATOM     37  C   UNL A   1      41.015  29.804  29.628  1.00  0.00     0.074 A 
ATOM     38  C   UNL A   1      40.362  27.640  28.635  1.00  0.00     0.049 A 
ATOM     39  N   UNL A   1      42.300  29.617  29.808  1.00  0.00    -0.248 NA
ATOM     40  C   UNL A   1      40.539  31.130  30.048  1.00  0.00     0.031 C 
ATOM     41  C   UNL A   1      39.483  26.654  28.006  1.00  0.00     0.029 A 
ATOM     42  N   UNL A   1      41.582  27.012  28.688  1.00  0.00    -0.354 N 
ATOM     43  C   UNL A   1      42.785  30.808  30.335  1.00  0.00     0.074 A 
ATOM     44  C   UNL A   1      41.668  31.725  30.402  1.00  0.00     0.031 C 
ATOM     45  C   UNL A   1      40.187  25.538  27.752  1.00  0.00     0.029 A 
ATOM     46  C   UNL A   1      41.571  25.742  28.166  1.00  0.00     0.049 A 
ATOM     47  H   UNL A   1      42.389  27.433  29.064  1.00  0.00     0.167 HD
ATOM     48  C   UNL A   1      44.042  31.105  30.746  1.00  0.00     0.037 A 
ATOM     49  C   UNL A   1      42.565  24.843  28.031  1.00  0.00     0.037 A 
ATOM     50  C   UNL A   1      45.145  30.183  30.718  1.00  0.00     0.049 A 
ATOM     51  C   UNL A   1      43.947  25.190  28.509  1.00  0.00     0.074 A 
ATOM     52  C   UNL A   1      46.439  30.370  31.175  1.00  0.00     0.029 A 
ATOM     53  N   UNL A   1      45.085  28.895  30.206  1.00  0.00    -0.354 N 
ATOM     54  N   UNL A   1      44.378  26.300  29.058  1.00  0.00    -0.248 NA
ATOM     55  C   UNL A   1      44.981  24.157  28.354  1.00  0.00     0.031 C 
ATOM     56  C   UNL A   1      47.170  29.207  30.910  1.00  0.00     0.029 A 
ATOM     57  C   UNL A   1      46.321  28.282  30.323  1.00  0.00     0.049 A 
ATOM     58  H   UNL A   1      44.282  28.478  29.818  1.00  0.00     0.167 HD
ATOM     59  C   UNL A   1      45.722  26.090  29.335  1.00  0.00     0.074 A 
ATOM     60  C   UNL A   1      46.035  24.743  28.905  1.00  0.00     0.031 C 
ATOM     61  C   UNL A   1      46.617  26.939  29.898  1.00  0.00     0.037 A 
BRANCH  48  62
ATOM     62  C   UNL A   1      44.286  32.492  31.267  1.00  0.00     0.057 A 
ATOM     63  C   UNL A   1      44.139  32.807  32.625  1.00  0.00     0.134 A 
ATOM     64  C   UNL A   1      44.699  33.517  30.407  1.00  0.00     0.134 A 
ATOM     65  F   UNL A   1      43.735  31.873  33.499  1.00  0.00    -0.206 F 
ATOM     66  C   UNL A   1      44.364  34.099  33.103  1.00  0.00     0.040 A 
ATOM     67  C   UNL A   1      44.953  34.806  30.878  1.00  0.00     0.040 A 
ATOM     68  F   UNL A   1      44.867  33.282  29.097  1.00  0.00    -0.206 F 
ATOM     69  C   UNL A   1      44.778  35.102  32.228  1.00  0.00     0.006 A 
ENDBRANCH  48  62
BRANCH  49  70
ATOM     70  C   UNL A   1      42.282  23.513  27.439  1.00  0.00     0.057 A 
ATOM     71  C   UNL A   1      41.935  22.424  28.249  1.00  0.00     0.134 A 
ATOM     72  C   UNL A   1      42.348  23.296  26.058  1.00  0.00     0.134 A 
ATOM     73  F   UNL A   1      41.876  22.567  29.581  1.00  0.00    -0.206 F 
ATOM     74  C   UNL A   1      41.676  21.165  27.707  1.00  0.00     0.040 A 
ATOM     75  C   UNL A   1      42.069  22.047  25.502  1.00  0.00     0.040 A 
ATOM     76  F   UNL A   1      42.671  24.300  25.230  1.00  0.00    -0.206 F 
ATOM     77  C   UNL A   1      41.737  20.975  26.328  1.00  0.00     0.006 A 
ENDBRANCH  49  70
BRANCH  61  78
ATOM     78  C   UNL A   1      48.010  26.426  30.110  1.00  0.00     0.057 A 
ATOM     79  C   UNL A   1      49.011  26.587  29.143  1.00  0.00     0.134 A 
ATOM     80  C   UNL A   1      48.363  25.801  31.312  1.00  0.00     0.134 A 
ATOM     81  F   UNL A   1      48.731  27.165  27.965  1.00  0.00    -0.206 F 
ATOM     82  C   UNL A   1      50.310  26.126  29.358  1.00  0.00     0.040 A 
ATOM     83  C   UNL A   1      49.665  25.357  31.548  1.00  0.00     0.040 A 
ATOM     84  F   UNL A   1      47.453  25.623  32.282  1.00  0.00    -0.206 F 
ATOM     85  C   UNL A   1      50.642  25.515  30.566  1.00  0.00     0.006 A 
ENDBRANCH  61  78
ENDBRANCH  35  36
ENDBRANCH  27  30
ENDBRANCH  25  26
ENDBRANCH  24  25
ENDBRANCH   1  24
TORSDOF 14
ENDMDL
MODEL 2
REMARK VINA RESULT:     -10.8      2.248      7.569
REMARK SMILES Cc1cc2occ(CC(=O)NCCC(=O)NCCCNC(=O)c3ccc(-c4c5nc(c(-c6c(F)cccc6F)c6ccc([nH]6)c(-c6c(F)cccc6F)c6nc(c(-c7c(F)cccc7F)c7ccc4[nH]7)C=C6)C=C5)cc3)c2cc1C
REMARK SMILES IDX 17 1 16 2 14 3 15 4 13 6 12 7 11 8 9 9 10 10 8 12 7 13 1 14
REMARK SMILES IDX 2 15 3 16 79 17 4 18 78 19 80 20 5 21 77 22 6 23 18 24 19 25
REMARK SMILES IDX 20 26 21 27 22 29 23 30 24 31 76 32 25 33 75 34 26 35 27 36
REMARK SMILES IDX 28 37 69 38 29 39 74 40 68 41 70 42 30 43 73 44 67 45 66 46
REMARK SMILES IDX 31 48 57 49 40 50 56 51 41 52 44 53 55 54 71 55 42 56 43 57
REMARK SMILES IDX 54 59 72 60 45 61 32 62 33 63 38 64 34 65 35 66 37 67 39 68
REMARK SMILES IDX 36 69 58 70 59 71 64 72 60 73 61 74 63 75 65 76 62 77 46 78
REMARK SMILES IDX 47 79 52 80 48 81 49 82 51 83 53 84 50 85
REMARK H PARENT 16 5 11 11 20 28 70 47 44 58
REMARK Flexibility Score: inf
ROOT
ATOM      1  C   UNL A   1      36.226  20.290  24.977  1.00  0.00     0.117 C 
ENDROOT
BRANCH   1   2
ATOM      2  N   UNL A   1      36.214  21.742  25.101  1.00  0.00    -0.356 N 
ATOM      3  C   UNL A   1      35.458  22.560  25.885  1.00  0.00     0.221 C 
ATOM      4  O   UNL A   1      35.581  23.778  25.742  1.00  0.00    -0.275 OA
ATOM      5  H   UNL A   1      36.861  22.209  24.523  1.00  0.00     0.163 HD
BRANCH   3   6
ATOM      6  C   UNL A   1      34.483  21.993  26.891  1.00  0.00     0.121 C 
BRANCH   6   7
ATOM      7  C   UNL A   1      33.222  21.459  26.219  1.00  0.00     0.125 C 
BRANCH   7   8
ATOM      8  N   UNL A   1      32.011  21.936  26.862  1.00  0.00    -0.355 N 
ATOM      9  C   UNL A   1      31.138  22.915  26.486  1.00  0.00     0.224 C 
ATOM     10  O   UNL A   1      30.349  23.333  27.338  1.00  0.00    -0.275 OA
ATOM     11  H   UNL A   1      31.783  21.482  27.705  1.00  0.00     0.163 HD
BRANCH   9  12
ATOM     12  C   UNL A   1      31.051  23.379  25.046  1.00  0.00     0.139 C 
BRANCH  12  13
ATOM     13  C   UNL A   1      31.978  24.475  24.654  1.00  0.00     0.008 A 
ATOM     14  C   UNL A   1      33.529  29.795  26.059  1.00  0.00     0.045 C 
ATOM     15  C   UNL A   1      33.043  28.391  25.810  1.00  0.00    -0.044 A 
ATOM     16  C   UNL A   1      33.594  27.690  24.725  1.00  0.00     0.051 A 
ATOM     17  C   UNL A   1      32.053  27.786  26.618  1.00  0.00    -0.047 A 
ATOM     18  C   UNL A   1      33.122  26.404  24.483  1.00  0.00     0.134 A 
ATOM     19  C   UNL A   1      31.615  26.466  26.342  1.00  0.00     0.016 A 
ATOM     20  C   UNL A   1      31.410  28.498  27.780  1.00  0.00     0.044 C 
ATOM     21  O   UNL A   1      33.530  25.605  23.464  1.00  0.00    -0.464 OA
ATOM     22  C   UNL A   1      32.157  25.764  25.249  1.00  0.00     0.024 A 
ATOM     23  C   UNL A   1      32.820  24.458  23.556  1.00  0.00     0.200 A 
ENDBRANCH  12  13
ENDBRANCH   9  12
ENDBRANCH   7   8
ENDBRANCH   6   7
ENDBRANCH   3   6
ENDBRANCH   1   2
BRANCH   1  24
ATOM     24  C   UNL A   1      37.627  19.756  24.693  1.00  0.00     0.042 C 
BRANCH  24  25
ATOM     25  C   UNL A   1      38.699  20.259  25.651  1.00  0.00     0.118 C 
BRANCH  25  26
ATOM     26  N   UNL A   1      39.835  19.355  25.742  1.00  0.00    -0.352 N 
ATOM     27  C   UNL A   1      41.140  19.610  26.078  1.00  0.00     0.251 C 
ATOM     28  H   UNL A   1      39.635  18.415  25.530  1.00  0.00     0.163 HD
ATOM     29  O   UNL A   1      41.988  18.731  25.896  1.00  0.00    -0.269 OA
BRANCH  27  30
ATOM     30  C   UNL A   1      41.559  20.916  26.638  1.00  0.00     0.039 A 
ATOM     31  C   UNL A   1      42.001  21.913  25.761  1.00  0.00     0.014 A 
ATOM     32  C   UNL A   1      41.577  21.156  28.015  1.00  0.00     0.014 A 
ATOM     33  C   UNL A   1      42.407  23.156  26.258  1.00  0.00     0.010 A 
ATOM     34  C   UNL A   1      41.902  22.422  28.503  1.00  0.00     0.010 A 
ATOM     35  C   UNL A   1      42.335  23.432  27.632  1.00  0.00    -0.014 A 
BRANCH  35  36
ATOM     36  C   UNL A   1      42.733  24.758  28.178  1.00  0.00     0.031 A 
ATOM     37  C   UNL A   1      41.697  25.826  28.408  1.00  0.00     0.074 A 
ATOM     38  C   UNL A   1      44.033  25.026  28.413  1.00  0.00     0.049 A 
ATOM     39  N   UNL A   1      41.858  27.066  28.800  1.00  0.00    -0.248 NA
ATOM     40  C   UNL A   1      40.299  25.462  28.134  1.00  0.00     0.031 C 
ATOM     41  C   UNL A   1      45.143  24.099  28.191  1.00  0.00     0.029 A 
ATOM     42  N   UNL A   1      44.639  26.165  28.883  1.00  0.00    -0.354 N 
ATOM     43  C   UNL A   1      40.589  27.632  28.794  1.00  0.00     0.074 A 
ATOM     44  C   UNL A   1      39.677  26.616  28.316  1.00  0.00     0.031 C 
ATOM     45  C   UNL A   1      46.292  24.698  28.545  1.00  0.00     0.029 A 
ATOM     46  C   UNL A   1      46.005  26.061  28.984  1.00  0.00     0.049 A 
ATOM     47  H   UNL A   1      44.142  26.981  29.123  1.00  0.00     0.167 HD
ATOM     48  C   UNL A   1      40.213  28.877  29.173  1.00  0.00     0.037 A 
ATOM     49  C   UNL A   1      46.924  26.961  29.380  1.00  0.00     0.037 A 
ATOM     50  C   UNL A   1      41.111  29.876  29.688  1.00  0.00     0.049 A 
ATOM     51  C   UNL A   1      46.481  28.331  29.811  1.00  0.00     0.074 A 
ATOM     52  C   UNL A   1      40.813  31.143  30.162  1.00  0.00     0.029 A 
ATOM     53  N   UNL A   1      42.484  29.720  29.801  1.00  0.00    -0.354 N 
ATOM     54  N   UNL A   1      45.271  28.833  29.855  1.00  0.00    -0.248 NA
ATOM     55  C   UNL A   1      47.532  29.259  30.254  1.00  0.00     0.031 C 
ATOM     56  C   UNL A   1      42.011  31.765  30.530  1.00  0.00     0.029 A 
ATOM     57  C   UNL A   1      43.049  30.872  30.322  1.00  0.00     0.049 A 
ATOM     58  H   UNL A   1      42.983  28.910  29.548  1.00  0.00     0.167 HD
ATOM     59  C   UNL A   1      45.412  30.122  30.351  1.00  0.00     0.074 A 
ATOM     60  C   UNL A   1      46.823  30.323  30.605  1.00  0.00     0.031 C 
ATOM     61  C   UNL A   1      44.455  31.055  30.577  1.00  0.00     0.037 A 
BRANCH  48  62
ATOM     62  C   UNL A   1      38.758  29.225  29.047  1.00  0.00     0.057 A 
ATOM     63  C   UNL A   1      38.191  29.601  27.822  1.00  0.00     0.134 A 
ATOM     64  C   UNL A   1      37.907  29.158  30.159  1.00  0.00     0.134 A 
ATOM     65  F   UNL A   1      38.953  29.697  26.722  1.00  0.00    -0.206 F 
ATOM     66  C   UNL A   1      36.838  29.927  27.712  1.00  0.00     0.040 A 
ATOM     67  C   UNL A   1      36.547  29.455  30.056  1.00  0.00     0.040 A 
ATOM     68  F   UNL A   1      38.382  28.797  31.360  1.00  0.00    -0.206 F 
ATOM     69  C   UNL A   1      36.011  29.848  28.831  1.00  0.00     0.006 A 
ENDBRANCH  48  62
BRANCH  49  70
ATOM     70  C   UNL A   1      48.359  26.586  29.414  1.00  0.00     0.057 A 
ATOM     71  C   UNL A   1      48.919  25.987  30.549  1.00  0.00     0.134 A 
ATOM     72  C   UNL A   1      49.201  26.812  28.320  1.00  0.00     0.134 A 
ATOM     73  F   UNL A   1      48.166  25.765  31.636  1.00  0.00    -0.206 F 
ATOM     74  C   UNL A   1      50.269  25.638  30.599  1.00  0.00     0.040 A 
ATOM     75  C   UNL A   1      50.548  26.446  28.348  1.00  0.00     0.040 A 
ATOM     76  F   UNL A   1      48.723  27.378  27.202  1.00  0.00    -0.206 F 
ATOM     77  C   UNL A   1      51.087  25.862  29.493  1.00  0.00     0.006 A 
ENDBRANCH  49  70
BRANCH  61  78
ATOM     78  C   UNL A   1      44.898  32.366  31.156  1.00  0.00     0.057 A 
ATOM     79  C   UNL A   1      44.994  32.568  32.538  1.00  0.00     0.134 A 
ATOM     80  C   UNL A   1      45.271  33.424  30.317  1.00  0.00     0.134 A 
ATOM     81  F   UNL A   1      44.638  31.597  33.394  1.00  0.00    -0.206 F 
ATOM     82  C   UNL A   1      45.429  33.784  33.067  1.00  0.00     0.040 A 
ATOM     83  C   UNL A   1      45.729  34.637  30.835  1.00  0.00     0.040 A 
ATOM     84  F   UNL A   1      45.209  33.292  28.984  1.00  0.00    -0.206 F 
ATOM     85  C   UNL A   1      45.804  34.820  32.214  1.00  0.00     0.006 A 
ENDBRANCH  61  78
ENDBRANCH  35  36
ENDBRANCH  27  30
ENDBRANCH  25  26
ENDBRANCH  24  25
ENDBRANCH   1  24
TORSDOF 14
ENDMDL
MODEL 3
REMARK VINA RESULT:     -10.7      2.356      7.822
REMARK SMILES Cc1cc2occ(CC(=O)NCCC(=O)NCCCNC(=O)c3ccc(-c4c5nc(c(-c6c(F)cccc6F)c6ccc([nH]6)c(-c6c(F)cccc6F)c6nc(c(-c7c(F)cccc7F)c7ccc4[nH]7)C=C6)C=C5)cc3)c2cc1C
REMARK SMILES IDX 17 1 16 2 14 3 15 4 13 6 12 7 11 8 9 9 10 10 8 12 7 13 1 14
REMARK SMILES IDX 2 15 3 16 79 17 4 18 78 19 80 20 5 21 77 22 6 23 18 24 19 25
REMARK SMILES IDX 20 26 21 27 22 29 23 30 24 31 76 32 25 33 75 34 26 35 27 36
REMARK SMILES IDX 28 37 69 38 29 39 74 40 68 41 70 42 30 43 73 44 67 45 66 46
REMARK SMILES IDX 31 48 57 49 40 50 56 51 41 52 44 53 55 54 71 55 42 56 43 57
REMARK SMILES IDX 54 59 72 60 45 61 32 62 33 63 38 64 34 65 35 66 37 67 39 68
REMARK SMILES IDX 36 69 58 70 59 71 64 72 60 73 61 74 63 75 65 76 62 77 46 78
REMARK SMILES IDX 47 79 52 80 48 81 49 82 51 83 53 84 50 85
REMARK H PARENT 16 5 11 11 20 28 70 47 44 58
REMARK Flexibility Score: inf
ROOT
ATOM      1  C   UNL A   1      36.378  20.306  25.003  1.00  0.00     0.117 C 
ENDROOT
BRANCH   1   2
ATOM      2  N   UNL A   1      35.257  19.377  24.966  1.00  0.00    -0.356 N 
ATOM      3  C   UNL A   1      33.916  19.606  24.910  1.00  0.00     0.221 C 
ATOM      4  O   UNL A   1      33.157  18.637  24.975  1.00  0.00    -0.275 OA
ATOM      5  H   UNL A   1      35.511  18.426  24.985  1.00  0.00     0.163 HD
BRANCH   3   6
ATOM      6  C   UNL A   1      33.370  21.009  24.785  1.00  0.00     0.121 C 
BRANCH   6   7
ATOM      7  C   UNL A   1      33.306  21.715  26.136  1.00  0.00     0.125 C 
BRANCH   7   8
ATOM      8  N   UNL A   1      31.942  21.940  26.578  1.00  0.00    -0.355 N 
ATOM      9  C   UNL A   1      31.310  23.091  26.944  1.00  0.00     0.224 C 
ATOM     10  O   UNL A   1      30.243  22.988  27.556  1.00  0.00    -0.275 OA
ATOM     11  H   UNL A   1      31.383  21.130  26.623  1.00  0.00     0.163 HD
BRANCH   9  12
ATOM     12  C   UNL A   1      31.828  24.446  26.502  1.00  0.00     0.139 C 
BRANCH  12  13
ATOM     13  C   UNL A   1      31.281  24.970  25.222  1.00  0.00     0.008 A 
ATOM     14  C   UNL A   1      30.096  29.843  22.476  1.00  0.00     0.045 C 
ATOM     15  C   UNL A   1      30.474  28.639  23.299  1.00  0.00    -0.044 A 
ATOM     16  C   UNL A   1      30.213  27.368  22.760  1.00  0.00     0.051 A 
ATOM     17  C   UNL A   1      31.057  28.760  24.581  1.00  0.00    -0.047 A 
ATOM     18  C   UNL A   1      30.539  26.261  23.535  1.00  0.00     0.134 A 
ATOM     19  C   UNL A   1      31.388  27.601  25.327  1.00  0.00     0.016 A 
ATOM     20  C   UNL A   1      31.340  30.096  25.219  1.00  0.00     0.044 C 
ATOM     21  O   UNL A   1      30.329  24.969  23.173  1.00  0.00    -0.464 OA
ATOM     22  C   UNL A   1      31.118  26.327  24.795  1.00  0.00     0.024 A 
ATOM     23  C   UNL A   1      30.751  24.200  24.201  1.00  0.00     0.200 A 
ENDBRANCH  12  13
ENDBRANCH   9  12
ENDBRANCH   7   8
ENDBRANCH   6   7
ENDBRANCH   3   6
ENDBRANCH   1   2
BRANCH   1  24
ATOM     24  C   UNL A   1      37.716  19.589  24.838  1.00  0.00     0.042 C 
BRANCH  24  25
ATOM     25  C   UNL A   1      38.839  20.143  25.706  1.00  0.00     0.118 C 
BRANCH  25  26
ATOM     26  N   UNL A   1      39.979  19.244  25.784  1.00  0.00    -0.352 N 
ATOM     27  C   UNL A   1      41.291  19.508  26.082  1.00  0.00     0.251 C 
ATOM     28  H   UNL A   1      39.777  18.300  25.594  1.00  0.00     0.163 HD
ATOM     29  O   UNL A   1      42.137  18.628  25.894  1.00  0.00    -0.269 OA
BRANCH  27  30
ATOM     30  C   UNL A   1      41.720  20.825  26.608  1.00  0.00     0.039 A 
ATOM     31  C   UNL A   1      42.120  21.814  25.702  1.00  0.00     0.014 A 
ATOM     32  C   UNL A   1      41.789  21.084  27.980  1.00  0.00     0.014 A 
ATOM     33  C   UNL A   1      42.534  23.067  26.166  1.00  0.00     0.010 A 
ATOM     34  C   UNL A   1      42.121  22.359  28.439  1.00  0.00     0.010 A 
ATOM     35  C   UNL A   1      42.512  23.361  27.538  1.00  0.00    -0.014 A 
BRANCH  35  36
ATOM     36  C   UNL A   1      42.920  24.697  28.051  1.00  0.00     0.031 A 
ATOM     37  C   UNL A   1      41.882  25.754  28.321  1.00  0.00     0.074 A 
ATOM     38  C   UNL A   1      44.225  24.983  28.220  1.00  0.00     0.049 A 
ATOM     39  N   UNL A   1      42.046  27.000  28.693  1.00  0.00    -0.248 NA
ATOM     40  C   UNL A   1      40.477  25.370  28.120  1.00  0.00     0.031 C 
ATOM     41  C   UNL A   1      45.335  24.068  27.953  1.00  0.00     0.029 A 
ATOM     42  N   UNL A   1      44.840  26.135  28.647  1.00  0.00    -0.354 N 
ATOM     43  C   UNL A   1      40.771  27.550  28.744  1.00  0.00     0.074 A 
ATOM     44  C   UNL A   1      39.850  26.519  28.320  1.00  0.00     0.031 C 
ATOM     45  C   UNL A   1      46.492  24.685  28.244  1.00  0.00     0.029 A 
ATOM     46  C   UNL A   1      46.210  26.048  28.682  1.00  0.00     0.049 A 
ATOM     47  H   UNL A   1      44.345  26.947  28.904  1.00  0.00     0.167 HD
ATOM     48  C   UNL A   1      40.398  28.795  29.129  1.00  0.00     0.037 A 
ATOM     49  C   UNL A   1      47.136  26.964  29.024  1.00  0.00     0.037 A 
ATOM     50  C   UNL A   1      41.307  29.810  29.589  1.00  0.00     0.049 A 
ATOM     51  C   UNL A   1      46.697  28.333  29.463  1.00  0.00     0.074 A 
ATOM     52  C   UNL A   1      41.017  31.078  30.064  1.00  0.00     0.029 A 
ATOM     53  N   UNL A   1      42.687  29.672  29.635  1.00  0.00    -0.354 N 
ATOM     54  N   UNL A   1      45.484  28.820  29.561  1.00  0.00    -0.248 NA
ATOM     55  C   UNL A   1      47.756  29.278  29.845  1.00  0.00     0.031 C 
ATOM     56  C   UNL A   1      42.224  31.718  30.367  1.00  0.00     0.029 A 
ATOM     57  C   UNL A   1      43.262  30.836  30.116  1.00  0.00     0.049 A 
ATOM     58  H   UNL A   1      43.183  28.865  29.366  1.00  0.00     0.167 HD
ATOM     59  C   UNL A   1      45.632  30.116  30.037  1.00  0.00     0.074 A 
ATOM     60  C   UNL A   1      47.051  30.337  30.220  1.00  0.00     0.031 C 
ATOM     61  C   UNL A   1      44.675  31.040  30.301  1.00  0.00     0.037 A 
BRANCH  48  62
ATOM     62  C   UNL A   1      38.934  29.124  29.071  1.00  0.00     0.057 A 
ATOM     63  C   UNL A   1      38.315  29.530  27.882  1.00  0.00     0.134 A 
ATOM     64  C   UNL A   1      38.129  29.006  30.212  1.00  0.00     0.134 A 
ATOM     65  F   UNL A   1      39.031  29.673  26.757  1.00  0.00    -0.206 F 
ATOM     66  C   UNL A   1      36.954  29.838  27.835  1.00  0.00     0.040 A 
ATOM     67  C   UNL A   1      36.762  29.285  30.171  1.00  0.00     0.040 A 
ATOM     68  F   UNL A   1      38.657  28.614  31.381  1.00  0.00    -0.206 F 
ATOM     69  C   UNL A   1      36.172  29.709  28.982  1.00  0.00     0.006 A 
ENDBRANCH  48  62
BRANCH  49  70
ATOM     70  C   UNL A   1      48.575  26.607  28.992  1.00  0.00     0.057 A 
ATOM     71  C   UNL A   1      49.352  26.853  27.853  1.00  0.00     0.134 A 
ATOM     72  C   UNL A   1      49.209  26.018  30.092  1.00  0.00     0.134 A 
ATOM     73  F   UNL A   1      48.794  27.397  26.761  1.00  0.00    -0.206 F 
ATOM     74  C   UNL A   1      50.704  26.514  27.804  1.00  0.00     0.040 A 
ATOM     75  C   UNL A   1      50.567  25.695  30.064  1.00  0.00     0.040 A 
ATOM     76  F   UNL A   1      48.521  25.762  31.214  1.00  0.00    -0.206 F 
ATOM     77  C   UNL A   1      51.317  25.938  28.915  1.00  0.00     0.006 A 
ENDBRANCH  49  70
BRANCH  61  78
ATOM     78  C   UNL A   1      45.129  32.362  30.844  1.00  0.00     0.057 A 
ATOM     79  C   UNL A   1      45.414  33.446  30.005  1.00  0.00     0.134 A 
ATOM     80  C   UNL A   1      45.242  32.562  32.226  1.00  0.00     0.134 A 
ATOM     81  F   UNL A   1      45.338  33.313  28.672  1.00  0.00    -0.206 F 
ATOM     82  C   UNL A   1      45.814  34.680  30.521  1.00  0.00     0.040 A 
ATOM     83  C   UNL A   1      45.618  33.798  32.755  1.00  0.00     0.040 A 
ATOM     84  F   UNL A   1      44.976  31.565  33.084  1.00  0.00    -0.206 F 
ATOM     85  C   UNL A   1      45.911  34.859  31.900  1.00  0.00     0.006 A 
ENDBRANCH  61  78
ENDBRANCH  35  36
ENDBRANCH  27  30
ENDBRANCH  25  26
ENDBRANCH  24  25
ENDBRANCH   1  24
TORSDOF 14
ENDMDL
