MODEL 1
REMARK VINA RESULT:     -10.5      0.000      0.000
REMARK SMILES O=C(CSc1cc(-c2ccccc2)nc(-c2ccccc2F)n1)NCCCNC(=O)c1ccc(-c2c3nc(c(-c4c(F)cccc4F)c4ccc([nH]4)c(-c4c(F)cccc4F)c4nc(c(-c5c(F)cccc5F)c5ccc2[nH]5)C=C4)C=C3)cc1
REMARK SMILES IDX 25 1 24 2 1 3 2 4 3 6 4 7 5 8 6 9 23 10 7 11 15 12 14 13
REMARK SMILES IDX 8 14 9 15 13 16 10 17 12 18 11 19 16 20 17 21 21 22 18 23
REMARK SMILES IDX 20 24 22 25 19 26 26 27 27 28 28 29 29 30 30 32 31 33 32 34
REMARK SMILES IDX 84 35 33 36 83 37 34 38 35 39 36 40 77 41 37 42 82 43 76 44
REMARK SMILES IDX 78 45 38 46 81 47 75 48 74 49 39 51 65 52 48 53 64 54 49 55
REMARK SMILES IDX 52 56 63 57 79 58 50 59 51 60 62 62 80 63 53 64 40 65 41 66
REMARK SMILES IDX 46 67 42 68 43 69 45 70 47 71 44 72 66 73 67 74 72 75 68 76
REMARK SMILES IDX 69 77 71 78 73 79 70 80 54 81 55 82 60 83 56 84 57 85 59 86
REMARK SMILES IDX 61 87 58 88
REMARK H PARENT 24 5 28 31 78 50 52 61
REMARK Flexibility Score: inf
ROOT
ATOM      1  C   UNL A   1      32.554  36.134  30.764  1.00  0.00     0.117 C 
ENDROOT
BRANCH   1   2
ATOM      2  N   UNL A   1      33.530  35.611  31.703  1.00  0.00    -0.355 N 
ATOM      3  O   UNL A   1      33.319  37.300  33.242  1.00  0.00    -0.274 OA
ATOM      4  C   UNL A   1      33.786  36.210  32.921  1.00  0.00     0.230 C 
ATOM      5  H   UNL A   1      34.031  34.797  31.461  1.00  0.00     0.163 HD
BRANCH   4   6
ATOM      6  C   UNL A   1      34.714  35.434  33.840  1.00  0.00     0.176 C 
BRANCH   6   7
ATOM      7  S   UNL A   1      34.570  33.630  33.608  1.00  0.00    -0.096 SA
BRANCH   7   8
ATOM      8  C   UNL A   1      36.163  33.087  34.206  1.00  0.00     0.101 A 
ATOM      9  C   UNL A   1      36.708  33.638  35.343  1.00  0.00     0.064 A 
ATOM     10  N   UNL A   1      36.716  32.046  33.566  1.00  0.00    -0.222 NA
ATOM     11  C   UNL A   1      37.893  33.097  35.796  1.00  0.00     0.075 A 
ATOM     12  C   UNL A   1      37.842  31.548  34.109  1.00  0.00     0.163 A 
ATOM     13  N   UNL A   1      38.479  32.057  35.179  1.00  0.00    -0.228 NA
BRANCH  11  14
ATOM     14  C   UNL A   1      38.554  33.602  37.008  1.00  0.00     0.000 A 
ATOM     15  C   UNL A   1      38.938  32.732  38.040  1.00  0.00     0.010 A 
ATOM     16  C   UNL A   1      38.831  34.973  37.165  1.00  0.00     0.010 A 
ATOM     17  C   UNL A   1      39.591  33.210  39.179  1.00  0.00     0.001 A 
ATOM     18  C   UNL A   1      39.478  35.453  38.305  1.00  0.00     0.001 A 
ATOM     19  C   UNL A   1      39.862  34.570  39.311  1.00  0.00     0.000 A 
ENDBRANCH  11  14
BRANCH  12  20
ATOM     20  C   UNL A   1      38.370  30.314  33.539  1.00  0.00     0.055 A 
ATOM     21  C   UNL A   1      37.561  29.443  32.788  1.00  0.00     0.015 A 
ATOM     22  C   UNL A   1      39.705  29.944  33.747  1.00  0.00     0.134 A 
ATOM     23  C   UNL A   1      38.081  28.255  32.260  1.00  0.00     0.001 A 
ATOM     24  C   UNL A   1      40.227  28.758  33.232  1.00  0.00     0.040 A 
ATOM     25  F   UNL A   1      40.516  30.714  34.492  1.00  0.00    -0.206 F 
ATOM     26  C   UNL A   1      39.413  27.913  32.483  1.00  0.00     0.003 A 
ENDBRANCH  12  20
ENDBRANCH   7   8
ENDBRANCH   6   7
ENDBRANCH   4   6
ENDBRANCH   1   2
BRANCH   1  27
ATOM     27  C   UNL A   1      33.157  37.106  29.762  1.00  0.00     0.042 C 
BRANCH  27  28
ATOM     28  C   UNL A   1      33.664  36.456  28.478  1.00  0.00     0.118 C 
BRANCH  28  29
ATOM     29  N   UNL A   1      32.956  35.230  28.130  1.00  0.00    -0.352 N 
ATOM     30  C   UNL A   1      33.378  33.923  28.146  1.00  0.00     0.251 C 
ATOM     31  H   UNL A   1      32.025  35.360  27.837  1.00  0.00     0.163 HD
ATOM     32  O   UNL A   1      32.652  33.047  27.681  1.00  0.00    -0.269 OA
BRANCH  30  33
ATOM     33  C   UNL A   1      34.711  33.563  28.681  1.00  0.00     0.039 A 
ATOM     34  C   UNL A   1      34.779  32.765  29.826  1.00  0.00     0.014 A 
ATOM     35  C   UNL A   1      35.886  34.006  28.069  1.00  0.00     0.014 A 
ATOM     36  C   UNL A   1      36.021  32.332  30.300  1.00  0.00     0.010 A 
ATOM     37  C   UNL A   1      37.118  33.514  28.496  1.00  0.00     0.010 A 
ATOM     38  C   UNL A   1      37.198  32.659  29.607  1.00  0.00    -0.014 A 
BRANCH  38  39
ATOM     39  C   UNL A   1      38.509  32.080  29.998  1.00  0.00     0.031 A 
ATOM     40  C   UNL A   1      38.940  30.737  29.478  1.00  0.00     0.074 A 
ATOM     41  C   UNL A   1      39.281  32.733  30.890  1.00  0.00     0.049 A 
ATOM     42  N   UNL A   1      40.004  30.036  29.780  1.00  0.00    -0.248 NA
ATOM     43  C   UNL A   1      38.048  30.087  28.506  1.00  0.00     0.031 C 
ATOM     44  C   UNL A   1      38.961  34.025  31.501  1.00  0.00     0.029 A 
ATOM     45  N   UNL A   1      40.488  32.393  31.450  1.00  0.00    -0.354 N 
ATOM     46  C   UNL A   1      39.906  28.862  29.046  1.00  0.00     0.074 A 
ATOM     47  C   UNL A   1      38.655  28.923  28.320  1.00  0.00     0.031 C 
ATOM     48  C   UNL A   1      39.951  34.375  32.336  1.00  0.00     0.029 A 
ATOM     49  C   UNL A   1      40.953  33.315  32.357  1.00  0.00     0.049 A 
ATOM     50  H   UNL A   1      40.974  31.567  31.224  1.00  0.00     0.167 HD
ATOM     51  C   UNL A   1      40.787  27.836  28.967  1.00  0.00     0.037 A 
ATOM     52  C   UNL A   1      42.053  33.301  33.134  1.00  0.00     0.037 A 
ATOM     53  C   UNL A   1      42.037  27.781  29.682  1.00  0.00     0.049 A 
ATOM     54  C   UNL A   1      42.994  32.131  33.058  1.00  0.00     0.074 A 
ATOM     55  C   UNL A   1      43.020  26.809  29.623  1.00  0.00     0.029 A 
ATOM     56  N   UNL A   1      42.471  28.733  30.592  1.00  0.00    -0.354 N 
ATOM     57  N   UNL A   1      42.922  31.059  32.308  1.00  0.00    -0.248 NA
ATOM     58  C   UNL A   1      44.172  32.171  33.937  1.00  0.00     0.031 C 
ATOM     59  C   UNL A   1      44.022  27.143  30.540  1.00  0.00     0.029 A 
ATOM     60  C   UNL A   1      43.693  28.353  31.127  1.00  0.00     0.049 A 
ATOM     61  H   UNL A   1      41.984  29.556  30.825  1.00  0.00     0.167 HD
ATOM     62  C   UNL A   1      44.052  30.309  32.605  1.00  0.00     0.074 A 
ATOM     63  C   UNL A   1      44.805  31.058  33.589  1.00  0.00     0.031 C 
ATOM     64  C   UNL A   1      44.433  29.106  32.109  1.00  0.00     0.037 A 
BRANCH  51  65
ATOM     65  C   UNL A   1      40.427  26.678  28.080  1.00  0.00     0.057 A 
ATOM     66  C   UNL A   1      41.014  26.502  26.819  1.00  0.00     0.134 A 
ATOM     67  C   UNL A   1      39.515  25.704  28.507  1.00  0.00     0.134 A 
ATOM     68  F   UNL A   1      41.888  27.403  26.344  1.00  0.00    -0.206 F 
ATOM     69  C   UNL A   1      40.687  25.416  26.006  1.00  0.00     0.040 A 
ATOM     70  C   UNL A   1      39.202  24.598  27.715  1.00  0.00     0.040 A 
ATOM     71  F   UNL A   1      38.923  25.805  29.707  1.00  0.00    -0.206 F 
ATOM     72  C   UNL A   1      39.784  24.456  26.457  1.00  0.00     0.006 A 
ENDBRANCH  51  65
BRANCH  52  73
ATOM     73  C   UNL A   1      42.329  34.434  34.055  1.00  0.00     0.057 A 
ATOM     74  C   UNL A   1      42.869  35.635  33.581  1.00  0.00     0.134 A 
ATOM     75  C   UNL A   1      42.073  34.340  35.429  1.00  0.00     0.134 A 
ATOM     76  F   UNL A   1      43.155  35.779  32.279  1.00  0.00    -0.206 F 
ATOM     77  C   UNL A   1      43.166  36.693  34.442  1.00  0.00     0.040 A 
ATOM     78  C   UNL A   1      42.339  35.401  36.296  1.00  0.00     0.040 A 
ATOM     79  F   UNL A   1      41.550  33.219  35.946  1.00  0.00    -0.206 F 
ATOM     80  C   UNL A   1      42.896  36.578  35.804  1.00  0.00     0.006 A 
ENDBRANCH  52  73
BRANCH  64  81
ATOM     81  C   UNL A   1      45.732  28.537  32.602  1.00  0.00     0.057 A 
ATOM     82  C   UNL A   1      45.792  27.674  33.704  1.00  0.00     0.134 A 
ATOM     83  C   UNL A   1      46.935  28.830  31.945  1.00  0.00     0.134 A 
ATOM     84  F   UNL A   1      44.679  27.364  34.385  1.00  0.00    -0.206 F 
ATOM     85  C   UNL A   1      47.003  27.142  34.148  1.00  0.00     0.040 A 
ATOM     86  C   UNL A   1      48.147  28.281  32.362  1.00  0.00     0.040 A 
ATOM     87  F   UNL A   1      46.948  29.643  30.878  1.00  0.00    -0.206 F 
ATOM     88  C   UNL A   1      48.185  27.439  33.472  1.00  0.00     0.006 A 
ENDBRANCH  64  81
ENDBRANCH  38  39
ENDBRANCH  30  33
ENDBRANCH  28  29
ENDBRANCH  27  28
ENDBRANCH   1  27
TORSDOF 14
ENDMDL
MODEL 2
REMARK VINA RESULT:     -10.4      0.729      6.738
REMARK SMILES O=C(CSc1cc(-c2ccccc2)nc(-c2ccccc2F)n1)NCCCNC(=O)c1ccc(-c2c3nc(c(-c4c(F)cccc4F)c4ccc([nH]4)c(-c4c(F)cccc4F)c4nc(c(-c5c(F)cccc5F)c5ccc2[nH]5)C=C4)C=C3)cc1
REMARK SMILES IDX 25 1 24 2 1 3 2 4 3 6 4 7 5 8 6 9 23 10 7 11 15 12 14 13
REMARK SMILES IDX 8 14 9 15 13 16 10 17 12 18 11 19 16 20 17 21 21 22 18 23
REMARK SMILES IDX 20 24 22 25 19 26 26 27 27 28 28 29 29 30 30 32 31 33 32 34
REMARK SMILES IDX 84 35 33 36 83 37 34 38 35 39 36 40 77 41 37 42 82 43 76 44
REMARK SMILES IDX 78 45 38 46 81 47 75 48 74 49 39 51 65 52 48 53 64 54 49 55
REMARK SMILES IDX 52 56 63 57 79 58 50 59 51 60 62 62 80 63 53 64 40 65 41 66
REMARK SMILES IDX 46 67 42 68 43 69 45 70 47 71 44 72 66 73 67 74 72 75 68 76
REMARK SMILES IDX 69 77 71 78 73 79 70 80 54 81 55 82 60 83 56 84 57 85 59 86
REMARK SMILES IDX 61 87 58 88
REMARK H PARENT 24 5 28 31 78 50 52 61
REMARK Flexibility Score: inf
ROOT
ATOM      1  C   UNL A   1      32.553  36.456  30.997  1.00  0.00     0.117 C 
ENDROOT
BRANCH   1   2
ATOM      2  N   UNL A   1      33.505  35.783  31.862  1.00  0.00    -0.355 N 
ATOM      3  O   UNL A   1      33.714  37.495  33.375  1.00  0.00    -0.274 OA
ATOM      4  C   UNL A   1      33.962  36.340  33.040  1.00  0.00     0.230 C 
ATOM      5  H   UNL A   1      33.839  34.895  31.597  1.00  0.00     0.163 HD
BRANCH   4   6
ATOM      6  C   UNL A   1      34.822  35.426  33.895  1.00  0.00     0.176 C 
BRANCH   6   7
ATOM      7  S   UNL A   1      34.587  33.665  33.481  1.00  0.00    -0.096 SA
BRANCH   7   8
ATOM      8  C   UNL A   1      36.035  32.945  34.239  1.00  0.00     0.101 A 
ATOM      9  C   UNL A   1      36.656  31.858  33.669  1.00  0.00     0.064 A 
ATOM     10  N   UNL A   1      36.538  33.596  35.299  1.00  0.00    -0.222 NA
ATOM     11  C   UNL A   1      37.824  31.422  34.259  1.00  0.00     0.075 A 
ATOM     12  C   UNL A   1      37.709  33.135  35.776  1.00  0.00     0.163 A 
ATOM     13  N   UNL A   1      38.356  32.046  35.324  1.00  0.00    -0.228 NA
BRANCH  11  14
ATOM     14  C   UNL A   1      38.575  30.278  33.723  1.00  0.00     0.000 A 
ATOM     15  C   UNL A   1      37.936  29.278  32.974  1.00  0.00     0.010 A 
ATOM     16  C   UNL A   1      39.962  30.157  33.935  1.00  0.00     0.010 A 
ATOM     17  C   UNL A   1      38.657  28.205  32.441  1.00  0.00     0.001 A 
ATOM     18  C   UNL A   1      40.682  29.084  33.409  1.00  0.00     0.001 A 
ATOM     19  C   UNL A   1      40.030  28.110  32.658  1.00  0.00     0.000 A 
ENDBRANCH  11  14
BRANCH  12  20
ATOM     20  C   UNL A   1      38.365  33.923  36.814  1.00  0.00     0.055 A 
ATOM     21  C   UNL A   1      38.266  33.580  38.173  1.00  0.00     0.015 A 
ATOM     22  C   UNL A   1      39.098  35.071  36.483  1.00  0.00     0.134 A 
ATOM     23  C   UNL A   1      38.890  34.356  39.157  1.00  0.00     0.001 A 
ATOM     24  C   UNL A   1      39.715  35.853  37.459  1.00  0.00     0.040 A 
ATOM     25  F   UNL A   1      39.192  35.473  35.205  1.00  0.00    -0.206 F 
ATOM     26  C   UNL A   1      39.613  35.492  38.800  1.00  0.00     0.003 A 
ENDBRANCH  12  20
ENDBRANCH   7   8
ENDBRANCH   6   7
ENDBRANCH   4   6
ENDBRANCH   1   2
BRANCH   1  27
ATOM     27  C   UNL A   1      33.218  37.385  29.993  1.00  0.00     0.042 C 
BRANCH  27  28
ATOM     28  C   UNL A   1      33.724  36.692  28.730  1.00  0.00     0.118 C 
BRANCH  28  29
ATOM     29  N   UNL A   1      32.943  35.519  28.360  1.00  0.00    -0.352 N 
ATOM     30  C   UNL A   1      33.285  34.188  28.347  1.00  0.00     0.251 C 
ATOM     31  H   UNL A   1      32.020  35.711  28.075  1.00  0.00     0.163 HD
ATOM     32  O   UNL A   1      32.507  33.368  27.867  1.00  0.00    -0.269 OA
BRANCH  30  33
ATOM     33  C   UNL A   1      34.596  33.738  28.868  1.00  0.00     0.039 A 
ATOM     34  C   UNL A   1      34.618  32.821  29.922  1.00  0.00     0.014 A 
ATOM     35  C   UNL A   1      35.795  34.211  28.331  1.00  0.00     0.014 A 
ATOM     36  C   UNL A   1      35.837  32.307  30.373  1.00  0.00     0.010 A 
ATOM     37  C   UNL A   1      37.005  33.644  28.729  1.00  0.00     0.010 A 
ATOM     38  C   UNL A   1      37.038  32.674  29.743  1.00  0.00    -0.014 A 
BRANCH  38  39
ATOM     39  C   UNL A   1      38.325  32.021  30.097  1.00  0.00     0.031 A 
ATOM     40  C   UNL A   1      39.337  32.733  30.950  1.00  0.00     0.074 A 
ATOM     41  C   UNL A   1      38.617  30.811  29.579  1.00  0.00     0.049 A 
ATOM     42  N   UNL A   1      40.546  32.359  31.285  1.00  0.00    -0.248 NA
ATOM     43  C   UNL A   1      38.946  34.048  31.481  1.00  0.00     0.031 C 
ATOM     44  C   UNL A   1      37.738  30.030  28.705  1.00  0.00     0.029 A 
ATOM     45  N   UNL A   1      39.739  30.030  29.702  1.00  0.00    -0.354 N 
ATOM     46  C   UNL A   1      41.063  33.391  32.055  1.00  0.00     0.074 A 
ATOM     47  C   UNL A   1      40.056  34.430  32.098  1.00  0.00     0.031 C 
ATOM     48  C   UNL A   1      38.348  28.878  28.384  1.00  0.00     0.029 A 
ATOM     49  C   UNL A   1      39.675  28.857  28.988  1.00  0.00     0.049 A 
ATOM     50  H   UNL A   1      40.518  30.287  30.247  1.00  0.00     0.167 HD
ATOM     51  C   UNL A   1      42.261  33.461  32.685  1.00  0.00     0.037 A 
ATOM     52  C   UNL A   1      40.589  27.881  28.823  1.00  0.00     0.037 A 
ATOM     53  C   UNL A   1      43.259  32.422  32.650  1.00  0.00     0.049 A 
ATOM     54  C   UNL A   1      41.925  28.001  29.501  1.00  0.00     0.074 A 
ATOM     55  C   UNL A   1      44.479  32.378  33.302  1.00  0.00     0.029 A 
ATOM     56  N   UNL A   1      43.157  31.250  31.915  1.00  0.00    -0.354 N 
ATOM     57  N   UNL A   1      42.375  28.953  30.281  1.00  0.00    -0.248 NA
ATOM     58  C   UNL A   1      42.883  26.908  29.275  1.00  0.00     0.031 C 
ATOM     59  C   UNL A   1      45.139  31.207  32.918  1.00  0.00     0.029 A 
ATOM     60  C   UNL A   1      44.308  30.492  32.072  1.00  0.00     0.049 A 
ATOM     61  H   UNL A   1      42.383  30.994  31.364  1.00  0.00     0.167 HD
ATOM     62  C   UNL A   1      43.654  28.565  30.658  1.00  0.00     0.074 A 
ATOM     63  C   UNL A   1      43.902  27.281  30.037  1.00  0.00     0.031 C 
ATOM     64  C   UNL A   1      44.545  29.215  31.447  1.00  0.00     0.037 A 
BRANCH  51  65
ATOM     65  C   UNL A   1      42.565  34.708  33.464  1.00  0.00     0.057 A 
ATOM     66  C   UNL A   1      43.016  35.879  32.840  1.00  0.00     0.134 A 
ATOM     67  C   UNL A   1      42.363  34.754  34.850  1.00  0.00     0.134 A 
ATOM     68  F   UNL A   1      43.240  35.902  31.517  1.00  0.00    -0.206 F 
ATOM     69  C   UNL A   1      43.282  37.040  33.569  1.00  0.00     0.040 A 
ATOM     70  C   UNL A   1      42.598  35.917  35.585  1.00  0.00     0.040 A 
ATOM     71  F   UNL A   1      41.924  33.672  35.511  1.00  0.00    -0.206 F 
ATOM     72  C   UNL A   1      43.065  37.063  34.944  1.00  0.00     0.006 A 
ENDBRANCH  51  65
BRANCH  52  73
ATOM     73  C   UNL A   1      40.273  26.700  27.979  1.00  0.00     0.057 A 
ATOM     74  C   UNL A   1      40.773  26.589  26.676  1.00  0.00     0.134 A 
ATOM     75  C   UNL A   1      39.454  25.664  28.445  1.00  0.00     0.134 A 
ATOM     76  F   UNL A   1      41.546  27.558  26.165  1.00  0.00    -0.206 F 
ATOM     77  C   UNL A   1      40.454  25.501  25.861  1.00  0.00     0.040 A 
ATOM     78  C   UNL A   1      39.149  24.558  27.651  1.00  0.00     0.040 A 
ATOM     79  F   UNL A   1      38.947  25.708  29.686  1.00  0.00    -0.206 F 
ATOM     80  C   UNL A   1      39.643  24.480  26.351  1.00  0.00     0.006 A 
ENDBRANCH  52  73
BRANCH  64  81
ATOM     81  C   UNL A   1      45.859  28.537  31.705  1.00  0.00     0.057 A 
ATOM     82  C   UNL A   1      46.982  28.766  30.898  1.00  0.00     0.134 A 
ATOM     83  C   UNL A   1      46.014  27.669  32.794  1.00  0.00     0.134 A 
ATOM     84  F   UNL A   1      46.898  29.575  29.831  1.00  0.00    -0.206 F 
ATOM     85  C   UNL A   1      48.202  28.139  31.152  1.00  0.00     0.040 A 
ATOM     86  C   UNL A   1      47.237  27.059  33.074  1.00  0.00     0.040 A 
ATOM     87  F   UNL A   1      44.982  27.411  33.611  1.00  0.00    -0.206 F 
ATOM     88  C   UNL A   1      48.335  27.289  32.248  1.00  0.00     0.006 A 
ENDBRANCH  64  81
ENDBRANCH  38  39
ENDBRANCH  30  33
ENDBRANCH  28  29
ENDBRANCH  27  28
ENDBRANCH   1  27
TORSDOF 14
ENDMDL
MODEL 3
REMARK VINA RESULT:     -10.0      5.062     11.089
REMARK SMILES O=C(CSc1cc(-c2ccccc2)nc(-c2ccccc2F)n1)NCCCNC(=O)c1ccc(-c2c3nc(c(-c4c(F)cccc4F)c4ccc([nH]4)c(-c4c(F)cccc4F)c4nc(c(-c5c(F)cccc5F)c5ccc2[nH]5)C=C4)C=C3)cc1
REMARK SMILES IDX 25 1 24 2 1 3 2 4 3 6 4 7 5 8 6 9 23 10 7 11 15 12 14 13
REMARK SMILES IDX 8 14 9 15 13 16 10 17 12 18 11 19 16 20 17 21 21 22 18 23
REMARK SMILES IDX 20 24 22 25 19 26 26 27 27 28 28 29 29 30 30 32 31 33 32 34
REMARK SMILES IDX 84 35 33 36 83 37 34 38 35 39 36 40 77 41 37 42 82 43 76 44
REMARK SMILES IDX 78 45 38 46 81 47 75 48 74 49 39 51 65 52 48 53 64 54 49 55
REMARK SMILES IDX 52 56 63 57 79 58 50 59 51 60 62 62 80 63 53 64 40 65 41 66
REMARK SMILES IDX 46 67 42 68 43 69 45 70 47 71 44 72 66 73 67 74 72 75 68 76
REMARK SMILES IDX 69 77 71 78 73 79 70 80 54 81 55 82 60 83 56 84 57 85 59 86
REMARK SMILES IDX 61 87 58 88
REMARK H PARENT 24 5 28 31 78 50 52 61
REMARK Flexibility Score: inf
ROOT
ATOM      1  C   UNL A   1      33.641  27.128  24.198  1.00  0.00     0.117 C 
ENDROOT
BRANCH   1   2
ATOM      2  N   UNL A   1      33.242  25.825  23.698  1.00  0.00    -0.355 N 
ATOM      3  O   UNL A   1      33.732  26.248  21.497  1.00  0.00    -0.274 OA
ATOM      4  C   UNL A   1      33.389  25.460  22.374  1.00  0.00     0.230 C 
ATOM      5  H   UNL A   1      32.849  25.177  24.327  1.00  0.00     0.163 HD
BRANCH   4   6
ATOM      6  C   UNL A   1      33.072  24.007  22.066  1.00  0.00     0.176 C 
BRANCH   6   7
ATOM      7  S   UNL A   1      31.929  23.274  23.284  1.00  0.00    -0.096 SA
BRANCH   7   8
ATOM      8  C   UNL A   1      33.012  22.118  24.109  1.00  0.00     0.101 A 
ATOM      9  C   UNL A   1      32.740  20.770  24.092  1.00  0.00     0.064 A 
ATOM     10  N   UNL A   1      34.145  22.624  24.619  1.00  0.00    -0.222 NA
ATOM     11  C   UNL A   1      33.675  19.934  24.666  1.00  0.00     0.075 A 
ATOM     12  C   UNL A   1      35.025  21.731  25.108  1.00  0.00     0.163 A 
ATOM     13  N   UNL A   1      34.819  20.404  25.190  1.00  0.00    -0.228 NA
BRANCH  11  14
ATOM     14  C   UNL A   1      33.489  18.476  24.690  1.00  0.00     0.000 A 
ATOM     15  C   UNL A   1      34.153  17.646  23.774  1.00  0.00     0.010 A 
ATOM     16  C   UNL A   1      32.648  17.868  25.641  1.00  0.00     0.010 A 
ATOM     17  C   UNL A   1      33.996  16.257  23.817  1.00  0.00     0.001 A 
ATOM     18  C   UNL A   1      32.486  16.482  25.682  1.00  0.00     0.001 A 
ATOM     19  C   UNL A   1      33.164  15.676  24.772  1.00  0.00     0.000 A 
ENDBRANCH  11  14
BRANCH  12  20
ATOM     20  C   UNL A   1      36.334  22.233  25.510  1.00  0.00     0.055 A 
ATOM     21  C   UNL A   1      36.513  23.557  25.948  1.00  0.00     0.015 A 
ATOM     22  C   UNL A   1      37.466  21.410  25.445  1.00  0.00     0.134 A 
ATOM     23  C   UNL A   1      37.779  24.027  26.317  1.00  0.00     0.001 A 
ATOM     24  C   UNL A   1      38.731  21.874  25.803  1.00  0.00     0.040 A 
ATOM     25  F   UNL A   1      37.365  20.149  24.994  1.00  0.00    -0.206 F 
ATOM     26  C   UNL A   1      38.888  23.185  26.243  1.00  0.00     0.003 A 
ENDBRANCH  12  20
ENDBRANCH   7   8
ENDBRANCH   6   7
ENDBRANCH   4   6
ENDBRANCH   1   2
BRANCH   1  27
ATOM     27  C   UNL A   1      33.110  27.415  25.594  1.00  0.00     0.042 C 
BRANCH  27  28
ATOM     28  C   UNL A   1      34.103  28.118  26.516  1.00  0.00     0.118 C 
BRANCH  28  29
ATOM     29  N   UNL A   1      33.774  29.516  26.764  1.00  0.00    -0.352 N 
ATOM     30  C   UNL A   1      34.420  30.463  27.521  1.00  0.00     0.251 C 
ATOM     31  H   UNL A   1      32.957  29.833  26.315  1.00  0.00     0.163 HD
ATOM     32  O   UNL A   1      33.892  31.557  27.702  1.00  0.00    -0.269 OA
BRANCH  30  33
ATOM     33  C   UNL A   1      35.727  30.166  28.151  1.00  0.00     0.039 A 
ATOM     34  C   UNL A   1      35.742  29.669  29.458  1.00  0.00     0.014 A 
ATOM     35  C   UNL A   1      36.928  30.376  27.471  1.00  0.00     0.014 A 
ATOM     36  C   UNL A   1      36.953  29.292  30.045  1.00  0.00     0.010 A 
ATOM     37  C   UNL A   1      38.127  29.931  28.027  1.00  0.00     0.010 A 
ATOM     38  C   UNL A   1      38.150  29.369  29.314  1.00  0.00    -0.014 A 
BRANCH  38  39
ATOM     39  C   UNL A   1      39.422  28.826  29.857  1.00  0.00     0.031 A 
ATOM     40  C   UNL A   1      40.084  29.466  31.046  1.00  0.00     0.074 A 
ATOM     41  C   UNL A   1      40.025  27.799  29.227  1.00  0.00     0.049 A 
ATOM     42  N   UNL A   1      41.237  29.187  31.600  1.00  0.00    -0.248 NA
ATOM     43  C   UNL A   1      39.365  30.580  31.682  1.00  0.00     0.031 C 
ATOM     44  C   UNL A   1      39.509  27.113  28.040  1.00  0.00     0.029 A 
ATOM     45  N   UNL A   1      41.212  27.159  29.487  1.00  0.00    -0.354 N 
ATOM     46  C   UNL A   1      41.386  30.092  32.641  1.00  0.00     0.074 A 
ATOM     47  C   UNL A   1      40.229  30.962  32.612  1.00  0.00     0.031 C 
ATOM     48  C   UNL A   1      40.364  26.141  27.686  1.00  0.00     0.029 A 
ATOM     49  C   UNL A   1      41.510  26.163  28.587  1.00  0.00     0.049 A 
ATOM     50  H   UNL A   1      41.796  27.393  30.244  1.00  0.00     0.167 HD
ATOM     51  C   UNL A   1      42.386  30.180  33.551  1.00  0.00     0.037 A 
ATOM     52  C   UNL A   1      42.593  25.368  28.487  1.00  0.00     0.037 A 
ATOM     53  C   UNL A   1      43.532  29.308  33.585  1.00  0.00     0.049 A 
ATOM     54  C   UNL A   1      43.707  25.512  29.486  1.00  0.00     0.074 A 
ATOM     55  C   UNL A   1      44.569  29.283  34.502  1.00  0.00     0.029 A 
ATOM     56  N   UNL A   1      43.798  28.312  32.656  1.00  0.00    -0.354 N 
ATOM     57  N   UNL A   1      43.803  26.329  30.506  1.00  0.00    -0.248 NA
ATOM     58  C   UNL A   1      44.865  24.622  29.318  1.00  0.00     0.031 C 
ATOM     59  C   UNL A   1      45.490  28.312  34.097  1.00  0.00     0.029 A 
ATOM     60  C   UNL A   1      45.000  27.691  32.961  1.00  0.00     0.049 A 
ATOM     61  H   UNL A   1      43.220  28.081  31.894  1.00  0.00     0.167 HD
ATOM     62  C   UNL A   1      45.016  26.037  31.116  1.00  0.00     0.074 A 
ATOM     63  C   UNL A   1      45.612  24.953  30.363  1.00  0.00     0.031 C 
ATOM     64  C   UNL A   1      45.586  26.614  32.202  1.00  0.00     0.037 A 
BRANCH  51  65
ATOM     65  C   UNL A   1      42.291  31.265  34.586  1.00  0.00     0.057 A 
ATOM     66  C   UNL A   1      42.868  32.527  34.390  1.00  0.00     0.134 A 
ATOM     67  C   UNL A   1      41.579  31.059  35.775  1.00  0.00     0.134 A 
ATOM     68  F   UNL A   1      43.573  32.787  33.278  1.00  0.00    -0.206 F 
ATOM     69  C   UNL A   1      42.763  33.535  35.349  1.00  0.00     0.040 A 
ATOM     70  C   UNL A   1      41.442  32.070  36.729  1.00  0.00     0.040 A 
ATOM     71  F   UNL A   1      40.994  29.878  36.024  1.00  0.00    -0.206 F 
ATOM     72  C   UNL A   1      42.042  33.311  36.520  1.00  0.00     0.006 A 
ENDBRANCH  51  65
BRANCH  52  73
ATOM     73  C   UNL A   1      42.678  24.360  27.399  1.00  0.00     0.057 A 
ATOM     74  C   UNL A   1      42.290  23.032  27.612  1.00  0.00     0.134 A 
ATOM     75  C   UNL A   1      43.162  24.693  26.128  1.00  0.00     0.134 A 
ATOM     76  F   UNL A   1      41.838  22.646  28.814  1.00  0.00    -0.206 F 
ATOM     77  C   UNL A   1      42.400  22.068  26.609  1.00  0.00     0.040 A 
ATOM     78  C   UNL A   1      43.251  23.746  25.107  1.00  0.00     0.040 A 
ATOM     79  F   UNL A   1      43.545  25.950  25.857  1.00  0.00    -0.206 F 
ATOM     80  C   UNL A   1      42.878  22.427  25.350  1.00  0.00     0.006 A 
ENDBRANCH  52  73
BRANCH  64  81
ATOM     81  C   UNL A   1      46.910  26.070  32.656  1.00  0.00     0.057 A 
ATOM     82  C   UNL A   1      47.002  25.031  33.591  1.00  0.00     0.134 A 
ATOM     83  C   UNL A   1      48.107  26.569  32.127  1.00  0.00     0.134 A 
ATOM     84  F   UNL A   1      45.894  24.517  34.148  1.00  0.00    -0.206 F 
ATOM     85  C   UNL A   1      48.236  24.524  34.000  1.00  0.00     0.040 A 
ATOM     86  C   UNL A   1      49.346  26.051  32.505  1.00  0.00     0.040 A 
ATOM     87  F   UNL A   1      48.091  27.559  31.221  1.00  0.00    -0.206 F 
ATOM     88  C   UNL A   1      49.413  25.029  33.450  1.00  0.00     0.006 A 
ENDBRANCH  64  81
ENDBRANCH  38  39
ENDBRANCH  30  33
ENDBRANCH  28  29
ENDBRANCH  27  28
ENDBRANCH   1  27
TORSDOF 14
ENDMDL
