MODEL 1
REMARK VINA RESULT:     -12.7      0.000      0.000
REMARK SMILES Cc1cc2c(c(C)c1Cl)C=C(C(=O)NCCCNC(=O)c1ccc(-c3c4nc(c(-c5c(F)cccc5F)c5ccc([nH]5)c(-c5c(F)cccc5F)c5nc(c(-c6c(F)cccc6F)c6ccc3[nH]6)C=C5)C=C4)cc1)[C@@H](C(F)(F)F)O2
REMARK SMILES IDX 16 1 15 2 14 3 12 4 13 5 11 7 1 8 2 9 3 10 8 11 4 12 6 13
REMARK SMILES IDX 9 14 5 15 80 16 7 17 10 18 75 19 76 20 77 21 78 22 79 23
REMARK SMILES IDX 17 24 18 25 19 26 20 28 21 29 22 30 74 31 23 32 73 33 24 34
REMARK SMILES IDX 25 35 26 36 67 37 27 38 72 39 66 40 68 41 28 42 71 43 65 44
REMARK SMILES IDX 64 45 29 47 55 48 38 49 54 50 39 51 42 52 53 53 69 54 40 55
REMARK SMILES IDX 41 56 52 58 70 59 43 60 30 61 31 62 36 63 32 64 33 65 35 66
REMARK SMILES IDX 37 67 34 68 56 69 57 70 62 71 58 72 59 73 61 74 63 75 60 76
REMARK SMILES IDX 44 77 45 78 50 79 46 80 47 81 49 82 51 83 48 84
REMARK H PARENT 14 6 18 27 68 46 42 57
REMARK Flexibility Score: inf
ROOT
ATOM      1  C   UNL A   1      37.648  19.489  24.886  1.00  0.00     0.042 C 
ENDROOT
BRANCH   1   2
ATOM      2  C   UNL A   1      36.356  20.282  25.001  1.00  0.00     0.118 C 
BRANCH   2   3
ATOM      3  N   UNL A   1      35.189  19.414  24.969  1.00  0.00    -0.352 N 
ATOM      4  C   UNL A   1      33.844  19.551  24.999  1.00  0.00     0.251 C 
ATOM      5  O   UNL A   1      33.210  18.491  24.979  1.00  0.00    -0.270 OA
ATOM      6  H   UNL A   1      35.450  18.467  24.910  1.00  0.00     0.163 HD
BRANCH   4   7
ATOM      7  C   UNL A   1      33.114  20.851  25.048  1.00  0.00     0.067 C 
ATOM      8  C   UNL A   1      30.226  26.590  24.098  1.00  0.00     0.046 C 
ATOM      9  C   UNL A   1      31.006  25.311  23.954  1.00  0.00    -0.028 A 
ATOM     10  C   UNL A   1      30.936  24.408  25.021  1.00  0.00     0.052 A 
ATOM     11  C   UNL A   1      31.750  24.954  22.811  1.00  0.00     0.047 A 
ATOM     12  C   UNL A   1      31.620  23.201  24.973  1.00  0.00     0.128 A 
ATOM     13  C   UNL A   1      32.453  23.722  22.750  1.00  0.00    -0.021 A 
ATOM     14  Cl  UNL A   1      31.782  26.045  21.459  1.00  0.00    -0.084 Cl
ATOM     15  C   UNL A   1      32.381  22.841  23.857  1.00  0.00     0.022 A 
ATOM     16  O   UNL A   1      31.459  22.395  26.063  1.00  0.00    -0.475 OA
ATOM     17  C   UNL A   1      33.272  23.327  21.542  1.00  0.00     0.047 C 
ATOM     18  C   UNL A   1      33.040  21.530  23.889  1.00  0.00     0.026 C 
ATOM     19  C   UNL A   1      32.511  21.425  26.294  1.00  0.00     0.314 C 
BRANCH  19  20
ATOM     20  C   UNL A   1      33.561  22.020  27.251  1.00  0.00     0.429 C 
ATOM     21  F   UNL A   1      32.951  22.595  28.319  1.00  0.00    -0.167 F 
ATOM     22  F   UNL A   1      34.402  21.084  27.751  1.00  0.00    -0.167 F 
ATOM     23  F   UNL A   1      34.329  22.965  26.666  1.00  0.00    -0.167 F 
ENDBRANCH  19  20
ENDBRANCH   4   7
ENDBRANCH   2   3
ENDBRANCH   1   2
BRANCH   1  24
ATOM     24  C   UNL A   1      38.782  20.135  25.670  1.00  0.00     0.118 C 
BRANCH  24  25
ATOM     25  N   UNL A   1      39.896  19.212  25.867  1.00  0.00    -0.352 N 
ATOM     26  C   UNL A   1      41.223  19.467  26.108  1.00  0.00     0.251 C 
ATOM     27  H   UNL A   1      39.659  18.258  25.819  1.00  0.00     0.163 HD
ATOM     28  O   UNL A   1      42.058  18.577  25.952  1.00  0.00    -0.269 OA
BRANCH  26  29
ATOM     29  C   UNL A   1      41.645  20.808  26.549  1.00  0.00     0.039 A 
ATOM     30  C   UNL A   1      42.050  21.751  25.600  1.00  0.00     0.014 A 
ATOM     31  C   UNL A   1      41.664  21.125  27.908  1.00  0.00     0.014 A 
ATOM     32  C   UNL A   1      42.413  23.031  26.018  1.00  0.00     0.010 A 
ATOM     33  C   UNL A   1      41.914  22.428  28.311  1.00  0.00     0.010 A 
ATOM     34  C   UNL A   1      42.315  23.387  27.373  1.00  0.00    -0.014 A 
BRANCH  34  35
ATOM     35  C   UNL A   1      42.674  24.746  27.841  1.00  0.00     0.031 A 
ATOM     36  C   UNL A   1      44.121  25.129  27.981  1.00  0.00     0.074 A 
ATOM     37  C   UNL A   1      41.702  25.613  28.177  1.00  0.00     0.049 A 
ATOM     38  N   UNL A   1      44.639  26.259  28.387  1.00  0.00    -0.248 NA
ATOM     39  C   UNL A   1      45.117  24.097  27.650  1.00  0.00     0.031 C 
ATOM     40  C   UNL A   1      40.266  25.335  28.124  1.00  0.00     0.029 A 
ATOM     41  N   UNL A   1      41.775  26.909  28.617  1.00  0.00    -0.354 N 
ATOM     42  C   UNL A   1      46.015  26.071  28.355  1.00  0.00     0.074 A 
ATOM     43  C   UNL A   1      46.250  24.695  27.982  1.00  0.00     0.031 C 
ATOM     44  C   UNL A   1      39.593  26.447  28.459  1.00  0.00     0.029 A 
ATOM     45  C   UNL A   1      40.548  27.501  28.785  1.00  0.00     0.049 A 
ATOM     46  H   UNL A   1      42.626  27.372  28.795  1.00  0.00     0.167 HD
ATOM     47  C   UNL A   1      46.997  26.976  28.570  1.00  0.00     0.037 A 
ATOM     48  C   UNL A   1      40.232  28.758  29.147  1.00  0.00     0.037 A 
ATOM     49  C   UNL A   1      46.758  28.347  28.924  1.00  0.00     0.049 A 
ATOM     50  C   UNL A   1      41.337  29.736  29.434  1.00  0.00     0.074 A 
ATOM     51  C   UNL A   1      47.677  29.359  29.129  1.00  0.00     0.029 A 
ATOM     52  N   UNL A   1      45.499  28.897  29.127  1.00  0.00    -0.354 N 
ATOM     53  N   UNL A   1      42.633  29.564  29.343  1.00  0.00    -0.248 NA
ATOM     54  C   UNL A   1      40.936  31.078  29.879  1.00  0.00     0.031 C 
ATOM     55  C   UNL A   1      46.977  30.512  29.499  1.00  0.00     0.029 A 
ATOM     56  C   UNL A   1      45.620  30.229  29.482  1.00  0.00     0.049 A 
ATOM     57  H   UNL A   1      44.648  28.412  29.031  1.00  0.00     0.167 HD
ATOM     58  C   UNL A   1      43.205  30.777  29.702  1.00  0.00     0.074 A 
ATOM     59  C   UNL A   1      42.112  31.680  30.001  1.00  0.00     0.031 C 
ATOM     60  C   UNL A   1      44.517  31.110  29.781  1.00  0.00     0.037 A 
BRANCH  47  61
ATOM     61  C   UNL A   1      48.411  26.504  28.401  1.00  0.00     0.057 A 
ATOM     62  C   UNL A   1      49.065  26.577  27.162  1.00  0.00     0.134 A 
ATOM     63  C   UNL A   1      49.130  25.971  29.477  1.00  0.00     0.134 A 
ATOM     64  F   UNL A   1      48.429  27.063  26.085  1.00  0.00    -0.206 F 
ATOM     65  C   UNL A   1      50.367  26.104  26.992  1.00  0.00     0.040 A 
ATOM     66  C   UNL A   1      50.444  25.522  29.327  1.00  0.00     0.040 A 
ATOM     67  F   UNL A   1      48.568  25.875  30.692  1.00  0.00    -0.206 F 
ATOM     68  C   UNL A   1      51.062  25.579  28.079  1.00  0.00     0.006 A 
ENDBRANCH  47  61
BRANCH  48  69
ATOM     69  C   UNL A   1      38.807  29.171  29.186  1.00  0.00     0.057 A 
ATOM     70  C   UNL A   1      38.160  29.600  28.022  1.00  0.00     0.134 A 
ATOM     71  C   UNL A   1      38.044  29.092  30.357  1.00  0.00     0.134 A 
ATOM     72  F   UNL A   1      38.842  29.706  26.871  1.00  0.00    -0.206 F 
ATOM     73  C   UNL A   1      36.805  29.933  28.018  1.00  0.00     0.040 A 
ATOM     74  C   UNL A   1      36.684  29.405  30.365  1.00  0.00     0.040 A 
ATOM     75  F   UNL A   1      38.604  28.678  31.503  1.00  0.00    -0.206 F 
ATOM     76  C   UNL A   1      36.060  29.827  29.192  1.00  0.00     0.006 A 
ENDBRANCH  48  69
BRANCH  60  77
ATOM     77  C   UNL A   1      44.856  32.505  30.210  1.00  0.00     0.057 A 
ATOM     78  C   UNL A   1      45.153  32.804  31.545  1.00  0.00     0.134 A 
ATOM     79  C   UNL A   1      44.991  33.532  29.267  1.00  0.00     0.134 A 
ATOM     80  F   UNL A   1      45.032  31.866  32.495  1.00  0.00    -0.206 F 
ATOM     81  C   UNL A   1      45.575  34.078  31.927  1.00  0.00     0.040 A 
ATOM     82  C   UNL A   1      45.436  34.802  29.633  1.00  0.00     0.040 A 
ATOM     83  F   UNL A   1      44.731  33.305  27.971  1.00  0.00    -0.206 F 
ATOM     84  C   UNL A   1      45.731  35.077  30.968  1.00  0.00     0.006 A 
ENDBRANCH  60  77
ENDBRANCH  34  35
ENDBRANCH  26  29
ENDBRANCH  24  25
ENDBRANCH   1  24
TORSDOF 11
ENDMDL
MODEL 2
REMARK VINA RESULT:     -12.4      0.749      6.305
REMARK SMILES Cc1cc2c(c(C)c1Cl)C=C(C(=O)NCCCNC(=O)c1ccc(-c3c4nc(c(-c5c(F)cccc5F)c5ccc([nH]5)c(-c5c(F)cccc5F)c5nc(c(-c6c(F)cccc6F)c6ccc3[nH]6)C=C5)C=C4)cc1)[C@@H](C(F)(F)F)O2
REMARK SMILES IDX 16 1 15 2 14 3 12 4 13 5 11 7 1 8 2 9 3 10 8 11 4 12 6 13
REMARK SMILES IDX 9 14 5 15 80 16 7 17 10 18 75 19 76 20 77 21 78 22 79 23
REMARK SMILES IDX 17 24 18 25 19 26 20 28 21 29 22 30 74 31 23 32 73 33 24 34
REMARK SMILES IDX 25 35 26 36 67 37 27 38 72 39 66 40 68 41 28 42 71 43 65 44
REMARK SMILES IDX 64 45 29 47 55 48 38 49 54 50 39 51 42 52 53 53 69 54 40 55
REMARK SMILES IDX 41 56 52 58 70 59 43 60 30 61 31 62 36 63 32 64 33 65 35 66
REMARK SMILES IDX 37 67 34 68 56 69 57 70 62 71 58 72 59 73 61 74 63 75 60 76
REMARK SMILES IDX 44 77 45 78 50 79 46 80 47 81 49 82 51 83 48 84
REMARK H PARENT 14 6 18 27 68 46 42 57
REMARK Flexibility Score: inf
ROOT
ATOM      1  C   UNL A   1      37.802  19.595  24.904  1.00  0.00     0.042 C 
ENDROOT
BRANCH   1   2
ATOM      2  C   UNL A   1      36.509  20.378  25.063  1.00  0.00     0.118 C 
BRANCH   2   3
ATOM      3  N   UNL A   1      35.344  19.509  24.996  1.00  0.00    -0.352 N 
ATOM      4  C   UNL A   1      33.999  19.644  25.002  1.00  0.00     0.251 C 
ATOM      5  O   UNL A   1      33.366  18.584  24.955  1.00  0.00    -0.270 OA
ATOM      6  H   UNL A   1      35.607  18.563  24.929  1.00  0.00     0.163 HD
BRANCH   4   7
ATOM      7  C   UNL A   1      33.266  20.943  25.056  1.00  0.00     0.067 C 
ATOM      8  C   UNL A   1      30.322  26.654  24.114  1.00  0.00     0.046 C 
ATOM      9  C   UNL A   1      31.100  25.375  23.964  1.00  0.00    -0.028 A 
ATOM     10  C   UNL A   1      31.075  24.492  25.048  1.00  0.00     0.052 A 
ATOM     11  C   UNL A   1      31.801  25.000  22.800  1.00  0.00     0.047 A 
ATOM     12  C   UNL A   1      31.762  23.286  24.996  1.00  0.00     0.128 A 
ATOM     13  C   UNL A   1      32.506  23.769  22.734  1.00  0.00    -0.021 A 
ATOM     14  Cl  UNL A   1      31.777  26.067  21.428  1.00  0.00    -0.084 Cl
ATOM     15  C   UNL A   1      32.480  22.908  23.858  1.00  0.00     0.022 A 
ATOM     16  O   UNL A   1      31.646  22.500  26.106  1.00  0.00    -0.475 OA
ATOM     17  C   UNL A   1      33.279  23.355  21.502  1.00  0.00     0.047 C 
ATOM     18  C   UNL A   1      33.145  21.601  23.888  1.00  0.00     0.026 C 
ATOM     19  C   UNL A   1      32.709  21.537  26.313  1.00  0.00     0.314 C 
BRANCH  19  20
ATOM     20  C   UNL A   1      33.793  22.153  27.218  1.00  0.00     0.429 C 
ATOM     21  F   UNL A   1      33.220  22.899  28.197  1.00  0.00    -0.167 F 
ATOM     22  F   UNL A   1      34.545  21.217  27.844  1.00  0.00    -0.167 F 
ATOM     23  F   UNL A   1      34.646  22.955  26.545  1.00  0.00    -0.167 F 
ENDBRANCH  19  20
ENDBRANCH   4   7
ENDBRANCH   2   3
ENDBRANCH   1   2
BRANCH   1  24
ATOM     24  C   UNL A   1      38.926  20.178  25.750  1.00  0.00     0.118 C 
BRANCH  24  25
ATOM     25  N   UNL A   1      39.993  19.205  25.973  1.00  0.00    -0.352 N 
ATOM     26  C   UNL A   1      41.343  19.396  26.126  1.00  0.00     0.251 C 
ATOM     27  H   UNL A   1      39.697  18.268  26.020  1.00  0.00     0.163 HD
ATOM     28  O   UNL A   1      42.115  18.445  26.009  1.00  0.00    -0.269 OA
BRANCH  26  29
ATOM     29  C   UNL A   1      41.867  20.739  26.427  1.00  0.00     0.039 A 
ATOM     30  C   UNL A   1      42.210  21.597  25.378  1.00  0.00     0.014 A 
ATOM     31  C   UNL A   1      42.042  21.143  27.751  1.00  0.00     0.014 A 
ATOM     32  C   UNL A   1      42.670  22.882  25.666  1.00  0.00     0.010 A 
ATOM     33  C   UNL A   1      42.389  22.455  28.035  1.00  0.00     0.010 A 
ATOM     34  C   UNL A   1      42.730  23.330  26.996  1.00  0.00    -0.014 A 
BRANCH  34  35
ATOM     35  C   UNL A   1      43.194  24.697  27.329  1.00  0.00     0.031 A 
ATOM     36  C   UNL A   1      42.201  25.736  27.767  1.00  0.00     0.074 A 
ATOM     37  C   UNL A   1      44.497  25.009  27.196  1.00  0.00     0.049 A 
ATOM     38  N   UNL A   1      42.405  26.988  28.088  1.00  0.00    -0.248 NA
ATOM     39  C   UNL A   1      40.789  25.324  27.825  1.00  0.00     0.031 C 
ATOM     40  C   UNL A   1      45.542  24.093  26.736  1.00  0.00     0.029 A 
ATOM     41  N   UNL A   1      45.164  26.179  27.449  1.00  0.00    -0.354 N 
ATOM     42  C   UNL A   1      41.151  27.505  28.385  1.00  0.00     0.074 A 
ATOM     43  C   UNL A   1      40.184  26.464  28.120  1.00  0.00     0.031 C 
ATOM     44  C   UNL A   1      46.728  24.719  26.796  1.00  0.00     0.029 A 
ATOM     45  C   UNL A   1      46.521  26.087  27.262  1.00  0.00     0.049 A 
ATOM     46  H   UNL A   1      44.715  27.006  27.736  1.00  0.00     0.167 HD
ATOM     47  C   UNL A   1      40.834  28.723  28.883  1.00  0.00     0.037 A 
ATOM     48  C   UNL A   1      47.489  27.001  27.461  1.00  0.00     0.037 A 
ATOM     49  C   UNL A   1      41.801  29.748  29.162  1.00  0.00     0.049 A 
ATOM     50  C   UNL A   1      47.113  28.366  27.963  1.00  0.00     0.074 A 
ATOM     51  C   UNL A   1      41.596  31.004  29.701  1.00  0.00     0.029 A 
ATOM     52  N   UNL A   1      43.162  29.630  28.918  1.00  0.00    -0.354 N 
ATOM     53  N   UNL A   1      45.932  28.824  28.299  1.00  0.00    -0.248 NA
ATOM     54  C   UNL A   1      48.202  29.342  28.109  1.00  0.00     0.031 C 
ATOM     55  C   UNL A   1      42.827  31.664  29.743  1.00  0.00     0.029 A 
ATOM     56  C   UNL A   1      43.806  30.803  29.271  1.00  0.00     0.049 A 
ATOM     57  H   UNL A   1      43.604  28.832  28.550  1.00  0.00     0.167 HD
ATOM     58  C   UNL A   1      46.133  30.134  28.711  1.00  0.00     0.074 A 
ATOM     59  C   UNL A   1      47.555  30.393  28.595  1.00  0.00     0.031 C 
ATOM     60  C   UNL A   1      45.223  31.041  29.142  1.00  0.00     0.037 A 
BRANCH  47  61
ATOM     61  C   UNL A   1      39.387  28.988  29.175  1.00  0.00     0.057 A 
ATOM     62  C   UNL A   1      38.843  28.766  30.449  1.00  0.00     0.134 A 
ATOM     63  C   UNL A   1      38.524  29.466  28.182  1.00  0.00     0.134 A 
ATOM     64  F   UNL A   1      39.611  28.293  31.443  1.00  0.00    -0.206 F 
ATOM     65  C   UNL A   1      37.490  28.975  30.714  1.00  0.00     0.040 A 
ATOM     66  C   UNL A   1      37.174  29.709  28.443  1.00  0.00     0.040 A 
ATOM     67  F   UNL A   1      38.978  29.704  26.942  1.00  0.00    -0.206 F 
ATOM     68  C   UNL A   1      36.651  29.453  29.709  1.00  0.00     0.006 A 
ENDBRANCH  47  61
BRANCH  48  69
ATOM     69  C   UNL A   1      48.908  26.619  27.249  1.00  0.00     0.057 A 
ATOM     70  C   UNL A   1      49.504  26.773  25.992  1.00  0.00     0.134 A 
ATOM     71  C   UNL A   1      49.714  26.153  28.294  1.00  0.00     0.134 A 
ATOM     72  F   UNL A   1      48.779  27.204  24.950  1.00  0.00    -0.206 F 
ATOM     73  C   UNL A   1      50.852  26.480  25.782  1.00  0.00     0.040 A 
ATOM     74  C   UNL A   1      51.068  25.874  28.103  1.00  0.00     0.040 A 
ATOM     75  F   UNL A   1      49.203  25.995  29.524  1.00  0.00    -0.206 F 
ATOM     76  C   UNL A   1      51.641  26.037  26.842  1.00  0.00     0.006 A 
ENDBRANCH  48  69
BRANCH  60  77
ATOM     77  C   UNL A   1      45.722  32.403  29.520  1.00  0.00     0.057 A 
ATOM     78  C   UNL A   1      45.729  33.458  28.598  1.00  0.00     0.134 A 
ATOM     79  C   UNL A   1      46.097  32.689  30.839  1.00  0.00     0.134 A 
ATOM     80  F   UNL A   1      45.390  33.244  27.318  1.00  0.00    -0.206 F 
ATOM     81  C   UNL A   1      46.089  34.751  28.978  1.00  0.00     0.040 A 
ATOM     82  C   UNL A   1      46.436  33.982  31.235  1.00  0.00     0.040 A 
ATOM     83  F   UNL A   1      46.101  31.723  31.770  1.00  0.00    -0.206 F 
ATOM     84  C   UNL A   1      46.431  35.019  30.302  1.00  0.00     0.006 A 
ENDBRANCH  60  77
ENDBRANCH  34  35
ENDBRANCH  26  29
ENDBRANCH  24  25
ENDBRANCH   1  24
TORSDOF 11
ENDMDL
MODEL 3
REMARK VINA RESULT:     -12.4      1.403      2.335
REMARK SMILES Cc1cc2c(c(C)c1Cl)C=C(C(=O)NCCCNC(=O)c1ccc(-c3c4nc(c(-c5c(F)cccc5F)c5ccc([nH]5)c(-c5c(F)cccc5F)c5nc(c(-c6c(F)cccc6F)c6ccc3[nH]6)C=C5)C=C4)cc1)[C@@H](C(F)(F)F)O2
REMARK SMILES IDX 16 1 15 2 14 3 12 4 13 5 11 7 1 8 2 9 3 10 8 11 4 12 6 13
REMARK SMILES IDX 9 14 5 15 80 16 7 17 10 18 75 19 76 20 77 21 78 22 79 23
REMARK SMILES IDX 17 24 18 25 19 26 20 28 21 29 22 30 74 31 23 32 73 33 24 34
REMARK SMILES IDX 25 35 26 36 67 37 27 38 72 39 66 40 68 41 28 42 71 43 65 44
REMARK SMILES IDX 64 45 29 47 55 48 38 49 54 50 39 51 42 52 53 53 69 54 40 55
REMARK SMILES IDX 41 56 52 58 70 59 43 60 30 61 31 62 36 63 32 64 33 65 35 66
REMARK SMILES IDX 37 67 34 68 56 69 57 70 62 71 58 72 59 73 61 74 63 75 60 76
REMARK SMILES IDX 44 77 45 78 50 79 46 80 47 81 49 82 51 83 48 84
REMARK H PARENT 14 6 18 27 68 46 42 57
REMARK Flexibility Score: inf
ROOT
ATOM      1  C   UNL A   1      37.409  19.587  24.997  1.00  0.00     0.042 C 
ENDROOT
BRANCH   1   2
ATOM      2  C   UNL A   1      36.275  20.597  25.056  1.00  0.00     0.118 C 
BRANCH   2   3
ATOM      3  N   UNL A   1      36.729  21.886  25.557  1.00  0.00    -0.352 N 
ATOM      4  C   UNL A   1      36.215  23.124  25.733  1.00  0.00     0.251 C 
ATOM      5  O   UNL A   1      37.006  23.960  26.181  1.00  0.00    -0.270 OA
ATOM      6  H   UNL A   1      37.670  21.845  25.845  1.00  0.00     0.163 HD
BRANCH   4   7
ATOM      7  C   UNL A   1      34.808  23.519  25.435  1.00  0.00     0.067 C 
ATOM      8  C   UNL A   1      29.129  26.357  24.064  1.00  0.00     0.046 C 
ATOM      9  C   UNL A   1      30.569  26.062  24.384  1.00  0.00    -0.028 A 
ATOM     10  C   UNL A   1      30.946  24.715  24.405  1.00  0.00     0.052 A 
ATOM     11  C   UNL A   1      31.553  27.045  24.612  1.00  0.00     0.047 A 
ATOM     12  C   UNL A   1      32.256  24.350  24.687  1.00  0.00     0.128 A 
ATOM     13  C   UNL A   1      32.896  26.685  24.900  1.00  0.00    -0.021 A 
ATOM     14  Cl  UNL A   1      31.100  28.720  24.520  1.00  0.00    -0.084 Cl
ATOM     15  C   UNL A   1      33.240  25.312  24.938  1.00  0.00     0.022 A 
ATOM     16  O   UNL A   1      32.508  23.008  24.659  1.00  0.00    -0.475 OA
ATOM     17  C   UNL A   1      33.963  27.723  25.166  1.00  0.00     0.047 C 
ATOM     18  C   UNL A   1      34.601  24.827  25.194  1.00  0.00     0.026 C 
ATOM     19  C   UNL A   1      33.654  22.564  25.426  1.00  0.00     0.314 C 
BRANCH  19  20
ATOM     20  C   UNL A   1      33.201  22.155  26.840  1.00  0.00     0.429 C 
ATOM     21  F   UNL A   1      33.581  20.878  27.104  1.00  0.00    -0.167 F 
ATOM     22  F   UNL A   1      33.752  22.924  27.808  1.00  0.00    -0.167 F 
ATOM     23  F   UNL A   1      31.862  22.220  27.002  1.00  0.00    -0.167 F 
ENDBRANCH  19  20
ENDBRANCH   4   7
ENDBRANCH   2   3
ENDBRANCH   1   2
BRANCH   1  24
ATOM     24  C   UNL A   1      38.765  20.246  25.215  1.00  0.00     0.118 C 
BRANCH  24  25
ATOM     25  N   UNL A   1      39.785  19.269  25.587  1.00  0.00    -0.352 N 
ATOM     26  C   UNL A   1      41.061  19.458  26.055  1.00  0.00     0.251 C 
ATOM     27  H   UNL A   1      39.516  18.328  25.485  1.00  0.00     0.163 HD
ATOM     28  O   UNL A   1      41.868  18.531  26.032  1.00  0.00    -0.269 OA
BRANCH  26  29
ATOM     29  C   UNL A   1      41.463  20.774  26.581  1.00  0.00     0.039 A 
ATOM     30  C   UNL A   1      42.167  21.660  25.762  1.00  0.00     0.014 A 
ATOM     31  C   UNL A   1      41.163  21.123  27.899  1.00  0.00     0.014 A 
ATOM     32  C   UNL A   1      42.512  22.920  26.250  1.00  0.00     0.010 A 
ATOM     33  C   UNL A   1      41.404  22.414  28.345  1.00  0.00     0.010 A 
ATOM     34  C   UNL A   1      42.104  23.317  27.535  1.00  0.00    -0.014 A 
BRANCH  34  35
ATOM     35  C   UNL A   1      42.439  24.656  28.071  1.00  0.00     0.031 A 
ATOM     36  C   UNL A   1      43.868  24.999  28.384  1.00  0.00     0.074 A 
ATOM     37  C   UNL A   1      41.455  25.542  28.314  1.00  0.00     0.049 A 
ATOM     38  N   UNL A   1      44.364  26.107  28.871  1.00  0.00    -0.248 NA
ATOM     39  C   UNL A   1      44.872  23.948  28.144  1.00  0.00     0.031 C 
ATOM     40  C   UNL A   1      40.028  25.302  28.091  1.00  0.00     0.029 A 
ATOM     41  N   UNL A   1      41.508  26.826  28.788  1.00  0.00    -0.354 N 
ATOM     42  C   UNL A   1      45.729  25.883  28.992  1.00  0.00     0.074 A 
ATOM     43  C   UNL A   1      45.973  24.510  28.616  1.00  0.00     0.031 C 
ATOM     44  C   UNL A   1      39.348  26.424  28.373  1.00  0.00     0.029 A 
ATOM     45  C   UNL A   1      40.284  27.446  28.829  1.00  0.00     0.049 A 
ATOM     46  H   UNL A   1      42.343  27.263  29.072  1.00  0.00     0.167 HD
ATOM     47  C   UNL A   1      46.701  26.758  29.337  1.00  0.00     0.037 A 
ATOM     48  C   UNL A   1      39.958  28.704  29.181  1.00  0.00     0.037 A 
ATOM     49  C   UNL A   1      46.455  28.128  29.692  1.00  0.00     0.049 A 
ATOM     50  C   UNL A   1      41.046  29.647  29.614  1.00  0.00     0.074 A 
ATOM     51  C   UNL A   1      47.368  29.112  30.023  1.00  0.00     0.029 A 
ATOM     52  N   UNL A   1      45.195  28.706  29.763  1.00  0.00    -0.354 N 
ATOM     53  N   UNL A   1      42.340  29.442  29.667  1.00  0.00    -0.248 NA
ATOM     54  C   UNL A   1      40.629  30.989  30.041  1.00  0.00     0.031 C 
ATOM     55  C   UNL A   1      46.658  30.275  30.338  1.00  0.00     0.029 A 
ATOM     56  C   UNL A   1      45.305  30.027  30.160  1.00  0.00     0.049 A 
ATOM     57  H   UNL A   1      44.350  28.246  29.561  1.00  0.00     0.167 HD
ATOM     58  C   UNL A   1      42.895  30.633  30.116  1.00  0.00     0.074 A 
ATOM     59  C   UNL A   1      41.797  31.559  30.309  1.00  0.00     0.031 C 
ATOM     60  C   UNL A   1      44.197  30.930  30.351  1.00  0.00     0.037 A 
BRANCH  47  61
ATOM     61  C   UNL A   1      48.114  26.253  29.320  1.00  0.00     0.057 A 
ATOM     62  C   UNL A   1      48.713  25.709  30.466  1.00  0.00     0.134 A 
ATOM     63  C   UNL A   1      48.887  26.309  28.155  1.00  0.00     0.134 A 
ATOM     64  F   UNL A   1      48.033  25.641  31.621  1.00  0.00    -0.206 F 
ATOM     65  C   UNL A   1      50.038  25.274  30.463  1.00  0.00     0.040 A 
ATOM     66  C   UNL A   1      50.206  25.848  28.131  1.00  0.00     0.040 A 
ATOM     67  F   UNL A   1      48.377  26.813  27.021  1.00  0.00    -0.206 F 
ATOM     68  C   UNL A   1      50.788  25.338  29.290  1.00  0.00     0.006 A 
ENDBRANCH  47  61
BRANCH  48  69
ATOM     69  C   UNL A   1      38.548  29.152  29.067  1.00  0.00     0.057 A 
ATOM     70  C   UNL A   1      37.696  29.106  30.175  1.00  0.00     0.134 A 
ATOM     71  C   UNL A   1      38.036  29.688  27.880  1.00  0.00     0.134 A 
ATOM     72  F   UNL A   1      38.128  28.593  31.337  1.00  0.00    -0.206 F 
ATOM     73  C   UNL A   1      36.385  29.579  30.110  1.00  0.00     0.040 A 
ATOM     74  C   UNL A   1      36.732  30.182  27.805  1.00  0.00     0.040 A 
ATOM     75  F   UNL A   1      38.806  29.769  26.785  1.00  0.00    -0.206 F 
ATOM     76  C   UNL A   1      35.902  30.127  28.923  1.00  0.00     0.006 A 
ENDBRANCH  48  69
BRANCH  60  77
ATOM     77  C   UNL A   1      44.517  32.308  30.847  1.00  0.00     0.057 A 
ATOM     78  C   UNL A   1      44.741  33.368  29.960  1.00  0.00     0.134 A 
ATOM     79  C   UNL A   1      44.496  32.598  32.217  1.00  0.00     0.134 A 
ATOM     80  F   UNL A   1      44.783  33.150  28.638  1.00  0.00    -0.206 F 
ATOM     81  C   UNL A   1      44.930  34.671  30.420  1.00  0.00     0.040 A 
ATOM     82  C   UNL A   1      44.660  33.901  32.687  1.00  0.00     0.040 A 
ATOM     83  F   UNL A   1      44.277  31.627  33.117  1.00  0.00    -0.206 F 
ATOM     84  C   UNL A   1      44.876  34.943  31.786  1.00  0.00     0.006 A 
ENDBRANCH  60  77
ENDBRANCH  34  35
ENDBRANCH  26  29
ENDBRANCH  24  25
ENDBRANCH   1  24
TORSDOF 11
ENDMDL
