MODEL 1
REMARK VINA RESULT:     -12.9      0.000      0.000
REMARK SMILES CCn1nc(C)c(NS(=O)(=O)c2cc(C(=O)NCCCNC(=O)c3ccc(-c4c5nc(c(-c6c(F)cccc6F)c6ccc([nH]6)c(-c6c(F)cccc6F)c6nc(c(-c7c(F)cccc7F)c7ccc4[nH]7)C=C6)C=C5)cc3)cc(F)c2C)c1C
REMARK SMILES IDX 18 1 17 2 15 3 16 4 14 6 12 7 13 8 81 9 79 10 82 11 78 12
REMARK SMILES IDX 80 13 9 14 10 15 11 16 8 17 7 19 3 20 4 21 83 22 5 23 84 24
REMARK SMILES IDX 6 25 2 26 1 27 19 28 20 29 21 30 22 31 23 33 24 34 25 35
REMARK SMILES IDX 77 36 26 37 76 38 27 39 28 40 29 41 70 42 30 43 75 44 69 45
REMARK SMILES IDX 71 46 31 47 74 48 68 49 67 50 32 52 58 53 41 54 57 55 42 56
REMARK SMILES IDX 45 57 56 58 72 59 43 60 44 61 55 63 73 64 46 65 33 66 34 67
REMARK SMILES IDX 39 68 35 69 36 70 38 71 40 72 37 73 59 74 60 75 65 76 61 77
REMARK SMILES IDX 62 78 64 79 66 80 63 81 47 82 48 83 53 84 49 85 50 86 52 87
REMARK SMILES IDX 54 88 51 89
REMARK H PARENT 17 5 8 18 21 32 71 51 45 62
REMARK Flexibility Score: inf
ROOT
ATOM      1  C   UNL A   1      32.640  28.780  26.514  1.00  0.00     0.118 C 
ENDROOT
BRANCH   1   2
ATOM      2  N   UNL A   1      31.587  29.068  25.546  1.00  0.00    -0.352 N 
ATOM      3  C   UNL A   1      31.138  28.331  24.473  1.00  0.00     0.251 C 
ATOM      4  O   UNL A   1      30.208  28.756  23.793  1.00  0.00    -0.269 OA
ATOM      5  H   UNL A   1      31.125  29.926  25.679  1.00  0.00     0.163 HD
BRANCH   3   6
ATOM      6  C   UNL A   1      31.707  26.991  24.185  1.00  0.00     0.044 A 
ATOM      7  C   UNL A   1      31.957  24.636  24.788  1.00  0.00     0.094 A 
ATOM      8  C   UNL A   1      31.709  25.971  25.129  1.00  0.00     0.036 A 
ATOM      9  C   UNL A   1      32.348  24.328  23.483  1.00  0.00     0.005 A 
ATOM     10  C   UNL A   1      32.534  25.405  22.593  1.00  0.00     0.128 A 
ATOM     11  C   UNL A   1      32.637  22.953  22.971  1.00  0.00     0.049 C 
ATOM     12  C   UNL A   1      32.200  26.719  22.920  1.00  0.00     0.053 A 
ATOM     13  F   UNL A   1      33.009  25.166  21.364  1.00  0.00    -0.207 F 
BRANCH   7  14
ATOM     14  S   UNL A   1      31.566  23.467  26.073  1.00  0.00     0.262 S 
ATOM     15  O   UNL A   1      30.796  22.421  25.439  1.00  0.00    -0.201 OA
ATOM     16  O   UNL A   1      30.994  24.208  27.185  1.00  0.00    -0.201 OA
BRANCH  14  17
ATOM     17  N   UNL A   1      32.942  22.739  26.659  1.00  0.00    -0.276 N 
ATOM     18  H   UNL A   1      33.110  22.861  27.621  1.00  0.00     0.180 HD
BRANCH  17  19
ATOM     19  C   UNL A   1      33.890  21.981  25.978  1.00  0.00     0.093 A 
ATOM     20  N   UNL A   1      35.862  21.438  25.199  1.00  0.00    -0.268 N 
ATOM     21  N   UNL A   1      35.128  20.325  25.029  1.00  0.00    -0.176 NA
ATOM     22  C   UNL A   1      35.114  22.508  25.613  1.00  0.00     0.060 A 
ATOM     23  C   UNL A   1      33.905  20.655  25.472  1.00  0.00     0.084 A 
ATOM     24  C   UNL A   1      35.601  23.911  25.662  1.00  0.00     0.069 C 
ATOM     25  C   UNL A   1      32.829  19.639  25.361  1.00  0.00     0.071 C 
BRANCH  20  26
ATOM     26  C   UNL A   1      37.290  21.419  24.936  1.00  0.00     0.141 C 
ATOM     27  C   UNL A   1      37.900  20.030  24.830  1.00  0.00     0.029 C 
ENDBRANCH  20  26
ENDBRANCH  17  19
ENDBRANCH  14  17
ENDBRANCH   7  14
ENDBRANCH   3   6
ENDBRANCH   1   2
BRANCH   1  28
ATOM     28  C   UNL A   1      34.012  29.202  25.970  1.00  0.00     0.042 C 
BRANCH  28  29
ATOM     29  C   UNL A   1      35.050  29.099  27.047  1.00  0.00     0.118 C 
BRANCH  29  30
ATOM     30  N   UNL A   1      35.673  30.394  27.318  1.00  0.00    -0.352 N 
ATOM     31  C   UNL A   1      36.826  30.642  28.028  1.00  0.00     0.251 C 
ATOM     32  H   UNL A   1      35.213  31.182  26.949  1.00  0.00     0.163 HD
ATOM     33  O   UNL A   1      37.102  31.767  28.423  1.00  0.00    -0.269 OA
BRANCH  31  34
ATOM     34  C   UNL A   1      37.761  29.531  28.240  1.00  0.00     0.039 A 
ATOM     35  C   UNL A   1      37.621  28.619  29.291  1.00  0.00     0.014 A 
ATOM     36  C   UNL A   1      38.870  29.486  27.406  1.00  0.00     0.014 A 
ATOM     37  C   UNL A   1      38.647  27.708  29.518  1.00  0.00     0.010 A 
ATOM     38  C   UNL A   1      39.707  28.430  27.440  1.00  0.00     0.010 A 
ATOM     39  C   UNL A   1      39.693  27.665  28.594  1.00  0.00    -0.014 A 
BRANCH  39  40
ATOM     40  C   UNL A   1      40.932  26.938  28.735  1.00  0.00     0.031 A 
ATOM     41  C   UNL A   1      40.909  25.509  28.475  1.00  0.00     0.074 A 
ATOM     42  C   UNL A   1      42.032  27.721  28.836  1.00  0.00     0.049 A 
ATOM     43  N   UNL A   1      41.703  24.658  29.008  1.00  0.00    -0.248 NA
ATOM     44  C   UNL A   1      39.913  24.909  27.590  1.00  0.00     0.031 C 
ATOM     45  C   UNL A   1      43.438  27.436  28.632  1.00  0.00     0.029 A 
ATOM     46  N   UNL A   1      42.030  29.060  29.255  1.00  0.00    -0.354 N 
ATOM     47  C   UNL A   1      41.598  23.514  28.249  1.00  0.00     0.074 A 
ATOM     48  C   UNL A   1      40.359  23.651  27.522  1.00  0.00     0.031 C 
ATOM     49  C   UNL A   1      44.164  28.411  29.220  1.00  0.00     0.029 A 
ATOM     50  C   UNL A   1      43.238  29.296  29.916  1.00  0.00     0.049 A 
ATOM     51  H   UNL A   1      41.309  29.713  29.109  1.00  0.00     0.167 HD
ATOM     52  C   UNL A   1      42.696  22.712  28.138  1.00  0.00     0.037 A 
ATOM     53  C   UNL A   1      43.171  29.497  31.268  1.00  0.00     0.037 A 
ATOM     54  C   UNL A   1      43.816  23.320  28.872  1.00  0.00     0.049 A 
ATOM     55  C   UNL A   1      43.701  28.287  31.997  1.00  0.00     0.074 A 
ATOM     56  C   UNL A   1      44.859  24.127  28.442  1.00  0.00     0.029 A 
ATOM     57  N   UNL A   1      43.722  23.512  30.250  1.00  0.00    -0.354 N 
ATOM     58  N   UNL A   1      43.715  27.080  31.497  1.00  0.00    -0.248 NA
ATOM     59  C   UNL A   1      44.345  28.367  33.302  1.00  0.00     0.031 C 
ATOM     60  C   UNL A   1      45.324  24.876  29.558  1.00  0.00     0.029 A 
ATOM     61  C   UNL A   1      44.571  24.525  30.666  1.00  0.00     0.049 A 
ATOM     62  H   UNL A   1      43.130  22.999  30.846  1.00  0.00     0.167 HD
ATOM     63  C   UNL A   1      44.390  26.247  32.343  1.00  0.00     0.074 A 
ATOM     64  C   UNL A   1      44.758  27.099  33.463  1.00  0.00     0.031 C 
ATOM     65  C   UNL A   1      44.624  24.930  32.066  1.00  0.00     0.037 A 
BRANCH  52  66
ATOM     66  C   UNL A   1      42.858  21.626  27.096  1.00  0.00     0.057 A 
ATOM     67  C   UNL A   1      42.077  20.455  27.150  1.00  0.00     0.134 A 
ATOM     68  C   UNL A   1      43.762  21.663  26.018  1.00  0.00     0.134 A 
ATOM     69  F   UNL A   1      41.108  20.295  28.061  1.00  0.00    -0.206 F 
ATOM     70  C   UNL A   1      42.240  19.382  26.262  1.00  0.00     0.040 A 
ATOM     71  C   UNL A   1      43.969  20.579  25.150  1.00  0.00     0.040 A 
ATOM     72  F   UNL A   1      44.447  22.771  25.707  1.00  0.00    -0.206 F 
ATOM     73  C   UNL A   1      43.207  19.429  25.273  1.00  0.00     0.006 A 
ENDBRANCH  52  66
BRANCH  53  74
ATOM     74  C   UNL A   1      41.961  30.314  31.633  1.00  0.00     0.057 A 
ATOM     75  C   UNL A   1      41.958  31.660  31.208  1.00  0.00     0.134 A 
ATOM     76  C   UNL A   1      40.710  29.728  31.861  1.00  0.00     0.134 A 
ATOM     77  F   UNL A   1      43.121  32.300  31.000  1.00  0.00    -0.206 F 
ATOM     78  C   UNL A   1      40.784  32.317  30.824  1.00  0.00     0.040 A 
ATOM     79  C   UNL A   1      39.524  30.392  31.509  1.00  0.00     0.040 A 
ATOM     80  F   UNL A   1      40.615  28.462  32.292  1.00  0.00    -0.206 F 
ATOM     81  C   UNL A   1      39.563  31.661  30.930  1.00  0.00     0.006 A 
ENDBRANCH  53  74
BRANCH  65  82
ATOM     82  C   UNL A   1      45.031  23.915  33.101  1.00  0.00     0.057 A 
ATOM     83  C   UNL A   1      46.293  23.898  33.711  1.00  0.00     0.134 A 
ATOM     84  C   UNL A   1      44.090  23.010  33.637  1.00  0.00     0.134 A 
ATOM     85  F   UNL A   1      47.239  24.795  33.405  1.00  0.00    -0.206 F 
ATOM     86  C   UNL A   1      46.626  22.985  34.715  1.00  0.00     0.040 A 
ATOM     87  C   UNL A   1      44.389  22.147  34.692  1.00  0.00     0.040 A 
ATOM     88  F   UNL A   1      42.829  22.943  33.183  1.00  0.00    -0.206 F 
ATOM     89  C   UNL A   1      45.669  22.113  35.217  1.00  0.00     0.006 A 
ENDBRANCH  65  82
ENDBRANCH  39  40
ENDBRANCH  31  34
ENDBRANCH  29  30
ENDBRANCH  28  29
ENDBRANCH   1  28
TORSDOF 14
ENDMDL
MODEL 2
REMARK VINA RESULT:     -12.9      1.421      2.104
REMARK SMILES CCn1nc(C)c(NS(=O)(=O)c2cc(C(=O)NCCCNC(=O)c3ccc(-c4c5nc(c(-c6c(F)cccc6F)c6ccc([nH]6)c(-c6c(F)cccc6F)c6nc(c(-c7c(F)cccc7F)c7ccc4[nH]7)C=C6)C=C5)cc3)cc(F)c2C)c1C
REMARK SMILES IDX 18 1 17 2 15 3 16 4 14 6 12 7 13 8 81 9 79 10 82 11 78 12
REMARK SMILES IDX 80 13 9 14 10 15 11 16 8 17 7 19 3 20 4 21 83 22 5 23 84 24
REMARK SMILES IDX 6 25 2 26 1 27 19 28 20 29 21 30 22 31 23 33 24 34 25 35
REMARK SMILES IDX 77 36 26 37 76 38 27 39 28 40 29 41 70 42 30 43 75 44 69 45
REMARK SMILES IDX 71 46 31 47 74 48 68 49 67 50 32 52 58 53 41 54 57 55 42 56
REMARK SMILES IDX 45 57 56 58 72 59 43 60 44 61 55 63 73 64 46 65 33 66 34 67
REMARK SMILES IDX 39 68 35 69 36 70 38 71 40 72 37 73 59 74 60 75 65 76 61 77
REMARK SMILES IDX 62 78 64 79 66 80 63 81 47 82 48 83 53 84 49 85 50 86 52 87
REMARK SMILES IDX 54 88 51 89
REMARK H PARENT 17 5 8 18 21 32 71 51 45 62
REMARK Flexibility Score: inf
ROOT
ATOM      1  C   UNL A   1      32.827  29.752  26.362  1.00  0.00     0.118 C 
ENDROOT
BRANCH   1   2
ATOM      2  N   UNL A   1      33.226  29.707  24.959  1.00  0.00    -0.352 N 
ATOM      3  C   UNL A   1      33.196  28.668  24.057  1.00  0.00     0.251 C 
ATOM      4  O   UNL A   1      33.561  28.859  22.901  1.00  0.00    -0.269 OA
ATOM      5  H   UNL A   1      33.572  30.555  24.600  1.00  0.00     0.163 HD
BRANCH   3   6
ATOM      6  C   UNL A   1      32.646  27.345  24.446  1.00  0.00     0.044 A 
ATOM      7  C   UNL A   1      33.014  25.055  25.213  1.00  0.00     0.094 A 
ATOM      8  C   UNL A   1      33.448  26.217  24.565  1.00  0.00     0.036 A 
ATOM      9  C   UNL A   1      31.687  24.967  25.638  1.00  0.00     0.005 A 
ATOM     10  C   UNL A   1      30.837  26.047  25.327  1.00  0.00     0.128 A 
ATOM     11  C   UNL A   1      31.084  23.798  26.349  1.00  0.00     0.049 C 
ATOM     12  C   UNL A   1      31.301  27.233  24.760  1.00  0.00     0.053 A 
ATOM     13  F   UNL A   1      29.532  25.962  25.621  1.00  0.00    -0.207 F 
BRANCH   7  14
ATOM     14  S   UNL A   1      34.308  23.880  25.555  1.00  0.00     0.262 S 
ATOM     15  O   UNL A   1      34.011  23.328  26.857  1.00  0.00    -0.201 OA
ATOM     16  O   UNL A   1      35.580  24.546  25.329  1.00  0.00    -0.201 OA
BRANCH  14  17
ATOM     17  N   UNL A   1      34.256  22.605  24.489  1.00  0.00    -0.276 N 
ATOM     18  H   UNL A   1      33.895  22.812  23.597  1.00  0.00     0.180 HD
BRANCH  17  19
ATOM     19  C   UNL A   1      34.652  21.284  24.682  1.00  0.00     0.093 A 
ATOM     20  N   UNL A   1      34.474  19.103  24.697  1.00  0.00    -0.268 N 
ATOM     21  N   UNL A   1      35.790  19.323  24.856  1.00  0.00    -0.176 NA
ATOM     22  C   UNL A   1      33.734  20.254  24.754  1.00  0.00     0.060 A 
ATOM     23  C   UNL A   1      35.911  20.658  24.883  1.00  0.00     0.084 A 
ATOM     24  C   UNL A   1      32.252  20.304  24.840  1.00  0.00     0.069 C 
ATOM     25  C   UNL A   1      37.261  21.229  25.111  1.00  0.00     0.071 C 
BRANCH  20  26
ATOM     26  C   UNL A   1      33.975  17.753  24.503  1.00  0.00     0.141 C 
ATOM     27  C   UNL A   1      33.688  17.382  23.056  1.00  0.00     0.029 C 
ENDBRANCH  20  26
ENDBRANCH  17  19
ENDBRANCH  14  17
ENDBRANCH   7  14
ENDBRANCH   3   6
ENDBRANCH   1   2
BRANCH   1  28
ATOM     28  C   UNL A   1      33.757  28.883  27.221  1.00  0.00     0.042 C 
BRANCH  28  29
ATOM     29  C   UNL A   1      35.186  29.109  26.828  1.00  0.00     0.118 C 
BRANCH  29  30
ATOM     30  N   UNL A   1      35.669  30.411  27.287  1.00  0.00    -0.352 N 
ATOM     31  C   UNL A   1      36.689  30.665  28.175  1.00  0.00     0.251 C 
ATOM     32  H   UNL A   1      35.211  31.199  26.916  1.00  0.00     0.163 HD
ATOM     33  O   UNL A   1      36.825  31.766  28.693  1.00  0.00    -0.269 OA
BRANCH  31  34
ATOM     34  C   UNL A   1      37.662  29.597  28.436  1.00  0.00     0.039 A 
ATOM     35  C   UNL A   1      37.607  28.789  29.576  1.00  0.00     0.014 A 
ATOM     36  C   UNL A   1      38.722  29.493  27.544  1.00  0.00     0.014 A 
ATOM     37  C   UNL A   1      38.667  27.924  29.826  1.00  0.00     0.010 A 
ATOM     38  C   UNL A   1      39.585  28.461  27.628  1.00  0.00     0.010 A 
ATOM     39  C   UNL A   1      39.657  27.811  28.850  1.00  0.00    -0.014 A 
BRANCH  39  40
ATOM     40  C   UNL A   1      40.920  27.126  28.983  1.00  0.00     0.031 A 
ATOM     41  C   UNL A   1      40.967  25.721  28.616  1.00  0.00     0.074 A 
ATOM     42  C   UNL A   1      41.982  27.941  29.187  1.00  0.00     0.049 A 
ATOM     43  N   UNL A   1      41.776  24.863  29.114  1.00  0.00    -0.248 NA
ATOM     44  C   UNL A   1      40.030  25.151  27.650  1.00  0.00     0.031 C 
ATOM     45  C   UNL A   1      43.405  27.728  29.016  1.00  0.00     0.029 A 
ATOM     46  N   UNL A   1      41.908  29.242  29.704  1.00  0.00    -0.354 N 
ATOM     47  C   UNL A   1      41.747  23.777  28.268  1.00  0.00     0.074 A 
ATOM     48  C   UNL A   1      40.530  23.921  27.505  1.00  0.00     0.031 C 
ATOM     49  C   UNL A   1      44.067  28.683  29.704  1.00  0.00     0.029 A 
ATOM     50  C   UNL A   1      43.080  29.475  30.428  1.00  0.00     0.049 A 
ATOM     51  H   UNL A   1      41.166  29.876  29.579  1.00  0.00     0.167 HD
ATOM     52  C   UNL A   1      42.881  23.030  28.139  1.00  0.00     0.037 A 
ATOM     53  C   UNL A   1      42.957  29.568  31.788  1.00  0.00     0.037 A 
ATOM     54  C   UNL A   1      43.948  23.624  28.961  1.00  0.00     0.049 A 
ATOM     55  C   UNL A   1      43.511  28.328  32.443  1.00  0.00     0.074 A 
ATOM     56  C   UNL A   1      44.970  24.502  28.634  1.00  0.00     0.029 A 
ATOM     57  N   UNL A   1      43.795  23.705  30.344  1.00  0.00    -0.354 N 
ATOM     58  N   UNL A   1      43.593  27.164  31.855  1.00  0.00    -0.248 NA
ATOM     59  C   UNL A   1      44.103  28.332  33.775  1.00  0.00     0.031 C 
ATOM     60  C   UNL A   1      45.363  25.180  29.820  1.00  0.00     0.029 A 
ATOM     61  C   UNL A   1      44.586  24.716  30.868  1.00  0.00     0.049 A 
ATOM     62  H   UNL A   1      43.205  23.125  30.877  1.00  0.00     0.167 HD
ATOM     63  C   UNL A   1      44.272  26.295  32.661  1.00  0.00     0.074 A 
ATOM     64  C   UNL A   1      44.563  27.072  33.856  1.00  0.00     0.031 C 
ATOM     65  C   UNL A   1      44.571  25.013  32.296  1.00  0.00     0.037 A 
BRANCH  52  66
ATOM     66  C   UNL A   1      43.126  22.035  27.026  1.00  0.00     0.057 A 
ATOM     67  C   UNL A   1      42.437  20.806  26.995  1.00  0.00     0.134 A 
ATOM     68  C   UNL A   1      44.025  22.216  25.958  1.00  0.00     0.134 A 
ATOM     69  F   UNL A   1      41.484  20.509  27.887  1.00  0.00    -0.206 F 
ATOM     70  C   UNL A   1      42.682  19.813  26.036  1.00  0.00     0.040 A 
ATOM     71  C   UNL A   1      44.314  21.213  25.019  1.00  0.00     0.040 A 
ATOM     72  F   UNL A   1      44.622  23.392  25.728  1.00  0.00    -0.206 F 
ATOM     73  C   UNL A   1      43.643  20.002  25.057  1.00  0.00     0.006 A 
ENDBRANCH  52  66
BRANCH  53  74
ATOM     74  C   UNL A   1      41.700  30.306  32.165  1.00  0.00     0.057 A 
ATOM     75  C   UNL A   1      40.667  29.536  32.741  1.00  0.00     0.134 A 
ATOM     76  C   UNL A   1      41.704  31.673  32.467  1.00  0.00     0.134 A 
ATOM     77  F   UNL A   1      40.580  28.223  32.472  1.00  0.00    -0.206 F 
ATOM     78  C   UNL A   1      39.818  30.049  33.728  1.00  0.00     0.040 A 
ATOM     79  C   UNL A   1      40.833  32.203  33.433  1.00  0.00     0.040 A 
ATOM     80  F   UNL A   1      42.631  32.489  31.945  1.00  0.00    -0.206 F 
ATOM     81  C   UNL A   1      39.934  31.379  34.110  1.00  0.00     0.006 A 
ENDBRANCH  53  74
BRANCH  65  82
ATOM     82  C   UNL A   1      44.983  23.939  33.266  1.00  0.00     0.057 A 
ATOM     83  C   UNL A   1      46.284  23.813  33.772  1.00  0.00     0.134 A 
ATOM     84  C   UNL A   1      44.023  23.086  33.852  1.00  0.00     0.134 A 
ATOM     85  F   UNL A   1      47.266  24.651  33.415  1.00  0.00    -0.206 F 
ATOM     86  C   UNL A   1      46.628  22.846  34.721  1.00  0.00     0.040 A 
ATOM     87  C   UNL A   1      44.340  22.170  34.856  1.00  0.00     0.040 A 
ATOM     88  F   UNL A   1      42.729  23.123  33.499  1.00  0.00    -0.206 F 
ATOM     89  C   UNL A   1      45.652  22.028  35.275  1.00  0.00     0.006 A 
ENDBRANCH  65  82
ENDBRANCH  39  40
ENDBRANCH  31  34
ENDBRANCH  29  30
ENDBRANCH  28  29
ENDBRANCH   1  28
TORSDOF 14
ENDMDL
MODEL 3
REMARK VINA RESULT:     -12.8      1.931      2.945
REMARK SMILES CCn1nc(C)c(NS(=O)(=O)c2cc(C(=O)NCCCNC(=O)c3ccc(-c4c5nc(c(-c6c(F)cccc6F)c6ccc([nH]6)c(-c6c(F)cccc6F)c6nc(c(-c7c(F)cccc7F)c7ccc4[nH]7)C=C6)C=C5)cc3)cc(F)c2C)c1C
REMARK SMILES IDX 18 1 17 2 15 3 16 4 14 6 12 7 13 8 81 9 79 10 82 11 78 12
REMARK SMILES IDX 80 13 9 14 10 15 11 16 8 17 7 19 3 20 4 21 83 22 5 23 84 24
REMARK SMILES IDX 6 25 2 26 1 27 19 28 20 29 21 30 22 31 23 33 24 34 25 35
REMARK SMILES IDX 77 36 26 37 76 38 27 39 28 40 29 41 70 42 30 43 75 44 69 45
REMARK SMILES IDX 71 46 31 47 74 48 68 49 67 50 32 52 58 53 41 54 57 55 42 56
REMARK SMILES IDX 45 57 56 58 72 59 43 60 44 61 55 63 73 64 46 65 33 66 34 67
REMARK SMILES IDX 39 68 35 69 36 70 38 71 40 72 37 73 59 74 60 75 65 76 61 77
REMARK SMILES IDX 62 78 64 79 66 80 63 81 47 82 48 83 53 84 49 85 50 86 52 87
REMARK SMILES IDX 54 88 51 89
REMARK H PARENT 17 5 8 18 21 32 71 51 45 62
REMARK Flexibility Score: inf
ROOT
ATOM      1  C   UNL A   1      31.780  28.462  26.863  1.00  0.00     0.118 C 
ENDROOT
BRANCH   1   2
ATOM      2  N   UNL A   1      31.028  27.232  27.090  1.00  0.00    -0.352 N 
ATOM      3  C   UNL A   1      30.800  26.161  26.255  1.00  0.00     0.251 C 
ATOM      4  O   UNL A   1      30.150  25.203  26.664  1.00  0.00    -0.269 OA
ATOM      5  H   UNL A   1      30.618  27.156  27.981  1.00  0.00     0.163 HD
BRANCH   3   6
ATOM      6  C   UNL A   1      31.405  26.116  24.901  1.00  0.00     0.044 A 
ATOM      7  C   UNL A   1      32.757  24.943  23.237  1.00  0.00     0.094 A 
ATOM      8  C   UNL A   1      32.396  25.202  24.565  1.00  0.00     0.036 A 
ATOM      9  C   UNL A   1      32.203  25.721  22.217  1.00  0.00     0.005 A 
ATOM     10  C   UNL A   1      31.351  26.776  22.600  1.00  0.00     0.128 A 
ATOM     11  C   UNL A   1      32.485  25.556  20.757  1.00  0.00     0.049 C 
ATOM     12  C   UNL A   1      30.932  26.967  23.916  1.00  0.00     0.053 A 
ATOM     13  F   UNL A   1      30.881  27.612  21.664  1.00  0.00    -0.207 F 
BRANCH   7  14
ATOM     14  S   UNL A   1      33.782  23.504  23.023  1.00  0.00     0.262 S 
ATOM     15  O   UNL A   1      35.103  23.998  22.709  1.00  0.00    -0.201 OA
ATOM     16  O   UNL A   1      33.107  22.615  22.092  1.00  0.00    -0.201 OA
BRANCH  14  17
ATOM     17  N   UNL A   1      33.931  22.658  24.448  1.00  0.00    -0.276 N 
ATOM     18  H   UNL A   1      33.608  23.123  25.253  1.00  0.00     0.180 HD
BRANCH  17  19
ATOM     19  C   UNL A   1      34.449  21.384  24.660  1.00  0.00     0.093 A 
ATOM     20  N   UNL A   1      34.467  19.197  24.735  1.00  0.00    -0.268 N 
ATOM     21  N   UNL A   1      35.762  19.536  24.846  1.00  0.00    -0.176 NA
ATOM     22  C   UNL A   1      33.630  20.279  24.787  1.00  0.00     0.060 A 
ATOM     23  C   UNL A   1      35.764  20.877  24.836  1.00  0.00     0.084 A 
ATOM     24  C   UNL A   1      32.152  20.199  24.920  1.00  0.00     0.069 C 
ATOM     25  C   UNL A   1      37.064  21.571  25.006  1.00  0.00     0.071 C 
BRANCH  20  26
ATOM     26  C   UNL A   1      34.085  17.803  24.590  1.00  0.00     0.141 C 
ATOM     27  C   UNL A   1      33.951  17.325  23.152  1.00  0.00     0.029 C 
ENDBRANCH  20  26
ENDBRANCH  17  19
ENDBRANCH  14  17
ENDBRANCH   7  14
ENDBRANCH   3   6
ENDBRANCH   1   2
BRANCH   1  28
ATOM     28  C   UNL A   1      33.237  28.303  27.322  1.00  0.00     0.042 C 
BRANCH  28  29
ATOM     29  C   UNL A   1      34.136  29.177  26.499  1.00  0.00     0.118 C 
BRANCH  29  30
ATOM     30  N   UNL A   1      34.231  30.525  27.058  1.00  0.00    -0.352 N 
ATOM     31  C   UNL A   1      35.071  30.967  28.055  1.00  0.00     0.251 C 
ATOM     32  H   UNL A   1      33.623  31.198  26.675  1.00  0.00     0.163 HD
ATOM     33  O   UNL A   1      34.877  32.030  28.629  1.00  0.00    -0.269 OA
BRANCH  31  34
ATOM     34  C   UNL A   1      36.256  30.159  28.370  1.00  0.00     0.039 A 
ATOM     35  C   UNL A   1      36.411  29.492  29.589  1.00  0.00     0.014 A 
ATOM     36  C   UNL A   1      37.283  30.175  27.434  1.00  0.00     0.014 A 
ATOM     37  C   UNL A   1      37.638  28.898  29.867  1.00  0.00     0.010 A 
ATOM     38  C   UNL A   1      38.347  29.360  27.576  1.00  0.00     0.010 A 
ATOM     39  C   UNL A   1      38.596  28.882  28.852  1.00  0.00    -0.014 A 
BRANCH  39  40
ATOM     40  C   UNL A   1      39.979  28.492  28.985  1.00  0.00     0.031 A 
ATOM     41  C   UNL A   1      40.348  27.157  28.544  1.00  0.00     0.074 A 
ATOM     42  C   UNL A   1      40.826  29.512  29.260  1.00  0.00     0.049 A 
ATOM     43  N   UNL A   1      41.323  26.476  29.019  1.00  0.00    -0.248 NA
ATOM     44  C   UNL A   1      39.579  26.448  27.525  1.00  0.00     0.031 C 
ATOM     45  C   UNL A   1      42.263  29.634  29.118  1.00  0.00     0.029 A 
ATOM     46  N   UNL A   1      40.452  30.731  29.843  1.00  0.00    -0.354 N 
ATOM     47  C   UNL A   1      41.553  25.462  28.116  1.00  0.00     0.074 A 
ATOM     48  C   UNL A   1      40.346  25.372  27.328  1.00  0.00     0.031 C 
ATOM     49  C   UNL A   1      42.682  30.673  29.873  1.00  0.00     0.029 A 
ATOM     50  C   UNL A   1      41.530  31.179  30.611  1.00  0.00     0.049 A 
ATOM     51  H   UNL A   1      39.587  31.188  29.731  1.00  0.00     0.167 HD
ATOM     52  C   UNL A   1      42.828  24.998  27.980  1.00  0.00     0.037 A 
ATOM     53  C   UNL A   1      41.368  31.164  31.969  1.00  0.00     0.037 A 
ATOM     54  C   UNL A   1      43.720  25.768  28.861  1.00  0.00     0.049 A 
ATOM     55  C   UNL A   1      42.179  30.044  32.573  1.00  0.00     0.074 A 
ATOM     56  C   UNL A   1      44.523  26.871  28.609  1.00  0.00     0.029 A 
ATOM     57  N   UNL A   1      43.533  25.733  30.242  1.00  0.00    -0.354 N 
ATOM     58  N   UNL A   1      42.531  28.964  31.927  1.00  0.00    -0.248 NA
ATOM     59  C   UNL A   1      42.734  30.105  33.919  1.00  0.00     0.031 C 
ATOM     60  C   UNL A   1      44.734  27.551  29.840  1.00  0.00     0.029 A 
ATOM     61  C   UNL A   1      44.066  26.863  30.840  1.00  0.00     0.049 A 
ATOM     62  H   UNL A   1      43.081  25.005  30.726  1.00  0.00     0.167 HD
ATOM     63  C   UNL A   1      43.376  28.226  32.705  1.00  0.00     0.074 A 
ATOM     64  C   UNL A   1      43.466  28.978  33.947  1.00  0.00     0.031 C 
ATOM     65  C   UNL A   1      43.963  27.067  32.281  1.00  0.00     0.037 A 
BRANCH  52  66
ATOM     66  C   UNL A   1      43.309  24.149  26.823  1.00  0.00     0.057 A 
ATOM     67  C   UNL A   1      43.228  22.744  26.879  1.00  0.00     0.134 A 
ATOM     68  C   UNL A   1      43.864  24.644  25.628  1.00  0.00     0.134 A 
ATOM     69  F   UNL A   1      42.647  22.111  27.907  1.00  0.00    -0.206 F 
ATOM     70  C   UNL A   1      43.731  21.905  25.874  1.00  0.00     0.040 A 
ATOM     71  C   UNL A   1      44.414  23.817  24.635  1.00  0.00     0.040 A 
ATOM     72  F   UNL A   1      43.846  25.949  25.328  1.00  0.00    -0.206 F 
ATOM     73  C   UNL A   1      44.351  22.439  24.758  1.00  0.00     0.006 A 
ENDBRANCH  52  66
BRANCH  53  74
ATOM     74  C   UNL A   1      39.972  31.577  32.350  1.00  0.00     0.057 A 
ATOM     75  C   UNL A   1      39.144  30.571  32.893  1.00  0.00     0.134 A 
ATOM     76  C   UNL A   1      39.654  32.898  32.688  1.00  0.00     0.134 A 
ATOM     77  F   UNL A   1      39.367  29.282  32.588  1.00  0.00    -0.206 F 
ATOM     78  C   UNL A   1      38.192  30.843  33.882  1.00  0.00     0.040 A 
ATOM     79  C   UNL A   1      38.678  33.183  33.656  1.00  0.00     0.040 A 
ATOM     80  F   UNL A   1      40.368  33.922  32.199  1.00  0.00    -0.206 F 
ATOM     81  C   UNL A   1      37.992  32.153  34.301  1.00  0.00     0.006 A 
ENDBRANCH  53  74
BRANCH  65  82
ATOM     82  C   UNL A   1      44.593  26.059  33.204  1.00  0.00     0.057 A 
ATOM     83  C   UNL A   1      43.872  25.336  34.166  1.00  0.00     0.134 A 
ATOM     84  C   UNL A   1      45.938  25.665  33.037  1.00  0.00     0.134 A 
ATOM     85  F   UNL A   1      42.554  25.502  34.333  1.00  0.00    -0.206 F 
ATOM     86  C   UNL A   1      44.468  24.359  34.968  1.00  0.00     0.040 A 
ATOM     87  C   UNL A   1      46.521  24.638  33.779  1.00  0.00     0.040 A 
ATOM     88  F   UNL A   1      46.738  26.238  32.125  1.00  0.00    -0.206 F 
ATOM     89  C   UNL A   1      45.793  23.999  34.768  1.00  0.00     0.006 A 
ENDBRANCH  65  82
ENDBRANCH  39  40
ENDBRANCH  31  34
ENDBRANCH  29  30
ENDBRANCH  28  29
ENDBRANCH   1  28
TORSDOF 14
ENDMDL
