MODEL 1
REMARK VINA RESULT:     -10.0      0.000      0.000
REMARK SMILES CCN(CC)C(=O)[C@H](C)S[C@H](C)C(=O)NCCCNC(=O)c1ccc(-c2c3nc(c(-c4c(F)cccc4F)c4ccc([nH]4)c(-c4c(F)cccc4F)c4nc(c(-c5c(F)cccc5F)c5ccc2[nH]5)C=C4)C=C3)cc1
REMARK SMILES IDX 16 1 15 2 13 3 14 4 11 6 12 7 10 8 8 9 9 10 6 11 3 12 7 13
REMARK SMILES IDX 2 14 1 15 4 16 5 17 17 18 18 19 19 20 20 21 21 23 22 24
REMARK SMILES IDX 23 25 75 26 24 27 74 28 25 29 26 30 27 31 68 32 28 33 73 34
REMARK SMILES IDX 67 35 69 36 29 37 72 38 66 39 65 40 30 42 56 43 39 44 55 45
REMARK SMILES IDX 40 46 43 47 54 48 70 49 41 50 42 51 53 53 71 54 44 55 31 56
REMARK SMILES IDX 32 57 37 58 33 59 34 60 36 61 38 62 35 63 57 64 58 65 63 66
REMARK SMILES IDX 59 67 60 68 62 69 64 70 61 71 45 72 46 73 51 74 47 75 48 76
REMARK SMILES IDX 50 77 52 78 49 79
REMARK H PARENT 15 5 19 22 69 41 43 52
REMARK Flexibility Score: inf
ROOT
ATOM      1  C   UNL A   1      36.451  21.107  25.327  1.00  0.00     0.117 C 
ENDROOT
BRANCH   1   2
ATOM      2  N   UNL A   1      35.194  20.385  25.337  1.00  0.00    -0.355 N 
ATOM      3  C   UNL A   1      33.955  20.702  24.878  1.00  0.00     0.232 C 
ATOM      4  O   UNL A   1      33.147  19.766  24.835  1.00  0.00    -0.274 OA
ATOM      5  H   UNL A   1      35.249  19.495  25.755  1.00  0.00     0.163 HD
BRANCH   3   6
ATOM      6  C   UNL A   1      33.537  22.104  24.440  1.00  0.00     0.133 C 
ATOM      7  C   UNL A   1      32.923  22.233  23.055  1.00  0.00     0.030 C 
BRANCH   6   8
ATOM      8  S   UNL A   1      32.702  23.086  25.755  1.00  0.00    -0.136 SA
BRANCH   8   9
ATOM      9  C   UNL A   1      33.561  24.701  25.703  1.00  0.00     0.133 C 
ATOM     10  C   UNL A   1      35.019  24.486  25.276  1.00  0.00     0.030 C 
BRANCH   9  11
ATOM     11  C   UNL A   1      32.893  25.639  24.674  1.00  0.00     0.235 C 
ATOM     12  N   UNL A   1      31.940  26.565  25.102  1.00  0.00    -0.342 N 
ATOM     13  O   UNL A   1      33.251  25.618  23.491  1.00  0.00    -0.274 OA
BRANCH  12  14
ATOM     14  C   UNL A   1      31.489  27.561  24.124  1.00  0.00     0.116 C 
ATOM     15  C   UNL A   1      30.075  27.253  23.647  1.00  0.00     0.027 C 
ENDBRANCH  12  14
BRANCH  12  16
ATOM     16  C   UNL A   1      31.333  26.646  26.430  1.00  0.00     0.116 C 
ATOM     17  C   UNL A   1      31.836  27.847  27.221  1.00  0.00     0.027 C 
ENDBRANCH  12  16
ENDBRANCH   9  11
ENDBRANCH   8   9
ENDBRANCH   6   8
ENDBRANCH   3   6
ENDBRANCH   1   2
BRANCH   1  18
ATOM     18  C   UNL A   1      37.643  20.236  24.976  1.00  0.00     0.042 C 
BRANCH  18  19
ATOM     19  C   UNL A   1      38.920  20.595  25.724  1.00  0.00     0.118 C 
BRANCH  19  20
ATOM     20  N   UNL A   1      39.917  19.530  25.745  1.00  0.00    -0.352 N 
ATOM     21  C   UNL A   1      41.253  19.567  26.085  1.00  0.00     0.251 C 
ATOM     22  H   UNL A   1      39.583  18.644  25.474  1.00  0.00     0.163 HD
ATOM     23  O   UNL A   1      41.957  18.578  25.931  1.00  0.00    -0.269 OA
BRANCH  21  24
ATOM     24  C   UNL A   1      41.844  20.824  26.586  1.00  0.00     0.039 A 
ATOM     25  C   UNL A   1      42.343  21.755  25.674  1.00  0.00     0.014 A 
ATOM     26  C   UNL A   1      41.846  21.110  27.951  1.00  0.00     0.014 A 
ATOM     27  C   UNL A   1      42.725  23.022  26.122  1.00  0.00     0.010 A 
ATOM     28  C   UNL A   1      42.108  22.406  28.377  1.00  0.00     0.010 A 
ATOM     29  C   UNL A   1      42.543  23.380  27.466  1.00  0.00    -0.014 A 
BRANCH  29  30
ATOM     30  C   UNL A   1      42.797  24.760  27.960  1.00  0.00     0.031 A 
ATOM     31  C   UNL A   1      44.189  25.160  28.369  1.00  0.00     0.074 A 
ATOM     32  C   UNL A   1      41.769  25.613  28.139  1.00  0.00     0.049 A 
ATOM     33  N   UNL A   1      44.593  26.240  28.988  1.00  0.00    -0.248 NA
ATOM     34  C   UNL A   1      45.265  24.195  28.086  1.00  0.00     0.031 C 
ATOM     35  C   UNL A   1      40.363  25.334  27.835  1.00  0.00     0.029 A 
ATOM     36  N   UNL A   1      41.748  26.893  28.636  1.00  0.00    -0.354 N 
ATOM     37  C   UNL A   1      45.955  26.067  29.196  1.00  0.00     0.074 A 
ATOM     38  C   UNL A   1      46.300  24.756  28.693  1.00  0.00     0.031 C 
ATOM     39  C   UNL A   1      39.624  26.419  28.121  1.00  0.00     0.029 A 
ATOM     40  C   UNL A   1      40.493  27.454  28.670  1.00  0.00     0.049 A 
ATOM     41  H   UNL A   1      42.556  27.365  28.939  1.00  0.00     0.167 HD
ATOM     42  C   UNL A   1      46.848  26.934  29.729  1.00  0.00     0.037 A 
ATOM     43  C   UNL A   1      40.089  28.662  29.104  1.00  0.00     0.037 A 
ATOM     44  C   UNL A   1      46.517  28.261  30.174  1.00  0.00     0.049 A 
ATOM     45  C   UNL A   1      41.106  29.617  29.664  1.00  0.00     0.074 A 
ATOM     46  C   UNL A   1      47.358  29.233  30.686  1.00  0.00     0.029 A 
ATOM     47  N   UNL A   1      45.244  28.806  30.139  1.00  0.00    -0.354 N 
ATOM     48  N   UNL A   1      42.397  29.451  29.823  1.00  0.00    -0.248 NA
ATOM     49  C   UNL A   1      40.611  30.930  30.103  1.00  0.00     0.031 C 
ATOM     50  C   UNL A   1      46.588  30.365  30.975  1.00  0.00     0.029 A 
ATOM     51  C   UNL A   1      45.277  30.105  30.615  1.00  0.00     0.049 A 
ATOM     52  H   UNL A   1      44.437  28.340  29.822  1.00  0.00     0.167 HD
ATOM     53  C   UNL A   1      42.871  30.645  30.348  1.00  0.00     0.074 A 
ATOM     54  C   UNL A   1      41.733  31.531  30.471  1.00  0.00     0.031 C 
ATOM     55  C   UNL A   1      44.136  30.979  30.700  1.00  0.00     0.037 A 
BRANCH  42  56
ATOM     56  C   UNL A   1      48.274  26.482  29.827  1.00  0.00     0.057 A 
ATOM     57  C   UNL A   1      48.743  25.771  30.939  1.00  0.00     0.134 A 
ATOM     58  C   UNL A   1      49.180  26.732  28.789  1.00  0.00     0.134 A 
ATOM     59  F   UNL A   1      47.928  25.514  31.974  1.00  0.00    -0.206 F 
ATOM     60  C   UNL A   1      50.070  25.346  31.027  1.00  0.00     0.040 A 
ATOM     61  C   UNL A   1      50.502  26.288  28.854  1.00  0.00     0.040 A 
ATOM     62  F   UNL A   1      48.794  27.403  27.693  1.00  0.00    -0.206 F 
ATOM     63  C   UNL A   1      50.951  25.598  29.978  1.00  0.00     0.006 A 
ENDBRANCH  42  56
BRANCH  43  64
ATOM     64  C   UNL A   1      38.662  29.060  29.004  1.00  0.00     0.057 A 
ATOM     65  C   UNL A   1      38.140  29.558  27.803  1.00  0.00     0.134 A 
ATOM     66  C   UNL A   1      37.798  28.990  30.102  1.00  0.00     0.134 A 
ATOM     67  F   UNL A   1      38.924  29.666  26.721  1.00  0.00    -0.206 F 
ATOM     68  C   UNL A   1      36.819  29.996  27.705  1.00  0.00     0.040 A 
ATOM     69  C   UNL A   1      36.468  29.404  30.012  1.00  0.00     0.040 A 
ATOM     70  F   UNL A   1      38.235  28.516  31.278  1.00  0.00    -0.206 F 
ATOM     71  C   UNL A   1      35.978  29.920  28.813  1.00  0.00     0.006 A 
ENDBRANCH  43  64
BRANCH  55  72
ATOM     72  C   UNL A   1      44.363  32.373  31.197  1.00  0.00     0.057 A 
ATOM     73  C   UNL A   1      44.671  33.426  30.326  1.00  0.00     0.134 A 
ATOM     74  C   UNL A   1      44.227  32.672  32.558  1.00  0.00     0.134 A 
ATOM     75  F   UNL A   1      44.826  33.198  29.014  1.00  0.00    -0.206 F 
ATOM     76  C   UNL A   1      44.851  34.727  30.796  1.00  0.00     0.040 A 
ATOM     77  C   UNL A   1      44.385  33.973  33.036  1.00  0.00     0.040 A 
ATOM     78  F   UNL A   1      43.927  31.708  33.441  1.00  0.00    -0.206 F 
ATOM     79  C   UNL A   1      44.702  35.004  32.154  1.00  0.00     0.006 A 
ENDBRANCH  55  72
ENDBRANCH  29  30
ENDBRANCH  21  24
ENDBRANCH  19  20
ENDBRANCH  18  19
ENDBRANCH   1  18
TORSDOF 15
ENDMDL
MODEL 2
REMARK VINA RESULT:      -9.9      4.467      9.722
REMARK SMILES CCN(CC)C(=O)[C@H](C)S[C@H](C)C(=O)NCCCNC(=O)c1ccc(-c2c3nc(c(-c4c(F)cccc4F)c4ccc([nH]4)c(-c4c(F)cccc4F)c4nc(c(-c5c(F)cccc5F)c5ccc2[nH]5)C=C4)C=C3)cc1
REMARK SMILES IDX 16 1 15 2 13 3 14 4 11 6 12 7 10 8 8 9 9 10 6 11 3 12 7 13
REMARK SMILES IDX 2 14 1 15 4 16 5 17 17 18 18 19 19 20 20 21 21 23 22 24
REMARK SMILES IDX 23 25 75 26 24 27 74 28 25 29 26 30 27 31 68 32 28 33 73 34
REMARK SMILES IDX 67 35 69 36 29 37 72 38 66 39 65 40 30 42 56 43 39 44 55 45
REMARK SMILES IDX 40 46 43 47 54 48 70 49 41 50 42 51 53 53 71 54 44 55 31 56
REMARK SMILES IDX 32 57 37 58 33 59 34 60 36 61 38 62 35 63 57 64 58 65 63 66
REMARK SMILES IDX 59 67 60 68 62 69 64 70 61 71 45 72 46 73 51 74 47 75 48 76
REMARK SMILES IDX 50 77 52 78 49 79
REMARK H PARENT 15 5 19 22 69 41 43 52
REMARK Flexibility Score: inf
ROOT
ATOM      1  C   UNL A   1      31.801  30.625  26.292  1.00  0.00     0.117 C 
ENDROOT
BRANCH   1   2
ATOM      2  N   UNL A   1      31.304  30.194  24.999  1.00  0.00    -0.355 N 
ATOM      3  C   UNL A   1      31.404  29.016  24.330  1.00  0.00     0.232 C 
ATOM      4  O   UNL A   1      30.667  28.901  23.343  1.00  0.00    -0.274 OA
ATOM      5  H   UNL A   1      30.799  30.887  24.516  1.00  0.00     0.163 HD
BRANCH   3   6
ATOM      6  C   UNL A   1      32.350  27.884  24.725  1.00  0.00     0.133 C 
ATOM      7  C   UNL A   1      31.828  26.880  25.741  1.00  0.00     0.030 C 
BRANCH   6   8
ATOM      8  S   UNL A   1      33.277  27.150  23.313  1.00  0.00    -0.136 SA
BRANCH   8   9
ATOM      9  C   UNL A   1      32.202  25.778  22.754  1.00  0.00     0.133 C 
ATOM     10  C   UNL A   1      31.867  25.969  21.269  1.00  0.00     0.030 C 
BRANCH   9  11
ATOM     11  C   UNL A   1      32.924  24.423  22.913  1.00  0.00     0.235 C 
ATOM     12  N   UNL A   1      32.287  23.375  23.579  1.00  0.00    -0.342 N 
ATOM     13  O   UNL A   1      34.031  24.245  22.391  1.00  0.00    -0.274 OA
BRANCH  12  14
ATOM     14  C   UNL A   1      32.930  22.058  23.525  1.00  0.00     0.116 C 
ATOM     15  C   UNL A   1      32.177  21.125  22.585  1.00  0.00     0.027 C 
ENDBRANCH  12  14
BRANCH  12  16
ATOM     16  C   UNL A   1      31.039  23.451  24.338  1.00  0.00     0.116 C 
ATOM     17  C   UNL A   1      31.188  22.899  25.749  1.00  0.00     0.027 C 
ENDBRANCH  12  16
ENDBRANCH   9  11
ENDBRANCH   8   9
ENDBRANCH   6   8
ENDBRANCH   3   6
ENDBRANCH   1   2
BRANCH   1  18
ATOM     18  C   UNL A   1      31.520  32.087  26.587  1.00  0.00     0.042 C 
BRANCH  18  19
ATOM     19  C   UNL A   1      32.648  32.804  27.318  1.00  0.00     0.118 C 
BRANCH  19  20
ATOM     20  N   UNL A   1      32.359  34.199  27.634  1.00  0.00    -0.352 N 
ATOM     21  C   UNL A   1      32.940  35.041  28.559  1.00  0.00     0.251 C 
ATOM     22  H   UNL A   1      31.635  34.603  27.103  1.00  0.00     0.163 HD
ATOM     23  O   UNL A   1      32.479  36.158  28.752  1.00  0.00    -0.269 OA
BRANCH  21  24
ATOM     24  C   UNL A   1      34.092  34.568  29.353  1.00  0.00     0.039 A 
ATOM     25  C   UNL A   1      33.872  34.047  30.630  1.00  0.00     0.014 A 
ATOM     26  C   UNL A   1      35.378  34.580  28.813  1.00  0.00     0.014 A 
ATOM     27  C   UNL A   1      34.922  33.424  31.310  1.00  0.00     0.010 A 
ATOM     28  C   UNL A   1      36.386  33.854  29.433  1.00  0.00     0.010 A 
ATOM     29  C   UNL A   1      36.168  33.260  30.686  1.00  0.00    -0.014 A 
BRANCH  29  30
ATOM     30  C   UNL A   1      37.268  32.477  31.308  1.00  0.00     0.031 A 
ATOM     31  C   UNL A   1      37.812  32.894  32.649  1.00  0.00     0.074 A 
ATOM     32  C   UNL A   1      37.846  31.465  30.630  1.00  0.00     0.049 A 
ATOM     33  N   UNL A   1      38.876  32.466  33.280  1.00  0.00    -0.248 NA
ATOM     34  C   UNL A   1      37.090  33.967  33.351  1.00  0.00     0.031 C 
ATOM     35  C   UNL A   1      37.453  30.994  29.299  1.00  0.00     0.029 A 
ATOM     36  N   UNL A   1      38.902  30.655  30.965  1.00  0.00    -0.354 N 
ATOM     37  C   UNL A   1      38.966  33.239  34.431  1.00  0.00     0.074 A 
ATOM     38  C   UNL A   1      37.887  34.201  34.383  1.00  0.00     0.031 C 
ATOM     39  C   UNL A   1      38.233  29.960  28.947  1.00  0.00     0.029 A 
ATOM     40  C   UNL A   1      39.212  29.722  30.003  1.00  0.00     0.049 A 
ATOM     41  H   UNL A   1      39.392  30.734  31.814  1.00  0.00     0.167 HD
ATOM     42  C   UNL A   1      39.848  33.139  35.452  1.00  0.00     0.037 A 
ATOM     43  C   UNL A   1      40.180  28.788  29.974  1.00  0.00     0.037 A 
ATOM     44  C   UNL A   1      40.884  32.144  35.530  1.00  0.00     0.049 A 
ATOM     45  C   UNL A   1      41.128  28.679  31.135  1.00  0.00     0.074 A 
ATOM     46  C   UNL A   1      41.799  31.929  36.545  1.00  0.00     0.029 A 
ATOM     47  N   UNL A   1      41.125  31.186  34.559  1.00  0.00    -0.354 N 
ATOM     48  N   UNL A   1      41.179  29.396  32.231  1.00  0.00    -0.248 NA
ATOM     49  C   UNL A   1      42.153  27.627  31.057  1.00  0.00     0.031 C 
ATOM     50  C   UNL A   1      42.606  30.846  36.180  1.00  0.00     0.029 A 
ATOM     51  C   UNL A   1      42.172  30.371  34.954  1.00  0.00     0.049 A 
ATOM     52  H   UNL A   1      40.627  31.097  33.715  1.00  0.00     0.167 HD
ATOM     53  C   UNL A   1      42.216  28.863  32.986  1.00  0.00     0.074 A 
ATOM     54  C   UNL A   1      42.761  27.757  32.228  1.00  0.00     0.031 C 
ATOM     55  C   UNL A   1      42.678  29.257  34.197  1.00  0.00     0.037 A 
BRANCH  42  56
ATOM     56  C   UNL A   1      39.705  34.112  36.585  1.00  0.00     0.057 A 
ATOM     57  C   UNL A   1      39.028  33.772  37.762  1.00  0.00     0.134 A 
ATOM     58  C   UNL A   1      40.274  35.389  36.510  1.00  0.00     0.134 A 
ATOM     59  F   UNL A   1      38.446  32.569  37.889  1.00  0.00    -0.206 F 
ATOM     60  C   UNL A   1      38.900  34.676  38.818  1.00  0.00     0.040 A 
ATOM     61  C   UNL A   1      40.176  36.293  37.570  1.00  0.00     0.040 A 
ATOM     62  F   UNL A   1      40.941  35.777  35.412  1.00  0.00    -0.206 F 
ATOM     63  C   UNL A   1      39.482  35.939  38.726  1.00  0.00     0.006 A 
ENDBRANCH  42  56
BRANCH  43  64
ATOM     64  C   UNL A   1      40.295  27.858  28.822  1.00  0.00     0.057 A 
ATOM     65  C   UNL A   1      41.048  28.206  27.693  1.00  0.00     0.134 A 
ATOM     66  C   UNL A   1      39.634  26.625  28.800  1.00  0.00     0.134 A 
ATOM     67  F   UNL A   1      41.690  29.382  27.647  1.00  0.00    -0.206 F 
ATOM     68  C   UNL A   1      41.118  27.374  26.574  1.00  0.00     0.040 A 
ATOM     69  C   UNL A   1      39.713  25.773  27.697  1.00  0.00     0.040 A 
ATOM     70  F   UNL A   1      38.902  26.231  29.853  1.00  0.00    -0.206 F 
ATOM     71  C   UNL A   1      40.448  26.153  26.575  1.00  0.00     0.006 A 
ENDBRANCH  43  64
BRANCH  55  72
ATOM     72  C   UNL A   1      43.789  28.453  34.799  1.00  0.00     0.057 A 
ATOM     73  C   UNL A   1      43.538  27.325  35.591  1.00  0.00     0.134 A 
ATOM     74  C   UNL A   1      45.125  28.786  34.545  1.00  0.00     0.134 A 
ATOM     75  F   UNL A   1      42.279  26.964  35.879  1.00  0.00    -0.206 F 
ATOM     76  C   UNL A   1      44.580  26.566  36.123  1.00  0.00     0.040 A 
ATOM     77  C   UNL A   1      46.175  28.023  35.055  1.00  0.00     0.040 A 
ATOM     78  F   UNL A   1      45.429  29.852  33.789  1.00  0.00    -0.206 F 
ATOM     79  C   UNL A   1      45.904  26.911  35.850  1.00  0.00     0.006 A 
ENDBRANCH  55  72
ENDBRANCH  29  30
ENDBRANCH  21  24
ENDBRANCH  19  20
ENDBRANCH  18  19
ENDBRANCH   1  18
TORSDOF 15
ENDMDL
MODEL 3
REMARK VINA RESULT:      -9.9      3.333      8.926
REMARK SMILES CCN(CC)C(=O)[C@H](C)S[C@H](C)C(=O)NCCCNC(=O)c1ccc(-c2c3nc(c(-c4c(F)cccc4F)c4ccc([nH]4)c(-c4c(F)cccc4F)c4nc(c(-c5c(F)cccc5F)c5ccc2[nH]5)C=C4)C=C3)cc1
REMARK SMILES IDX 16 1 15 2 13 3 14 4 11 6 12 7 10 8 8 9 9 10 6 11 3 12 7 13
REMARK SMILES IDX 2 14 1 15 4 16 5 17 17 18 18 19 19 20 20 21 21 23 22 24
REMARK SMILES IDX 23 25 75 26 24 27 74 28 25 29 26 30 27 31 68 32 28 33 73 34
REMARK SMILES IDX 67 35 69 36 29 37 72 38 66 39 65 40 30 42 56 43 39 44 55 45
REMARK SMILES IDX 40 46 43 47 54 48 70 49 41 50 42 51 53 53 71 54 44 55 31 56
REMARK SMILES IDX 32 57 37 58 33 59 34 60 36 61 38 62 35 63 57 64 58 65 63 66
REMARK SMILES IDX 59 67 60 68 62 69 64 70 61 71 45 72 46 73 51 74 47 75 48 76
REMARK SMILES IDX 50 77 52 78 49 79
REMARK H PARENT 15 5 19 22 69 41 43 52
REMARK Flexibility Score: inf
ROOT
ATOM      1  C   UNL A   1      32.025  30.119  25.888  1.00  0.00     0.117 C 
ENDROOT
BRANCH   1   2
ATOM      2  N   UNL A   1      31.315  30.090  24.624  1.00  0.00    -0.355 N 
ATOM      3  C   UNL A   1      30.738  29.078  23.924  1.00  0.00     0.232 C 
ATOM      4  O   UNL A   1      30.009  29.427  22.988  1.00  0.00    -0.274 OA
ATOM      5  H   UNL A   1      31.237  30.971  24.191  1.00  0.00     0.163 HD
BRANCH   3   6
ATOM      6  C   UNL A   1      30.949  27.596  24.229  1.00  0.00     0.133 C 
ATOM      7  C   UNL A   1      29.762  26.675  23.997  1.00  0.00     0.030 C 
BRANCH   6   8
ATOM      8  S   UNL A   1      32.570  26.933  23.660  1.00  0.00    -0.136 SA
BRANCH   8   9
ATOM      9  C   UNL A   1      32.113  25.479  22.648  1.00  0.00     0.133 C 
ATOM     10  C   UNL A   1      32.337  25.803  21.165  1.00  0.00     0.030 C 
BRANCH   9  11
ATOM     11  C   UNL A   1      32.994  24.265  23.013  1.00  0.00     0.235 C 
ATOM     12  N   UNL A   1      32.516  23.311  23.912  1.00  0.00    -0.342 N 
ATOM     13  O   UNL A   1      34.086  24.102  22.457  1.00  0.00    -0.274 OA
BRANCH  12  14
ATOM     14  C   UNL A   1      33.303  22.083  24.066  1.00  0.00     0.116 C 
ATOM     15  C   UNL A   1      32.455  20.853  23.768  1.00  0.00     0.027 C 
ENDBRANCH  12  14
BRANCH  12  16
ATOM     16  C   UNL A   1      31.306  23.406  24.728  1.00  0.00     0.116 C 
ATOM     17  C   UNL A   1      31.604  23.875  26.147  1.00  0.00     0.027 C 
ENDBRANCH  12  16
ENDBRANCH   9  11
ENDBRANCH   8   9
ENDBRANCH   6   8
ENDBRANCH   3   6
ENDBRANCH   1   2
BRANCH   1  18
ATOM     18  C   UNL A   1      31.670  31.316  26.750  1.00  0.00     0.042 C 
BRANCH  18  19
ATOM     19  C   UNL A   1      32.865  32.163  27.165  1.00  0.00     0.118 C 
BRANCH  19  20
ATOM     20  N   UNL A   1      32.519  33.518  27.581  1.00  0.00    -0.352 N 
ATOM     21  C   UNL A   1      33.161  34.374  28.451  1.00  0.00     0.251 C 
ATOM     22  H   UNL A   1      31.697  33.879  27.176  1.00  0.00     0.163 HD
ATOM     23  O   UNL A   1      32.647  35.441  28.758  1.00  0.00    -0.269 OA
BRANCH  21  24
ATOM     24  C   UNL A   1      34.448  33.972  29.053  1.00  0.00     0.039 A 
ATOM     25  C   UNL A   1      34.446  33.244  30.245  1.00  0.00     0.014 A 
ATOM     26  C   UNL A   1      35.651  34.258  28.409  1.00  0.00     0.014 A 
ATOM     27  C   UNL A   1      35.641  32.696  30.719  1.00  0.00     0.010 A 
ATOM     28  C   UNL A   1      36.812  33.611  28.812  1.00  0.00     0.010 A 
ATOM     29  C   UNL A   1      36.820  32.816  29.968  1.00  0.00    -0.014 A 
BRANCH  29  30
ATOM     30  C   UNL A   1      38.079  32.128  30.356  1.00  0.00     0.031 A 
ATOM     31  C   UNL A   1      39.031  32.799  31.310  1.00  0.00     0.074 A 
ATOM     32  C   UNL A   1      38.417  30.958  29.775  1.00  0.00     0.049 A 
ATOM     33  N   UNL A   1      40.252  32.460  31.637  1.00  0.00    -0.248 NA
ATOM     34  C   UNL A   1      38.564  34.042  31.945  1.00  0.00     0.031 C 
ATOM     35  C   UNL A   1      37.612  30.227  28.793  1.00  0.00     0.029 A 
ATOM     36  N   UNL A   1      39.540  30.182  29.921  1.00  0.00    -0.354 N 
ATOM     37  C   UNL A   1      40.706  33.463  32.484  1.00  0.00     0.074 A 
ATOM     38  C   UNL A   1      39.654  34.452  32.575  1.00  0.00     0.031 C 
ATOM     39  C   UNL A   1      38.251  29.097  28.451  1.00  0.00     0.029 A 
ATOM     40  C   UNL A   1      39.529  29.043  29.151  1.00  0.00     0.049 A 
ATOM     41  H   UNL A   1      40.284  30.419  30.520  1.00  0.00     0.167 HD
ATOM     42  C   UNL A   1      41.879  33.540  33.154  1.00  0.00     0.037 A 
ATOM     43  C   UNL A   1      40.451  28.071  29.019  1.00  0.00     0.037 A 
ATOM     44  C   UNL A   1      42.900  32.529  33.112  1.00  0.00     0.049 A 
ATOM     45  C   UNL A   1      41.733  28.166  29.798  1.00  0.00     0.074 A 
ATOM     46  C   UNL A   1      44.106  32.491  33.790  1.00  0.00     0.029 A 
ATOM     47  N   UNL A   1      42.823  31.367  32.362  1.00  0.00    -0.354 N 
ATOM     48  N   UNL A   1      42.133  29.105  30.621  1.00  0.00    -0.248 NA
ATOM     49  C   UNL A   1      42.694  27.066  29.630  1.00  0.00     0.031 C 
ATOM     50  C   UNL A   1      44.766  31.309  33.439  1.00  0.00     0.029 A 
ATOM     51  C   UNL A   1      43.958  30.600  32.566  1.00  0.00     0.049 A 
ATOM     52  H   UNL A   1      42.074  31.121  31.773  1.00  0.00     0.167 HD
ATOM     53  C   UNL A   1      43.372  28.693  31.094  1.00  0.00     0.074 A 
ATOM     54  C   UNL A   1      43.654  27.416  30.473  1.00  0.00     0.031 C 
ATOM     55  C   UNL A   1      44.204  29.318  31.961  1.00  0.00     0.037 A 
BRANCH  42  56
ATOM     56  C   UNL A   1      42.103  34.747  34.016  1.00  0.00     0.057 A 
ATOM     57  C   UNL A   1      42.669  35.920  33.501  1.00  0.00     0.134 A 
ATOM     58  C   UNL A   1      41.724  34.748  35.364  1.00  0.00     0.134 A 
ATOM     59  F   UNL A   1      43.069  35.977  32.221  1.00  0.00    -0.206 F 
ATOM     60  C   UNL A   1      42.873  37.045  34.302  1.00  0.00     0.040 A 
ATOM     61  C   UNL A   1      41.899  35.876  36.168  1.00  0.00     0.040 A 
ATOM     62  F   UNL A   1      41.173  33.658  35.918  1.00  0.00    -0.206 F 
ATOM     63  C   UNL A   1      42.480  37.026  35.639  1.00  0.00     0.006 A 
ENDBRANCH  42  56
BRANCH  43  64
ATOM     64  C   UNL A   1      40.193  26.902  28.139  1.00  0.00     0.057 A 
ATOM     65  C   UNL A   1      39.414  25.828  28.587  1.00  0.00     0.134 A 
ATOM     66  C   UNL A   1      40.741  26.811  26.855  1.00  0.00     0.134 A 
ATOM     67  F   UNL A   1      38.877  25.849  29.815  1.00  0.00    -0.206 F 
ATOM     68  C   UNL A   1      39.212  24.693  27.800  1.00  0.00     0.040 A 
ATOM     69  C   UNL A   1      40.528  25.691  26.049  1.00  0.00     0.040 A 
ATOM     70  F   UNL A   1      41.490  27.810  26.366  1.00  0.00    -0.206 F 
ATOM     71  C   UNL A   1      39.770  24.623  26.526  1.00  0.00     0.006 A 
ENDBRANCH  43  64
BRANCH  55  72
ATOM     72  C   UNL A   1      45.467  28.604  32.332  1.00  0.00     0.057 A 
ATOM     73  C   UNL A   1      45.518  27.704  33.404  1.00  0.00     0.134 A 
ATOM     74  C   UNL A   1      46.633  28.787  31.579  1.00  0.00     0.134 A 
ATOM     75  F   UNL A   1      44.437  27.497  34.169  1.00  0.00    -0.206 F 
ATOM     76  C   UNL A   1      46.693  27.022  33.723  1.00  0.00     0.040 A 
ATOM     77  C   UNL A   1      47.807  28.095  31.876  1.00  0.00     0.040 A 
ATOM     78  F   UNL A   1      46.645  29.631  30.536  1.00  0.00    -0.206 F 
ATOM     79  C   UNL A   1      47.840  27.212  32.953  1.00  0.00     0.006 A 
ENDBRANCH  55  72
ENDBRANCH  29  30
ENDBRANCH  21  24
ENDBRANCH  19  20
ENDBRANCH  18  19
ENDBRANCH   1  18
TORSDOF 15
ENDMDL
