MODEL 1
REMARK VINA RESULT:     -13.5      0.000      0.000
REMARK SMILES Cc1nc2sc3c(c2c2nc(CCC(=O)NCCCNC(=O)c4ccc(-c5c6nc(c(-c7c(F)cccc7F)c7ccc([nH]7)c(-c7c(F)cccc7F)c7nc(c(-c8c(F)cccc8F)c8ccc5[nH]8)C=C7)C=C6)cc4)nn12)[C@@H](C)CCC3
REMARK SMILES IDX 18 1 17 2 16 3 14 4 15 5 13 7 12 8 11 9 1 10 2 11 3 12 78 13
REMARK SMILES IDX 4 14 9 15 77 16 5 17 8 18 10 19 6 20 7 21 83 22 79 23 82 24
REMARK SMILES IDX 80 25 81 26 19 27 20 28 21 29 22 31 23 32 24 33 76 34 25 35
REMARK SMILES IDX 75 36 26 37 27 38 28 39 69 40 29 41 74 42 68 43 70 44 30 45
REMARK SMILES IDX 73 46 67 47 66 48 31 50 57 51 40 52 56 53 41 54 44 55 55 56
REMARK SMILES IDX 71 57 42 58 43 59 54 61 72 62 45 63 32 64 33 65 38 66 34 67
REMARK SMILES IDX 35 68 37 69 39 70 36 71 58 72 59 73 64 74 60 75 61 76 63 77
REMARK SMILES IDX 65 78 62 79 46 80 47 81 52 82 48 83 49 84 51 85 53 86 50 87
REMARK H PARENT 16 6 20 30 70 49 44 60
REMARK Flexibility Score: inf
ROOT
ATOM      1  C   UNL A   1      41.938  19.598  27.177  1.00  0.00     0.042 C 
ENDROOT
BRANCH   1   2
ATOM      2  C   UNL A   1      40.517  19.941  26.516  1.00  0.00     0.117 C 
BRANCH   2   3
ATOM      3  N   UNL A   1      40.003  21.321  26.429  1.00  0.00    -0.356 N 
ATOM      4  C   UNL A   1      38.902  21.914  25.859  1.00  0.00     0.220 C 
ATOM      5  O   UNL A   1      38.579  23.048  26.308  1.00  0.00    -0.275 OA
ATOM      6  H   UNL A   1      40.585  21.969  26.888  1.00  0.00     0.163 HD
BRANCH   4   7
ATOM      7  C   UNL A   1      38.028  21.322  24.767  1.00  0.00     0.108 C 
BRANCH   7   8
ATOM      8  C   UNL A   1      36.837  22.216  24.359  1.00  0.00     0.089 C 
BRANCH   8   9
ATOM      9  C   UNL A   1      35.647  21.853  25.145  1.00  0.00     0.152 A 
ATOM     10  C   UNL A   1      32.576  19.163  24.488  1.00  0.00     0.090 C 
ATOM     11  C   UNL A   1      32.511  20.471  25.215  1.00  0.00     0.131 A 
ATOM     12  N   UNL A   1      31.381  21.018  25.570  1.00  0.00    -0.222 NA
ATOM     13  N   UNL A   1      33.732  21.125  25.410  1.00  0.00    -0.199 N 
ATOM     14  C   UNL A   1      31.474  22.332  25.955  1.00  0.00     0.129 A 
ATOM     15  C   UNL A   1      33.820  22.399  25.920  1.00  0.00     0.168 A 
ATOM     16  N   UNL A   1      34.918  20.752  24.893  1.00  0.00    -0.150 NA
ATOM     17  S   UNL A   1      30.103  23.266  26.119  1.00  0.00    -0.120 S 
ATOM     18  C   UNL A   1      32.583  23.154  26.112  1.00  0.00     0.060 A 
ATOM     19  N   UNL A   1      35.046  22.820  25.890  1.00  0.00    -0.211 NA
ATOM     20  C   UNL A   1      30.972  24.703  25.881  1.00  0.00     0.011 A 
ATOM     21  C   UNL A   1      32.313  24.570  26.163  1.00  0.00    -0.018 A 
ATOM     22  C   UNL A   1      30.419  25.942  25.290  1.00  0.00     0.047 C 
ATOM     23  C   UNL A   1      33.166  25.844  26.248  1.00  0.00     0.018 C 
ATOM     24  C   UNL A   1      31.001  27.146  25.921  1.00  0.00     0.006 C 
ATOM     25  C   UNL A   1      34.434  25.830  25.447  1.00  0.00     0.013 C 
ATOM     26  C   UNL A   1      32.472  27.131  25.704  1.00  0.00     0.008 C 
ENDBRANCH   8   9
ENDBRANCH   7   8
ENDBRANCH   4   7
ENDBRANCH   2   3
ENDBRANCH   1   2
BRANCH   1  27
ATOM     27  C   UNL A   1      42.864  18.414  26.650  1.00  0.00     0.118 C 
BRANCH  27  28
ATOM     28  N   UNL A   1      43.782  18.618  25.388  1.00  0.00    -0.352 N 
ATOM     29  C   UNL A   1      44.717  19.486  24.712  1.00  0.00     0.251 C 
ATOM     30  H   UNL A   1      43.674  17.818  24.823  1.00  0.00     0.163 HD
ATOM     31  O   UNL A   1      45.445  18.900  23.895  1.00  0.00    -0.269 OA
BRANCH  29  32
ATOM     32  C   UNL A   1      45.024  20.993  24.817  1.00  0.00     0.039 A 
ATOM     33  C   UNL A   1      45.937  21.539  25.734  1.00  0.00     0.014 A 
ATOM     34  C   UNL A   1      44.555  21.961  23.926  1.00  0.00     0.014 A 
ATOM     35  C   UNL A   1      45.870  22.920  26.137  1.00  0.00     0.010 A 
ATOM     36  C   UNL A   1      44.409  23.323  24.359  1.00  0.00     0.010 A 
ATOM     37  C   UNL A   1      44.894  23.769  25.615  1.00  0.00    -0.014 A 
BRANCH  37  38
ATOM     38  C   UNL A   1      44.330  25.015  26.303  1.00  0.00     0.031 A 
ATOM     39  C   UNL A   1      45.162  26.233  26.092  1.00  0.00     0.074 A 
ATOM     40  C   UNL A   1      43.132  25.322  26.913  1.00  0.00     0.049 A 
ATOM     41  N   UNL A   1      46.174  26.549  26.828  1.00  0.00    -0.248 NA
ATOM     42  C   UNL A   1      44.987  27.105  24.917  1.00  0.00     0.031 C 
ATOM     43  C   UNL A   1      41.895  24.533  27.062  1.00  0.00     0.029 A 
ATOM     44  N   UNL A   1      42.729  26.528  27.489  1.00  0.00    -0.354 N 
ATOM     45  C   UNL A   1      46.642  27.759  26.346  1.00  0.00     0.074 A 
ATOM     46  C   UNL A   1      46.043  27.919  25.044  1.00  0.00     0.031 C 
ATOM     47  C   UNL A   1      40.852  25.322  27.449  1.00  0.00     0.029 A 
ATOM     48  C   UNL A   1      41.374  26.614  27.856  1.00  0.00     0.049 A 
ATOM     49  H   UNL A   1      43.357  27.274  27.628  1.00  0.00     0.167 HD
ATOM     50  C   UNL A   1      47.275  28.636  27.173  1.00  0.00     0.037 A 
ATOM     51  C   UNL A   1      40.757  27.579  28.602  1.00  0.00     0.037 A 
ATOM     52  C   UNL A   1      47.349  28.089  28.512  1.00  0.00     0.049 A 
ATOM     53  C   UNL A   1      41.799  28.104  29.506  1.00  0.00     0.074 A 
ATOM     54  C   UNL A   1      48.052  27.089  29.152  1.00  0.00     0.029 A 
ATOM     55  N   UNL A   1      46.234  28.343  29.271  1.00  0.00    -0.354 N 
ATOM     56  N   UNL A   1      42.363  27.391  30.438  1.00  0.00    -0.248 NA
ATOM     57  C   UNL A   1      42.412  29.396  29.240  1.00  0.00     0.031 C 
ATOM     58  C   UNL A   1      47.194  26.595  30.184  1.00  0.00     0.029 A 
ATOM     59  C   UNL A   1      46.015  27.337  30.179  1.00  0.00     0.049 A 
ATOM     60  H   UNL A   1      45.666  29.141  29.176  1.00  0.00     0.167 HD
ATOM     61  C   UNL A   1      43.634  27.908  30.516  1.00  0.00     0.074 A 
ATOM     62  C   UNL A   1      43.542  29.240  29.931  1.00  0.00     0.031 C 
ATOM     63  C   UNL A   1      44.697  27.084  30.724  1.00  0.00     0.037 A 
BRANCH  50  64
ATOM     64  C   UNL A   1      47.469  30.111  26.941  1.00  0.00     0.057 A 
ATOM     65  C   UNL A   1      48.751  30.669  27.102  1.00  0.00     0.134 A 
ATOM     66  C   UNL A   1      46.429  31.044  26.777  1.00  0.00     0.134 A 
ATOM     67  F   UNL A   1      49.822  29.886  27.306  1.00  0.00    -0.206 F 
ATOM     68  C   UNL A   1      48.976  32.052  27.116  1.00  0.00     0.040 A 
ATOM     69  C   UNL A   1      46.649  32.425  26.733  1.00  0.00     0.040 A 
ATOM     70  F   UNL A   1      45.141  30.680  26.757  1.00  0.00    -0.206 F 
ATOM     71  C   UNL A   1      47.924  32.936  26.922  1.00  0.00     0.006 A 
ENDBRANCH  50  64
BRANCH  51  72
ATOM     72  C   UNL A   1      39.377  28.138  28.745  1.00  0.00     0.057 A 
ATOM     73  C   UNL A   1      38.650  28.022  29.951  1.00  0.00     0.134 A 
ATOM     74  C   UNL A   1      38.929  29.134  27.867  1.00  0.00     0.134 A 
ATOM     75  F   UNL A   1      38.994  27.110  30.871  1.00  0.00    -0.206 F 
ATOM     76  C   UNL A   1      37.602  28.892  30.296  1.00  0.00     0.040 A 
ATOM     77  C   UNL A   1      37.881  30.013  28.200  1.00  0.00     0.040 A 
ATOM     78  F   UNL A   1      39.571  29.353  26.711  1.00  0.00    -0.206 F 
ATOM     79  C   UNL A   1      37.233  29.913  29.428  1.00  0.00     0.006 A 
ENDBRANCH  51  72
BRANCH  63  80
ATOM     80  C   UNL A   1      44.426  25.765  31.396  1.00  0.00     0.057 A 
ATOM     81  C   UNL A   1      44.333  24.527  30.744  1.00  0.00     0.134 A 
ATOM     82  C   UNL A   1      44.298  25.740  32.786  1.00  0.00     0.134 A 
ATOM     83  F   UNL A   1      44.481  24.429  29.424  1.00  0.00    -0.206 F 
ATOM     84  C   UNL A   1      44.110  23.330  31.431  1.00  0.00     0.040 A 
ATOM     85  C   UNL A   1      44.100  24.550  33.493  1.00  0.00     0.040 A 
ATOM     86  F   UNL A   1      44.387  26.879  33.490  1.00  0.00    -0.206 F 
ATOM     87  C   UNL A   1      44.000  23.338  32.814  1.00  0.00     0.006 A 
ENDBRANCH  63  80
ENDBRANCH  37  38
ENDBRANCH  29  32
ENDBRANCH  27  28
ENDBRANCH   1  27
TORSDOF 12
ENDMDL
MODEL 2
REMARK VINA RESULT:     -12.9      5.212      8.942
REMARK SMILES Cc1nc2sc3c(c2c2nc(CCC(=O)NCCCNC(=O)c4ccc(-c5c6nc(c(-c7c(F)cccc7F)c7ccc([nH]7)c(-c7c(F)cccc7F)c7nc(c(-c8c(F)cccc8F)c8ccc5[nH]8)C=C7)C=C6)cc4)nn12)[C@@H](C)CCC3
REMARK SMILES IDX 18 1 17 2 16 3 14 4 15 5 13 7 12 8 11 9 1 10 2 11 3 12 78 13
REMARK SMILES IDX 4 14 9 15 77 16 5 17 8 18 10 19 6 20 7 21 83 22 79 23 82 24
REMARK SMILES IDX 80 25 81 26 19 27 20 28 21 29 22 31 23 32 24 33 76 34 25 35
REMARK SMILES IDX 75 36 26 37 27 38 28 39 69 40 29 41 74 42 68 43 70 44 30 45
REMARK SMILES IDX 73 46 67 47 66 48 31 50 57 51 40 52 56 53 41 54 44 55 55 56
REMARK SMILES IDX 71 57 42 58 43 59 54 61 72 62 45 63 32 64 33 65 38 66 34 67
REMARK SMILES IDX 35 68 37 69 39 70 36 71 58 72 59 73 64 74 60 75 61 76 63 77
REMARK SMILES IDX 65 78 62 79 46 80 47 81 52 82 48 83 49 84 51 85 53 86 50 87
REMARK H PARENT 16 6 20 30 70 49 44 60
REMARK Flexibility Score: inf
ROOT
ATOM      1  C   UNL A   1      40.780  23.265  27.055  1.00  0.00     0.042 C 
ENDROOT
BRANCH   1   2
ATOM      2  C   UNL A   1      39.202  23.277  26.768  1.00  0.00     0.117 C 
BRANCH   2   3
ATOM      3  N   UNL A   1      38.501  22.119  26.181  1.00  0.00    -0.356 N 
ATOM      4  C   UNL A   1      37.540  21.954  25.212  1.00  0.00     0.220 C 
ATOM      5  O   UNL A   1      37.455  20.806  24.695  1.00  0.00    -0.275 OA
ATOM      6  H   UNL A   1      38.789  21.265  26.575  1.00  0.00     0.163 HD
BRANCH   4   7
ATOM      7  C   UNL A   1      36.599  23.024  24.688  1.00  0.00     0.108 C 
BRANCH   7   8
ATOM      8  C   UNL A   1      35.903  23.848  25.792  1.00  0.00     0.089 C 
BRANCH   8   9
ATOM      9  C   UNL A   1      34.442  23.709  25.672  1.00  0.00     0.152 A 
ATOM     10  C   UNL A   1      32.026  21.967  22.803  1.00  0.00     0.090 C 
ATOM     11  C   UNL A   1      31.723  23.159  23.659  1.00  0.00     0.131 A 
ATOM     12  N   UNL A   1      30.691  23.929  23.446  1.00  0.00    -0.222 NA
ATOM     13  N   UNL A   1      32.665  23.459  24.648  1.00  0.00    -0.199 N 
ATOM     14  C   UNL A   1      30.716  25.125  24.117  1.00  0.00     0.129 A 
ATOM     15  C   UNL A   1      32.608  24.605  25.406  1.00  0.00     0.168 A 
ATOM     16  N   UNL A   1      33.862  22.862  24.805  1.00  0.00    -0.150 NA
ATOM     17  S   UNL A   1      29.660  26.348  23.710  1.00  0.00    -0.120 S 
ATOM     18  C   UNL A   1      31.616  25.619  25.054  1.00  0.00     0.060 A 
ATOM     19  N   UNL A   1      33.656  24.705  26.163  1.00  0.00    -0.211 NA
ATOM     20  C   UNL A   1      30.688  27.538  24.346  1.00  0.00     0.011 A 
ATOM     21  C   UNL A   1      31.566  27.043  25.282  1.00  0.00    -0.018 A 
ATOM     22  C   UNL A   1      30.770  28.935  23.863  1.00  0.00     0.047 C 
ATOM     23  C   UNL A   1      32.368  28.043  26.127  1.00  0.00     0.018 C 
ATOM     24  C   UNL A   1      31.022  29.875  24.976  1.00  0.00     0.006 C 
ATOM     25  C   UNL A   1      33.847  27.803  26.189  1.00  0.00     0.013 C 
ATOM     26  C   UNL A   1      32.317  29.516  25.615  1.00  0.00     0.008 C 
ENDBRANCH   8   9
ENDBRANCH   7   8
ENDBRANCH   4   7
ENDBRANCH   2   3
ENDBRANCH   1   2
BRANCH   1  27
ATOM     27  C   UNL A   1      41.753  24.412  26.530  1.00  0.00     0.118 C 
BRANCH  27  28
ATOM     28  N   UNL A   1      41.265  25.907  26.463  1.00  0.00    -0.352 N 
ATOM     29  C   UNL A   1      40.932  27.095  27.212  1.00  0.00     0.251 C 
ATOM     30  H   UNL A   1      41.130  26.121  25.511  1.00  0.00     0.163 HD
ATOM     31  O   UNL A   1      40.988  28.141  26.546  1.00  0.00    -0.269 OA
BRANCH  29  32
ATOM     32  C   UNL A   1      40.550  27.342  28.685  1.00  0.00     0.039 A 
ATOM     33  C   UNL A   1      39.265  27.113  29.205  1.00  0.00     0.014 A 
ATOM     34  C   UNL A   1      41.458  27.670  29.695  1.00  0.00     0.014 A 
ATOM     35  C   UNL A   1      38.808  27.764  30.406  1.00  0.00     0.010 A 
ATOM     36  C   UNL A   1      41.013  28.396  30.851  1.00  0.00     0.010 A 
ATOM     37  C   UNL A   1      39.639  28.642  31.101  1.00  0.00    -0.014 A 
BRANCH  37  38
ATOM     38  C   UNL A   1      39.175  29.797  31.994  1.00  0.00     0.031 A 
ATOM     39  C   UNL A   1      37.998  30.529  31.448  1.00  0.00     0.074 A 
ATOM     40  C   UNL A   1      39.468  30.201  33.280  1.00  0.00     0.049 A 
ATOM     41  N   UNL A   1      38.084  31.501  30.604  1.00  0.00    -0.248 NA
ATOM     42  C   UNL A   1      36.615  30.095  31.713  1.00  0.00     0.031 C 
ATOM     43  C   UNL A   1      40.326  29.590  34.311  1.00  0.00     0.029 A 
ATOM     44  N   UNL A   1      38.945  31.278  33.997  1.00  0.00    -0.354 N 
ATOM     45  C   UNL A   1      36.790  31.940  30.385  1.00  0.00     0.074 A 
ATOM     46  C   UNL A   1      35.932  30.897  30.887  1.00  0.00     0.031 C 
ATOM     47  C   UNL A   1      40.089  30.139  35.537  1.00  0.00     0.029 A 
ATOM     48  C   UNL A   1      39.278  31.330  35.362  1.00  0.00     0.049 A 
ATOM     49  H   UNL A   1      38.377  31.960  33.571  1.00  0.00     0.167 HD
ATOM     50  C   UNL A   1      36.548  33.237  30.044  1.00  0.00     0.037 A 
ATOM     51  C   UNL A   1      39.074  32.352  36.248  1.00  0.00     0.037 A 
ATOM     52  C   UNL A   1      37.794  33.971  29.965  1.00  0.00     0.049 A 
ATOM     53  C   UNL A   1      39.099  33.585  35.436  1.00  0.00     0.074 A 
ATOM     54  C   UNL A   1      38.876  34.024  29.111  1.00  0.00     0.029 A 
ATOM     55  N   UNL A   1      38.210  34.477  31.171  1.00  0.00    -0.354 N 
ATOM     56  N   UNL A   1      40.159  34.007  34.809  1.00  0.00    -0.248 NA
ATOM     57  C   UNL A   1      37.858  34.272  35.115  1.00  0.00     0.031 C 
ATOM     58  C   UNL A   1      40.007  34.354  29.921  1.00  0.00     0.029 A 
ATOM     59  C   UNL A   1      39.580  34.541  31.233  1.00  0.00     0.049 A 
ATOM     60  H   UNL A   1      37.605  34.756  31.896  1.00  0.00     0.167 HD
ATOM     61  C   UNL A   1      39.648  34.641  33.701  1.00  0.00     0.074 A 
ATOM     62  C   UNL A   1      38.267  34.955  34.044  1.00  0.00     0.031 C 
ATOM     63  C   UNL A   1      40.280  34.538  32.501  1.00  0.00     0.037 A 
BRANCH  50  64
ATOM     64  C   UNL A   1      35.238  33.970  30.173  1.00  0.00     0.057 A 
ATOM     65  C   UNL A   1      34.617  34.474  29.016  1.00  0.00     0.134 A 
ATOM     66  C   UNL A   1      34.667  34.392  31.388  1.00  0.00     0.134 A 
ATOM     67  F   UNL A   1      35.090  34.178  27.795  1.00  0.00    -0.206 F 
ATOM     68  C   UNL A   1      33.520  35.345  29.066  1.00  0.00     0.040 A 
ATOM     69  C   UNL A   1      33.539  35.215  31.450  1.00  0.00     0.040 A 
ATOM     70  F   UNL A   1      35.229  34.118  32.572  1.00  0.00    -0.206 F 
ATOM     71  C   UNL A   1      32.970  35.712  30.287  1.00  0.00     0.006 A 
ENDBRANCH  50  64
BRANCH  51  72
ATOM     72  C   UNL A   1      38.904  32.504  37.725  1.00  0.00     0.057 A 
ATOM     73  C   UNL A   1      39.593  33.500  38.453  1.00  0.00     0.134 A 
ATOM     74  C   UNL A   1      37.778  31.966  38.361  1.00  0.00     0.134 A 
ATOM     75  F   UNL A   1      40.681  34.092  37.940  1.00  0.00    -0.206 F 
ATOM     76  C   UNL A   1      39.143  33.986  39.693  1.00  0.00     0.040 A 
ATOM     77  C   UNL A   1      37.315  32.445  39.603  1.00  0.00     0.040 A 
ATOM     78  F   UNL A   1      37.030  31.041  37.743  1.00  0.00    -0.206 F 
ATOM     79  C   UNL A   1      37.982  33.476  40.258  1.00  0.00     0.006 A 
ENDBRANCH  51  72
BRANCH  63  80
ATOM     80  C   UNL A   1      41.752  34.223  32.521  1.00  0.00     0.057 A 
ATOM     81  C   UNL A   1      42.323  32.998  32.151  1.00  0.00     0.134 A 
ATOM     82  C   UNL A   1      42.644  35.232  32.891  1.00  0.00     0.134 A 
ATOM     83  F   UNL A   1      41.569  31.979  31.741  1.00  0.00    -0.206 F 
ATOM     84  C   UNL A   1      43.704  32.778  32.162  1.00  0.00     0.040 A 
ATOM     85  C   UNL A   1      44.028  35.039  32.883  1.00  0.00     0.040 A 
ATOM     86  F   UNL A   1      42.181  36.441  33.248  1.00  0.00    -0.206 F 
ATOM     87  C   UNL A   1      44.564  33.806  32.523  1.00  0.00     0.006 A 
ENDBRANCH  63  80
ENDBRANCH  37  38
ENDBRANCH  29  32
ENDBRANCH  27  28
ENDBRANCH   1  27
TORSDOF 12
ENDMDL
MODEL 3
REMARK VINA RESULT:     -12.8      2.891      7.603
REMARK SMILES Cc1nc2sc3c(c2c2nc(CCC(=O)NCCCNC(=O)c4ccc(-c5c6nc(c(-c7c(F)cccc7F)c7ccc([nH]7)c(-c7c(F)cccc7F)c7nc(c(-c8c(F)cccc8F)c8ccc5[nH]8)C=C7)C=C6)cc4)nn12)[C@@H](C)CCC3
REMARK SMILES IDX 18 1 17 2 16 3 14 4 15 5 13 7 12 8 11 9 1 10 2 11 3 12 78 13
REMARK SMILES IDX 4 14 9 15 77 16 5 17 8 18 10 19 6 20 7 21 83 22 79 23 82 24
REMARK SMILES IDX 80 25 81 26 19 27 20 28 21 29 22 31 23 32 24 33 76 34 25 35
REMARK SMILES IDX 75 36 26 37 27 38 28 39 69 40 29 41 74 42 68 43 70 44 30 45
REMARK SMILES IDX 73 46 67 47 66 48 31 50 57 51 40 52 56 53 41 54 44 55 55 56
REMARK SMILES IDX 71 57 42 58 43 59 54 61 72 62 45 63 32 64 33 65 38 66 34 67
REMARK SMILES IDX 35 68 37 69 39 70 36 71 58 72 59 73 64 74 60 75 61 76 63 77
REMARK SMILES IDX 65 78 62 79 46 80 47 81 52 82 48 83 49 84 51 85 53 86 50 87
REMARK H PARENT 16 6 20 30 70 49 44 60
REMARK Flexibility Score: inf
ROOT
ATOM      1  C   UNL A   1      35.098  31.517  27.700  1.00  0.00     0.042 C 
ENDROOT
BRANCH   1   2
ATOM      2  C   UNL A   1      33.966  30.470  27.255  1.00  0.00     0.117 C 
BRANCH   2   3
ATOM      3  N   UNL A   1      34.162  29.530  26.135  1.00  0.00    -0.356 N 
ATOM      4  C   UNL A   1      33.336  28.728  25.383  1.00  0.00     0.220 C 
ATOM      5  O   UNL A   1      33.783  28.355  24.264  1.00  0.00    -0.275 OA
ATOM      6  H   UNL A   1      35.105  29.460  25.863  1.00  0.00     0.163 HD
BRANCH   4   7
ATOM      7  C   UNL A   1      31.935  28.279  25.759  1.00  0.00     0.108 C 
BRANCH   7   8
ATOM      8  C   UNL A   1      31.895  27.115  26.771  1.00  0.00     0.089 C 
BRANCH   8   9
ATOM      9  C   UNL A   1      31.468  25.879  26.095  1.00  0.00     0.152 A 
ATOM     10  C   UNL A   1      29.174  22.667  27.329  1.00  0.00     0.090 C 
ATOM     11  C   UNL A   1      30.316  22.662  26.360  1.00  0.00     0.131 A 
ATOM     12  N   UNL A   1      30.860  21.558  25.926  1.00  0.00    -0.222 NA
ATOM     13  N   UNL A   1      30.835  23.914  26.016  1.00  0.00    -0.199 N 
ATOM     14  C   UNL A   1      32.064  21.720  25.289  1.00  0.00     0.129 A 
ATOM     15  C   UNL A   1      31.976  24.066  25.264  1.00  0.00     0.168 A 
ATOM     16  N   UNL A   1      30.490  25.091  26.573  1.00  0.00    -0.150 NA
ATOM     17  S   UNL A   1      33.039  20.407  24.971  1.00  0.00    -0.120 S 
ATOM     18  C   UNL A   1      32.762  22.874  24.952  1.00  0.00     0.060 A 
ATOM     19  N   UNL A   1      32.310  25.316  25.187  1.00  0.00    -0.211 NA
ATOM     20  C   UNL A   1      34.432  21.372  24.904  1.00  0.00     0.011 A 
ATOM     21  C   UNL A   1      34.156  22.692  24.628  1.00  0.00    -0.018 A 
ATOM     22  C   UNL A   1      35.798  20.918  25.251  1.00  0.00     0.047 C 
ATOM     23  C   UNL A   1      35.327  23.621  24.278  1.00  0.00     0.018 C 
ATOM     24  C   UNL A   1      36.813  21.554  24.384  1.00  0.00     0.006 C 
ATOM     25  C   UNL A   1      35.383  24.911  25.040  1.00  0.00     0.013 C 
ATOM     26  C   UNL A   1      36.740  23.028  24.572  1.00  0.00     0.008 C 
ENDBRANCH   8   9
ENDBRANCH   7   8
ENDBRANCH   4   7
ENDBRANCH   2   3
ENDBRANCH   1   2
BRANCH   1  27
ATOM     27  C   UNL A   1      35.321  31.940  29.219  1.00  0.00     0.118 C 
BRANCH  27  28
ATOM     28  N   UNL A   1      35.672  30.858  30.308  1.00  0.00    -0.352 N 
ATOM     29  C   UNL A   1      36.575  29.804  30.705  1.00  0.00     0.251 C 
ATOM     30  H   UNL A   1      34.989  30.930  31.014  1.00  0.00     0.163 HD
ATOM     31  O   UNL A   1      36.563  29.564  31.922  1.00  0.00    -0.269 OA
BRANCH  29  32
ATOM     32  C   UNL A   1      37.584  28.932  29.931  1.00  0.00     0.039 A 
ATOM     33  C   UNL A   1      38.182  27.776  30.463  1.00  0.00     0.014 A 
ATOM     34  C   UNL A   1      37.902  29.095  28.581  1.00  0.00     0.014 A 
ATOM     35  C   UNL A   1      39.421  27.259  29.944  1.00  0.00     0.010 A 
ATOM     36  C   UNL A   1      39.176  28.655  28.086  1.00  0.00     0.010 A 
ATOM     37  C   UNL A   1      40.067  27.889  28.880  1.00  0.00    -0.014 A 
BRANCH  37  38
ATOM     38  C   UNL A   1      41.571  27.844  28.592  1.00  0.00     0.031 A 
ATOM     39  C   UNL A   1      41.964  26.738  27.675  1.00  0.00     0.074 A 
ATOM     40  C   UNL A   1      42.624  28.703  28.827  1.00  0.00     0.049 A 
ATOM     41  N   UNL A   1      42.222  25.536  28.068  1.00  0.00    -0.248 NA
ATOM     42  C   UNL A   1      41.939  26.890  26.210  1.00  0.00     0.031 C 
ATOM     43  C   UNL A   1      42.654  30.057  29.410  1.00  0.00     0.029 A 
ATOM     44  N   UNL A   1      43.968  28.550  28.485  1.00  0.00    -0.354 N 
ATOM     45  C   UNL A   1      42.592  24.829  26.938  1.00  0.00     0.074 A 
ATOM     46  C   UNL A   1      42.163  25.629  25.818  1.00  0.00     0.031 C 
ATOM     47  C   UNL A   1      43.849  30.670  29.170  1.00  0.00     0.029 A 
ATOM     48  C   UNL A   1      44.785  29.679  28.670  1.00  0.00     0.049 A 
ATOM     49  H   UNL A   1      44.322  27.701  28.133  1.00  0.00     0.167 HD
ATOM     50  C   UNL A   1      43.446  23.773  27.030  1.00  0.00     0.037 A 
ATOM     51  C   UNL A   1      46.148  29.761  28.606  1.00  0.00     0.037 A 
ATOM     52  C   UNL A   1      43.836  23.569  28.410  1.00  0.00     0.049 A 
ATOM     53  C   UNL A   1      46.641  28.425  28.995  1.00  0.00     0.074 A 
ATOM     54  C   UNL A   1      43.242  23.097  29.562  1.00  0.00     0.029 A 
ATOM     55  N   UNL A   1      44.908  24.333  28.796  1.00  0.00    -0.354 N 
ATOM     56  N   UNL A   1      46.478  27.921  30.184  1.00  0.00    -0.248 NA
ATOM     57  C   UNL A   1      47.139  27.508  27.981  1.00  0.00     0.031 C 
ATOM     58  C   UNL A   1      43.855  23.804  30.645  1.00  0.00     0.029 A 
ATOM     59  C   UNL A   1      44.836  24.647  30.130  1.00  0.00     0.049 A 
ATOM     60  H   UNL A   1      45.633  24.620  28.194  1.00  0.00     0.167 HD
ATOM     61  C   UNL A   1      46.380  26.569  29.951  1.00  0.00     0.074 A 
ATOM     62  C   UNL A   1      46.995  26.361  28.646  1.00  0.00     0.031 C 
ATOM     63  C   UNL A   1      45.508  25.811  30.670  1.00  0.00     0.037 A 
BRANCH  50  64
ATOM     64  C   UNL A   1      44.258  23.173  25.913  1.00  0.00     0.057 A 
ATOM     65  C   UNL A   1      44.133  21.800  25.633  1.00  0.00     0.134 A 
ATOM     66  C   UNL A   1      45.309  23.824  25.241  1.00  0.00     0.134 A 
ATOM     67  F   UNL A   1      43.195  21.056  26.239  1.00  0.00    -0.206 F 
ATOM     68  C   UNL A   1      45.000  21.124  24.763  1.00  0.00     0.040 A 
ATOM     69  C   UNL A   1      46.145  23.174  24.328  1.00  0.00     0.040 A 
ATOM     70  F   UNL A   1      45.648  25.092  25.509  1.00  0.00    -0.206 F 
ATOM     71  C   UNL A   1      46.006  21.813  24.099  1.00  0.00     0.006 A 
ENDBRANCH  50  64
BRANCH  51  72
ATOM     72  C   UNL A   1      47.170  30.813  28.315  1.00  0.00     0.057 A 
ATOM     73  C   UNL A   1      47.318  31.368  27.023  1.00  0.00     0.134 A 
ATOM     74  C   UNL A   1      47.716  31.571  29.359  1.00  0.00     0.134 A 
ATOM     75  F   UNL A   1      46.827  30.735  25.948  1.00  0.00    -0.206 F 
ATOM     76  C   UNL A   1      47.893  32.629  26.797  1.00  0.00     0.040 A 
ATOM     77  C   UNL A   1      48.295  32.837  29.147  1.00  0.00     0.040 A 
ATOM     78  F   UNL A   1      47.599  31.154  30.628  1.00  0.00    -0.206 F 
ATOM     79  C   UNL A   1      48.360  33.382  27.868  1.00  0.00     0.006 A 
ENDBRANCH  51  72
BRANCH  63  80
ATOM     80  C   UNL A   1      45.099  26.329  32.023  1.00  0.00     0.057 A 
ATOM     81  C   UNL A   1      43.893  26.986  32.307  1.00  0.00     0.134 A 
ATOM     82  C   UNL A   1      45.951  26.107  33.107  1.00  0.00     0.134 A 
ATOM     83  F   UNL A   1      42.988  27.213  31.357  1.00  0.00    -0.206 F 
ATOM     84  C   UNL A   1      43.557  27.416  33.595  1.00  0.00     0.040 A 
ATOM     85  C   UNL A   1      45.620  26.507  34.405  1.00  0.00     0.040 A 
ATOM     86  F   UNL A   1      47.119  25.473  32.925  1.00  0.00    -0.206 F 
ATOM     87  C   UNL A   1      44.421  27.169  34.653  1.00  0.00     0.006 A 
ENDBRANCH  63  80
ENDBRANCH  37  38
ENDBRANCH  29  32
ENDBRANCH  27  28
ENDBRANCH   1  27
TORSDOF 12
ENDMDL
