MODEL 1
REMARK VINA RESULT:     -11.1      0.000      0.000
REMARK SMILES CC(C)[C@@H](NC(=O)[C@@](C)([NH3+])C(F)(F)F)C(=O)NCCCNC(=O)c1ccc(-c2c3nc(c(-c4c(F)cccc4F)c4ccc([nH]4)c(-c4c(F)cccc4F)c4nc(c(-c5c(F)cccc5F)c5ccc2[nH]5)C=C4)C=C3)cc1
REMARK SMILES IDX 18 1 17 2 15 3 16 4 4 6 2 7 1 8 3 9 5 10 6 11 7 13 8 14 9 15
REMARK SMILES IDX 10 16 11 20 12 21 13 22 14 23 19 24 20 25 21 26 22 27 23 29
REMARK SMILES IDX 24 30 25 31 77 32 26 33 76 34 27 35 28 36 29 37 70 38 30 39
REMARK SMILES IDX 75 40 69 41 71 42 31 43 74 44 68 45 67 46 32 48 58 49 41 50
REMARK SMILES IDX 57 51 42 52 45 53 56 54 72 55 43 56 44 57 55 59 73 60 46 61
REMARK SMILES IDX 33 62 34 63 39 64 35 65 36 66 38 67 40 68 37 69 59 70 60 71
REMARK SMILES IDX 65 72 61 73 62 74 64 75 66 76 63 77 47 78 48 79 53 80 49 81
REMARK SMILES IDX 50 82 52 83 54 84 51 85
REMARK H PARENT 17 5 5 12 10 17 10 18 10 19 21 28 71 47 45 58
REMARK Flexibility Score: inf
ROOT
ATOM      1  C   UNL A   1      37.138  22.022  25.457  1.00  0.00     0.117 C 
ENDROOT
BRANCH   1   2
ATOM      2  N   UNL A   1      36.382  22.426  24.281  1.00  0.00    -0.354 N 
ATOM      3  C   UNL A   1      35.046  22.278  24.046  1.00  0.00     0.242 C 
ATOM      4  O   UNL A   1      34.541  22.940  23.136  1.00  0.00    -0.273 OA
ATOM      5  H   UNL A   1      36.899  22.859  23.565  1.00  0.00     0.163 HD
BRANCH   3   6
ATOM      6  C   UNL A   1      34.225  21.248  24.830  1.00  0.00     0.174 C 
BRANCH   6   7
ATOM      7  C   UNL A   1      33.451  22.012  25.959  1.00  0.00     0.015 C 
ATOM      8  C   UNL A   1      31.938  22.038  25.740  1.00  0.00     0.010 C 
ATOM      9  C   UNL A   1      33.737  21.456  27.364  1.00  0.00     0.010 C 
ENDBRANCH   6   7
BRANCH   6  10
ATOM     10  N   UNL A   1      33.315  20.514  23.933  1.00  0.00    -0.338 N 
ATOM     11  C   UNL A   1      33.007  19.191  23.780  1.00  0.00     0.291 C 
ATOM     12  H   UNL A   1      32.824  21.101  23.315  1.00  0.00     0.164 HD
ATOM     13  O   UNL A   1      31.981  19.007  23.113  1.00  0.00    -0.267 OA
BRANCH  11  14
ATOM     14  C   UNL A   1      33.892  17.998  24.237  1.00  0.00     0.267 C 
ATOM     15  C   UNL A   1      34.025  16.925  23.143  1.00  0.00     0.100 C 
BRANCH  14  16
ATOM     16  N   UNL A   1      35.263  18.467  24.628  1.00  0.00    -0.337 N 
ATOM     17  H   UNL A   1      35.877  18.437  23.814  1.00  0.00     0.345 HD
ATOM     18  H   UNL A   1      35.635  17.860  25.357  1.00  0.00     0.345 HD
ATOM     19  H   UNL A   1      35.208  19.424  24.978  1.00  0.00     0.345 HD
ENDBRANCH  14  16
BRANCH  14  20
ATOM     20  C   UNL A   1      33.115  17.302  25.403  1.00  0.00     0.453 C 
ATOM     21  F   UNL A   1      33.878  16.456  26.126  1.00  0.00    -0.164 F 
ATOM     22  F   UNL A   1      32.529  18.185  26.245  1.00  0.00    -0.164 F 
ATOM     23  F   UNL A   1      32.100  16.553  24.881  1.00  0.00    -0.164 F 
ENDBRANCH  14  20
ENDBRANCH  11  14
ENDBRANCH   6  10
ENDBRANCH   3   6
ENDBRANCH   1   2
BRANCH   1  24
ATOM     24  C   UNL A   1      38.027  20.830  25.179  1.00  0.00     0.042 C 
BRANCH  24  25
ATOM     25  C   UNL A   1      39.275  20.811  26.044  1.00  0.00     0.118 C 
BRANCH  25  26
ATOM     26  N   UNL A   1      40.020  19.561  25.976  1.00  0.00    -0.352 N 
ATOM     27  C   UNL A   1      41.377  19.362  26.124  1.00  0.00     0.251 C 
ATOM     28  H   UNL A   1      39.486  18.754  25.798  1.00  0.00     0.163 HD
ATOM     29  O   UNL A   1      41.876  18.261  25.956  1.00  0.00    -0.269 OA
BRANCH  27  30
ATOM     30  C   UNL A   1      42.222  20.532  26.434  1.00  0.00     0.039 A 
ATOM     31  C   UNL A   1      42.808  21.238  25.384  1.00  0.00     0.014 A 
ATOM     32  C   UNL A   1      42.302  21.004  27.747  1.00  0.00     0.014 A 
ATOM     33  C   UNL A   1      43.387  22.481  25.639  1.00  0.00     0.010 A 
ATOM     34  C   UNL A   1      42.767  22.291  27.974  1.00  0.00     0.010 A 
ATOM     35  C   UNL A   1      43.315  23.044  26.925  1.00  0.00    -0.014 A 
BRANCH  35  36
ATOM     36  C   UNL A   1      43.806  24.418  27.199  1.00  0.00     0.031 A 
ATOM     37  C   UNL A   1      42.837  25.480  27.641  1.00  0.00     0.074 A 
ATOM     38  C   UNL A   1      45.096  24.734  26.968  1.00  0.00     0.049 A 
ATOM     39  N   UNL A   1      43.041  26.757  27.838  1.00  0.00    -0.248 NA
ATOM     40  C   UNL A   1      41.441  25.059  27.843  1.00  0.00     0.031 C 
ATOM     41  C   UNL A   1      46.120  23.816  26.465  1.00  0.00     0.029 A 
ATOM     42  N   UNL A   1      45.765  25.922  27.120  1.00  0.00    -0.354 N 
ATOM     43  C   UNL A   1      41.799  27.291  28.152  1.00  0.00     0.074 A 
ATOM     44  C   UNL A   1      40.837  26.217  28.054  1.00  0.00     0.031 C 
ATOM     45  C   UNL A   1      47.294  24.464  26.386  1.00  0.00     0.029 A 
ATOM     46  C   UNL A   1      47.099  25.851  26.797  1.00  0.00     0.049 A 
ATOM     47  H   UNL A   1      45.330  26.748  27.431  1.00  0.00     0.167 HD
ATOM     48  C   UNL A   1      41.488  28.556  28.520  1.00  0.00     0.037 A 
ATOM     49  C   UNL A   1      48.056  26.796  26.833  1.00  0.00     0.037 A 
ATOM     50  C   UNL A   1      42.455  29.607  28.674  1.00  0.00     0.049 A 
ATOM     51  C   UNL A   1      47.700  28.182  27.295  1.00  0.00     0.074 A 
ATOM     52  C   UNL A   1      42.260  30.900  29.128  1.00  0.00     0.029 A 
ATOM     53  N   UNL A   1      43.806  29.482  28.384  1.00  0.00    -0.354 N 
ATOM     54  N   UNL A   1      46.534  28.655  27.662  1.00  0.00    -0.248 NA
ATOM     55  C   UNL A   1      48.793  29.163  27.353  1.00  0.00     0.031 C 
ATOM     56  C   UNL A   1      43.490  31.566  29.083  1.00  0.00     0.029 A 
ATOM     57  C   UNL A   1      44.455  30.678  28.637  1.00  0.00     0.049 A 
ATOM     58  H   UNL A   1      44.239  28.664  28.049  1.00  0.00     0.167 HD
ATOM     59  C   UNL A   1      46.755  29.979  28.016  1.00  0.00     0.074 A 
ATOM     60  C   UNL A   1      48.169  30.230  27.833  1.00  0.00     0.031 C 
ATOM     61  C   UNL A   1      45.866  30.905  28.453  1.00  0.00     0.037 A 
BRANCH  48  62
ATOM     62  C   UNL A   1      40.045  28.854  28.798  1.00  0.00     0.057 A 
ATOM     63  C   UNL A   1      39.506  28.769  30.089  1.00  0.00     0.134 A 
ATOM     64  C   UNL A   1      39.182  29.229  27.761  1.00  0.00     0.134 A 
ATOM     65  F   UNL A   1      40.276  28.398  31.123  1.00  0.00    -0.206 F 
ATOM     66  C   UNL A   1      38.154  29.010  30.334  1.00  0.00     0.040 A 
ATOM     67  C   UNL A   1      37.833  29.501  27.998  1.00  0.00     0.040 A 
ATOM     68  F   UNL A   1      39.631  29.332  26.502  1.00  0.00    -0.206 F 
ATOM     69  C   UNL A   1      37.314  29.383  29.287  1.00  0.00     0.006 A 
ENDBRANCH  48  62
BRANCH  49  70
ATOM     70  C   UNL A   1      49.452  26.454  26.463  1.00  0.00     0.057 A 
ATOM     71  C   UNL A   1      50.332  25.906  27.404  1.00  0.00     0.134 A 
ATOM     72  C   UNL A   1      49.940  26.660  25.167  1.00  0.00     0.134 A 
ATOM     73  F   UNL A   1      49.926  25.704  28.666  1.00  0.00    -0.206 F 
ATOM     74  C   UNL A   1      51.651  25.589  27.076  1.00  0.00     0.040 A 
ATOM     75  C   UNL A   1      51.251  26.325  24.819  1.00  0.00     0.040 A 
ATOM     76  F   UNL A   1      49.144  27.172  24.217  1.00  0.00    -0.206 F 
ATOM     77  C   UNL A   1      52.112  25.794  25.778  1.00  0.00     0.006 A 
ENDBRANCH  49  70
BRANCH  61  78
ATOM     78  C   UNL A   1      46.403  32.263  28.791  1.00  0.00     0.057 A 
ATOM     79  C   UNL A   1      46.453  33.290  27.841  1.00  0.00     0.134 A 
ATOM     80  C   UNL A   1      46.829  32.557  30.092  1.00  0.00     0.134 A 
ATOM     81  F   UNL A   1      46.070  33.067  26.575  1.00  0.00    -0.206 F 
ATOM     82  C   UNL A   1      46.927  34.562  28.171  1.00  0.00     0.040 A 
ATOM     83  C   UNL A   1      47.283  33.830  30.438  1.00  0.00     0.040 A 
ATOM     84  F   UNL A   1      46.797  31.617  31.048  1.00  0.00    -0.206 F 
ATOM     85  C   UNL A   1      47.336  34.835  29.475  1.00  0.00     0.006 A 
ENDBRANCH  61  78
ENDBRANCH  35  36
ENDBRANCH  27  30
ENDBRANCH  25  26
ENDBRANCH  24  25
ENDBRANCH   1  24
TORSDOF 15
ENDMDL
MODEL 2
REMARK VINA RESULT:     -11.0      1.908      6.637
REMARK SMILES CC(C)[C@@H](NC(=O)[C@@](C)([NH3+])C(F)(F)F)C(=O)NCCCNC(=O)c1ccc(-c2c3nc(c(-c4c(F)cccc4F)c4ccc([nH]4)c(-c4c(F)cccc4F)c4nc(c(-c5c(F)cccc5F)c5ccc2[nH]5)C=C4)C=C3)cc1
REMARK SMILES IDX 18 1 17 2 15 3 16 4 4 6 2 7 1 8 3 9 5 10 6 11 7 13 8 14 9 15
REMARK SMILES IDX 10 16 11 20 12 21 13 22 14 23 19 24 20 25 21 26 22 27 23 29
REMARK SMILES IDX 24 30 25 31 77 32 26 33 76 34 27 35 28 36 29 37 70 38 30 39
REMARK SMILES IDX 75 40 69 41 71 42 31 43 74 44 68 45 67 46 32 48 58 49 41 50
REMARK SMILES IDX 57 51 42 52 45 53 56 54 72 55 43 56 44 57 55 59 73 60 46 61
REMARK SMILES IDX 33 62 34 63 39 64 35 65 36 66 38 67 40 68 37 69 59 70 60 71
REMARK SMILES IDX 65 72 61 73 62 74 64 75 66 76 63 77 47 78 48 79 53 80 49 81
REMARK SMILES IDX 50 82 52 83 54 84 51 85
REMARK H PARENT 17 5 5 12 10 17 10 18 10 19 21 28 71 47 45 58
REMARK Flexibility Score: inf
ROOT
ATOM      1  C   UNL A   1      36.936  22.293  25.173  1.00  0.00     0.117 C 
ENDROOT
BRANCH   1   2
ATOM      2  N   UNL A   1      36.101  22.580  24.016  1.00  0.00    -0.354 N 
ATOM      3  C   UNL A   1      34.777  22.303  23.843  1.00  0.00     0.242 C 
ATOM      4  O   UNL A   1      34.178  22.880  22.932  1.00  0.00    -0.273 OA
ATOM      5  H   UNL A   1      36.548  23.030  23.265  1.00  0.00     0.163 HD
BRANCH   3   6
ATOM      6  C   UNL A   1      34.085  21.234  24.696  1.00  0.00     0.174 C 
BRANCH   6   7
ATOM      7  C   UNL A   1      33.324  21.965  25.855  1.00  0.00     0.015 C 
ATOM      8  C   UNL A   1      31.804  21.928  25.696  1.00  0.00     0.010 C 
ATOM      9  C   UNL A   1      33.688  21.423  27.248  1.00  0.00     0.010 C 
ENDBRANCH   6   7
BRANCH   6  10
ATOM     10  N   UNL A   1      33.181  20.413  23.872  1.00  0.00    -0.338 N 
ATOM     11  C   UNL A   1      32.924  19.072  23.805  1.00  0.00     0.291 C 
ATOM     12  H   UNL A   1      32.648  20.942  23.236  1.00  0.00     0.164 HD
ATOM     13  O   UNL A   1      31.888  18.807  23.182  1.00  0.00    -0.267 OA
BRANCH  11  14
ATOM     14  C   UNL A   1      33.871  17.944  24.303  1.00  0.00     0.267 C 
ATOM     15  C   UNL A   1      34.121  16.880  23.221  1.00  0.00     0.100 C 
BRANCH  14  16
ATOM     16  N   UNL A   1      35.190  18.508  24.744  1.00  0.00    -0.337 N 
ATOM     17  H   UNL A   1      35.563  19.113  24.013  1.00  0.00     0.345 HD
ATOM     18  H   UNL A   1      35.843  17.746  24.922  1.00  0.00     0.345 HD
ATOM     19  H   UNL A   1      35.059  19.049  25.600  1.00  0.00     0.345 HD
ENDBRANCH  14  16
BRANCH  14  20
ATOM     20  C   UNL A   1      33.099  17.199  25.442  1.00  0.00     0.453 C 
ATOM     21  F   UNL A   1      32.523  18.032  26.333  1.00  0.00    -0.164 F 
ATOM     22  F   UNL A   1      32.156  16.350  24.971  1.00  0.00    -0.164 F 
ATOM     23  F   UNL A   1      33.977  16.429  26.148  1.00  0.00    -0.164 F 
ENDBRANCH  14  20
ENDBRANCH  11  14
ENDBRANCH   6  10
ENDBRANCH   3   6
ENDBRANCH   1   2
BRANCH   1  24
ATOM     24  C   UNL A   1      37.839  21.101  24.939  1.00  0.00     0.042 C 
BRANCH  24  25
ATOM     25  C   UNL A   1      38.872  20.920  26.038  1.00  0.00     0.118 C 
BRANCH  25  26
ATOM     26  N   UNL A   1      39.804  19.827  25.797  1.00  0.00    -0.352 N 
ATOM     27  C   UNL A   1      41.169  19.806  25.986  1.00  0.00     0.251 C 
ATOM     28  H   UNL A   1      39.407  18.995  25.452  1.00  0.00     0.163 HD
ATOM     29  O   UNL A   1      41.838  18.839  25.659  1.00  0.00    -0.269 OA
BRANCH  27  30
ATOM     30  C   UNL A   1      41.813  21.013  26.542  1.00  0.00     0.039 A 
ATOM     31  C   UNL A   1      42.260  22.003  25.667  1.00  0.00     0.014 A 
ATOM     32  C   UNL A   1      41.832  21.217  27.924  1.00  0.00     0.014 A 
ATOM     33  C   UNL A   1      42.629  23.247  26.179  1.00  0.00     0.010 A 
ATOM     34  C   UNL A   1      42.080  22.490  28.415  1.00  0.00     0.010 A 
ATOM     35  C   UNL A   1      42.482  23.519  27.550  1.00  0.00    -0.014 A 
BRANCH  35  36
ATOM     36  C   UNL A   1      42.742  24.872  28.105  1.00  0.00     0.031 A 
ATOM     37  C   UNL A   1      44.130  25.239  28.551  1.00  0.00     0.074 A 
ATOM     38  C   UNL A   1      41.722  25.734  28.288  1.00  0.00     0.049 A 
ATOM     39  N   UNL A   1      44.547  26.325  29.149  1.00  0.00    -0.248 NA
ATOM     40  C   UNL A   1      45.181  24.230  28.341  1.00  0.00     0.031 C 
ATOM     41  C   UNL A   1      40.316  25.471  27.969  1.00  0.00     0.029 A 
ATOM     42  N   UNL A   1      41.711  27.007  28.798  1.00  0.00    -0.354 N 
ATOM     43  C   UNL A   1      45.894  26.114  29.413  1.00  0.00     0.074 A 
ATOM     44  C   UNL A   1      46.208  24.774  28.973  1.00  0.00     0.031 C 
ATOM     45  C   UNL A   1      39.588  26.562  28.255  1.00  0.00     0.029 A 
ATOM     46  C   UNL A   1      40.465  27.587  28.811  1.00  0.00     0.049 A 
ATOM     47  H   UNL A   1      42.520  27.463  29.125  1.00  0.00     0.167 HD
ATOM     48  C   UNL A   1      46.797  26.970  29.945  1.00  0.00     0.037 A 
ATOM     49  C   UNL A   1      40.076  28.809  29.221  1.00  0.00     0.037 A 
ATOM     50  C   UNL A   1      46.495  28.322  30.326  1.00  0.00     0.049 A 
ATOM     51  C   UNL A   1      41.106  29.762  29.761  1.00  0.00     0.074 A 
ATOM     52  C   UNL A   1      47.356  29.300  30.792  1.00  0.00     0.029 A 
ATOM     53  N   UNL A   1      45.230  28.888  30.278  1.00  0.00    -0.354 N 
ATOM     54  N   UNL A   1      42.391  29.576  29.935  1.00  0.00    -0.248 NA
ATOM     55  C   UNL A   1      40.632  31.096  30.156  1.00  0.00     0.031 C 
ATOM     56  C   UNL A   1      46.604  30.451  31.055  1.00  0.00     0.029 A 
ATOM     57  C   UNL A   1      45.284  30.200  30.718  1.00  0.00     0.049 A 
ATOM     58  H   UNL A   1      44.415  28.426  29.975  1.00  0.00     0.167 HD
ATOM     59  C   UNL A   1      42.885  30.773  30.436  1.00  0.00     0.074 A 
ATOM     60  C   UNL A   1      41.762  31.683  30.526  1.00  0.00     0.031 C 
ATOM     61  C   UNL A   1      44.154  31.090  30.792  1.00  0.00     0.037 A 
BRANCH  48  62
ATOM     62  C   UNL A   1      48.198  26.464  30.123  1.00  0.00     0.057 A 
ATOM     63  C   UNL A   1      49.164  26.590  29.115  1.00  0.00     0.134 A 
ATOM     64  C   UNL A   1      48.586  25.840  31.315  1.00  0.00     0.134 A 
ATOM     65  F   UNL A   1      48.851  27.162  27.942  1.00  0.00    -0.206 F 
ATOM     66  C   UNL A   1      50.455  26.083  29.271  1.00  0.00     0.040 A 
ATOM     67  C   UNL A   1      49.883  25.355  31.495  1.00  0.00     0.040 A 
ATOM     68  F   UNL A   1      47.712  25.688  32.321  1.00  0.00    -0.206 F 
ATOM     69  C   UNL A   1      50.818  25.468  30.467  1.00  0.00     0.006 A 
ENDBRANCH  48  62
BRANCH  49  70
ATOM     70  C   UNL A   1      38.654  29.217  29.096  1.00  0.00     0.057 A 
ATOM     71  C   UNL A   1      37.797  29.184  30.201  1.00  0.00     0.134 A 
ATOM     72  C   UNL A   1      38.120  29.652  27.877  1.00  0.00     0.134 A 
ATOM     73  F   UNL A   1      38.248  28.760  31.391  1.00  0.00    -0.206 F 
ATOM     74  C   UNL A   1      36.455  29.554  30.099  1.00  0.00     0.040 A 
ATOM     75  C   UNL A   1      36.785  30.047  27.765  1.00  0.00     0.040 A 
ATOM     76  F   UNL A   1      38.892  29.716  26.783  1.00  0.00    -0.206 F 
ATOM     77  C   UNL A   1      35.947  29.992  28.878  1.00  0.00     0.006 A 
ENDBRANCH  49  70
BRANCH  61  78
ATOM     78  C   UNL A   1      44.399  32.486  31.282  1.00  0.00     0.057 A 
ATOM     79  C   UNL A   1      44.347  32.807  32.643  1.00  0.00     0.134 A 
ATOM     80  C   UNL A   1      44.736  33.506  30.384  1.00  0.00     0.134 A 
ATOM     81  F   UNL A   1      44.018  31.876  33.550  1.00  0.00    -0.206 F 
ATOM     82  C   UNL A   1      44.605  34.103  33.094  1.00  0.00     0.040 A 
ATOM     83  C   UNL A   1      45.018  34.799  30.825  1.00  0.00     0.040 A 
ATOM     84  F   UNL A   1      44.810  33.259  29.068  1.00  0.00    -0.206 F 
ATOM     85  C   UNL A   1      44.950  35.100  32.183  1.00  0.00     0.006 A 
ENDBRANCH  61  78
ENDBRANCH  35  36
ENDBRANCH  27  30
ENDBRANCH  25  26
ENDBRANCH  24  25
ENDBRANCH   1  24
TORSDOF 15
ENDMDL
MODEL 3
REMARK VINA RESULT:     -11.0      2.493      6.981
REMARK SMILES CC(C)[C@@H](NC(=O)[C@@](C)([NH3+])C(F)(F)F)C(=O)NCCCNC(=O)c1ccc(-c2c3nc(c(-c4c(F)cccc4F)c4ccc([nH]4)c(-c4c(F)cccc4F)c4nc(c(-c5c(F)cccc5F)c5ccc2[nH]5)C=C4)C=C3)cc1
REMARK SMILES IDX 18 1 17 2 15 3 16 4 4 6 2 7 1 8 3 9 5 10 6 11 7 13 8 14 9 15
REMARK SMILES IDX 10 16 11 20 12 21 13 22 14 23 19 24 20 25 21 26 22 27 23 29
REMARK SMILES IDX 24 30 25 31 77 32 26 33 76 34 27 35 28 36 29 37 70 38 30 39
REMARK SMILES IDX 75 40 69 41 71 42 31 43 74 44 68 45 67 46 32 48 58 49 41 50
REMARK SMILES IDX 57 51 42 52 45 53 56 54 72 55 43 56 44 57 55 59 73 60 46 61
REMARK SMILES IDX 33 62 34 63 39 64 35 65 36 66 38 67 40 68 37 69 59 70 60 71
REMARK SMILES IDX 65 72 61 73 62 74 64 75 66 76 63 77 47 78 48 79 53 80 49 81
REMARK SMILES IDX 50 82 52 83 54 84 51 85
REMARK H PARENT 17 5 5 12 10 17 10 18 10 19 21 28 71 47 45 58
REMARK Flexibility Score: inf
ROOT
ATOM      1  C   UNL A   1      36.873  22.006  25.006  1.00  0.00     0.117 C 
ENDROOT
BRANCH   1   2
ATOM      2  N   UNL A   1      36.061  22.025  26.213  1.00  0.00    -0.354 N 
ATOM      3  C   UNL A   1      34.794  21.549  26.385  1.00  0.00     0.242 C 
ATOM      4  O   UNL A   1      34.388  21.387  27.538  1.00  0.00    -0.273 OA
ATOM      5  H   UNL A   1      36.478  22.434  27.005  1.00  0.00     0.163 HD
BRANCH   3   6
ATOM      6  C   UNL A   1      33.878  21.317  25.179  1.00  0.00     0.174 C 
BRANCH   6   7
ATOM      7  C   UNL A   1      33.562  19.783  25.106  1.00  0.00     0.015 C 
ATOM      8  C   UNL A   1      32.353  19.458  24.228  1.00  0.00     0.010 C 
ATOM      9  C   UNL A   1      34.760  18.946  24.627  1.00  0.00     0.010 C 
ENDBRANCH   6   7
BRANCH   6  10
ATOM     10  N   UNL A   1      32.654  22.129  25.289  1.00  0.00    -0.338 N 
ATOM     11  C   UNL A   1      32.150  23.177  24.570  1.00  0.00     0.291 C 
ATOM     12  H   UNL A   1      32.076  21.860  26.039  1.00  0.00     0.164 HD
ATOM     13  O   UNL A   1      30.955  23.397  24.807  1.00  0.00    -0.267 OA
BRANCH  11  14
ATOM     14  C   UNL A   1      32.974  24.124  23.654  1.00  0.00     0.267 C 
ATOM     15  C   UNL A   1      32.147  25.332  23.181  1.00  0.00     0.100 C 
BRANCH  14  16
ATOM     16  N   UNL A   1      34.200  24.622  24.363  1.00  0.00    -0.337 N 
ATOM     17  H   UNL A   1      34.349  24.075  25.210  1.00  0.00     0.345 HD
ATOM     18  H   UNL A   1      34.076  25.603  24.609  1.00  0.00     0.345 HD
ATOM     19  H   UNL A   1      35.009  24.526  23.749  1.00  0.00     0.345 HD
ENDBRANCH  14  16
BRANCH  14  20
ATOM     20  C   UNL A   1      33.291  23.309  22.357  1.00  0.00     0.453 C 
ATOM     21  F   UNL A   1      32.560  22.181  22.241  1.00  0.00    -0.164 F 
ATOM     22  F   UNL A   1      33.144  24.039  21.228  1.00  0.00    -0.164 F 
ATOM     23  F   UNL A   1      34.598  22.918  22.383  1.00  0.00    -0.164 F 
ENDBRANCH  14  20
ENDBRANCH  11  14
ENDBRANCH   6  10
ENDBRANCH   3   6
ENDBRANCH   1   2
BRANCH   1  24
ATOM     24  C   UNL A   1      37.761  20.783  24.938  1.00  0.00     0.042 C 
BRANCH  24  25
ATOM     25  C   UNL A   1      38.961  20.873  25.865  1.00  0.00     0.118 C 
BRANCH  25  26
ATOM     26  N   UNL A   1      39.872  19.742  25.760  1.00  0.00    -0.352 N 
ATOM     27  C   UNL A   1      41.219  19.695  26.053  1.00  0.00     0.251 C 
ATOM     28  H   UNL A   1      39.476  18.901  25.436  1.00  0.00     0.163 HD
ATOM     29  O   UNL A   1      41.878  18.691  25.836  1.00  0.00    -0.269 OA
BRANCH  27  30
ATOM     30  C   UNL A   1      41.858  20.915  26.584  1.00  0.00     0.039 A 
ATOM     31  C   UNL A   1      42.327  21.875  25.688  1.00  0.00     0.014 A 
ATOM     32  C   UNL A   1      41.852  21.162  27.959  1.00  0.00     0.014 A 
ATOM     33  C   UNL A   1      42.692  23.133  26.168  1.00  0.00     0.010 A 
ATOM     34  C   UNL A   1      42.098  22.449  28.415  1.00  0.00     0.010 A 
ATOM     35  C   UNL A   1      42.521  23.449  27.526  1.00  0.00    -0.014 A 
BRANCH  35  36
ATOM     36  C   UNL A   1      42.777  24.816  28.044  1.00  0.00     0.031 A 
ATOM     37  C   UNL A   1      44.171  25.211  28.446  1.00  0.00     0.074 A 
ATOM     38  C   UNL A   1      41.751  25.670  28.234  1.00  0.00     0.049 A 
ATOM     39  N   UNL A   1      44.589  26.316  29.009  1.00  0.00    -0.248 NA
ATOM     40  C   UNL A   1      45.230  24.211  28.231  1.00  0.00     0.031 C 
ATOM     41  C   UNL A   1      40.341  25.382  27.957  1.00  0.00     0.029 A 
ATOM     42  N   UNL A   1      41.736  26.954  28.716  1.00  0.00    -0.354 N 
ATOM     43  C   UNL A   1      45.944  26.128  29.242  1.00  0.00     0.074 A 
ATOM     44  C   UNL A   1      46.265  24.782  28.825  1.00  0.00     0.031 C 
ATOM     45  C   UNL A   1      39.606  26.471  28.238  1.00  0.00     0.029 A 
ATOM     46  C   UNL A   1      40.484  27.519  28.748  1.00  0.00     0.049 A 
ATOM     47  H   UNL A   1      42.547  27.427  29.011  1.00  0.00     0.167 HD
ATOM     48  C   UNL A   1      46.850  27.006  29.732  1.00  0.00     0.037 A 
ATOM     49  C   UNL A   1      40.089  28.745  29.140  1.00  0.00     0.037 A 
ATOM     50  C   UNL A   1      46.540  28.363  30.090  1.00  0.00     0.049 A 
ATOM     51  C   UNL A   1      41.120  29.722  29.632  1.00  0.00     0.074 A 
ATOM     52  C   UNL A   1      47.399  29.362  30.511  1.00  0.00     0.029 A 
ATOM     53  N   UNL A   1      45.267  28.912  30.062  1.00  0.00    -0.354 N 
ATOM     54  N   UNL A   1      42.412  29.556  29.777  1.00  0.00    -0.248 NA
ATOM     55  C   UNL A   1      40.639  31.059  30.008  1.00  0.00     0.031 C 
ATOM     56  C   UNL A   1      46.640  30.509  30.768  1.00  0.00     0.029 A 
ATOM     57  C   UNL A   1      45.315  30.234  30.471  1.00  0.00     0.049 A 
ATOM     58  H   UNL A   1      44.450  28.433  29.791  1.00  0.00     0.167 HD
ATOM     59  C   UNL A   1      42.902  30.771  30.238  1.00  0.00     0.074 A 
ATOM     60  C   UNL A   1      41.770  31.668  30.336  1.00  0.00     0.031 C 
ATOM     61  C   UNL A   1      44.175  31.112  30.554  1.00  0.00     0.037 A 
BRANCH  48  62
ATOM     62  C   UNL A   1      48.261  26.522  29.885  1.00  0.00     0.057 A 
ATOM     63  C   UNL A   1      48.700  25.876  31.049  1.00  0.00     0.134 A 
ATOM     64  C   UNL A   1      49.195  26.706  28.857  1.00  0.00     0.134 A 
ATOM     65  F   UNL A   1      47.860  25.685  32.077  1.00  0.00    -0.206 F 
ATOM     66  C   UNL A   1      50.024  25.463  31.201  1.00  0.00     0.040 A 
ATOM     67  C   UNL A   1      50.515  26.271  28.986  1.00  0.00     0.040 A 
ATOM     68  F   UNL A   1      48.842  27.315  27.716  1.00  0.00    -0.206 F 
ATOM     69  C   UNL A   1      50.935  25.655  30.164  1.00  0.00     0.006 A 
ENDBRANCH  48  62
BRANCH  49  70
ATOM     70  C   UNL A   1      38.660  29.132  29.042  1.00  0.00     0.057 A 
ATOM     71  C   UNL A   1      38.122  29.598  27.837  1.00  0.00     0.134 A 
ATOM     72  C   UNL A   1      37.798  29.043  30.141  1.00  0.00     0.134 A 
ATOM     73  F   UNL A   1      38.904  29.721  26.754  1.00  0.00    -0.206 F 
ATOM     74  C   UNL A   1      36.783  29.976  27.729  1.00  0.00     0.040 A 
ATOM     75  C   UNL A   1      36.450  29.397  30.043  1.00  0.00     0.040 A 
ATOM     76  F   UNL A   1      38.249  28.595  31.322  1.00  0.00    -0.206 F 
ATOM     77  C   UNL A   1      35.942  29.871  28.835  1.00  0.00     0.006 A 
ENDBRANCH  49  70
BRANCH  61  78
ATOM     78  C   UNL A   1      44.415  32.521  31.006  1.00  0.00     0.057 A 
ATOM     79  C   UNL A   1      44.671  33.552  30.094  1.00  0.00     0.134 A 
ATOM     80  C   UNL A   1      44.340  32.855  32.364  1.00  0.00     0.134 A 
ATOM     81  F   UNL A   1      44.767  33.292  28.782  1.00  0.00    -0.206 F 
ATOM     82  C   UNL A   1      44.864  34.867  30.521  1.00  0.00     0.040 A 
ATOM     83  C   UNL A   1      44.508  34.170  32.799  1.00  0.00     0.040 A 
ATOM     84  F   UNL A   1      44.089  31.914  33.285  1.00  0.00    -0.206 F 
ATOM     85  C   UNL A   1      44.774  35.179  31.876  1.00  0.00     0.006 A 
ENDBRANCH  61  78
ENDBRANCH  35  36
ENDBRANCH  27  30
ENDBRANCH  25  26
ENDBRANCH  24  25
ENDBRANCH   1  24
TORSDOF 15
ENDMDL
