MODEL 1
REMARK VINA RESULT:     -12.0      0.000      0.000
REMARK SMILES Cc1c(Br)c(C)c2c(c1Br)O[C@H](C(F)(F)F)C(C(=O)NCCCNC(=O)c1ccc(-c3c4nc(c(-c5c(F)cccc5F)c5ccc([nH]5)c(-c5c(F)cccc5F)c5nc(c(-c6c(F)cccc6F)c6ccc3[nH]6)C=C5)C=C4)cc1)=C2
REMARK SMILES IDX 22 1 21 2 20 3 18 4 19 5 17 7 1 8 2 9 3 10 9 11 4 12 5 13
REMARK SMILES IDX 8 14 10 15 6 16 7 17 11 18 81 19 12 20 13 21 14 22 15 23
REMARK SMILES IDX 16 24 23 25 24 26 25 27 26 29 27 30 28 31 80 32 29 33 79 34
REMARK SMILES IDX 30 35 31 36 32 37 73 38 33 39 78 40 72 41 74 42 34 43 77 44
REMARK SMILES IDX 71 45 70 46 35 48 61 49 44 50 60 51 45 52 48 53 59 54 75 55
REMARK SMILES IDX 46 56 47 57 58 59 76 60 49 61 36 62 37 63 42 64 38 65 39 66
REMARK SMILES IDX 41 67 43 68 40 69 62 70 63 71 68 72 64 73 65 74 67 75 69 76
REMARK SMILES IDX 66 77 50 78 51 79 56 80 52 81 53 82 55 83 57 84 54 85
REMARK H PARENT 20 6 24 28 74 47 48 58
REMARK Flexibility Score: inf
ROOT
ATOM      1  C   UNL A   1      34.065  28.244  24.931  1.00  0.00     0.042 C 
ENDROOT
BRANCH   1   2
ATOM      2  C   UNL A   1      32.994  27.315  24.380  1.00  0.00     0.118 C 
BRANCH   2   3
ATOM      3  N   UNL A   1      32.088  26.857  25.423  1.00  0.00    -0.352 N 
ATOM      4  C   UNL A   1      31.770  25.685  26.017  1.00  0.00     0.251 C 
ATOM      5  O   UNL A   1      30.899  25.757  26.890  1.00  0.00    -0.270 OA
ATOM      6  H   UNL A   1      31.566  27.604  25.797  1.00  0.00     0.163 HD
BRANCH   4   7
ATOM      7  C   UNL A   1      32.386  24.367  25.692  1.00  0.00     0.067 C 
ATOM      8  C   UNL A   1      36.171  19.104  24.745  1.00  0.00     0.047 C 
ATOM      9  C   UNL A   1      35.573  20.451  25.079  1.00  0.00    -0.019 A 
ATOM     10  C   UNL A   1      36.373  21.577  25.406  1.00  0.00     0.025 A 
ATOM     11  C   UNL A   1      34.180  20.629  25.011  1.00  0.00     0.064 A 
ATOM     12  Br  UNL A   1      38.284  21.387  25.404  1.00  0.00    -0.050 Br
ATOM     13  C   UNL A   1      35.794  22.838  25.713  1.00  0.00    -0.026 A 
ATOM     14  C   UNL A   1      33.599  21.870  25.305  1.00  0.00     0.142 A 
ATOM     15  Br  UNL A   1      33.020  19.202  24.464  1.00  0.00    -0.046 Br
ATOM     16  C   UNL A   1      36.626  24.047  26.088  1.00  0.00     0.046 C 
ATOM     17  C   UNL A   1      34.386  22.972  25.663  1.00  0.00     0.022 A 
ATOM     18  O   UNL A   1      32.232  21.941  25.281  1.00  0.00    -0.474 OA
ATOM     19  C   UNL A   1      33.691  24.227  25.989  1.00  0.00     0.026 C 
ATOM     20  C   UNL A   1      31.647  23.240  25.046  1.00  0.00     0.314 C 
BRANCH  20  21
ATOM     21  C   UNL A   1      31.421  23.453  23.537  1.00  0.00     0.429 C 
ATOM     22  F   UNL A   1      32.373  24.274  23.028  1.00  0.00    -0.167 F 
ATOM     23  F   UNL A   1      31.495  22.298  22.832  1.00  0.00    -0.167 F 
ATOM     24  F   UNL A   1      30.218  24.003  23.261  1.00  0.00    -0.167 F 
ENDBRANCH  20  21
ENDBRANCH   4   7
ENDBRANCH   2   3
ENDBRANCH   1   2
BRANCH   1  25
ATOM     25  C   UNL A   1      34.036  28.303  26.451  1.00  0.00     0.118 C 
BRANCH  25  26
ATOM     26  N   UNL A   1      33.801  29.661  26.934  1.00  0.00    -0.352 N 
ATOM     27  C   UNL A   1      34.526  30.424  27.812  1.00  0.00     0.251 C 
ATOM     28  H   UNL A   1      32.996  30.098  26.573  1.00  0.00     0.163 HD
ATOM     29  O   UNL A   1      34.019  31.423  28.323  1.00  0.00    -0.269 OA
BRANCH  27  30
ATOM     30  C   UNL A   1      35.912  30.051  28.142  1.00  0.00     0.039 A 
ATOM     31  C   UNL A   1      36.197  29.492  29.391  1.00  0.00     0.014 A 
ATOM     32  C   UNL A   1      36.937  30.279  27.221  1.00  0.00     0.014 A 
ATOM     33  C   UNL A   1      37.505  29.109  29.688  1.00  0.00     0.010 A 
ATOM     34  C   UNL A   1      38.212  29.801  27.475  1.00  0.00     0.010 A 
ATOM     35  C   UNL A   1      38.515  29.232  28.719  1.00  0.00    -0.014 A 
BRANCH  35  36
ATOM     36  C   UNL A   1      39.908  28.817  28.998  1.00  0.00     0.031 A 
ATOM     37  C   UNL A   1      40.836  29.763  29.709  1.00  0.00     0.074 A 
ATOM     38  C   UNL A   1      40.349  27.622  28.562  1.00  0.00     0.049 A 
ATOM     39  N   UNL A   1      42.106  29.621  29.987  1.00  0.00    -0.248 NA
ATOM     40  C   UNL A   1      40.270  31.053  30.141  1.00  0.00     0.031 C 
ATOM     41  C   UNL A   1      39.547  26.642  27.826  1.00  0.00     0.029 A 
ATOM     42  N   UNL A   1      41.579  27.028  28.676  1.00  0.00    -0.354 N 
ATOM     43  C   UNL A   1      42.486  30.799  30.615  1.00  0.00     0.074 A 
ATOM     44  C   UNL A   1      41.338  31.676  30.614  1.00  0.00     0.031 C 
ATOM     45  C   UNL A   1      40.296  25.553  27.589  1.00  0.00     0.029 A 
ATOM     46  C   UNL A   1      41.638  25.774  28.118  1.00  0.00     0.049 A 
ATOM     47  H   UNL A   1      42.347  27.459  29.115  1.00  0.00     0.167 HD
ATOM     48  C   UNL A   1      43.677  31.107  31.179  1.00  0.00     0.037 A 
ATOM     49  C   UNL A   1      42.661  24.903  28.045  1.00  0.00     0.037 A 
ATOM     50  C   UNL A   1      44.805  30.217  31.202  1.00  0.00     0.049 A 
ATOM     51  C   UNL A   1      43.984  25.280  28.653  1.00  0.00     0.074 A 
ATOM     52  C   UNL A   1      46.043  30.414  31.786  1.00  0.00     0.029 A 
ATOM     53  N   UNL A   1      44.829  28.959  30.619  1.00  0.00    -0.354 N 
ATOM     54  N   UNL A   1      44.315  26.377  29.293  1.00  0.00    -0.248 NA
ATOM     55  C   UNL A   1      45.074  24.304  28.529  1.00  0.00     0.031 C 
ATOM     56  C   UNL A   1      46.833  29.293  31.515  1.00  0.00     0.029 A 
ATOM     57  C   UNL A   1      46.070  28.376  30.808  1.00  0.00     0.049 A 
ATOM     58  H   UNL A   1      44.076  28.542  30.141  1.00  0.00     0.167 HD
ATOM     59  C   UNL A   1      45.642  26.213  29.667  1.00  0.00     0.074 A 
ATOM     60  C   UNL A   1      46.049  24.904  29.199  1.00  0.00     0.031 C 
ATOM     61  C   UNL A   1      46.452  27.070  30.336  1.00  0.00     0.037 A 
BRANCH  48  62
ATOM     62  C   UNL A   1      43.810  32.450  31.835  1.00  0.00     0.057 A 
ATOM     63  C   UNL A   1      44.198  33.586  31.113  1.00  0.00     0.134 A 
ATOM     64  C   UNL A   1      43.500  32.621  33.190  1.00  0.00     0.134 A 
ATOM     65  F   UNL A   1      44.525  33.489  29.815  1.00  0.00    -0.206 F 
ATOM     66  C   UNL A   1      44.291  34.841  31.718  1.00  0.00     0.040 A 
ATOM     67  C   UNL A   1      43.561  33.875  33.799  1.00  0.00     0.040 A 
ATOM     68  F   UNL A   1      43.119  31.576  33.940  1.00  0.00    -0.206 F 
ATOM     69  C   UNL A   1      43.961  34.989  33.063  1.00  0.00     0.006 A 
ENDBRANCH  48  62
BRANCH  49  70
ATOM     70  C   UNL A   1      42.460  23.577  27.408  1.00  0.00     0.057 A 
ATOM     71  C   UNL A   1      42.669  23.400  26.037  1.00  0.00     0.134 A 
ATOM     72  C   UNL A   1      42.077  22.453  28.151  1.00  0.00     0.134 A 
ATOM     73  F   UNL A   1      43.023  24.441  25.269  1.00  0.00    -0.206 F 
ATOM     74  C   UNL A   1      42.495  22.158  25.423  1.00  0.00     0.040 A 
ATOM     75  C   UNL A   1      41.924  21.200  27.556  1.00  0.00     0.040 A 
ATOM     76  F   UNL A   1      41.869  22.553  29.473  1.00  0.00    -0.206 F 
ATOM     77  C   UNL A   1      42.128  21.052  26.186  1.00  0.00     0.006 A 
ENDBRANCH  49  70
BRANCH  61  78
ATOM     78  C   UNL A   1      47.856  26.622  30.616  1.00  0.00     0.057 A 
ATOM     79  C   UNL A   1      48.178  25.890  31.766  1.00  0.00     0.134 A 
ATOM     80  C   UNL A   1      48.878  26.850  29.685  1.00  0.00     0.134 A 
ATOM     81  F   UNL A   1      47.246  25.647  32.700  1.00  0.00    -0.206 F 
ATOM     82  C   UNL A   1      49.470  25.410  31.985  1.00  0.00     0.040 A 
ATOM     83  C   UNL A   1      50.166  26.350  29.880  1.00  0.00     0.040 A 
ATOM     84  F   UNL A   1      48.632  27.533  28.557  1.00  0.00    -0.206 F 
ATOM     85  C   UNL A   1      50.465  25.630  31.034  1.00  0.00     0.006 A 
ENDBRANCH  61  78
ENDBRANCH  35  36
ENDBRANCH  27  30
ENDBRANCH  25  26
ENDBRANCH   1  25
TORSDOF 11
ENDMDL
MODEL 2
REMARK VINA RESULT:     -11.9      2.922      7.322
REMARK SMILES Cc1c(Br)c(C)c2c(c1Br)O[C@H](C(F)(F)F)C(C(=O)NCCCNC(=O)c1ccc(-c3c4nc(c(-c5c(F)cccc5F)c5ccc([nH]5)c(-c5c(F)cccc5F)c5nc(c(-c6c(F)cccc6F)c6ccc3[nH]6)C=C5)C=C4)cc1)=C2
REMARK SMILES IDX 22 1 21 2 20 3 18 4 19 5 17 7 1 8 2 9 3 10 9 11 4 12 5 13
REMARK SMILES IDX 8 14 10 15 6 16 7 17 11 18 81 19 12 20 13 21 14 22 15 23
REMARK SMILES IDX 16 24 23 25 24 26 25 27 26 29 27 30 28 31 80 32 29 33 79 34
REMARK SMILES IDX 30 35 31 36 32 37 73 38 33 39 78 40 72 41 74 42 34 43 77 44
REMARK SMILES IDX 71 45 70 46 35 48 61 49 44 50 60 51 45 52 48 53 59 54 75 55
REMARK SMILES IDX 46 56 47 57 58 59 76 60 49 61 36 62 37 63 42 64 38 65 39 66
REMARK SMILES IDX 41 67 43 68 40 69 62 70 63 71 68 72 64 73 65 74 67 75 69 76
REMARK SMILES IDX 66 77 50 78 51 79 56 80 52 81 53 82 55 83 57 84 54 85
REMARK H PARENT 20 6 24 28 74 47 48 58
REMARK Flexibility Score: inf
ROOT
ATOM      1  C   UNL A   1      37.702  19.719  24.813  1.00  0.00     0.042 C 
ENDROOT
BRANCH   1   2
ATOM      2  C   UNL A   1      36.392  20.465  25.012  1.00  0.00     0.118 C 
BRANCH   2   3
ATOM      3  N   UNL A   1      35.251  19.562  24.999  1.00  0.00    -0.352 N 
ATOM      4  C   UNL A   1      33.903  19.666  25.009  1.00  0.00     0.251 C 
ATOM      5  O   UNL A   1      33.291  18.593  25.000  1.00  0.00    -0.270 OA
ATOM      6  H   UNL A   1      35.538  18.620  24.976  1.00  0.00     0.163 HD
BRANCH   4   7
ATOM      7  C   UNL A   1      33.145  20.950  25.030  1.00  0.00     0.067 C 
ATOM      8  C   UNL A   1      30.124  26.646  23.868  1.00  0.00     0.047 C 
ATOM      9  C   UNL A   1      30.902  25.352  23.819  1.00  0.00    -0.019 A 
ATOM     10  C   UNL A   1      31.731  25.004  22.721  1.00  0.00     0.025 A 
ATOM     11  C   UNL A   1      30.862  24.475  24.919  1.00  0.00     0.064 A 
ATOM     12  Br  UNL A   1      31.886  26.231  21.253  1.00  0.00    -0.050 Br
ATOM     13  C   UNL A   1      32.460  23.784  22.695  1.00  0.00    -0.026 A 
ATOM     14  C   UNL A   1      31.582  23.274  24.907  1.00  0.00     0.142 A 
ATOM     15  Br  UNL A   1      29.866  24.909  26.501  1.00  0.00    -0.046 Br
ATOM     16  C   UNL A   1      33.332  23.381  21.524  1.00  0.00     0.046 C 
ATOM     17  C   UNL A   1      32.372  22.914  23.808  1.00  0.00     0.022 A 
ATOM     18  O   UNL A   1      31.436  22.446  25.988  1.00  0.00    -0.474 OA
ATOM     19  C   UNL A   1      33.067  21.618  23.865  1.00  0.00     0.026 C 
ATOM     20  C   UNL A   1      32.512  21.523  26.257  1.00  0.00     0.314 C 
BRANCH  20  21
ATOM     21  C   UNL A   1      33.531  22.163  27.219  1.00  0.00     0.429 C 
ATOM     22  F   UNL A   1      32.901  22.645  28.320  1.00  0.00    -0.167 F 
ATOM     23  F   UNL A   1      34.453  21.276  27.665  1.00  0.00    -0.167 F 
ATOM     24  F   UNL A   1      34.211  23.185  26.657  1.00  0.00    -0.167 F 
ENDBRANCH  20  21
ENDBRANCH   4   7
ENDBRANCH   2   3
ENDBRANCH   1   2
BRANCH   1  25
ATOM     25  C   UNL A   1      38.824  20.309  25.655  1.00  0.00     0.118 C 
BRANCH  25  26
ATOM     26  N   UNL A   1      39.906  19.350  25.861  1.00  0.00    -0.352 N 
ATOM     27  C   UNL A   1      41.234  19.559  26.126  1.00  0.00     0.251 C 
ATOM     28  H   UNL A   1      39.640  18.404  25.801  1.00  0.00     0.163 HD
ATOM     29  O   UNL A   1      42.043  18.644  25.975  1.00  0.00    -0.269 OA
BRANCH  27  30
ATOM     30  C   UNL A   1      41.693  20.878  26.593  1.00  0.00     0.039 A 
ATOM     31  C   UNL A   1      42.167  21.812  25.668  1.00  0.00     0.014 A 
ATOM     32  C   UNL A   1      41.678  21.183  27.957  1.00  0.00     0.014 A 
ATOM     33  C   UNL A   1      42.570  23.072  26.110  1.00  0.00     0.010 A 
ATOM     34  C   UNL A   1      41.976  22.467  28.381  1.00  0.00     0.010 A 
ATOM     35  C   UNL A   1      42.446  23.418  27.466  1.00  0.00    -0.014 A 
BRANCH  35  36
ATOM     36  C   UNL A   1      42.847  24.754  27.963  1.00  0.00     0.031 A 
ATOM     37  C   UNL A   1      41.796  25.802  28.205  1.00  0.00     0.074 A 
ATOM     38  C   UNL A   1      44.152  25.036  28.139  1.00  0.00     0.049 A 
ATOM     39  N   UNL A   1      41.943  27.048  28.573  1.00  0.00    -0.248 NA
ATOM     40  C   UNL A   1      40.396  25.406  27.978  1.00  0.00     0.031 C 
ATOM     41  C   UNL A   1      45.258  24.108  27.896  1.00  0.00     0.029 A 
ATOM     42  N   UNL A   1      44.767  26.185  28.565  1.00  0.00    -0.354 N 
ATOM     43  C   UNL A   1      40.662  27.581  28.612  1.00  0.00     0.074 A 
ATOM     44  C   UNL A   1      39.755  26.550  28.162  1.00  0.00     0.031 C 
ATOM     45  C   UNL A   1      46.415  24.713  28.215  1.00  0.00     0.029 A 
ATOM     46  C   UNL A   1      46.135  26.079  28.643  1.00  0.00     0.049 A 
ATOM     47  H   UNL A   1      44.276  27.006  28.793  1.00  0.00     0.167 HD
ATOM     48  C   UNL A   1      40.272  28.809  29.025  1.00  0.00     0.037 A 
ATOM     49  C   UNL A   1      47.056  26.986  29.019  1.00  0.00     0.037 A 
ATOM     50  C   UNL A   1      41.177  29.818  29.500  1.00  0.00     0.049 A 
ATOM     51  C   UNL A   1      46.600  28.354  29.446  1.00  0.00     0.074 A 
ATOM     52  C   UNL A   1      40.882  31.080  29.984  1.00  0.00     0.029 A 
ATOM     53  N   UNL A   1      42.556  29.677  29.555  1.00  0.00    -0.354 N 
ATOM     54  N   UNL A   1      45.379  28.828  29.530  1.00  0.00    -0.248 NA
ATOM     55  C   UNL A   1      47.644  29.313  29.828  1.00  0.00     0.031 C 
ATOM     56  C   UNL A   1      42.086  31.720  30.288  1.00  0.00     0.029 A 
ATOM     57  C   UNL A   1      43.129  30.839  30.043  1.00  0.00     0.049 A 
ATOM     58  H   UNL A   1      43.054  28.871  29.288  1.00  0.00     0.167 HD
ATOM     59  C   UNL A   1      45.507  30.130  29.995  1.00  0.00     0.074 A 
ATOM     60  C   UNL A   1      46.923  30.364  30.193  1.00  0.00     0.031 C 
ATOM     61  C   UNL A   1      44.541  31.050  30.236  1.00  0.00     0.037 A 
BRANCH  48  62
ATOM     62  C   UNL A   1      38.803  29.117  29.003  1.00  0.00     0.057 A 
ATOM     63  C   UNL A   1      38.013  29.010  30.155  1.00  0.00     0.134 A 
ATOM     64  C   UNL A   1      38.182  29.574  27.834  1.00  0.00     0.134 A 
ATOM     65  F   UNL A   1      38.542  28.563  31.304  1.00  0.00    -0.206 F 
ATOM     66  C   UNL A   1      36.653  29.328  30.141  1.00  0.00     0.040 A 
ATOM     67  C   UNL A   1      36.831  29.923  27.815  1.00  0.00     0.040 A 
ATOM     68  F   UNL A   1      38.881  29.703  26.696  1.00  0.00    -0.206 F 
ATOM     69  C   UNL A   1      36.062  29.797  28.970  1.00  0.00     0.006 A 
ENDBRANCH  48  62
BRANCH  49  70
ATOM     70  C   UNL A   1      48.493  26.612  29.048  1.00  0.00     0.057 A 
ATOM     71  C   UNL A   1      49.327  26.886  27.959  1.00  0.00     0.134 A 
ATOM     72  C   UNL A   1      49.072  25.997  30.165  1.00  0.00     0.134 A 
ATOM     73  F   UNL A   1      48.829  27.461  26.855  1.00  0.00    -0.206 F 
ATOM     74  C   UNL A   1      50.683  26.551  27.973  1.00  0.00     0.040 A 
ATOM     75  C   UNL A   1      50.430  25.680  30.203  1.00  0.00     0.040 A 
ATOM     76  F   UNL A   1      48.328  25.716  31.246  1.00  0.00    -0.206 F 
ATOM     77  C   UNL A   1      51.239  25.953  29.101  1.00  0.00     0.006 A 
ENDBRANCH  49  70
BRANCH  61  78
ATOM     78  C   UNL A   1      44.972  32.391  30.749  1.00  0.00     0.057 A 
ATOM     79  C   UNL A   1      45.245  33.456  29.882  1.00  0.00     0.134 A 
ATOM     80  C   UNL A   1      45.032  32.644  32.126  1.00  0.00     0.134 A 
ATOM     81  F   UNL A   1      45.215  33.276  28.553  1.00  0.00    -0.206 F 
ATOM     82  C   UNL A   1      45.572  34.724  30.366  1.00  0.00     0.040 A 
ATOM     83  C   UNL A   1      45.329  33.914  32.622  1.00  0.00     0.040 A 
ATOM     84  F   UNL A   1      44.769  31.669  33.010  1.00  0.00    -0.206 F 
ATOM     85  C   UNL A   1      45.603  34.957  31.740  1.00  0.00     0.006 A 
ENDBRANCH  61  78
ENDBRANCH  35  36
ENDBRANCH  27  30
ENDBRANCH  25  26
ENDBRANCH   1  25
TORSDOF 11
ENDMDL
MODEL 3
REMARK VINA RESULT:     -11.9      2.869      7.397
REMARK SMILES Cc1c(Br)c(C)c2c(c1Br)O[C@H](C(F)(F)F)C(C(=O)NCCCNC(=O)c1ccc(-c3c4nc(c(-c5c(F)cccc5F)c5ccc([nH]5)c(-c5c(F)cccc5F)c5nc(c(-c6c(F)cccc6F)c6ccc3[nH]6)C=C5)C=C4)cc1)=C2
REMARK SMILES IDX 22 1 21 2 20 3 18 4 19 5 17 7 1 8 2 9 3 10 9 11 4 12 5 13
REMARK SMILES IDX 8 14 10 15 6 16 7 17 11 18 81 19 12 20 13 21 14 22 15 23
REMARK SMILES IDX 16 24 23 25 24 26 25 27 26 29 27 30 28 31 80 32 29 33 79 34
REMARK SMILES IDX 30 35 31 36 32 37 73 38 33 39 78 40 72 41 74 42 34 43 77 44
REMARK SMILES IDX 71 45 70 46 35 48 61 49 44 50 60 51 45 52 48 53 59 54 75 55
REMARK SMILES IDX 46 56 47 57 58 59 76 60 49 61 36 62 37 63 42 64 38 65 39 66
REMARK SMILES IDX 41 67 43 68 40 69 62 70 63 71 68 72 64 73 65 74 67 75 69 76
REMARK SMILES IDX 66 77 50 78 51 79 56 80 52 81 53 82 55 83 57 84 54 85
REMARK H PARENT 20 6 24 28 74 47 48 58
REMARK Flexibility Score: inf
ROOT
ATOM      1  C   UNL A   1      37.784  19.768  24.821  1.00  0.00     0.042 C 
ENDROOT
BRANCH   1   2
ATOM      2  C   UNL A   1      36.460  20.484  25.033  1.00  0.00     0.118 C 
BRANCH   2   3
ATOM      3  N   UNL A   1      35.335  19.562  24.985  1.00  0.00    -0.352 N 
ATOM      4  C   UNL A   1      33.985  19.644  24.974  1.00  0.00     0.251 C 
ATOM      5  O   UNL A   1      33.392  18.560  24.936  1.00  0.00    -0.270 OA
ATOM      6  H   UNL A   1      35.638  18.626  24.950  1.00  0.00     0.163 HD
BRANCH   4   7
ATOM      7  C   UNL A   1      33.205  20.914  25.005  1.00  0.00     0.067 C 
ATOM      8  C   UNL A   1      30.094  26.570  23.889  1.00  0.00     0.047 C 
ATOM      9  C   UNL A   1      30.894  25.290  23.832  1.00  0.00    -0.019 A 
ATOM     10  C   UNL A   1      31.738  24.971  22.736  1.00  0.00     0.025 A 
ATOM     11  C   UNL A   1      30.861  24.400  24.920  1.00  0.00     0.064 A 
ATOM     12  Br  UNL A   1      31.882  26.219  21.283  1.00  0.00    -0.050 Br
ATOM     13  C   UNL A   1      32.488  23.764  22.700  1.00  0.00    -0.026 A 
ATOM     14  C   UNL A   1      31.603  23.211  24.898  1.00  0.00     0.142 A 
ATOM     15  Br  UNL A   1      29.846  24.796  26.499  1.00  0.00    -0.046 Br
ATOM     16  C   UNL A   1      33.375  23.391  21.531  1.00  0.00     0.046 C 
ATOM     17  C   UNL A   1      32.407  22.879  23.801  1.00  0.00     0.022 A 
ATOM     18  O   UNL A   1      31.462  22.368  25.968  1.00  0.00    -0.474 OA
ATOM     19  C   UNL A   1      33.124  21.595  23.848  1.00  0.00     0.026 C 
ATOM     20  C   UNL A   1      32.553  21.460  26.234  1.00  0.00     0.314 C 
BRANCH  20  21
ATOM     21  C   UNL A   1      33.553  22.105  27.212  1.00  0.00     0.429 C 
ATOM     22  F   UNL A   1      34.388  21.165  27.722  1.00  0.00    -0.167 F 
ATOM     23  F   UNL A   1      34.340  23.032  26.614  1.00  0.00    -0.167 F 
ATOM     24  F   UNL A   1      32.946  22.720  28.251  1.00  0.00    -0.167 F 
ENDBRANCH  20  21
ENDBRANCH   4   7
ENDBRANCH   2   3
ENDBRANCH   1   2
BRANCH   1  25
ATOM     25  C   UNL A   1      38.873  20.306  25.738  1.00  0.00     0.118 C 
BRANCH  25  26
ATOM     26  N   UNL A   1      39.997  19.379  25.844  1.00  0.00    -0.352 N 
ATOM     27  C   UNL A   1      41.327  19.625  26.065  1.00  0.00     0.251 C 
ATOM     28  H   UNL A   1      39.763  18.429  25.739  1.00  0.00     0.163 HD
ATOM     29  O   UNL A   1      42.161  18.752  25.827  1.00  0.00    -0.269 OA
BRANCH  27  30
ATOM     30  C   UNL A   1      41.757  20.932  26.589  1.00  0.00     0.039 A 
ATOM     31  C   UNL A   1      42.187  21.924  25.703  1.00  0.00     0.014 A 
ATOM     32  C   UNL A   1      41.759  21.169  27.966  1.00  0.00     0.014 A 
ATOM     33  C   UNL A   1      42.563  23.171  26.200  1.00  0.00     0.010 A 
ATOM     34  C   UNL A   1      42.028  22.439  28.448  1.00  0.00     0.010 A 
ATOM     35  C   UNL A   1      42.455  23.447  27.574  1.00  0.00    -0.014 A 
BRANCH  35  36
ATOM     36  C   UNL A   1      42.828  24.767  28.129  1.00  0.00     0.031 A 
ATOM     37  C   UNL A   1      41.767  25.815  28.327  1.00  0.00     0.074 A 
ATOM     38  C   UNL A   1      44.118  25.037  28.399  1.00  0.00     0.049 A 
ATOM     39  N   UNL A   1      41.895  27.052  28.735  1.00  0.00    -0.248 NA
ATOM     40  C   UNL A   1      40.384  25.434  27.996  1.00  0.00     0.031 C 
ATOM     41  C   UNL A   1      45.235  24.109  28.207  1.00  0.00     0.029 A 
ATOM     42  N   UNL A   1      44.709  26.171  28.893  1.00  0.00    -0.354 N 
ATOM     43  C   UNL A   1      40.616  27.591  28.701  1.00  0.00     0.074 A 
ATOM     44  C   UNL A   1      39.737  26.577  28.166  1.00  0.00     0.031 C 
ATOM     45  C   UNL A   1      46.370  24.699  28.617  1.00  0.00     0.029 A 
ATOM     46  C   UNL A   1      46.068  26.056  29.060  1.00  0.00     0.049 A 
ATOM     47  H   UNL A   1      44.207  26.990  29.108  1.00  0.00     0.167 HD
ATOM     48  C   UNL A   1      40.204  28.810  29.117  1.00  0.00     0.037 A 
ATOM     49  C   UNL A   1      46.966  26.948  29.519  1.00  0.00     0.037 A 
ATOM     50  C   UNL A   1      41.081  29.803  29.677  1.00  0.00     0.049 A 
ATOM     51  C   UNL A   1      46.488  28.308  29.948  1.00  0.00     0.074 A 
ATOM     52  C   UNL A   1      40.759  31.053  30.171  1.00  0.00     0.029 A 
ATOM     53  N   UNL A   1      42.452  29.652  29.820  1.00  0.00    -0.354 N 
ATOM     54  N   UNL A   1      45.267  28.787  29.962  1.00  0.00    -0.248 NA
ATOM     55  C   UNL A   1      47.509  29.250  30.423  1.00  0.00     0.031 C 
ATOM     56  C   UNL A   1      41.943  31.679  30.571  1.00  0.00     0.029 A 
ATOM     57  C   UNL A   1      42.996  30.798  30.374  1.00  0.00     0.049 A 
ATOM     58  H   UNL A   1      42.963  28.850  29.567  1.00  0.00     0.167 HD
ATOM     59  C   UNL A   1      45.369  30.076  30.467  1.00  0.00     0.074 A 
ATOM     60  C   UNL A   1      46.770  30.297  30.764  1.00  0.00     0.031 C 
ATOM     61  C   UNL A   1      44.393  30.995  30.665  1.00  0.00     0.037 A 
BRANCH  48  62
ATOM     62  C   UNL A   1      38.742  29.128  29.005  1.00  0.00     0.057 A 
ATOM     63  C   UNL A   1      37.885  29.041  30.110  1.00  0.00     0.134 A 
ATOM     64  C   UNL A   1      38.194  29.574  27.796  1.00  0.00     0.134 A 
ATOM     65  F   UNL A   1      38.342  28.605  31.294  1.00  0.00    -0.206 F 
ATOM     66  C   UNL A   1      36.531  29.367  30.012  1.00  0.00     0.040 A 
ATOM     67  C   UNL A   1      36.849  29.931  27.693  1.00  0.00     0.040 A 
ATOM     68  F   UNL A   1      38.959  29.684  26.700  1.00  0.00    -0.206 F 
ATOM     69  C   UNL A   1      36.012  29.825  28.803  1.00  0.00     0.006 A 
ENDBRANCH  48  62
BRANCH  49  70
ATOM     70  C   UNL A   1      48.396  26.565  29.634  1.00  0.00     0.057 A 
ATOM     71  C   UNL A   1      48.890  25.981  30.806  1.00  0.00     0.134 A 
ATOM     72  C   UNL A   1      49.296  26.749  28.578  1.00  0.00     0.134 A 
ATOM     73  F   UNL A   1      48.080  25.792  31.858  1.00  0.00    -0.206 F 
ATOM     74  C   UNL A   1      50.229  25.605  30.929  1.00  0.00     0.040 A 
ATOM     75  C   UNL A   1      50.631  26.354  28.677  1.00  0.00     0.040 A 
ATOM     76  F   UNL A   1      48.884  27.295  27.424  1.00  0.00    -0.206 F 
ATOM     77  C   UNL A   1      51.101  25.785  29.858  1.00  0.00     0.006 A 
ENDBRANCH  49  70
BRANCH  61  78
ATOM     78  C   UNL A   1      44.795  32.321  31.240  1.00  0.00     0.057 A 
ATOM     79  C   UNL A   1      45.110  33.411  30.419  1.00  0.00     0.134 A 
ATOM     80  C   UNL A   1      44.782  32.534  32.624  1.00  0.00     0.134 A 
ATOM     81  F   UNL A   1      45.151  33.270  29.086  1.00  0.00    -0.206 F 
ATOM     82  C   UNL A   1      45.410  34.664  30.956  1.00  0.00     0.040 A 
ATOM     83  C   UNL A   1      45.051  33.789  33.172  1.00  0.00     0.040 A 
ATOM     84  F   UNL A   1      44.474  31.534  33.464  1.00  0.00    -0.206 F 
ATOM     85  C   UNL A   1      45.369  34.857  32.336  1.00  0.00     0.006 A 
ENDBRANCH  61  78
ENDBRANCH  35  36
ENDBRANCH  27  30
ENDBRANCH  25  26
ENDBRANCH   1  25
TORSDOF 11
ENDMDL
