MODEL 1
REMARK VINA RESULT:     -12.0      0.000      0.000
REMARK SMILES Cc1ccc(NC(=O)Cn2c(CCC(=O)NCCCNC(=O)c3ccc(-c4c5nc(c(-c6c(F)cccc6F)c6ccc([nH]6)c(-c6c(F)cccc6F)c6nc(c(-c7c(F)cccc7F)c7ccc4[nH]7)C=C6)C=C5)cc3)ccc2-c2ccccc2)cc1
REMARK SMILES IDX 14 1 15 2 16 3 13 5 12 6 11 7 10 8 79 9 77 10 78 11 9 12
REMARK SMILES IDX 7 13 6 14 8 16 5 17 1 18 2 19 3 20 87 21 4 22 86 23 80 24
REMARK SMILES IDX 81 25 85 26 82 27 84 28 83 29 17 30 18 31 19 32 20 33 21 34
REMARK SMILES IDX 22 36 23 37 24 38 76 39 25 40 75 41 26 42 27 43 28 44 69 45
REMARK SMILES IDX 29 46 74 47 68 48 70 49 30 50 73 51 67 52 66 53 31 55 57 56
REMARK SMILES IDX 40 57 56 58 41 59 44 60 55 61 71 62 42 63 43 64 54 66 72 67
REMARK SMILES IDX 45 68 32 69 33 70 38 71 34 72 35 73 37 74 39 75 36 76 58 77
REMARK SMILES IDX 59 78 64 79 60 80 61 81 63 82 65 83 62 84 46 85 47 86 52 87
REMARK SMILES IDX 48 88 49 89 51 90 53 91 50 92
REMARK H PARENT 16 4 6 15 20 35 70 54 44 65
REMARK Flexibility Score: inf
ROOT
ATOM      1  C   UNL A   1      36.642  22.947  23.859  1.00  0.00     0.220 C 
ATOM      2  O   UNL A   1      36.739  22.984  22.629  1.00  0.00    -0.275 OA
ATOM      3  N   UNL A   1      37.687  22.445  24.586  1.00  0.00    -0.356 N 
ATOM      4  H   UNL A   1      38.286  21.839  24.092  1.00  0.00     0.163 HD
ENDROOT
BRANCH   1   5
ATOM      5  C   UNL A   1      35.350  23.380  24.513  1.00  0.00     0.106 C 
BRANCH   5   6
ATOM      6  C   UNL A   1      34.176  22.640  23.861  1.00  0.00     0.064 C 
BRANCH   6   7
ATOM      7  C   UNL A   1      33.284  23.558  23.078  1.00  0.00     0.019 A 
ATOM      8  N   UNL A   1      32.021  24.027  23.414  1.00  0.00    -0.335 N 
ATOM      9  C   UNL A   1      31.767  25.146  22.607  1.00  0.00     0.049 A 
ATOM     10  C   UNL A   1      33.618  24.127  21.859  1.00  0.00     0.024 A 
ATOM     11  C   UNL A   1      32.678  25.127  21.570  1.00  0.00     0.029 A 
BRANCH   8  12
ATOM     12  C   UNL A   1      31.039  23.582  24.419  1.00  0.00     0.222 C 
BRANCH  12  13
ATOM     13  C   UNL A   1      31.429  23.325  25.857  1.00  0.00     0.244 C 
ATOM     14  N   UNL A   1      31.844  24.314  26.703  1.00  0.00    -0.325 N 
ATOM     15  H   UNL A   1      31.923  24.055  27.649  1.00  0.00     0.169 HD
ATOM     16  O   UNL A   1      31.404  22.168  26.296  1.00  0.00    -0.273 OA
BRANCH  14  17
ATOM     17  C   UNL A   1      32.175  25.642  26.414  1.00  0.00     0.041 A 
ATOM     18  C   UNL A   1      32.902  29.664  25.101  1.00  0.00     0.044 C 
ATOM     19  C   UNL A   1      32.671  28.290  25.654  1.00  0.00    -0.051 A 
ATOM     20  C   UNL A   1      33.666  27.318  25.519  1.00  0.00     0.005 A 
ATOM     21  C   UNL A   1      31.449  27.941  26.239  1.00  0.00     0.005 A 
ATOM     22  C   UNL A   1      33.421  26.005  25.912  1.00  0.00     0.026 A 
ATOM     23  C   UNL A   1      31.212  26.626  26.646  1.00  0.00     0.026 A 
ENDBRANCH  14  17
ENDBRANCH  12  13
ENDBRANCH   8  12
BRANCH   9  24
ATOM     24  C   UNL A   1      30.794  26.201  22.884  1.00  0.00    -0.002 A 
ATOM     25  C   UNL A   1      29.588  25.944  23.534  1.00  0.00     0.010 A 
ATOM     26  C   UNL A   1      31.053  27.495  22.408  1.00  0.00     0.010 A 
ATOM     27  C   UNL A   1      28.671  26.981  23.737  1.00  0.00     0.001 A 
ATOM     28  C   UNL A   1      30.154  28.536  22.637  1.00  0.00     0.001 A 
ATOM     29  C   UNL A   1      28.960  28.276  23.301  1.00  0.00     0.000 A 
ENDBRANCH   9  24
ENDBRANCH   6   7
ENDBRANCH   5   6
ENDBRANCH   1   5
BRANCH   3  30
ATOM     30  C   UNL A   1      38.048  22.671  25.974  1.00  0.00     0.117 C 
BRANCH  30  31
ATOM     31  C   UNL A   1      38.148  24.136  26.430  1.00  0.00     0.042 C 
BRANCH  31  32
ATOM     32  C   UNL A   1      39.358  24.624  27.284  1.00  0.00     0.118 C 
BRANCH  32  33
ATOM     33  N   UNL A   1      40.224  25.475  26.438  1.00  0.00    -0.352 N 
ATOM     34  C   UNL A   1      40.921  26.660  26.466  1.00  0.00     0.251 C 
ATOM     35  H   UNL A   1      40.341  25.049  25.558  1.00  0.00     0.163 HD
ATOM     36  O   UNL A   1      41.325  27.028  25.362  1.00  0.00    -0.269 OA
BRANCH  34  37
ATOM     37  C   UNL A   1      41.283  27.520  27.640  1.00  0.00     0.039 A 
ATOM     38  C   UNL A   1      40.525  27.363  28.835  1.00  0.00     0.014 A 
ATOM     39  C   UNL A   1      42.218  28.537  27.627  1.00  0.00     0.014 A 
ATOM     40  C   UNL A   1      40.725  28.148  30.003  1.00  0.00     0.010 A 
ATOM     41  C   UNL A   1      42.384  29.341  28.782  1.00  0.00     0.010 A 
ATOM     42  C   UNL A   1      41.687  29.150  30.010  1.00  0.00    -0.014 A 
BRANCH  42  43
ATOM     43  C   UNL A   1      42.215  29.809  31.273  1.00  0.00     0.031 A 
ATOM     44  C   UNL A   1      42.973  31.043  31.028  1.00  0.00     0.074 A 
ATOM     45  C   UNL A   1      41.663  29.852  32.521  1.00  0.00     0.049 A 
ATOM     46  N   UNL A   1      42.365  32.008  30.433  1.00  0.00    -0.248 NA
ATOM     47  C   UNL A   1      44.302  31.374  31.519  1.00  0.00     0.031 C 
ATOM     48  C   UNL A   1      40.685  28.920  33.054  1.00  0.00     0.029 A 
ATOM     49  N   UNL A   1      41.720  30.892  33.499  1.00  0.00    -0.354 N 
ATOM     50  C   UNL A   1      43.075  33.135  30.666  1.00  0.00     0.074 A 
ATOM     51  C   UNL A   1      44.330  32.691  31.252  1.00  0.00     0.031 C 
ATOM     52  C   UNL A   1      40.123  29.457  34.155  1.00  0.00     0.029 A 
ATOM     53  C   UNL A   1      40.647  30.820  34.403  1.00  0.00     0.049 A 
ATOM     54  H   UNL A   1      42.427  31.576  33.536  1.00  0.00     0.167 HD
ATOM     55  C   UNL A   1      42.468  34.335  30.488  1.00  0.00     0.037 A 
ATOM     56  C   UNL A   1      39.804  31.832  34.799  1.00  0.00     0.037 A 
ATOM     57  C   UNL A   1      41.064  34.289  30.065  1.00  0.00     0.049 A 
ATOM     58  C   UNL A   1      38.765  31.814  33.740  1.00  0.00     0.074 A 
ATOM     59  C   UNL A   1      40.256  34.961  29.171  1.00  0.00     0.029 A 
ATOM     60  N   UNL A   1      40.225  33.333  30.625  1.00  0.00    -0.354 N 
ATOM     61  N   UNL A   1      39.048  32.241  32.551  1.00  0.00    -0.248 NA
ATOM     62  C   UNL A   1      37.402  31.358  33.938  1.00  0.00     0.031 C 
ATOM     63  C   UNL A   1      38.982  34.294  29.125  1.00  0.00     0.029 A 
ATOM     64  C   UNL A   1      38.997  33.213  29.995  1.00  0.00     0.049 A 
ATOM     65  H   UNL A   1      40.483  32.787  31.403  1.00  0.00     0.167 HD
ATOM     66  C   UNL A   1      37.946  32.017  31.778  1.00  0.00     0.074 A 
ATOM     67  C   UNL A   1      36.938  31.500  32.689  1.00  0.00     0.031 C 
ATOM     68  C   UNL A   1      38.037  32.166  30.428  1.00  0.00     0.037 A 
BRANCH  55  69
ATOM     69  C   UNL A   1      43.211  35.549  30.900  1.00  0.00     0.057 A 
ATOM     70  C   UNL A   1      43.477  36.568  29.980  1.00  0.00     0.134 A 
ATOM     71  C   UNL A   1      43.564  35.788  32.237  1.00  0.00     0.134 A 
ATOM     72  F   UNL A   1      43.142  36.432  28.689  1.00  0.00    -0.206 F 
ATOM     73  C   UNL A   1      44.039  37.785  30.379  1.00  0.00     0.040 A 
ATOM     74  C   UNL A   1      44.102  37.008  32.652  1.00  0.00     0.040 A 
ATOM     75  F   UNL A   1      43.333  34.863  33.181  1.00  0.00    -0.206 F 
ATOM     76  C   UNL A   1      44.338  38.014  31.719  1.00  0.00     0.006 A 
ENDBRANCH  55  69
BRANCH  56  77
ATOM     77  C   UNL A   1      40.041  33.224  35.343  1.00  0.00     0.057 A 
ATOM     78  C   UNL A   1      39.440  33.625  36.540  1.00  0.00     0.134 A 
ATOM     79  C   UNL A   1      40.608  34.283  34.582  1.00  0.00     0.134 A 
ATOM     80  F   UNL A   1      38.806  32.730  37.311  1.00  0.00    -0.206 F 
ATOM     81  C   UNL A   1      39.388  34.977  36.940  1.00  0.00     0.040 A 
ATOM     82  C   UNL A   1      40.575  35.625  34.976  1.00  0.00     0.040 A 
ATOM     83  F   UNL A   1      41.154  34.093  33.376  1.00  0.00    -0.206 F 
ATOM     84  C   UNL A   1      39.948  35.981  36.153  1.00  0.00     0.006 A 
ENDBRANCH  56  77
BRANCH  68  85
ATOM     85  C   UNL A   1      37.257  31.243  29.500  1.00  0.00     0.057 A 
ATOM     86  C   UNL A   1      37.850  30.355  28.567  1.00  0.00     0.134 A 
ATOM     87  C   UNL A   1      35.862  31.345  29.359  1.00  0.00     0.134 A 
ATOM     88  F   UNL A   1      39.174  30.289  28.374  1.00  0.00    -0.206 F 
ATOM     89  C   UNL A   1      37.120  29.536  27.694  1.00  0.00     0.040 A 
ATOM     90  C   UNL A   1      35.122  30.567  28.453  1.00  0.00     0.040 A 
ATOM     91  F   UNL A   1      35.151  32.255  30.033  1.00  0.00    -0.206 F 
ATOM     92  C   UNL A   1      35.745  29.636  27.638  1.00  0.00     0.006 A 
ENDBRANCH  68  85
ENDBRANCH  42  43
ENDBRANCH  34  37
ENDBRANCH  32  33
ENDBRANCH  31  32
ENDBRANCH  30  31
ENDBRANCH   3  30
TORSDOF 16
ENDMDL
MODEL 2
REMARK VINA RESULT:     -11.7      4.060      7.308
REMARK SMILES Cc1ccc(NC(=O)Cn2c(CCC(=O)NCCCNC(=O)c3ccc(-c4c5nc(c(-c6c(F)cccc6F)c6ccc([nH]6)c(-c6c(F)cccc6F)c6nc(c(-c7c(F)cccc7F)c7ccc4[nH]7)C=C6)C=C5)cc3)ccc2-c2ccccc2)cc1
REMARK SMILES IDX 14 1 15 2 16 3 13 5 12 6 11 7 10 8 79 9 77 10 78 11 9 12
REMARK SMILES IDX 7 13 6 14 8 16 5 17 1 18 2 19 3 20 87 21 4 22 86 23 80 24
REMARK SMILES IDX 81 25 85 26 82 27 84 28 83 29 17 30 18 31 19 32 20 33 21 34
REMARK SMILES IDX 22 36 23 37 24 38 76 39 25 40 75 41 26 42 27 43 28 44 69 45
REMARK SMILES IDX 29 46 74 47 68 48 70 49 30 50 73 51 67 52 66 53 31 55 57 56
REMARK SMILES IDX 40 57 56 58 41 59 44 60 55 61 71 62 42 63 43 64 54 66 72 67
REMARK SMILES IDX 45 68 32 69 33 70 38 71 34 72 35 73 37 74 39 75 36 76 58 77
REMARK SMILES IDX 59 78 64 79 60 80 61 81 63 82 65 83 62 84 46 85 47 86 52 87
REMARK SMILES IDX 48 88 49 89 51 90 53 91 50 92
REMARK H PARENT 16 4 6 15 20 35 70 54 44 65
REMARK Flexibility Score: inf
ROOT
ATOM      1  C   UNL A   1      33.787  20.096  24.941  1.00  0.00     0.220 C 
ATOM      2  O   UNL A   1      33.899  19.093  24.229  1.00  0.00    -0.275 OA
ATOM      3  N   UNL A   1      34.798  20.400  25.811  1.00  0.00    -0.356 N 
ATOM      4  H   UNL A   1      35.372  19.641  26.066  1.00  0.00     0.163 HD
ENDROOT
BRANCH   1   5
ATOM      5  C   UNL A   1      32.510  20.903  24.886  1.00  0.00     0.106 C 
BRANCH   5   6
ATOM      6  C   UNL A   1      32.280  21.397  23.453  1.00  0.00     0.064 C 
BRANCH   6   7
ATOM      7  C   UNL A   1      32.981  22.693  23.174  1.00  0.00     0.019 A 
ATOM      8  N   UNL A   1      32.486  23.985  23.292  1.00  0.00    -0.335 N 
ATOM      9  C   UNL A   1      33.590  24.850  23.329  1.00  0.00     0.049 A 
ATOM     10  C   UNL A   1      34.302  22.800  22.766  1.00  0.00     0.024 A 
ATOM     11  C   UNL A   1      34.686  24.144  22.875  1.00  0.00     0.029 A 
BRANCH   8  12
ATOM     12  C   UNL A   1      31.112  24.507  23.413  1.00  0.00     0.222 C 
BRANCH  12  13
ATOM     13  C   UNL A   1      30.444  24.694  24.756  1.00  0.00     0.244 C 
ATOM     14  N   UNL A   1      29.531  25.680  25.001  1.00  0.00    -0.325 N 
ATOM     15  H   UNL A   1      29.052  25.609  25.858  1.00  0.00     0.169 HD
ATOM     16  O   UNL A   1      30.748  23.947  25.696  1.00  0.00    -0.273 OA
BRANCH  14  17
ATOM     17  C   UNL A   1      29.180  26.776  24.206  1.00  0.00     0.041 A 
ATOM     18  C   UNL A   1      28.159  30.427  22.192  1.00  0.00     0.044 C 
ATOM     19  C   UNL A   1      28.540  29.114  22.805  1.00  0.00    -0.051 A 
ATOM     20  C   UNL A   1      27.542  28.197  23.143  1.00  0.00     0.005 A 
ATOM     21  C   UNL A   1      29.873  28.817  23.111  1.00  0.00     0.005 A 
ATOM     22  C   UNL A   1      27.865  27.028  23.827  1.00  0.00     0.026 A 
ATOM     23  C   UNL A   1      30.195  27.636  23.784  1.00  0.00     0.026 A 
ENDBRANCH  14  17
ENDBRANCH  12  13
ENDBRANCH   8  12
BRANCH   9  24
ATOM     24  C   UNL A   1      33.598  26.209  23.864  1.00  0.00    -0.002 A 
ATOM     25  C   UNL A   1      33.640  27.331  23.037  1.00  0.00     0.010 A 
ATOM     26  C   UNL A   1      33.644  26.383  25.255  1.00  0.00     0.010 A 
ATOM     27  C   UNL A   1      33.690  28.611  23.599  1.00  0.00     0.001 A 
ATOM     28  C   UNL A   1      33.662  27.658  25.818  1.00  0.00     0.001 A 
ATOM     29  C   UNL A   1      33.687  28.774  24.986  1.00  0.00     0.000 A 
ENDBRANCH   9  24
ENDBRANCH   6   7
ENDBRANCH   5   6
ENDBRANCH   1   5
BRANCH   3  30
ATOM     30  C   UNL A   1      35.154  21.671  26.416  1.00  0.00     0.117 C 
BRANCH  30  31
ATOM     31  C   UNL A   1      36.237  22.495  25.699  1.00  0.00     0.042 C 
BRANCH  31  32
ATOM     32  C   UNL A   1      37.280  21.803  24.769  1.00  0.00     0.118 C 
BRANCH  32  33
ATOM     33  N   UNL A   1      38.450  21.404  25.582  1.00  0.00    -0.352 N 
ATOM     34  C   UNL A   1      39.470  21.942  26.332  1.00  0.00     0.251 C 
ATOM     35  H   UNL A   1      38.525  20.423  25.587  1.00  0.00     0.163 HD
ATOM     36  O   UNL A   1      40.346  21.132  26.636  1.00  0.00    -0.269 OA
BRANCH  34  37
ATOM     37  C   UNL A   1      39.629  23.339  26.853  1.00  0.00     0.039 A 
ATOM     38  C   UNL A   1      40.687  23.586  27.774  1.00  0.00     0.014 A 
ATOM     39  C   UNL A   1      38.766  24.388  26.604  1.00  0.00     0.014 A 
ATOM     40  C   UNL A   1      40.919  24.847  28.386  1.00  0.00     0.010 A 
ATOM     41  C   UNL A   1      38.981  25.632  27.249  1.00  0.00     0.010 A 
ATOM     42  C   UNL A   1      40.076  25.917  28.115  1.00  0.00    -0.014 A 
BRANCH  42  43
ATOM     43  C   UNL A   1      40.414  27.364  28.431  1.00  0.00     0.031 A 
ATOM     44  C   UNL A   1      40.820  27.590  29.824  1.00  0.00     0.074 A 
ATOM     45  C   UNL A   1      40.980  28.314  27.631  1.00  0.00     0.049 A 
ATOM     46  N   UNL A   1      41.851  26.953  30.255  1.00  0.00    -0.248 NA
ATOM     47  C   UNL A   1      40.286  28.576  30.750  1.00  0.00     0.031 C 
ATOM     48  C   UNL A   1      40.982  28.315  26.178  1.00  0.00     0.029 A 
ATOM     49  N   UNL A   1      41.865  29.379  27.980  1.00  0.00    -0.354 N 
ATOM     50  C   UNL A   1      42.278  27.586  31.372  1.00  0.00     0.074 A 
ATOM     51  C   UNL A   1      41.221  28.524  31.715  1.00  0.00     0.031 C 
ATOM     52  C   UNL A   1      41.906  29.195  25.743  1.00  0.00     0.029 A 
ATOM     53  C   UNL A   1      42.631  29.805  26.881  1.00  0.00     0.049 A 
ATOM     54  H   UNL A   1      41.932  29.769  28.882  1.00  0.00     0.167 HD
ATOM     55  C   UNL A   1      43.545  27.365  31.802  1.00  0.00     0.037 A 
ATOM     56  C   UNL A   1      43.991  30.000  26.820  1.00  0.00     0.037 A 
ATOM     57  C   UNL A   1      44.352  26.453  30.983  1.00  0.00     0.049 A 
ATOM     58  C   UNL A   1      44.493  28.641  26.499  1.00  0.00     0.074 A 
ATOM     59  C   UNL A   1      45.250  25.428  31.200  1.00  0.00     0.029 A 
ATOM     60  N   UNL A   1      44.252  26.526  29.599  1.00  0.00    -0.354 N 
ATOM     61  N   UNL A   1      44.462  27.712  27.399  1.00  0.00    -0.248 NA
ATOM     62  C   UNL A   1      45.054  28.259  25.217  1.00  0.00     0.031 C 
ATOM     63  C   UNL A   1      45.559  24.824  29.932  1.00  0.00     0.029 A 
ATOM     64  C   UNL A   1      44.860  25.479  28.928  1.00  0.00     0.049 A 
ATOM     65  H   UNL A   1      43.787  27.260  29.135  1.00  0.00     0.167 HD
ATOM     66  C   UNL A   1      44.891  26.564  26.798  1.00  0.00     0.074 A 
ATOM     67  C   UNL A   1      45.280  26.959  25.454  1.00  0.00     0.031 C 
ATOM     68  C   UNL A   1      44.751  25.378  27.450  1.00  0.00     0.037 A 
BRANCH  55  69
ATOM     69  C   UNL A   1      44.041  28.186  32.931  1.00  0.00     0.057 A 
ATOM     70  C   UNL A   1      43.594  27.948  34.235  1.00  0.00     0.134 A 
ATOM     71  C   UNL A   1      45.059  29.139  32.770  1.00  0.00     0.134 A 
ATOM     72  F   UNL A   1      42.646  27.032  34.479  1.00  0.00    -0.206 F 
ATOM     73  C   UNL A   1      44.159  28.604  35.333  1.00  0.00     0.040 A 
ATOM     74  C   UNL A   1      45.649  29.781  33.860  1.00  0.00     0.040 A 
ATOM     75  F   UNL A   1      45.548  29.417  31.551  1.00  0.00    -0.206 F 
ATOM     76  C   UNL A   1      45.199  29.512  35.149  1.00  0.00     0.006 A 
ENDBRANCH  55  69
BRANCH  56  77
ATOM     77  C   UNL A   1      44.965  30.780  27.676  1.00  0.00     0.057 A 
ATOM     78  C   UNL A   1      44.651  31.084  29.004  1.00  0.00     0.134 A 
ATOM     79  C   UNL A   1      46.079  31.493  27.154  1.00  0.00     0.134 A 
ATOM     80  F   UNL A   1      43.577  30.532  29.588  1.00  0.00    -0.206 F 
ATOM     81  C   UNL A   1      45.373  32.038  29.750  1.00  0.00     0.040 A 
ATOM     82  C   UNL A   1      46.812  32.432  27.889  1.00  0.00     0.040 A 
ATOM     83  F   UNL A   1      46.471  31.386  25.881  1.00  0.00    -0.206 F 
ATOM     84  C   UNL A   1      46.451  32.721  29.190  1.00  0.00     0.006 A 
ENDBRANCH  56  77
BRANCH  68  85
ATOM     85  C   UNL A   1      44.425  24.109  26.671  1.00  0.00     0.057 A 
ATOM     86  C   UNL A   1      45.273  22.975  26.593  1.00  0.00     0.134 A 
ATOM     87  C   UNL A   1      43.327  24.042  25.796  1.00  0.00     0.134 A 
ATOM     88  F   UNL A   1      46.486  22.940  27.160  1.00  0.00    -0.206 F 
ATOM     89  C   UNL A   1      44.977  21.827  25.844  1.00  0.00     0.040 A 
ATOM     90  C   UNL A   1      43.045  22.918  25.001  1.00  0.00     0.040 A 
ATOM     91  F   UNL A   1      42.513  25.086  25.606  1.00  0.00    -0.206 F 
ATOM     92  C   UNL A   1      43.852  21.793  25.045  1.00  0.00     0.006 A 
ENDBRANCH  68  85
ENDBRANCH  42  43
ENDBRANCH  34  37
ENDBRANCH  32  33
ENDBRANCH  31  32
ENDBRANCH  30  31
ENDBRANCH   3  30
TORSDOF 16
ENDMDL
MODEL 3
REMARK VINA RESULT:     -11.2      2.694      6.049
REMARK SMILES Cc1ccc(NC(=O)Cn2c(CCC(=O)NCCCNC(=O)c3ccc(-c4c5nc(c(-c6c(F)cccc6F)c6ccc([nH]6)c(-c6c(F)cccc6F)c6nc(c(-c7c(F)cccc7F)c7ccc4[nH]7)C=C6)C=C5)cc3)ccc2-c2ccccc2)cc1
REMARK SMILES IDX 14 1 15 2 16 3 13 5 12 6 11 7 10 8 79 9 77 10 78 11 9 12
REMARK SMILES IDX 7 13 6 14 8 16 5 17 1 18 2 19 3 20 87 21 4 22 86 23 80 24
REMARK SMILES IDX 81 25 85 26 82 27 84 28 83 29 17 30 18 31 19 32 20 33 21 34
REMARK SMILES IDX 22 36 23 37 24 38 76 39 25 40 75 41 26 42 27 43 28 44 69 45
REMARK SMILES IDX 29 46 74 47 68 48 70 49 30 50 73 51 67 52 66 53 31 55 57 56
REMARK SMILES IDX 40 57 56 58 41 59 44 60 55 61 71 62 42 63 43 64 54 66 72 67
REMARK SMILES IDX 45 68 32 69 33 70 38 71 34 72 35 73 37 74 39 75 36 76 58 77
REMARK SMILES IDX 59 78 64 79 60 80 61 81 63 82 65 83 62 84 46 85 47 86 52 87
REMARK SMILES IDX 48 88 49 89 51 90 53 91 50 92
REMARK H PARENT 16 4 6 15 20 35 70 54 44 65
REMARK Flexibility Score: inf
ROOT
ATOM      1  C   UNL A   1      35.575  21.703  26.141  1.00  0.00     0.220 C 
ATOM      2  O   UNL A   1      34.836  21.850  27.120  1.00  0.00    -0.275 OA
ATOM      3  N   UNL A   1      36.827  22.253  26.174  1.00  0.00    -0.356 N 
ATOM      4  H   UNL A   1      36.936  23.005  26.801  1.00  0.00     0.163 HD
ENDROOT
BRANCH   1   5
ATOM      5  C   UNL A   1      35.046  20.993  24.915  1.00  0.00     0.106 C 
BRANCH   5   6
ATOM      6  C   UNL A   1      33.529  21.193  24.825  1.00  0.00     0.064 C 
BRANCH   6   7
ATOM      7  C   UNL A   1      33.158  22.404  24.021  1.00  0.00     0.019 A 
ATOM      8  N   UNL A   1      33.040  23.720  24.447  1.00  0.00    -0.335 N 
ATOM      9  C   UNL A   1      33.085  24.532  23.304  1.00  0.00     0.049 A 
ATOM     10  C   UNL A   1      32.894  22.393  22.660  1.00  0.00     0.024 A 
ATOM     11  C   UNL A   1      32.861  23.720  22.210  1.00  0.00     0.029 A 
BRANCH   8  12
ATOM     12  C   UNL A   1      32.930  24.314  25.792  1.00  0.00     0.222 C 
BRANCH  12  13
ATOM     13  C   UNL A   1      31.665  24.206  26.612  1.00  0.00     0.244 C 
ATOM     14  N   UNL A   1      30.563  24.982  26.385  1.00  0.00    -0.325 N 
ATOM     15  H   UNL A   1      29.752  24.718  26.877  1.00  0.00     0.169 HD
ATOM     16  O   UNL A   1      31.618  23.405  27.555  1.00  0.00    -0.273 OA
BRANCH  14  17
ATOM     17  C   UNL A   1      30.424  26.097  25.553  1.00  0.00     0.041 A 
ATOM     18  C   UNL A   1      30.394  29.328  22.727  1.00  0.00     0.044 C 
ATOM     19  C   UNL A   1      30.307  28.223  23.734  1.00  0.00    -0.051 A 
ATOM     20  C   UNL A   1      30.834  28.415  25.015  1.00  0.00     0.005 A 
ATOM     21  C   UNL A   1      29.774  26.974  23.396  1.00  0.00     0.005 A 
ATOM     22  C   UNL A   1      30.877  27.360  25.922  1.00  0.00     0.026 A 
ATOM     23  C   UNL A   1      29.806  25.922  24.314  1.00  0.00     0.026 A 
ENDBRANCH  14  17
ENDBRANCH  12  13
ENDBRANCH   8  12
BRANCH   9  24
ATOM     24  C   UNL A   1      33.426  25.952  23.272  1.00  0.00    -0.002 A 
ATOM     25  C   UNL A   1      33.351  26.706  22.102  1.00  0.00     0.010 A 
ATOM     26  C   UNL A   1      33.921  26.550  24.440  1.00  0.00     0.010 A 
ATOM     27  C   UNL A   1      33.730  28.053  22.114  1.00  0.00     0.001 A 
ATOM     28  C   UNL A   1      34.270  27.899  24.463  1.00  0.00     0.001 A 
ATOM     29  C   UNL A   1      34.175  28.651  23.295  1.00  0.00     0.000 A 
ENDBRANCH   9  24
ENDBRANCH   6   7
ENDBRANCH   5   6
ENDBRANCH   1   5
BRANCH   3  30
ATOM     30  C   UNL A   1      38.019  21.898  25.427  1.00  0.00     0.117 C 
BRANCH  30  31
ATOM     31  C   UNL A   1      38.999  20.930  26.113  1.00  0.00     0.042 C 
BRANCH  31  32
ATOM     32  C   UNL A   1      40.526  20.990  25.805  1.00  0.00     0.118 C 
BRANCH  32  33
ATOM     33  N   UNL A   1      41.261  21.158  27.078  1.00  0.00    -0.352 N 
ATOM     34  C   UNL A   1      41.819  22.130  27.875  1.00  0.00     0.251 C 
ATOM     35  H   UNL A   1      41.397  20.277  27.495  1.00  0.00     0.163 HD
ATOM     36  O   UNL A   1      42.537  21.687  28.772  1.00  0.00    -0.269 OA
BRANCH  34  37
ATOM     37  C   UNL A   1      41.639  23.618  27.824  1.00  0.00     0.039 A 
ATOM     38  C   UNL A   1      42.770  24.432  28.114  1.00  0.00     0.014 A 
ATOM     39  C   UNL A   1      40.438  24.271  27.630  1.00  0.00     0.014 A 
ATOM     40  C   UNL A   1      42.728  25.852  28.155  1.00  0.00     0.010 A 
ATOM     41  C   UNL A   1      40.396  25.685  27.711  1.00  0.00     0.010 A 
ATOM     42  C   UNL A   1      41.531  26.519  27.927  1.00  0.00    -0.014 A 
BRANCH  42  43
ATOM     43  C   UNL A   1      41.433  28.001  27.613  1.00  0.00     0.031 A 
ATOM     44  C   UNL A   1      40.196  28.631  28.092  1.00  0.00     0.074 A 
ATOM     45  C   UNL A   1      42.424  28.938  27.544  1.00  0.00     0.049 A 
ATOM     46  N   UNL A   1      39.955  28.588  29.355  1.00  0.00    -0.248 NA
ATOM     47  C   UNL A   1      39.266  29.445  27.325  1.00  0.00     0.031 C 
ATOM     48  C   UNL A   1      43.833  28.673  27.309  1.00  0.00     0.029 A 
ATOM     49  N   UNL A   1      42.385  30.323  27.889  1.00  0.00    -0.354 N 
ATOM     50  C   UNL A   1      39.027  29.535  29.620  1.00  0.00     0.074 A 
ATOM     51  C   UNL A   1      38.539  29.976  28.324  1.00  0.00     0.031 C 
ATOM     52  C   UNL A   1      44.546  29.768  27.644  1.00  0.00     0.029 A 
ATOM     53  C   UNL A   1      43.663  30.827  28.185  1.00  0.00     0.049 A 
ATOM     54  H   UNL A   1      41.561  30.862  27.916  1.00  0.00     0.167 HD
ATOM     55  C   UNL A   1      38.879  29.961  30.900  1.00  0.00     0.037 A 
ATOM     56  C   UNL A   1      44.049  31.570  29.275  1.00  0.00     0.037 A 
ATOM     57  C   UNL A   1      39.774  29.349  31.889  1.00  0.00     0.049 A 
ATOM     58  C   UNL A   1      44.352  30.523  30.283  1.00  0.00     0.074 A 
ATOM     59  C   UNL A   1      39.675  28.866  33.177  1.00  0.00     0.029 A 
ATOM     60  N   UNL A   1      41.099  29.117  31.543  1.00  0.00    -0.354 N 
ATOM     61  N   UNL A   1      43.388  29.853  30.827  1.00  0.00    -0.248 NA
ATOM     62  C   UNL A   1      45.688  30.190  30.740  1.00  0.00     0.031 C 
ATOM     63  C   UNL A   1      40.920  28.231  33.517  1.00  0.00     0.029 A 
ATOM     64  C   UNL A   1      41.793  28.327  32.444  1.00  0.00     0.049 A 
ATOM     65  H   UNL A   1      41.509  29.483  30.725  1.00  0.00     0.167 HD
ATOM     66  C   UNL A   1      43.964  28.910  31.629  1.00  0.00     0.074 A 
ATOM     67  C   UNL A   1      45.391  29.180  31.569  1.00  0.00     0.031 C 
ATOM     68  C   UNL A   1      43.192  27.920  32.154  1.00  0.00     0.037 A 
BRANCH  55  69
ATOM     69  C   UNL A   1      37.971  31.107  31.142  1.00  0.00     0.057 A 
ATOM     70  C   UNL A   1      36.603  31.002  30.874  1.00  0.00     0.134 A 
ATOM     71  C   UNL A   1      38.411  32.288  31.761  1.00  0.00     0.134 A 
ATOM     72  F   UNL A   1      36.098  29.893  30.312  1.00  0.00    -0.206 F 
ATOM     73  C   UNL A   1      35.707  32.011  31.235  1.00  0.00     0.040 A 
ATOM     74  C   UNL A   1      37.522  33.292  32.151  1.00  0.00     0.040 A 
ATOM     75  F   UNL A   1      39.708  32.461  32.060  1.00  0.00    -0.206 F 
ATOM     76  C   UNL A   1      36.162  33.153  31.890  1.00  0.00     0.006 A 
ENDBRANCH  55  69
BRANCH  56  77
ATOM     77  C   UNL A   1      43.512  32.834  29.910  1.00  0.00     0.057 A 
ATOM     78  C   UNL A   1      42.134  33.018  30.059  1.00  0.00     0.134 A 
ATOM     79  C   UNL A   1      44.291  34.005  30.119  1.00  0.00     0.134 A 
ATOM     80  F   UNL A   1      41.287  32.007  29.817  1.00  0.00    -0.206 F 
ATOM     81  C   UNL A   1      41.572  34.274  30.370  1.00  0.00     0.040 A 
ATOM     82  C   UNL A   1      43.746  35.252  30.442  1.00  0.00     0.040 A 
ATOM     83  F   UNL A   1      45.617  34.031  29.942  1.00  0.00    -0.206 F 
ATOM     84  C   UNL A   1      42.377  35.397  30.553  1.00  0.00     0.006 A 
ENDBRANCH  56  77
BRANCH  68  85
ATOM     85  C   UNL A   1      43.757  26.515  32.321  1.00  0.00     0.057 A 
ATOM     86  C   UNL A   1      43.827  25.819  33.555  1.00  0.00     0.134 A 
ATOM     87  C   UNL A   1      44.445  25.867  31.281  1.00  0.00     0.134 A 
ATOM     88  F   UNL A   1      43.446  26.369  34.717  1.00  0.00    -0.206 F 
ATOM     89  C   UNL A   1      44.381  24.540  33.702  1.00  0.00     0.040 A 
ATOM     90  C   UNL A   1      45.050  24.608  31.426  1.00  0.00     0.040 A 
ATOM     91  F   UNL A   1      44.634  26.450  30.092  1.00  0.00    -0.206 F 
ATOM     92  C   UNL A   1      44.994  23.924  32.630  1.00  0.00     0.006 A 
ENDBRANCH  68  85
ENDBRANCH  42  43
ENDBRANCH  34  37
ENDBRANCH  32  33
ENDBRANCH  31  32
ENDBRANCH  30  31
ENDBRANCH   3  30
TORSDOF 16
ENDMDL
