MODEL 1
REMARK VINA RESULT:     -11.3      0.000      0.000
REMARK SMILES CC(C)(C)c1ccc(C(=O)C[C@H](C(=O)NCCCNC(=O)c2ccc(-c3c4nc(c(-c5c(F)cccc5F)c5ccc([nH]5)c(-c5c(F)cccc5F)c5nc(c(-c6c(F)cccc6F)c6ccc3[nH]6)C=C5)C=C4)cc2)[NH+]2CCCC2)cc1
REMARK SMILES IDX 16 1 15 2 13 3 14 4 12 6 11 7 9 8 10 9 8 10 5 11 6 12 82 13
REMARK SMILES IDX 7 14 81 15 2 16 1 17 3 18 4 19 76 20 77 21 80 22 78 24 79 25
REMARK SMILES IDX 17 26 18 27 19 28 20 29 21 31 22 32 23 33 75 34 24 35 74 36
REMARK SMILES IDX 25 37 26 38 27 39 68 40 28 41 73 42 67 43 69 44 29 45 72 46
REMARK SMILES IDX 66 47 65 48 30 50 56 51 39 52 55 53 40 54 43 55 54 56 70 57
REMARK SMILES IDX 41 58 42 59 53 61 71 62 44 63 31 64 32 65 37 66 33 67 34 68
REMARK SMILES IDX 36 69 38 70 35 71 57 72 58 73 63 74 59 75 60 76 62 77 64 78
REMARK SMILES IDX 61 79 45 80 46 81 51 82 47 83 48 84 50 85 52 86 49 87
REMARK H PARENT 15 5 76 23 19 30 69 49 43 60
REMARK Flexibility Score: inf
ROOT
ATOM      1  C   UNL A   1      37.310  21.794  25.637  1.00  0.00     0.118 C 
ENDROOT
BRANCH   1   2
ATOM      2  N   UNL A   1      36.282  22.094  24.636  1.00  0.00    -0.351 N 
ATOM      3  C   UNL A   1      34.965  21.722  24.505  1.00  0.00     0.278 C 
ATOM      4  O   UNL A   1      34.373  22.198  23.530  1.00  0.00    -0.268 OA
ATOM      5  H   UNL A   1      36.598  22.680  23.912  1.00  0.00     0.163 HD
BRANCH   3   6
ATOM      6  C   UNL A   1      34.227  20.783  25.534  1.00  0.00     0.281 C 
BRANCH   6   7
ATOM      7  C   UNL A   1      32.879  21.444  25.955  1.00  0.00     0.156 C 
BRANCH   7   8
ATOM      8  C   UNL A   1      32.806  22.627  26.930  1.00  0.00     0.169 C 
ATOM      9  O   UNL A   1      32.943  22.458  28.144  1.00  0.00    -0.294 OA
BRANCH   8  10
ATOM     10  C   UNL A   1      32.607  24.022  26.481  1.00  0.00     0.018 A 
ATOM     11  C   UNL A   1      32.411  26.807  25.983  1.00  0.00    -0.043 A 
ATOM     12  C   UNL A   1      33.625  26.112  25.815  1.00  0.00     0.005 A 
ATOM     13  C   UNL A   1      31.263  26.022  26.216  1.00  0.00     0.005 A 
ATOM     14  C   UNL A   1      33.725  24.736  26.061  1.00  0.00     0.012 A 
ATOM     15  C   UNL A   1      31.356  24.637  26.445  1.00  0.00     0.012 A 
BRANCH  11  16
ATOM     16  C   UNL A   1      32.347  28.352  25.987  1.00  0.00    -0.013 C 
ATOM     17  C   UNL A   1      31.849  28.879  27.343  1.00  0.00     0.016 C 
ATOM     18  C   UNL A   1      31.436  28.922  24.877  1.00  0.00     0.016 C 
ATOM     19  C   UNL A   1      33.742  28.966  25.729  1.00  0.00     0.016 C 
ENDBRANCH  11  16
ENDBRANCH   8  10
ENDBRANCH   7   8
ENDBRANCH   6   7
BRANCH   6  20
ATOM     20  N   UNL A   1      34.118  19.476  24.910  1.00  0.00    -0.324 N 
ATOM     21  C   UNL A   1      35.301  18.672  24.746  1.00  0.00     0.263 C 
ATOM     22  C   UNL A   1      32.907  18.704  25.034  1.00  0.00     0.263 C 
ATOM     23  H   UNL A   1      33.992  19.915  23.998  1.00  0.00     0.348 HD
ATOM     24  C   UNL A   1      34.769  17.331  24.282  1.00  0.00     0.067 C 
ATOM     25  C   UNL A   1      33.255  17.360  24.428  1.00  0.00     0.067 C 
ENDBRANCH   6  20
ENDBRANCH   3   6
ENDBRANCH   1   2
BRANCH   1  26
ATOM     26  C   UNL A   1      38.366  20.803  25.132  1.00  0.00     0.042 C 
BRANCH  26  27
ATOM     27  C   UNL A   1      38.680  19.598  26.011  1.00  0.00     0.118 C 
BRANCH  27  28
ATOM     28  N   UNL A   1      40.010  19.048  25.780  1.00  0.00    -0.352 N 
ATOM     29  C   UNL A   1      41.293  19.529  25.877  1.00  0.00     0.251 C 
ATOM     30  H   UNL A   1      39.982  18.109  25.487  1.00  0.00     0.163 HD
ATOM     31  O   UNL A   1      42.185  18.762  25.480  1.00  0.00    -0.269 OA
BRANCH  29  32
ATOM     32  C   UNL A   1      41.707  20.868  26.401  1.00  0.00     0.039 A 
ATOM     33  C   UNL A   1      41.551  21.098  27.783  1.00  0.00     0.014 A 
ATOM     34  C   UNL A   1      42.141  21.940  25.624  1.00  0.00     0.014 A 
ATOM     35  C   UNL A   1      41.823  22.350  28.358  1.00  0.00     0.010 A 
ATOM     36  C   UNL A   1      42.509  23.163  26.211  1.00  0.00     0.010 A 
ATOM     37  C   UNL A   1      42.322  23.402  27.580  1.00  0.00    -0.014 A 
BRANCH  37  38
ATOM     38  C   UNL A   1      42.582  24.756  28.160  1.00  0.00     0.031 A 
ATOM     39  C   UNL A   1      43.972  25.143  28.614  1.00  0.00     0.074 A 
ATOM     40  C   UNL A   1      41.576  25.642  28.318  1.00  0.00     0.049 A 
ATOM     41  N   UNL A   1      44.381  26.242  29.204  1.00  0.00    -0.248 NA
ATOM     42  C   UNL A   1      45.038  24.151  28.408  1.00  0.00     0.031 C 
ATOM     43  C   UNL A   1      40.175  25.406  27.969  1.00  0.00     0.029 A 
ATOM     44  N   UNL A   1      41.579  26.924  28.818  1.00  0.00    -0.354 N 
ATOM     45  C   UNL A   1      45.735  26.055  29.467  1.00  0.00     0.074 A 
ATOM     46  C   UNL A   1      46.065  24.719  29.021  1.00  0.00     0.031 C 
ATOM     47  C   UNL A   1      39.461  26.512  28.234  1.00  0.00     0.029 A 
ATOM     48  C   UNL A   1      40.344  27.526  28.805  1.00  0.00     0.049 A 
ATOM     49  H   UNL A   1      42.391  27.368  29.154  1.00  0.00     0.167 HD
ATOM     50  C   UNL A   1      46.633  26.918  30.004  1.00  0.00     0.037 A 
ATOM     51  C   UNL A   1      39.960  28.755  29.203  1.00  0.00     0.037 A 
ATOM     52  C   UNL A   1      46.328  28.270  30.400  1.00  0.00     0.049 A 
ATOM     53  C   UNL A   1      40.979  29.711  29.761  1.00  0.00     0.074 A 
ATOM     54  C   UNL A   1      47.186  29.237  30.896  1.00  0.00     0.029 A 
ATOM     55  N   UNL A   1      45.071  28.848  30.335  1.00  0.00    -0.354 N 
ATOM     56  N   UNL A   1      42.262  29.530  29.959  1.00  0.00    -0.248 NA
ATOM     57  C   UNL A   1      40.496  31.046  30.144  1.00  0.00     0.031 C 
ATOM     58  C   UNL A   1      46.441  30.393  31.158  1.00  0.00     0.029 A 
ATOM     59  C   UNL A   1      45.129  30.157  30.787  1.00  0.00     0.049 A 
ATOM     60  H   UNL A   1      44.258  28.396  30.014  1.00  0.00     0.167 HD
ATOM     61  C   UNL A   1      42.743  30.734  30.459  1.00  0.00     0.074 A 
ATOM     62  C   UNL A   1      41.618  31.643  30.519  1.00  0.00     0.031 C 
ATOM     63  C   UNL A   1      44.005  31.056  30.836  1.00  0.00     0.037 A 
BRANCH  50  64
ATOM     64  C   UNL A   1      48.042  26.428  30.186  1.00  0.00     0.057 A 
ATOM     65  C   UNL A   1      49.013  26.579  29.187  1.00  0.00     0.134 A 
ATOM     66  C   UNL A   1      48.443  25.825  31.387  1.00  0.00     0.134 A 
ATOM     67  F   UNL A   1      48.696  27.139  28.010  1.00  0.00    -0.206 F 
ATOM     68  C   UNL A   1      50.320  26.117  29.361  1.00  0.00     0.040 A 
ATOM     69  C   UNL A   1      49.753  25.386  31.583  1.00  0.00     0.040 A 
ATOM     70  F   UNL A   1      47.568  25.659  32.390  1.00  0.00    -0.206 F 
ATOM     71  C   UNL A   1      50.695  25.525  30.565  1.00  0.00     0.006 A 
ENDBRANCH  50  64
BRANCH  51  72
ATOM     72  C   UNL A   1      38.543  29.176  29.054  1.00  0.00     0.057 A 
ATOM     73  C   UNL A   1      38.054  29.636  27.824  1.00  0.00     0.134 A 
ATOM     74  C   UNL A   1      37.649  29.142  30.131  1.00  0.00     0.134 A 
ATOM     75  F   UNL A   1      38.868  29.713  26.762  1.00  0.00    -0.206 F 
ATOM     76  C   UNL A   1      36.734  30.065  27.676  1.00  0.00     0.040 A 
ATOM     77  C   UNL A   1      36.320  29.544  29.990  1.00  0.00     0.040 A 
ATOM     78  F   UNL A   1      38.054  28.707  31.333  1.00  0.00    -0.206 F 
ATOM     79  C   UNL A   1      35.862  30.014  28.761  1.00  0.00     0.006 A 
ENDBRANCH  51  72
BRANCH  63  80
ATOM     80  C   UNL A   1      44.241  32.461  31.310  1.00  0.00     0.057 A 
ATOM     81  C   UNL A   1      44.147  32.812  32.662  1.00  0.00     0.134 A 
ATOM     82  C   UNL A   1      44.585  33.470  30.402  1.00  0.00     0.134 A 
ATOM     83  F   UNL A   1      43.810  31.895  33.581  1.00  0.00    -0.206 F 
ATOM     84  C   UNL A   1      44.355  34.125  33.091  1.00  0.00     0.040 A 
ATOM     85  C   UNL A   1      44.821  34.781  30.822  1.00  0.00     0.040 A 
ATOM     86  F   UNL A   1      44.701  33.200  29.094  1.00  0.00    -0.206 F 
ATOM     87  C   UNL A   1      44.697  35.112  32.169  1.00  0.00     0.006 A 
ENDBRANCH  63  80
ENDBRANCH  37  38
ENDBRANCH  29  32
ENDBRANCH  27  28
ENDBRANCH  26  27
ENDBRANCH   1  26
TORSDOF 15
ENDMDL
MODEL 2
REMARK VINA RESULT:     -11.3      0.365      6.232
REMARK SMILES CC(C)(C)c1ccc(C(=O)C[C@H](C(=O)NCCCNC(=O)c2ccc(-c3c4nc(c(-c5c(F)cccc5F)c5ccc([nH]5)c(-c5c(F)cccc5F)c5nc(c(-c6c(F)cccc6F)c6ccc3[nH]6)C=C5)C=C4)cc2)[NH+]2CCCC2)cc1
REMARK SMILES IDX 16 1 15 2 13 3 14 4 12 6 11 7 9 8 10 9 8 10 5 11 6 12 82 13
REMARK SMILES IDX 7 14 81 15 2 16 1 17 3 18 4 19 76 20 77 21 80 22 78 24 79 25
REMARK SMILES IDX 17 26 18 27 19 28 20 29 21 31 22 32 23 33 75 34 24 35 74 36
REMARK SMILES IDX 25 37 26 38 27 39 68 40 28 41 73 42 67 43 69 44 29 45 72 46
REMARK SMILES IDX 66 47 65 48 30 50 56 51 39 52 55 53 40 54 43 55 54 56 70 57
REMARK SMILES IDX 41 58 42 59 53 61 71 62 44 63 31 64 32 65 37 66 33 67 34 68
REMARK SMILES IDX 36 69 38 70 35 71 57 72 58 73 63 74 59 75 60 76 62 77 64 78
REMARK SMILES IDX 61 79 45 80 46 81 51 82 47 83 48 84 50 85 52 86 49 87
REMARK H PARENT 15 5 76 23 19 30 69 49 43 60
REMARK Flexibility Score: inf
ROOT
ATOM      1  C   UNL A   1      37.237  21.699  25.724  1.00  0.00     0.118 C 
ENDROOT
BRANCH   1   2
ATOM      2  N   UNL A   1      36.236  22.018  24.702  1.00  0.00    -0.351 N 
ATOM      3  C   UNL A   1      34.925  21.648  24.528  1.00  0.00     0.278 C 
ATOM      4  O   UNL A   1      34.359  22.144  23.546  1.00  0.00    -0.268 OA
ATOM      5  H   UNL A   1      36.571  22.620  23.999  1.00  0.00     0.163 HD
BRANCH   3   6
ATOM      6  C   UNL A   1      34.160  20.687  25.517  1.00  0.00     0.281 C 
BRANCH   6   7
ATOM      7  C   UNL A   1      32.847  21.381  25.992  1.00  0.00     0.156 C 
BRANCH   7   8
ATOM      8  C   UNL A   1      32.846  22.585  26.944  1.00  0.00     0.169 C 
ATOM      9  O   UNL A   1      33.029  22.436  28.155  1.00  0.00    -0.294 OA
BRANCH   8  10
ATOM     10  C   UNL A   1      32.663  23.975  26.475  1.00  0.00     0.018 A 
ATOM     11  C   UNL A   1      32.477  26.756  25.948  1.00  0.00    -0.043 A 
ATOM     12  C   UNL A   1      33.704  26.070  25.858  1.00  0.00     0.005 A 
ATOM     13  C   UNL A   1      31.323  25.963  26.116  1.00  0.00     0.005 A 
ATOM     14  C   UNL A   1      33.800  24.696  26.119  1.00  0.00     0.012 A 
ATOM     15  C   UNL A   1      31.412  24.580  26.359  1.00  0.00     0.012 A 
BRANCH  11  16
ATOM     16  C   UNL A   1      32.401  28.301  25.938  1.00  0.00    -0.013 C 
ATOM     17  C   UNL A   1      33.707  28.913  25.403  1.00  0.00     0.016 C 
ATOM     18  C   UNL A   1      32.113  28.902  27.331  1.00  0.00     0.016 C 
ATOM     19  C   UNL A   1      31.248  28.792  25.032  1.00  0.00     0.016 C 
ENDBRANCH  11  16
ENDBRANCH   8  10
ENDBRANCH   7   8
ENDBRANCH   6   7
BRANCH   6  20
ATOM     20  N   UNL A   1      33.987  19.422  24.826  1.00  0.00    -0.324 N 
ATOM     21  C   UNL A   1      35.120  18.549  24.658  1.00  0.00     0.263 C 
ATOM     22  C   UNL A   1      32.725  18.727  24.875  1.00  0.00     0.263 C 
ATOM     23  H   UNL A   1      33.920  19.911  23.933  1.00  0.00     0.348 HD
ATOM     24  C   UNL A   1      34.518  17.270  24.113  1.00  0.00     0.067 C 
ATOM     25  C   UNL A   1      33.005  17.393  24.214  1.00  0.00     0.067 C 
ENDBRANCH   6  20
ENDBRANCH   3   6
ENDBRANCH   1   2
BRANCH   1  26
ATOM     26  C   UNL A   1      38.410  20.875  25.178  1.00  0.00     0.042 C 
BRANCH  26  27
ATOM     27  C   UNL A   1      38.504  19.414  25.605  1.00  0.00     0.118 C 
BRANCH  27  28
ATOM     28  N   UNL A   1      39.871  18.910  25.635  1.00  0.00    -0.352 N 
ATOM     29  C   UNL A   1      41.092  19.428  25.991  1.00  0.00     0.251 C 
ATOM     30  H   UNL A   1      39.935  17.977  25.327  1.00  0.00     0.163 HD
ATOM     31  O   UNL A   1      42.072  18.698  25.768  1.00  0.00    -0.269 OA
BRANCH  29  32
ATOM     32  C   UNL A   1      41.348  20.768  26.607  1.00  0.00     0.039 A 
ATOM     33  C   UNL A   1      41.815  21.791  25.758  1.00  0.00     0.014 A 
ATOM     34  C   UNL A   1      41.257  21.063  27.966  1.00  0.00     0.014 A 
ATOM     35  C   UNL A   1      42.172  23.056  26.253  1.00  0.00     0.010 A 
ATOM     36  C   UNL A   1      41.519  22.356  28.450  1.00  0.00     0.010 A 
ATOM     37  C   UNL A   1      42.015  23.364  27.610  1.00  0.00    -0.014 A 
BRANCH  37  38
ATOM     38  C   UNL A   1      42.425  24.689  28.170  1.00  0.00     0.031 A 
ATOM     39  C   UNL A   1      41.400  25.779  28.392  1.00  0.00     0.074 A 
ATOM     40  C   UNL A   1      43.719  24.945  28.455  1.00  0.00     0.049 A 
ATOM     41  N   UNL A   1      41.571  27.014  28.802  1.00  0.00    -0.248 NA
ATOM     42  C   UNL A   1      40.002  25.448  28.081  1.00  0.00     0.031 C 
ATOM     43  C   UNL A   1      44.831  24.015  28.259  1.00  0.00     0.029 A 
ATOM     44  N   UNL A   1      44.319  26.071  28.970  1.00  0.00    -0.354 N 
ATOM     45  C   UNL A   1      40.314  27.609  28.762  1.00  0.00     0.074 A 
ATOM     46  C   UNL A   1      39.400  26.617  28.240  1.00  0.00     0.031 C 
ATOM     47  C   UNL A   1      45.969  24.593  28.677  1.00  0.00     0.029 A 
ATOM     48  C   UNL A   1      45.677  25.948  29.138  1.00  0.00     0.049 A 
ATOM     49  H   UNL A   1      43.820  26.890  29.197  1.00  0.00     0.167 HD
ATOM     50  C   UNL A   1      39.941  28.855  29.149  1.00  0.00     0.037 A 
ATOM     51  C   UNL A   1      46.589  26.821  29.611  1.00  0.00     0.037 A 
ATOM     52  C   UNL A   1      40.831  29.832  29.723  1.00  0.00     0.049 A 
ATOM     53  C   UNL A   1      46.148  28.184  30.069  1.00  0.00     0.074 A 
ATOM     54  C   UNL A   1      40.531  31.096  30.201  1.00  0.00     0.029 A 
ATOM     55  N   UNL A   1      42.192  29.648  29.907  1.00  0.00    -0.354 N 
ATOM     56  N   UNL A   1      44.947  28.710  30.067  1.00  0.00    -0.248 NA
ATOM     57  C   UNL A   1      47.190  29.072  30.606  1.00  0.00     0.031 C 
ATOM     58  C   UNL A   1      41.718  31.690  30.648  1.00  0.00     0.029 A 
ATOM     59  C   UNL A   1      42.747  30.779  30.485  1.00  0.00     0.049 A 
ATOM     60  H   UNL A   1      42.691  28.836  29.663  1.00  0.00     0.167 HD
ATOM     61  C   UNL A   1      45.085  29.974  30.626  1.00  0.00     0.074 A 
ATOM     62  C   UNL A   1      46.482  30.131  30.972  1.00  0.00     0.031 C 
ATOM     63  C   UNL A   1      44.137  30.922  30.833  1.00  0.00     0.037 A 
BRANCH  50  64
ATOM     64  C   UNL A   1      38.496  29.231  28.973  1.00  0.00     0.057 A 
ATOM     65  C   UNL A   1      37.580  29.168  30.032  1.00  0.00     0.134 A 
ATOM     66  C   UNL A   1      38.020  29.693  27.738  1.00  0.00     0.134 A 
ATOM     67  F   UNL A   1      37.966  28.726  31.238  1.00  0.00    -0.206 F 
ATOM     68  C   UNL A   1      36.238  29.514  29.861  1.00  0.00     0.040 A 
ATOM     69  C   UNL A   1      36.688  30.070  27.563  1.00  0.00     0.040 A 
ATOM     70  F   UNL A   1      38.844  29.790  26.684  1.00  0.00    -0.206 F 
ATOM     71  C   UNL A   1      35.790  29.974  28.624  1.00  0.00     0.006 A 
ENDBRANCH  50  64
BRANCH  51  72
ATOM     72  C   UNL A   1      48.016  26.422  29.715  1.00  0.00     0.057 A 
ATOM     73  C   UNL A   1      48.913  26.681  28.671  1.00  0.00     0.134 A 
ATOM     74  C   UNL A   1      48.515  25.766  30.846  1.00  0.00     0.134 A 
ATOM     75  F   UNL A   1      48.489  27.286  27.552  1.00  0.00    -0.206 F 
ATOM     76  C   UNL A   1      50.250  26.284  28.739  1.00  0.00     0.040 A 
ATOM     77  C   UNL A   1      49.855  25.386  30.939  1.00  0.00     0.040 A 
ATOM     78  F   UNL A   1      47.708  25.494  31.882  1.00  0.00    -0.206 F 
ATOM     79  C   UNL A   1      50.725  25.639  29.880  1.00  0.00     0.006 A 
ENDBRANCH  51  72
BRANCH  63  80
ATOM     80  C   UNL A   1      44.575  32.196  31.497  1.00  0.00     0.057 A 
ATOM     81  C   UNL A   1      45.012  33.303  30.760  1.00  0.00     0.134 A 
ATOM     82  C   UNL A   1      44.541  32.319  32.891  1.00  0.00     0.134 A 
ATOM     83  F   UNL A   1      45.079  33.246  29.421  1.00  0.00    -0.206 F 
ATOM     84  C   UNL A   1      45.429  34.479  31.387  1.00  0.00     0.040 A 
ATOM     85  C   UNL A   1      44.932  33.498  33.530  1.00  0.00     0.040 A 
ATOM     86  F   UNL A   1      44.124  31.300  33.656  1.00  0.00    -0.206 F 
ATOM     87  C   UNL A   1      45.386  34.579  32.777  1.00  0.00     0.006 A 
ENDBRANCH  63  80
ENDBRANCH  37  38
ENDBRANCH  29  32
ENDBRANCH  27  28
ENDBRANCH  26  27
ENDBRANCH   1  26
TORSDOF 15
ENDMDL
MODEL 3
REMARK VINA RESULT:     -11.3      2.577      8.040
REMARK SMILES CC(C)(C)c1ccc(C(=O)C[C@H](C(=O)NCCCNC(=O)c2ccc(-c3c4nc(c(-c5c(F)cccc5F)c5ccc([nH]5)c(-c5c(F)cccc5F)c5nc(c(-c6c(F)cccc6F)c6ccc3[nH]6)C=C5)C=C4)cc2)[NH+]2CCCC2)cc1
REMARK SMILES IDX 16 1 15 2 13 3 14 4 12 6 11 7 9 8 10 9 8 10 5 11 6 12 82 13
REMARK SMILES IDX 7 14 81 15 2 16 1 17 3 18 4 19 76 20 77 21 80 22 78 24 79 25
REMARK SMILES IDX 17 26 18 27 19 28 20 29 21 31 22 32 23 33 75 34 24 35 74 36
REMARK SMILES IDX 25 37 26 38 27 39 68 40 28 41 73 42 67 43 69 44 29 45 72 46
REMARK SMILES IDX 66 47 65 48 30 50 56 51 39 52 55 53 40 54 43 55 54 56 70 57
REMARK SMILES IDX 41 58 42 59 53 61 71 62 44 63 31 64 32 65 37 66 33 67 34 68
REMARK SMILES IDX 36 69 38 70 35 71 57 72 58 73 63 74 59 75 60 76 62 77 64 78
REMARK SMILES IDX 61 79 45 80 46 81 51 82 47 83 48 84 50 85 52 86 49 87
REMARK H PARENT 15 5 76 23 19 30 69 49 43 60
REMARK Flexibility Score: inf
ROOT
ATOM      1  C   UNL A   1      33.679  26.585  25.943  1.00  0.00     0.118 C 
ENDROOT
BRANCH   1   2
ATOM      2  N   UNL A   1      32.265  26.201  25.909  1.00  0.00    -0.351 N 
ATOM      3  C   UNL A   1      31.259  26.413  24.998  1.00  0.00     0.278 C 
ATOM      4  O   UNL A   1      30.167  25.906  25.284  1.00  0.00    -0.268 OA
ATOM      5  H   UNL A   1      31.979  25.687  26.698  1.00  0.00     0.163 HD
BRANCH   3   6
ATOM      6  C   UNL A   1      31.464  27.212  23.654  1.00  0.00     0.281 C 
BRANCH   6   7
ATOM      7  C   UNL A   1      31.405  26.219  22.454  1.00  0.00     0.156 C 
BRANCH   7   8
ATOM      8  C   UNL A   1      32.640  25.470  21.937  1.00  0.00     0.169 C 
ATOM      9  O   UNL A   1      33.278  25.890  20.969  1.00  0.00    -0.294 OA
BRANCH   8  10
ATOM     10  C   UNL A   1      33.155  24.240  22.578  1.00  0.00     0.018 A 
ATOM     11  C   UNL A   1      33.887  21.982  24.130  1.00  0.00    -0.043 A 
ATOM     12  C   UNL A   1      32.664  22.031  23.434  1.00  0.00     0.005 A 
ATOM     13  C   UNL A   1      34.808  23.016  23.860  1.00  0.00     0.005 A 
ATOM     14  C   UNL A   1      32.299  23.146  22.666  1.00  0.00     0.012 A 
ATOM     15  C   UNL A   1      34.453  24.128  23.075  1.00  0.00     0.012 A 
BRANCH  11  16
ATOM     16  C   UNL A   1      34.182  20.896  25.191  1.00  0.00    -0.013 C 
ATOM     17  C   UNL A   1      33.175  19.738  25.087  1.00  0.00     0.016 C 
ATOM     18  C   UNL A   1      34.156  21.439  26.637  1.00  0.00     0.016 C 
ATOM     19  C   UNL A   1      35.598  20.304  25.000  1.00  0.00     0.016 C 
ENDBRANCH  11  16
ENDBRANCH   8  10
ENDBRANCH   7   8
ENDBRANCH   6   7
BRANCH   6  20
ATOM     20  N   UNL A   1      30.475  28.275  23.640  1.00  0.00    -0.324 N 
ATOM     21  C   UNL A   1      30.776  29.527  24.285  1.00  0.00     0.263 C 
ATOM     22  C   UNL A   1      29.547  28.397  22.544  1.00  0.00     0.263 C 
ATOM     23  H   UNL A   1      29.916  27.773  24.331  1.00  0.00     0.348 HD
ATOM     24  C   UNL A   1      29.632  30.433  23.875  1.00  0.00     0.067 C 
ATOM     25  C   UNL A   1      28.832  29.708  22.802  1.00  0.00     0.067 C 
ENDBRANCH   6  20
ENDBRANCH   3   6
ENDBRANCH   1   2
BRANCH   1  26
ATOM     26  C   UNL A   1      33.892  28.052  26.338  1.00  0.00     0.042 C 
BRANCH  26  27
ATOM     27  C   UNL A   1      33.117  28.578  27.542  1.00  0.00     0.118 C 
BRANCH  27  28
ATOM     28  N   UNL A   1      33.402  29.975  27.844  1.00  0.00    -0.352 N 
ATOM     29  C   UNL A   1      34.523  30.686  28.195  1.00  0.00     0.251 C 
ATOM     30  H   UNL A   1      32.601  30.544  27.780  1.00  0.00     0.163 HD
ATOM     31  O   UNL A   1      34.334  31.880  28.482  1.00  0.00    -0.269 OA
BRANCH  29  32
ATOM     32  C   UNL A   1      35.924  30.165  28.269  1.00  0.00     0.039 A 
ATOM     33  C   UNL A   1      36.363  29.669  29.513  1.00  0.00     0.014 A 
ATOM     34  C   UNL A   1      36.861  30.219  27.240  1.00  0.00     0.014 A 
ATOM     35  C   UNL A   1      37.687  29.243  29.712  1.00  0.00     0.010 A 
ATOM     36  C   UNL A   1      38.158  29.702  27.407  1.00  0.00     0.010 A 
ATOM     37  C   UNL A   1      38.605  29.240  28.654  1.00  0.00    -0.014 A 
BRANCH  37  38
ATOM     38  C   UNL A   1      40.030  28.829  28.848  1.00  0.00     0.031 A 
ATOM     39  C   UNL A   1      41.028  29.784  29.463  1.00  0.00     0.074 A 
ATOM     40  C   UNL A   1      40.455  27.612  28.448  1.00  0.00     0.049 A 
ATOM     41  N   UNL A   1      42.318  29.637  29.650  1.00  0.00    -0.248 NA
ATOM     42  C   UNL A   1      40.513  31.092  29.897  1.00  0.00     0.031 C 
ATOM     43  C   UNL A   1      39.628  26.594  27.801  1.00  0.00     0.029 A 
ATOM     44  N   UNL A   1      41.698  27.026  28.526  1.00  0.00    -0.354 N 
ATOM     45  C   UNL A   1      42.768  30.840  30.186  1.00  0.00     0.074 A 
ATOM     46  C   UNL A   1      41.624  31.723  30.246  1.00  0.00     0.031 C 
ATOM     47  C   UNL A   1      40.373  25.500  27.571  1.00  0.00     0.029 A 
ATOM     48  C   UNL A   1      41.741  25.749  28.020  1.00  0.00     0.049 A 
ATOM     49  H   UNL A   1      42.484  27.480  28.909  1.00  0.00     0.167 HD
ATOM     50  C   UNL A   1      44.010  31.177  30.616  1.00  0.00     0.037 A 
ATOM     51  C   UNL A   1      42.760  24.873  27.926  1.00  0.00     0.037 A 
ATOM     52  C   UNL A   1      45.143  30.288  30.614  1.00  0.00     0.049 A 
ATOM     53  C   UNL A   1      44.121  25.254  28.444  1.00  0.00     0.074 A 
ATOM     54  C   UNL A   1      46.423  30.521  31.088  1.00  0.00     0.029 A 
ATOM     55  N   UNL A   1      45.130  28.992  30.125  1.00  0.00    -0.354 N 
ATOM     56  N   UNL A   1      44.514  26.379  28.990  1.00  0.00    -0.248 NA
ATOM     57  C   UNL A   1      45.177  24.236  28.341  1.00  0.00     0.031 C 
ATOM     58  C   UNL A   1      47.193  29.375  30.857  1.00  0.00     0.029 A 
ATOM     59  C   UNL A   1      46.380  28.415  30.279  1.00  0.00     0.049 A 
ATOM     60  H   UNL A   1      44.347  28.547  29.727  1.00  0.00     0.167 HD
ATOM     61  C   UNL A   1      45.850  26.195  29.320  1.00  0.00     0.074 A 
ATOM     62  C   UNL A   1      46.197  24.844  28.930  1.00  0.00     0.031 C 
ATOM     63  C   UNL A   1      46.714  27.068  29.895  1.00  0.00     0.037 A 
BRANCH  50  64
ATOM     64  C   UNL A   1      44.206  32.572  31.141  1.00  0.00     0.057 A 
ATOM     65  C   UNL A   1      44.566  33.635  30.301  1.00  0.00     0.134 A 
ATOM     66  C   UNL A   1      44.003  32.864  32.497  1.00  0.00     0.134 A 
ATOM     67  F   UNL A   1      44.785  33.425  28.995  1.00  0.00    -0.206 F 
ATOM     68  C   UNL A   1      44.751  34.928  30.796  1.00  0.00     0.040 A 
ATOM     69  C   UNL A   1      44.156  34.159  32.997  1.00  0.00     0.040 A 
ATOM     70  F   UNL A   1      43.646  31.898  33.356  1.00  0.00    -0.206 F 
ATOM     71  C   UNL A   1      44.539  35.194  32.146  1.00  0.00     0.006 A 
ENDBRANCH  50  64
BRANCH  51  72
ATOM     72  C   UNL A   1      42.530  23.523  27.350  1.00  0.00     0.057 A 
ATOM     73  C   UNL A   1      42.634  23.302  25.971  1.00  0.00     0.134 A 
ATOM     74  C   UNL A   1      42.190  22.429  28.154  1.00  0.00     0.134 A 
ATOM     75  F   UNL A   1      42.934  24.316  25.146  1.00  0.00    -0.206 F 
ATOM     76  C   UNL A   1      42.389  22.047  25.410  1.00  0.00     0.040 A 
ATOM     77  C   UNL A   1      41.968  21.163  27.610  1.00  0.00     0.040 A 
ATOM     78  F   UNL A   1      42.080  22.574  29.483  1.00  0.00    -0.206 F 
ATOM     79  C   UNL A   1      42.060  20.972  26.232  1.00  0.00     0.006 A 
ENDBRANCH  51  72
BRANCH  63  80
ATOM     80  C   UNL A   1      48.105  26.575  30.171  1.00  0.00     0.057 A 
ATOM     81  C   UNL A   1      49.144  26.732  29.244  1.00  0.00     0.134 A 
ATOM     82  C   UNL A   1      48.412  25.952  31.386  1.00  0.00     0.134 A 
ATOM     83  F   UNL A   1      48.913  27.311  28.056  1.00  0.00    -0.206 F 
ATOM     84  C   UNL A   1      50.431  26.259  29.504  1.00  0.00     0.040 A 
ATOM     85  C   UNL A   1      49.701  25.497  31.669  1.00  0.00     0.040 A 
ATOM     86  F   UNL A   1      47.466  25.779  32.321  1.00  0.00    -0.206 F 
ATOM     87  C   UNL A   1      50.713  25.643  30.722  1.00  0.00     0.006 A 
ENDBRANCH  63  80
ENDBRANCH  37  38
ENDBRANCH  29  32
ENDBRANCH  27  28
ENDBRANCH  26  27
ENDBRANCH   1  26
TORSDOF 15
ENDMDL
