MODEL 1
REMARK VINA RESULT:     -10.3      0.000      0.000
REMARK SMILES O=C(C[C@@H](NC(=O)C1CC=CC1)C1CC1)NCCCNC(=O)c1ccc(-c2c3nc(c(-c4c(F)cccc4F)c4ccc([nH]4)c(-c4c(F)cccc4F)c4nc(c(-c5c(F)cccc5F)c5ccc2[nH]5)C=C4)C=C3)cc1
REMARK SMILES IDX 17 1 16 2 1 3 2 4 3 6 4 7 5 8 6 9 7 11 8 12 9 13 12 14 10 15
REMARK SMILES IDX 11 16 13 17 14 18 15 19 18 20 19 21 20 22 21 23 22 25 23 26
REMARK SMILES IDX 24 27 76 28 25 29 75 30 26 31 27 32 28 33 69 34 29 35 74 36
REMARK SMILES IDX 68 37 70 38 30 39 73 40 67 41 66 42 31 44 57 45 40 46 56 47
REMARK SMILES IDX 41 48 44 49 55 50 71 51 42 52 43 53 54 55 72 56 45 57 32 58
REMARK SMILES IDX 33 59 38 60 34 61 35 62 37 63 39 64 36 65 58 66 59 67 64 68
REMARK SMILES IDX 60 69 61 70 63 71 65 72 62 73 46 74 47 75 52 76 48 77 49 78
REMARK SMILES IDX 51 79 53 80 50 81
REMARK H PARENT 16 5 5 10 20 24 70 43 44 54
REMARK Flexibility Score: inf
ROOT
ATOM      1  C   UNL A   1      31.650  27.668  26.223  1.00  0.00     0.117 C 
ENDROOT
BRANCH   1   2
ATOM      2  N   UNL A   1      31.586  26.231  26.409  1.00  0.00    -0.356 N 
ATOM      3  O   UNL A   1      33.740  25.763  25.785  1.00  0.00    -0.275 OA
ATOM      4  C   UNL A   1      32.589  25.396  25.991  1.00  0.00     0.222 C 
ATOM      5  H   UNL A   1      30.795  25.843  26.849  1.00  0.00     0.163 HD
BRANCH   4   6
ATOM      6  C   UNL A   1      32.117  24.009  25.637  1.00  0.00     0.125 C 
BRANCH   6   7
ATOM      7  C   UNL A   1      33.203  22.904  25.486  1.00  0.00     0.094 C 
BRANCH   7   8
ATOM      8  N   UNL A   1      34.047  23.257  24.295  1.00  0.00    -0.352 N 
ATOM      9  C   UNL A   1      35.215  23.160  23.645  1.00  0.00     0.223 C 
ATOM     10  H   UNL A   1      33.476  23.824  23.727  1.00  0.00     0.163 HD
ATOM     11  O   UNL A   1      35.040  23.359  22.423  1.00  0.00    -0.275 OA
BRANCH   9  12
ATOM     12  C   UNL A   1      36.670  22.971  24.080  1.00  0.00     0.086 C 
ATOM     13  C   UNL A   1      37.148  23.875  25.221  1.00  0.00     0.040 C 
ATOM     14  C   UNL A   1      37.243  21.574  24.317  1.00  0.00     0.040 C 
ATOM     15  C   UNL A   1      37.902  22.950  26.118  1.00  0.00    -0.030 C 
ATOM     16  C   UNL A   1      37.979  21.712  25.618  1.00  0.00    -0.030 C 
ENDBRANCH   9  12
ENDBRANCH   7   8
BRANCH   7  17
ATOM     17  C   UNL A   1      33.826  22.844  26.852  1.00  0.00     0.012 C 
ATOM     18  C   UNL A   1      33.211  22.252  28.063  1.00  0.00     0.006 C 
ATOM     19  C   UNL A   1      34.354  21.544  27.379  1.00  0.00     0.006 C 
ENDBRANCH   7  17
ENDBRANCH   6   7
ENDBRANCH   4   6
ENDBRANCH   1   2
BRANCH   1  20
ATOM     20  C   UNL A   1      32.235  28.327  27.471  1.00  0.00     0.042 C 
BRANCH  20  21
ATOM     21  C   UNL A   1      33.589  28.992  27.232  1.00  0.00     0.118 C 
BRANCH  21  22
ATOM     22  N   UNL A   1      33.634  30.360  27.729  1.00  0.00    -0.352 N 
ATOM     23  C   UNL A   1      34.618  30.989  28.453  1.00  0.00     0.251 C 
ATOM     24  H   UNL A   1      32.846  30.913  27.517  1.00  0.00     0.163 HD
ATOM     25  O   UNL A   1      34.410  32.067  28.987  1.00  0.00    -0.269 OA
BRANCH  23  26
ATOM     26  C   UNL A   1      35.928  30.325  28.592  1.00  0.00     0.039 A 
ATOM     27  C   UNL A   1      36.817  30.340  27.516  1.00  0.00     0.014 A 
ATOM     28  C   UNL A   1      36.281  29.728  29.803  1.00  0.00     0.014 A 
ATOM     29  C   UNL A   1      38.100  29.817  27.684  1.00  0.00     0.010 A 
ATOM     30  C   UNL A   1      37.583  29.287  29.993  1.00  0.00     0.010 A 
ATOM     31  C   UNL A   1      38.506  29.327  28.935  1.00  0.00    -0.014 A 
BRANCH  31  32
ATOM     32  C   UNL A   1      39.886  28.840  29.177  1.00  0.00     0.031 A 
ATOM     33  C   UNL A   1      40.913  29.776  29.750  1.00  0.00     0.074 A 
ATOM     34  C   UNL A   1      40.238  27.599  28.790  1.00  0.00     0.049 A 
ATOM     35  N   UNL A   1      42.201  29.605  29.894  1.00  0.00    -0.248 NA
ATOM     36  C   UNL A   1      40.428  31.095  30.191  1.00  0.00     0.031 C 
ATOM     37  C   UNL A   1      39.341  26.608  28.193  1.00  0.00     0.029 A 
ATOM     38  N   UNL A   1      41.457  26.967  28.822  1.00  0.00    -0.354 N 
ATOM     39  C   UNL A   1      42.683  30.797  30.418  1.00  0.00     0.074 A 
ATOM     40  C   UNL A   1      41.559  31.702  30.517  1.00  0.00     0.031 C 
ATOM     41  C   UNL A   1      40.035  25.490  27.927  1.00  0.00     0.029 A 
ATOM     42  C   UNL A   1      41.434  25.702  28.285  1.00  0.00     0.049 A 
ATOM     43  H   UNL A   1      42.269  27.379  29.195  1.00  0.00     0.167 HD
ATOM     44  C   UNL A   1      43.944  31.102  30.801  1.00  0.00     0.037 A 
ATOM     45  C   UNL A   1      42.434  24.821  28.084  1.00  0.00     0.037 A 
ATOM     46  C   UNL A   1      45.054  30.190  30.720  1.00  0.00     0.049 A 
ATOM     47  C   UNL A   1      43.833  25.195  28.492  1.00  0.00     0.074 A 
ATOM     48  C   UNL A   1      46.361  30.385  31.127  1.00  0.00     0.029 A 
ATOM     49  N   UNL A   1      44.985  28.909  30.192  1.00  0.00    -0.354 N 
ATOM     50  N   UNL A   1      44.268  26.307  29.034  1.00  0.00    -0.248 NA
ATOM     51  C   UNL A   1      44.882  24.190  28.264  1.00  0.00     0.031 C 
ATOM     52  C   UNL A   1      47.096  29.244  30.795  1.00  0.00     0.029 A 
ATOM     53  C   UNL A   1      46.232  28.310  30.243  1.00  0.00     0.049 A 
ATOM     54  H   UNL A   1      44.170  28.488  29.834  1.00  0.00     0.167 HD
ATOM     55  C   UNL A   1      45.627  26.120  29.251  1.00  0.00     0.074 A 
ATOM     56  C   UNL A   1      45.946  24.787  28.783  1.00  0.00     0.031 C 
ATOM     57  C   UNL A   1      46.529  26.974  29.796  1.00  0.00     0.037 A 
BRANCH  44  58
ATOM     58  C   UNL A   1      44.191  32.483  31.339  1.00  0.00     0.057 A 
ATOM     59  C   UNL A   1      44.071  32.779  32.704  1.00  0.00     0.134 A 
ATOM     60  C   UNL A   1      44.585  33.521  30.486  1.00  0.00     0.134 A 
ATOM     61  F   UNL A   1      43.686  31.834  33.574  1.00  0.00    -0.206 F 
ATOM     62  C   UNL A   1      44.304  34.065  33.195  1.00  0.00     0.040 A 
ATOM     63  C   UNL A   1      44.854  34.803  30.970  1.00  0.00     0.040 A 
ATOM     64  F   UNL A   1      44.727  33.306  29.170  1.00  0.00    -0.206 F 
ATOM     65  C   UNL A   1      44.704  35.080  32.327  1.00  0.00     0.006 A 
ENDBRANCH  44  58
BRANCH  45  66
ATOM     66  C   UNL A   1      42.149  23.496  27.476  1.00  0.00     0.057 A 
ATOM     67  C   UNL A   1      42.254  23.300  26.093  1.00  0.00     0.134 A 
ATOM     68  C   UNL A   1      41.755  22.400  28.254  1.00  0.00     0.134 A 
ATOM     69  F   UNL A   1      42.610  24.315  25.293  1.00  0.00    -0.206 F 
ATOM     70  C   UNL A   1      41.954  22.071  25.503  1.00  0.00     0.040 A 
ATOM     71  C   UNL A   1      41.480  21.158  27.680  1.00  0.00     0.040 A 
ATOM     72  F   UNL A   1      41.645  22.518  29.585  1.00  0.00    -0.206 F 
ATOM     73  C   UNL A   1      41.569  20.994  26.299  1.00  0.00     0.006 A 
ENDBRANCH  45  66
BRANCH  57  74
ATOM     74  C   UNL A   1      47.932  26.475  29.985  1.00  0.00     0.057 A 
ATOM     75  C   UNL A   1      48.352  25.853  31.167  1.00  0.00     0.134 A 
ATOM     76  C   UNL A   1      48.856  26.560  28.935  1.00  0.00     0.134 A 
ATOM     77  F   UNL A   1      47.519  25.750  32.214  1.00  0.00    -0.206 F 
ATOM     78  C   UNL A   1      49.646  25.349  31.304  1.00  0.00     0.040 A 
ATOM     79  C   UNL A   1      50.143  26.034  29.049  1.00  0.00     0.040 A 
ATOM     80  F   UNL A   1      48.516  27.136  27.772  1.00  0.00    -0.206 F 
ATOM     81  C   UNL A   1      50.542  25.429  30.239  1.00  0.00     0.006 A 
ENDBRANCH  57  74
ENDBRANCH  31  32
ENDBRANCH  23  26
ENDBRANCH  21  22
ENDBRANCH  20  21
ENDBRANCH   1  20
TORSDOF 14
ENDMDL
MODEL 2
REMARK VINA RESULT:     -10.2      2.845      7.371
REMARK SMILES O=C(C[C@@H](NC(=O)C1CC=CC1)C1CC1)NCCCNC(=O)c1ccc(-c2c3nc(c(-c4c(F)cccc4F)c4ccc([nH]4)c(-c4c(F)cccc4F)c4nc(c(-c5c(F)cccc5F)c5ccc2[nH]5)C=C4)C=C3)cc1
REMARK SMILES IDX 17 1 16 2 1 3 2 4 3 6 4 7 5 8 6 9 7 11 8 12 9 13 12 14 10 15
REMARK SMILES IDX 11 16 13 17 14 18 15 19 18 20 19 21 20 22 21 23 22 25 23 26
REMARK SMILES IDX 24 27 76 28 25 29 75 30 26 31 27 32 28 33 69 34 29 35 74 36
REMARK SMILES IDX 68 37 70 38 30 39 73 40 67 41 66 42 31 44 57 45 40 46 56 47
REMARK SMILES IDX 41 48 44 49 55 50 71 51 42 52 43 53 54 55 72 56 45 57 32 58
REMARK SMILES IDX 33 59 38 60 34 61 35 62 37 63 39 64 36 65 58 66 59 67 64 68
REMARK SMILES IDX 60 69 61 70 63 71 65 72 62 73 46 74 47 75 52 76 48 77 49 78
REMARK SMILES IDX 51 79 53 80 50 81
REMARK H PARENT 16 5 5 10 20 24 70 43 44 54
REMARK Flexibility Score: inf
ROOT
ATOM      1  C   UNL A   1      37.372  21.596  24.490  1.00  0.00     0.117 C 
ENDROOT
BRANCH   1   2
ATOM      2  N   UNL A   1      35.926  21.572  24.607  1.00  0.00    -0.356 N 
ATOM      3  O   UNL A   1      35.490  23.261  23.120  1.00  0.00    -0.275 OA
ATOM      4  C   UNL A   1      35.134  22.539  24.044  1.00  0.00     0.222 C 
ATOM      5  H   UNL A   1      35.501  20.839  25.107  1.00  0.00     0.163 HD
BRANCH   4   6
ATOM      6  C   UNL A   1      33.835  22.761  24.777  1.00  0.00     0.125 C 
BRANCH   6   7
ATOM      7  C   UNL A   1      32.579  23.085  23.917  1.00  0.00     0.094 C 
BRANCH   7   8
ATOM      8  N   UNL A   1      32.430  21.990  22.901  1.00  0.00    -0.352 N 
ATOM      9  C   UNL A   1      32.137  20.711  22.624  1.00  0.00     0.223 C 
ATOM     10  H   UNL A   1      32.651  22.402  22.035  1.00  0.00     0.163 HD
ATOM     11  O   UNL A   1      31.768  20.607  21.434  1.00  0.00    -0.275 OA
BRANCH   9  12
ATOM     12  C   UNL A   1      32.256  19.394  23.395  1.00  0.00     0.086 C 
ATOM     13  C   UNL A   1      32.451  18.136  22.540  1.00  0.00     0.040 C 
ATOM     14  C   UNL A   1      33.168  19.278  24.615  1.00  0.00     0.040 C 
ATOM     15  C   UNL A   1      33.530  17.386  23.250  1.00  0.00    -0.030 C 
ATOM     16  C   UNL A   1      33.899  17.987  24.386  1.00  0.00    -0.030 C 
ENDBRANCH   9  12
ENDBRANCH   7   8
BRANCH   7  17
ATOM     17  C   UNL A   1      31.504  23.304  24.944  1.00  0.00     0.012 C 
ATOM     18  C   UNL A   1      30.922  22.268  25.827  1.00  0.00     0.006 C 
ATOM     19  C   UNL A   1      31.850  23.308  26.402  1.00  0.00     0.006 C 
ENDBRANCH   7  17
ENDBRANCH   6   7
ENDBRANCH   4   6
ENDBRANCH   1   2
BRANCH   1  20
ATOM     20  C   UNL A   1      37.954  20.272  24.983  1.00  0.00     0.042 C 
BRANCH  20  21
ATOM     21  C   UNL A   1      39.073  20.441  26.008  1.00  0.00     0.118 C 
BRANCH  21  22
ATOM     22  N   UNL A   1      40.025  19.339  25.982  1.00  0.00    -0.352 N 
ATOM     23  C   UNL A   1      41.395  19.374  26.076  1.00  0.00     0.251 C 
ATOM     24  H   UNL A   1      39.630  18.443  25.884  1.00  0.00     0.163 HD
ATOM     25  O   UNL A   1      42.065  18.388  25.812  1.00  0.00    -0.269 OA
BRANCH  23  26
ATOM     26  C   UNL A   1      42.046  20.634  26.479  1.00  0.00     0.039 A 
ATOM     27  C   UNL A   1      42.482  21.522  25.495  1.00  0.00     0.014 A 
ATOM     28  C   UNL A   1      42.182  20.945  27.834  1.00  0.00     0.014 A 
ATOM     29  C   UNL A   1      42.990  22.766  25.873  1.00  0.00     0.010 A 
ATOM     30  C   UNL A   1      42.607  22.213  28.203  1.00  0.00     0.010 A 
ATOM     31  C   UNL A   1      43.015  23.137  27.228  1.00  0.00    -0.014 A 
BRANCH  31  32
ATOM     32  C   UNL A   1      43.469  24.479  27.664  1.00  0.00     0.031 A 
ATOM     33  C   UNL A   1      42.452  25.515  28.053  1.00  0.00     0.074 A 
ATOM     34  C   UNL A   1      44.777  24.796  27.615  1.00  0.00     0.049 A 
ATOM     35  N   UNL A   1      42.621  26.786  28.313  1.00  0.00    -0.248 NA
ATOM     36  C   UNL A   1      41.051  25.068  28.129  1.00  0.00     0.031 C 
ATOM     37  C   UNL A   1      45.857  23.888  27.225  1.00  0.00     0.029 A 
ATOM     38  N   UNL A   1      45.418  25.982  27.875  1.00  0.00    -0.354 N 
ATOM     39  C   UNL A   1      41.352  27.292  28.559  1.00  0.00     0.074 A 
ATOM     40  C   UNL A   1      40.416  26.206  28.364  1.00  0.00     0.031 C 
ATOM     41  C   UNL A   1      47.026  24.545  27.282  1.00  0.00     0.029 A 
ATOM     42  C   UNL A   1      46.775  25.932  27.662  1.00  0.00     0.049 A 
ATOM     43  H   UNL A   1      44.951  26.791  28.184  1.00  0.00     0.167 HD
ATOM     44  C   UNL A   1      40.999  28.544  28.932  1.00  0.00     0.037 A 
ATOM     45  C   UNL A   1      47.708  26.900  27.744  1.00  0.00     0.037 A 
ATOM     46  C   UNL A   1      41.937  29.615  29.143  1.00  0.00     0.049 A 
ATOM     47  C   UNL A   1      47.287  28.292  28.133  1.00  0.00     0.074 A 
ATOM     48  C   UNL A   1      41.687  30.907  29.570  1.00  0.00     0.029 A 
ATOM     49  N   UNL A   1      43.306  29.517  28.941  1.00  0.00    -0.354 N 
ATOM     50  N   UNL A   1      46.090  28.747  28.412  1.00  0.00    -0.248 NA
ATOM     51  C   UNL A   1      48.348  29.305  28.221  1.00  0.00     0.031 C 
ATOM     52  C   UNL A   1      42.896  31.607  29.572  1.00  0.00     0.029 A 
ATOM     53  C   UNL A   1      43.910  30.733  29.213  1.00  0.00     0.049 A 
ATOM     54  H   UNL A   1      43.777  28.704  28.648  1.00  0.00     0.167 HD
ATOM     55  C   UNL A   1      46.258  30.083  28.751  1.00  0.00     0.074 A 
ATOM     56  C   UNL A   1      47.674  30.367  28.643  1.00  0.00     0.031 C 
ATOM     57  C   UNL A   1      45.324  30.992  29.125  1.00  0.00     0.037 A 
BRANCH  44  58
ATOM     58  C   UNL A   1      39.537  28.824  29.130  1.00  0.00     0.057 A 
ATOM     59  C   UNL A   1      38.917  28.680  30.379  1.00  0.00     0.134 A 
ATOM     60  C   UNL A   1      38.745  29.273  28.066  1.00  0.00     0.134 A 
ATOM     61  F   UNL A   1      39.614  28.242  31.438  1.00  0.00    -0.206 F 
ATOM     62  C   UNL A   1      37.558  28.944  30.555  1.00  0.00     0.040 A 
ATOM     63  C   UNL A   1      37.392  29.572  28.237  1.00  0.00     0.040 A 
ATOM     64  F   UNL A   1      39.275  29.441  26.845  1.00  0.00    -0.206 F 
ATOM     65  C   UNL A   1      36.793  29.398  29.482  1.00  0.00     0.006 A 
ENDBRANCH  44  58
BRANCH  45  66
ATOM     66  C   UNL A   1      49.133  26.590  27.462  1.00  0.00     0.057 A 
ATOM     67  C   UNL A   1      49.663  26.740  26.174  1.00  0.00     0.134 A 
ATOM     68  C   UNL A   1      49.996  26.125  28.462  1.00  0.00     0.134 A 
ATOM     69  F   UNL A   1      48.882  27.165  25.170  1.00  0.00    -0.206 F 
ATOM     70  C   UNL A   1      50.989  26.416  25.885  1.00  0.00     0.040 A 
ATOM     71  C   UNL A   1      51.332  25.825  28.194  1.00  0.00     0.040 A 
ATOM     72  F   UNL A   1      49.554  25.968  29.719  1.00  0.00    -0.206 F 
ATOM     73  C   UNL A   1      51.830  25.961  26.899  1.00  0.00     0.006 A 
ENDBRANCH  45  66
BRANCH  57  74
ATOM     74  C   UNL A   1      45.803  32.361  29.515  1.00  0.00     0.057 A 
ATOM     75  C   UNL A   1      46.204  32.668  30.820  1.00  0.00     0.134 A 
ATOM     76  C   UNL A   1      45.927  33.366  28.546  1.00  0.00     0.134 A 
ATOM     77  F   UNL A   1      46.101  31.754  31.797  1.00  0.00    -0.206 F 
ATOM     78  C   UNL A   1      46.697  33.931  31.152  1.00  0.00     0.040 A 
ATOM     79  C   UNL A   1      46.445  34.622  28.859  1.00  0.00     0.040 A 
ATOM     80  F   UNL A   1      45.568  33.134  27.274  1.00  0.00    -0.206 F 
ATOM     81  C   UNL A   1      46.828  34.909  30.167  1.00  0.00     0.006 A 
ENDBRANCH  57  74
ENDBRANCH  31  32
ENDBRANCH  23  26
ENDBRANCH  21  22
ENDBRANCH  20  21
ENDBRANCH   1  20
TORSDOF 14
ENDMDL
MODEL 3
REMARK VINA RESULT:     -10.2      4.226      8.590
REMARK SMILES O=C(C[C@@H](NC(=O)C1CC=CC1)C1CC1)NCCCNC(=O)c1ccc(-c2c3nc(c(-c4c(F)cccc4F)c4ccc([nH]4)c(-c4c(F)cccc4F)c4nc(c(-c5c(F)cccc5F)c5ccc2[nH]5)C=C4)C=C3)cc1
REMARK SMILES IDX 17 1 16 2 1 3 2 4 3 6 4 7 5 8 6 9 7 11 8 12 9 13 12 14 10 15
REMARK SMILES IDX 11 16 13 17 14 18 15 19 18 20 19 21 20 22 21 23 22 25 23 26
REMARK SMILES IDX 24 27 76 28 25 29 75 30 26 31 27 32 28 33 69 34 29 35 74 36
REMARK SMILES IDX 68 37 70 38 30 39 73 40 67 41 66 42 31 44 57 45 40 46 56 47
REMARK SMILES IDX 41 48 44 49 55 50 71 51 42 52 43 53 54 55 72 56 45 57 32 58
REMARK SMILES IDX 33 59 38 60 34 61 35 62 37 63 39 64 36 65 58 66 59 67 64 68
REMARK SMILES IDX 60 69 61 70 63 71 65 72 62 73 46 74 47 75 52 76 48 77 49 78
REMARK SMILES IDX 51 79 53 80 50 81
REMARK H PARENT 16 5 5 10 20 24 70 43 44 54
REMARK Flexibility Score: inf
ROOT
ATOM      1  C   UNL A   1      31.719  30.012  27.107  1.00  0.00     0.117 C 
ENDROOT
BRANCH   1   2
ATOM      2  N   UNL A   1      31.846  29.205  25.908  1.00  0.00    -0.356 N 
ATOM      3  O   UNL A   1      30.989  27.265  26.775  1.00  0.00    -0.275 OA
ATOM      4  C   UNL A   1      31.637  27.851  25.916  1.00  0.00     0.222 C 
ATOM      5  H   UNL A   1      32.090  29.645  25.062  1.00  0.00     0.163 HD
BRANCH   4   6
ATOM      6  C   UNL A   1      32.423  27.110  24.864  1.00  0.00     0.125 C 
BRANCH   6   7
ATOM      7  C   UNL A   1      31.655  26.659  23.588  1.00  0.00     0.094 C 
BRANCH   7   8
ATOM      8  N   UNL A   1      30.191  26.884  23.836  1.00  0.00    -0.352 N 
ATOM      9  C   UNL A   1      29.054  27.514  23.510  1.00  0.00     0.223 C 
ATOM     10  H   UNL A   1      29.958  26.294  24.589  1.00  0.00     0.163 HD
ATOM     11  O   UNL A   1      28.071  26.836  23.878  1.00  0.00    -0.275 OA
BRANCH   9  12
ATOM     12  C   UNL A   1      28.722  28.880  22.904  1.00  0.00     0.086 C 
ATOM     13  C   UNL A   1      27.284  29.369  23.109  1.00  0.00     0.040 C 
ATOM     14  C   UNL A   1      29.655  30.074  23.101  1.00  0.00     0.040 C 
ATOM     15  C   UNL A   1      27.446  30.801  23.502  1.00  0.00    -0.030 C 
ATOM     16  C   UNL A   1      28.725  31.192  23.471  1.00  0.00    -0.030 C 
ENDBRANCH   9  12
ENDBRANCH   7   8
BRANCH   7  17
ATOM     17  C   UNL A   1      32.350  27.406  22.485  1.00  0.00     0.012 C 
ATOM     18  C   UNL A   1      33.518  28.303  22.644  1.00  0.00     0.006 C 
ATOM     19  C   UNL A   1      33.693  26.951  22.001  1.00  0.00     0.006 C 
ENDBRANCH   7  17
ENDBRANCH   6   7
ENDBRANCH   4   6
ENDBRANCH   1   2
BRANCH   1  20
ATOM     20  C   UNL A   1      31.679  31.493  26.734  1.00  0.00     0.042 C 
BRANCH  20  21
ATOM     21  C   UNL A   1      32.887  32.281  27.233  1.00  0.00     0.118 C 
BRANCH  21  22
ATOM     22  N   UNL A   1      32.567  33.673  27.518  1.00  0.00    -0.352 N 
ATOM     23  C   UNL A   1      33.064  34.494  28.502  1.00  0.00     0.251 C 
ATOM     24  H   UNL A   1      31.900  34.083  26.921  1.00  0.00     0.163 HD
ATOM     25  O   UNL A   1      32.530  35.564  28.751  1.00  0.00    -0.269 OA
BRANCH  23  26
ATOM     26  C   UNL A   1      34.241  34.048  29.269  1.00  0.00     0.039 A 
ATOM     27  C   UNL A   1      34.055  33.260  30.406  1.00  0.00     0.014 A 
ATOM     28  C   UNL A   1      35.524  34.382  28.833  1.00  0.00     0.014 A 
ATOM     29  C   UNL A   1      35.169  32.738  31.065  1.00  0.00     0.010 A 
ATOM     30  C   UNL A   1      36.625  33.793  29.438  1.00  0.00     0.010 A 
ATOM     31  C   UNL A   1      36.460  32.965  30.560  1.00  0.00    -0.014 A 
BRANCH  31  32
ATOM     32  C   UNL A   1      37.662  32.361  31.183  1.00  0.00     0.031 A 
ATOM     33  C   UNL A   1      38.390  31.255  30.471  1.00  0.00     0.074 A 
ATOM     34  C   UNL A   1      38.038  32.734  32.421  1.00  0.00     0.049 A 
ATOM     35  N   UNL A   1      39.359  30.490  30.900  1.00  0.00    -0.248 NA
ATOM     36  C   UNL A   1      37.943  30.948  29.102  1.00  0.00     0.031 C 
ATOM     37  C   UNL A   1      37.395  33.773  33.227  1.00  0.00     0.029 A 
ATOM     38  N   UNL A   1      39.043  32.261  33.229  1.00  0.00    -0.354 N 
ATOM     39  C   UNL A   1      39.622  29.599  29.868  1.00  0.00     0.074 A 
ATOM     40  C   UNL A   1      38.674  29.882  28.812  1.00  0.00     0.031 C 
ATOM     41  C   UNL A   1      38.027  33.868  34.408  1.00  0.00     0.029 A 
ATOM     42  C   UNL A   1      39.085  32.864  34.464  1.00  0.00     0.049 A 
ATOM     43  H   UNL A   1      39.673  31.558  32.951  1.00  0.00     0.167 HD
ATOM     44  C   UNL A   1      40.578  28.645  29.798  1.00  0.00     0.037 A 
ATOM     45  C   UNL A   1      39.874  32.619  35.528  1.00  0.00     0.037 A 
ATOM     46  C   UNL A   1      41.530  28.382  30.844  1.00  0.00     0.049 A 
ATOM     47  C   UNL A   1      40.912  31.533  35.436  1.00  0.00     0.074 A 
ATOM     48  C   UNL A   1      42.571  27.470  30.852  1.00  0.00     0.029 A 
ATOM     49  N   UNL A   1      41.556  29.031  32.070  1.00  0.00    -0.354 N 
ATOM     50  N   UNL A   1      41.184  30.731  34.435  1.00  0.00    -0.248 NA
ATOM     51  C   UNL A   1      41.755  31.319  36.621  1.00  0.00     0.031 C 
ATOM     52  C   UNL A   1      43.191  27.528  32.103  1.00  0.00     0.029 A 
ATOM     53  C   UNL A   1      42.581  28.524  32.850  1.00  0.00     0.049 A 
ATOM     54  H   UNL A   1      40.937  29.746  32.343  1.00  0.00     0.167 HD
ATOM     55  C   UNL A   1      42.255  29.950  34.852  1.00  0.00     0.074 A 
ATOM     56  C   UNL A   1      42.584  30.375  36.197  1.00  0.00     0.031 C 
ATOM     57  C   UNL A   1      42.911  28.974  34.178  1.00  0.00     0.037 A 
BRANCH  44  58
ATOM     58  C   UNL A   1      40.638  27.812  28.550  1.00  0.00     0.057 A 
ATOM     59  C   UNL A   1      41.395  28.198  27.435  1.00  0.00     0.134 A 
ATOM     60  C   UNL A   1      39.955  26.591  28.473  1.00  0.00     0.134 A 
ATOM     61  F   UNL A   1      42.063  29.362  27.437  1.00  0.00    -0.206 F 
ATOM     62  C   UNL A   1      41.446  27.417  26.280  1.00  0.00     0.040 A 
ATOM     63  C   UNL A   1      40.025  25.785  27.335  1.00  0.00     0.040 A 
ATOM     64  F   UNL A   1      39.218  26.155  29.505  1.00  0.00    -0.206 F 
ATOM     65  C   UNL A   1      40.765  26.202  26.231  1.00  0.00     0.006 A 
ENDBRANCH  44  58
BRANCH  45  66
ATOM     66  C   UNL A   1      39.724  33.421  36.769  1.00  0.00     0.057 A 
ATOM     67  C   UNL A   1      40.470  34.590  36.966  1.00  0.00     0.134 A 
ATOM     68  C   UNL A   1      38.846  33.038  37.790  1.00  0.00     0.134 A 
ATOM     69  F   UNL A   1      41.341  35.000  36.033  1.00  0.00    -0.206 F 
ATOM     70  C   UNL A   1      40.368  35.334  38.143  1.00  0.00     0.040 A 
ATOM     71  C   UNL A   1      38.713  33.788  38.959  1.00  0.00     0.040 A 
ATOM     72  F   UNL A   1      38.095  31.934  37.659  1.00  0.00    -0.206 F 
ATOM     73  C   UNL A   1      39.483  34.935  39.143  1.00  0.00     0.006 A 
ENDBRANCH  45  66
BRANCH  57  74
ATOM     74  C   UNL A   1      44.096  28.341  34.849  1.00  0.00     0.057 A 
ATOM     75  C   UNL A   1      45.389  28.867  34.733  1.00  0.00     0.134 A 
ATOM     76  C   UNL A   1      43.922  27.227  35.680  1.00  0.00     0.134 A 
ATOM     77  F   UNL A   1      45.625  29.926  33.943  1.00  0.00    -0.206 F 
ATOM     78  C   UNL A   1      46.469  28.295  35.407  1.00  0.00     0.040 A 
ATOM     79  C   UNL A   1      44.989  26.666  36.383  1.00  0.00     0.040 A 
ATOM     80  F   UNL A   1      42.708  26.680  35.843  1.00  0.00    -0.206 F 
ATOM     81  C   UNL A   1      46.269  27.198  36.243  1.00  0.00     0.006 A 
ENDBRANCH  57  74
ENDBRANCH  31  32
ENDBRANCH  23  26
ENDBRANCH  21  22
ENDBRANCH  20  21
ENDBRANCH   1  20
TORSDOF 14
ENDMDL
