MODEL 1
REMARK VINA RESULT:     -11.7      0.000      0.000
REMARK SMILES CCC[C@@]1(C(=O)NCCCNC(=O)c2ccc(-c3c4nc(c(-c5c(F)cccc5F)c5ccc([nH]5)c(-c5c(F)cccc5F)c5nc(c(-c6c(F)cccc6F)c6ccc3[nH]6)C=C5)C=C4)cc2)CCN(C(=O)NC[C@]2(C)CCCO2)C1
REMARK SMILES IDX 8 1 7 2 5 3 6 4 4 6 68 7 81 8 69 9 70 10 3 11 2 12 1 13
REMARK SMILES IDX 71 14 72 15 73 16 74 18 75 19 77 20 80 21 76 22 78 23 79 24
REMARK SMILES IDX 9 25 10 26 11 27 12 28 13 30 14 31 15 32 67 33 16 34 66 35
REMARK SMILES IDX 17 36 18 37 19 38 60 39 20 40 65 41 59 42 61 43 21 44 64 45
REMARK SMILES IDX 58 46 57 47 22 49 48 50 31 51 47 52 32 53 35 54 46 55 62 56
REMARK SMILES IDX 33 57 34 58 45 60 63 61 36 62 23 63 24 64 29 65 25 66 26 67
REMARK SMILES IDX 28 68 30 69 27 70 49 71 50 72 55 73 51 74 52 75 54 76 56 77
REMARK SMILES IDX 53 78 37 79 38 80 43 81 39 82 40 83 42 84 44 85 41 86
REMARK H PARENT 7 5 73 17 11 29 61 48 35 59
REMARK Flexibility Score: inf
ROOT
ATOM      1  C   UNL A   1      36.435  20.686  24.698  1.00  0.00     0.117 C 
ENDROOT
BRANCH   1   2
ATOM      2  N   UNL A   1      35.568  20.994  25.817  1.00  0.00    -0.355 N 
ATOM      3  C   UNL A   1      34.229  20.976  26.013  1.00  0.00     0.228 C 
ATOM      4  O   UNL A   1      33.885  21.029  27.202  1.00  0.00    -0.274 OA
ATOM      5  H   UNL A   1      36.066  21.280  26.617  1.00  0.00     0.163 HD
BRANCH   3   6
ATOM      6  C   UNL A   1      33.162  20.995  24.902  1.00  0.00     0.068 C 
ATOM      7  C   UNL A   1      33.493  22.164  23.935  1.00  0.00     0.040 C 
ATOM      8  C   UNL A   1      31.794  21.507  25.389  1.00  0.00     0.138 C 
ATOM      9  C   UNL A   1      33.071  23.396  24.743  1.00  0.00     0.122 C 
ATOM     10  N   UNL A   1      31.906  22.955  25.486  1.00  0.00    -0.324 N 
BRANCH   6  11
ATOM     11  C   UNL A   1      32.989  19.659  24.141  1.00  0.00     0.018 C 
BRANCH  11  12
ATOM     12  C   UNL A   1      33.787  18.375  24.442  1.00  0.00    -0.002 C 
ATOM     13  C   UNL A   1      33.797  17.203  23.482  1.00  0.00     0.004 C 
ENDBRANCH  11  12
ENDBRANCH   6  11
BRANCH  10  14
ATOM     14  C   UNL A   1      30.974  23.635  26.197  1.00  0.00     0.317 C 
ATOM     15  O   UNL A   1      30.695  23.311  27.356  1.00  0.00    -0.249 OA
ATOM     16  N   UNL A   1      30.303  24.687  25.711  1.00  0.00    -0.335 N 
ATOM     17  H   UNL A   1      29.626  25.012  26.349  1.00  0.00     0.165 HD
BRANCH  16  18
ATOM     18  C   UNL A   1      30.311  25.476  24.491  1.00  0.00     0.152 C 
BRANCH  18  19
ATOM     19  C   UNL A   1      31.008  26.867  24.604  1.00  0.00     0.083 C 
ATOM     20  C   UNL A   1      30.283  28.007  23.895  1.00  0.00     0.039 C 
ATOM     21  O   UNL A   1      32.262  26.764  23.877  1.00  0.00    -0.373 OA
ATOM     22  C   UNL A   1      31.330  27.244  26.050  1.00  0.00     0.044 C 
ATOM     23  C   UNL A   1      30.638  27.764  22.448  1.00  0.00     0.031 C 
ATOM     24  C   UNL A   1      32.082  27.314  22.561  1.00  0.00     0.161 C 
ENDBRANCH  18  19
ENDBRANCH  16  18
ENDBRANCH  10  14
ENDBRANCH   3   6
ENDBRANCH   1   2
BRANCH   1  25
ATOM     25  C   UNL A   1      37.569  19.706  24.966  1.00  0.00     0.042 C 
BRANCH  25  26
ATOM     26  C   UNL A   1      38.787  20.233  25.721  1.00  0.00     0.118 C 
BRANCH  26  27
ATOM     27  N   UNL A   1      39.897  19.300  25.782  1.00  0.00    -0.352 N 
ATOM     28  C   UNL A   1      41.214  19.528  26.078  1.00  0.00     0.251 C 
ATOM     29  H   UNL A   1      39.669  18.363  25.581  1.00  0.00     0.163 HD
ATOM     30  O   UNL A   1      42.052  18.648  25.898  1.00  0.00    -0.269 OA
BRANCH  28  31
ATOM     31  C   UNL A   1      41.626  20.841  26.608  1.00  0.00     0.039 A 
ATOM     32  C   UNL A   1      42.112  21.805  25.723  1.00  0.00     0.014 A 
ATOM     33  C   UNL A   1      41.541  21.113  27.977  1.00  0.00     0.014 A 
ATOM     34  C   UNL A   1      42.465  23.064  26.206  1.00  0.00     0.010 A 
ATOM     35  C   UNL A   1      41.828  22.391  28.446  1.00  0.00     0.010 A 
ATOM     36  C   UNL A   1      42.301  23.376  27.567  1.00  0.00    -0.014 A 
BRANCH  36  37
ATOM     37  C   UNL A   1      42.623  24.733  28.078  1.00  0.00     0.031 A 
ATOM     38  C   UNL A   1      44.038  25.083  28.448  1.00  0.00     0.074 A 
ATOM     39  C   UNL A   1      41.633  25.631  28.244  1.00  0.00     0.049 A 
ATOM     40  N   UNL A   1      44.511  26.204  28.930  1.00  0.00    -0.248 NA
ATOM     41  C   UNL A   1      45.054  24.032  28.274  1.00  0.00     0.031 C 
ATOM     42  C   UNL A   1      40.216  25.392  27.960  1.00  0.00     0.029 A 
ATOM     43  N   UNL A   1      41.664  26.927  28.694  1.00  0.00    -0.354 N 
ATOM     44  C   UNL A   1      45.868  25.989  29.131  1.00  0.00     0.074 A 
ATOM     45  C   UNL A   1      46.139  24.618  28.760  1.00  0.00     0.031 C 
ATOM     46  C   UNL A   1      39.520  26.511  28.216  1.00  0.00     0.029 A 
ATOM     47  C   UNL A   1      40.431  27.533  28.720  1.00  0.00     0.049 A 
ATOM     48  H   UNL A   1      42.493  27.380  28.972  1.00  0.00     0.167 HD
ATOM     49  C   UNL A   1      46.805  26.863  29.566  1.00  0.00     0.037 A 
ATOM     50  C   UNL A   1      40.076  28.771  29.113  1.00  0.00     0.037 A 
ATOM     51  C   UNL A   1      46.535  28.236  29.901  1.00  0.00     0.049 A 
ATOM     52  C   UNL A   1      41.144  29.713  29.604  1.00  0.00     0.074 A 
ATOM     53  C   UNL A   1      47.431  29.221  30.275  1.00  0.00     0.029 A 
ATOM     54  N   UNL A   1      45.276  28.814  29.908  1.00  0.00    -0.354 N 
ATOM     55  N   UNL A   1      42.437  29.523  29.699  1.00  0.00    -0.248 NA
ATOM     56  C   UNL A   1      40.701  31.047  30.036  1.00  0.00     0.031 C 
ATOM     57  C   UNL A   1      46.707  30.380  30.569  1.00  0.00     0.029 A 
ATOM     58  C   UNL A   1      45.368  30.134  30.316  1.00  0.00     0.049 A 
ATOM     59  H   UNL A   1      44.440  28.355  29.660  1.00  0.00     0.167 HD
ATOM     60  C   UNL A   1      42.965  30.722  30.164  1.00  0.00     0.074 A 
ATOM     61  C   UNL A   1      41.853  31.637  30.315  1.00  0.00     0.031 C 
ATOM     62  C   UNL A   1      44.253  31.038  30.442  1.00  0.00     0.037 A 
BRANCH  49  63
ATOM     63  C   UNL A   1      48.217  26.370  29.710  1.00  0.00     0.057 A 
ATOM     64  C   UNL A   1      49.155  26.492  28.678  1.00  0.00     0.134 A 
ATOM     65  C   UNL A   1      48.661  25.838  30.928  1.00  0.00     0.134 A 
ATOM     66  F   UNL A   1      48.793  26.982  27.483  1.00  0.00    -0.206 F 
ATOM     67  C   UNL A   1      50.482  26.091  28.847  1.00  0.00     0.040 A 
ATOM     68  C   UNL A   1      49.991  25.460  31.118  1.00  0.00     0.040 A 
ATOM     69  F   UNL A   1      47.816  25.699  31.960  1.00  0.00    -0.206 F 
ATOM     70  C   UNL A   1      50.906  25.583  30.074  1.00  0.00     0.006 A 
ENDBRANCH  49  63
BRANCH  50  71
ATOM     71  C   UNL A   1      38.656  29.207  29.061  1.00  0.00     0.057 A 
ATOM     72  C   UNL A   1      37.825  29.109  30.184  1.00  0.00     0.134 A 
ATOM     73  C   UNL A   1      38.078  29.678  27.876  1.00  0.00     0.134 A 
ATOM     74  F   UNL A   1      38.314  28.649  31.346  1.00  0.00    -0.206 F 
ATOM     75  C   UNL A   1      36.467  29.425  30.122  1.00  0.00     0.040 A 
ATOM     76  C   UNL A   1      36.729  30.028  27.807  1.00  0.00     0.040 A 
ATOM     77  F   UNL A   1      38.818  29.804  26.764  1.00  0.00    -0.206 F 
ATOM     78  C   UNL A   1      35.916  29.888  28.930  1.00  0.00     0.006 A 
ENDBRANCH  50  71
BRANCH  62  79
ATOM     79  C   UNL A   1      44.537  32.443  30.887  1.00  0.00     0.057 A 
ATOM     80  C   UNL A   1      44.785  33.476  29.974  1.00  0.00     0.134 A 
ATOM     81  C   UNL A   1      44.522  32.772  32.248  1.00  0.00     0.134 A 
ATOM     82  F   UNL A   1      44.825  33.226  28.657  1.00  0.00    -0.206 F 
ATOM     83  C   UNL A   1      45.036  34.781  30.402  1.00  0.00     0.040 A 
ATOM     84  C   UNL A   1      44.740  34.079  32.686  1.00  0.00     0.040 A 
ATOM     85  F   UNL A   1      44.280  31.833  33.175  1.00  0.00    -0.206 F 
ATOM     86  C   UNL A   1      45.005  35.086  31.761  1.00  0.00     0.006 A 
ENDBRANCH  62  79
ENDBRANCH  36  37
ENDBRANCH  28  31
ENDBRANCH  26  27
ENDBRANCH  25  26
ENDBRANCH   1  25
TORSDOF 15
ENDMDL
MODEL 2
REMARK VINA RESULT:     -11.7      1.319      6.299
REMARK SMILES CCC[C@@]1(C(=O)NCCCNC(=O)c2ccc(-c3c4nc(c(-c5c(F)cccc5F)c5ccc([nH]5)c(-c5c(F)cccc5F)c5nc(c(-c6c(F)cccc6F)c6ccc3[nH]6)C=C5)C=C4)cc2)CCN(C(=O)NC[C@]2(C)CCCO2)C1
REMARK SMILES IDX 8 1 7 2 5 3 6 4 4 6 68 7 81 8 69 9 70 10 3 11 2 12 1 13
REMARK SMILES IDX 71 14 72 15 73 16 74 18 75 19 77 20 80 21 76 22 78 23 79 24
REMARK SMILES IDX 9 25 10 26 11 27 12 28 13 30 14 31 15 32 67 33 16 34 66 35
REMARK SMILES IDX 17 36 18 37 19 38 60 39 20 40 65 41 59 42 61 43 21 44 64 45
REMARK SMILES IDX 58 46 57 47 22 49 48 50 31 51 47 52 32 53 35 54 46 55 62 56
REMARK SMILES IDX 33 57 34 58 45 60 63 61 36 62 23 63 24 64 29 65 25 66 26 67
REMARK SMILES IDX 28 68 30 69 27 70 49 71 50 72 55 73 51 74 52 75 54 76 56 77
REMARK SMILES IDX 53 78 37 79 38 80 43 81 39 82 40 83 42 84 44 85 41 86
REMARK H PARENT 7 5 73 17 11 29 61 48 35 59
REMARK Flexibility Score: inf
ROOT
ATOM      1  C   UNL A   1      36.465  20.815  24.749  1.00  0.00     0.117 C 
ENDROOT
BRANCH   1   2
ATOM      2  N   UNL A   1      35.564  21.094  25.848  1.00  0.00    -0.355 N 
ATOM      3  C   UNL A   1      34.221  21.041  26.011  1.00  0.00     0.228 C 
ATOM      4  O   UNL A   1      33.848  21.078  27.192  1.00  0.00    -0.274 OA
ATOM      5  H   UNL A   1      36.035  21.387  26.661  1.00  0.00     0.163 HD
BRANCH   3   6
ATOM      6  C   UNL A   1      33.182  21.041  24.875  1.00  0.00     0.068 C 
ATOM      7  C   UNL A   1      33.521  22.210  23.910  1.00  0.00     0.040 C 
ATOM      8  C   UNL A   1      31.795  21.538  25.326  1.00  0.00     0.138 C 
ATOM      9  C   UNL A   1      33.064  23.440  24.701  1.00  0.00     0.122 C 
ATOM     10  N   UNL A   1      31.887  22.988  25.418  1.00  0.00    -0.324 N 
BRANCH   6  11
ATOM     11  C   UNL A   1      33.044  19.700  24.117  1.00  0.00     0.018 C 
BRANCH  11  12
ATOM     12  C   UNL A   1      33.729  18.385  24.540  1.00  0.00    -0.002 C 
ATOM     13  C   UNL A   1      34.028  17.287  23.540  1.00  0.00     0.004 C 
ENDBRANCH  11  12
ENDBRANCH   6  11
BRANCH  10  14
ATOM     14  C   UNL A   1      30.930  23.659  26.103  1.00  0.00     0.317 C 
ATOM     15  O   UNL A   1      30.617  23.329  27.252  1.00  0.00    -0.249 OA
ATOM     16  N   UNL A   1      30.267  24.709  25.601  1.00  0.00    -0.335 N 
ATOM     17  H   UNL A   1      29.569  25.027  26.219  1.00  0.00     0.165 HD
BRANCH  16  18
ATOM     18  C   UNL A   1      30.307  25.503  24.385  1.00  0.00     0.152 C 
BRANCH  18  19
ATOM     19  C   UNL A   1      31.021  26.883  24.516  1.00  0.00     0.083 C 
ATOM     20  C   UNL A   1      30.306  28.043  23.828  1.00  0.00     0.039 C 
ATOM     21  O   UNL A   1      32.270  26.777  23.782  1.00  0.00    -0.373 OA
ATOM     22  C   UNL A   1      31.354  27.235  25.967  1.00  0.00     0.044 C 
ATOM     23  C   UNL A   1      30.653  27.818  22.376  1.00  0.00     0.031 C 
ATOM     24  C   UNL A   1      32.091  27.350  22.475  1.00  0.00     0.161 C 
ENDBRANCH  18  19
ENDBRANCH  16  18
ENDBRANCH  10  14
ENDBRANCH   3   6
ENDBRANCH   1   2
BRANCH   1  25
ATOM     25  C   UNL A   1      37.543  19.769  25.001  1.00  0.00     0.042 C 
BRANCH  25  26
ATOM     26  C   UNL A   1      38.823  20.235  25.691  1.00  0.00     0.118 C 
BRANCH  26  27
ATOM     27  N   UNL A   1      39.836  19.203  25.821  1.00  0.00    -0.352 N 
ATOM     28  C   UNL A   1      41.182  19.325  26.041  1.00  0.00     0.251 C 
ATOM     29  H   UNL A   1      39.507  18.279  25.739  1.00  0.00     0.163 HD
ATOM     30  O   UNL A   1      41.918  18.347  25.934  1.00  0.00    -0.269 OA
BRANCH  28  31
ATOM     31  C   UNL A   1      41.747  20.639  26.397  1.00  0.00     0.039 A 
ATOM     32  C   UNL A   1      42.135  21.508  25.376  1.00  0.00     0.014 A 
ATOM     33  C   UNL A   1      41.904  21.005  27.738  1.00  0.00     0.014 A 
ATOM     34  C   UNL A   1      42.632  22.769  25.700  1.00  0.00     0.010 A 
ATOM     35  C   UNL A   1      42.335  22.289  28.058  1.00  0.00     0.010 A 
ATOM     36  C   UNL A   1      42.711  23.180  27.042  1.00  0.00    -0.014 A 
BRANCH  36  37
ATOM     37  C   UNL A   1      43.188  24.542  27.391  1.00  0.00     0.031 A 
ATOM     38  C   UNL A   1      42.210  25.593  27.840  1.00  0.00     0.074 A 
ATOM     39  C   UNL A   1      44.496  24.838  27.265  1.00  0.00     0.049 A 
ATOM     40  N   UNL A   1      42.432  26.840  28.167  1.00  0.00    -0.248 NA
ATOM     41  C   UNL A   1      40.793  25.199  27.914  1.00  0.00     0.031 C 
ATOM     42  C   UNL A   1      45.533  23.915  26.798  1.00  0.00     0.029 A 
ATOM     43  N   UNL A   1      45.180  26.002  27.515  1.00  0.00    -0.354 N 
ATOM     44  C   UNL A   1      41.189  27.381  28.466  1.00  0.00     0.074 A 
ATOM     45  C   UNL A   1      40.209  26.342  28.242  1.00  0.00     0.031 C 
ATOM     46  C   UNL A   1      46.722  24.538  26.823  1.00  0.00     0.029 A 
ATOM     47  C   UNL A   1      46.529  25.914  27.266  1.00  0.00     0.049 A 
ATOM     48  H   UNL A   1      44.745  26.822  27.843  1.00  0.00     0.167 HD
ATOM     49  C   UNL A   1      40.895  28.627  28.907  1.00  0.00     0.037 A 
ATOM     50  C   UNL A   1      47.498  26.843  27.376  1.00  0.00     0.037 A 
ATOM     51  C   UNL A   1      41.878  29.646  29.160  1.00  0.00     0.049 A 
ATOM     52  C   UNL A   1      47.133  28.222  27.858  1.00  0.00     0.074 A 
ATOM     53  C   UNL A   1      41.688  30.913  29.683  1.00  0.00     0.029 A 
ATOM     54  N   UNL A   1      43.234  29.518  28.902  1.00  0.00    -0.354 N 
ATOM     55  N   UNL A   1      45.965  28.689  28.226  1.00  0.00    -0.248 NA
ATOM     56  C   UNL A   1      48.226  29.203  27.945  1.00  0.00     0.031 C 
ATOM     57  C   UNL A   1      42.919  31.574  29.684  1.00  0.00     0.029 A 
ATOM     58  C   UNL A   1      43.886  30.697  29.221  1.00  0.00     0.049 A 
ATOM     59  H   UNL A   1      43.668  28.710  28.545  1.00  0.00     0.167 HD
ATOM     60  C   UNL A   1      46.189  30.002  28.625  1.00  0.00     0.074 A 
ATOM     61  C   UNL A   1      47.607  30.251  28.468  1.00  0.00     0.031 C 
ATOM     62  C   UNL A   1      45.302  30.921  29.078  1.00  0.00     0.037 A 
BRANCH  49  63
ATOM     63  C   UNL A   1      39.452  28.969  29.147  1.00  0.00     0.057 A 
ATOM     64  C   UNL A   1      38.623  29.450  28.126  1.00  0.00     0.134 A 
ATOM     65  C   UNL A   1      38.867  28.738  30.399  1.00  0.00     0.134 A 
ATOM     66  F   UNL A   1      39.122  29.703  26.907  1.00  0.00    -0.206 F 
ATOM     67  C   UNL A   1      37.267  29.702  28.345  1.00  0.00     0.040 A 
ATOM     68  C   UNL A   1      37.508  28.960  30.623  1.00  0.00     0.040 A 
ATOM     69  F   UNL A   1      39.603  28.272  31.420  1.00  0.00    -0.206 F 
ATOM     70  C   UNL A   1      36.704  29.446  29.594  1.00  0.00     0.006 A 
ENDBRANCH  49  63
BRANCH  50  71
ATOM     71  C   UNL A   1      48.907  26.514  27.034  1.00  0.00     0.057 A 
ATOM     72  C   UNL A   1      49.404  26.712  25.740  1.00  0.00     0.134 A 
ATOM     73  C   UNL A   1      49.775  25.946  27.974  1.00  0.00     0.134 A 
ATOM     74  F   UNL A   1      48.617  27.237  24.788  1.00  0.00    -0.206 F 
ATOM     75  C   UNL A   1      50.695  26.319  25.381  1.00  0.00     0.040 A 
ATOM     76  C   UNL A   1      51.079  25.578  27.639  1.00  0.00     0.040 A 
ATOM     77  F   UNL A   1      49.366  25.737  29.235  1.00  0.00    -0.206 F 
ATOM     78  C   UNL A   1      51.537  25.751  26.334  1.00  0.00     0.006 A 
ENDBRANCH  50  71
BRANCH  62  79
ATOM     79  C   UNL A   1      45.844  32.260  29.486  1.00  0.00     0.057 A 
ATOM     80  C   UNL A   1      46.317  32.507  30.781  1.00  0.00     0.134 A 
ATOM     81  C   UNL A   1      45.930  33.303  28.556  1.00  0.00     0.134 A 
ATOM     82  F   UNL A   1      46.252  31.554  31.723  1.00  0.00    -0.206 F 
ATOM     83  C   UNL A   1      46.829  33.754  31.144  1.00  0.00     0.040 A 
ATOM     84  C   UNL A   1      46.471  34.544  28.897  1.00  0.00     0.040 A 
ATOM     85  F   UNL A   1      45.506  33.131  27.295  1.00  0.00    -0.206 F 
ATOM     86  C   UNL A   1      46.915  34.773  30.197  1.00  0.00     0.006 A 
ENDBRANCH  62  79
ENDBRANCH  36  37
ENDBRANCH  28  31
ENDBRANCH  26  27
ENDBRANCH  25  26
ENDBRANCH   1  25
TORSDOF 15
ENDMDL
MODEL 3
REMARK VINA RESULT:     -11.6      4.168      9.040
REMARK SMILES CCC[C@@]1(C(=O)NCCCNC(=O)c2ccc(-c3c4nc(c(-c5c(F)cccc5F)c5ccc([nH]5)c(-c5c(F)cccc5F)c5nc(c(-c6c(F)cccc6F)c6ccc3[nH]6)C=C5)C=C4)cc2)CCN(C(=O)NC[C@]2(C)CCCO2)C1
REMARK SMILES IDX 8 1 7 2 5 3 6 4 4 6 68 7 81 8 69 9 70 10 3 11 2 12 1 13
REMARK SMILES IDX 71 14 72 15 73 16 74 18 75 19 77 20 80 21 76 22 78 23 79 24
REMARK SMILES IDX 9 25 10 26 11 27 12 28 13 30 14 31 15 32 67 33 16 34 66 35
REMARK SMILES IDX 17 36 18 37 19 38 60 39 20 40 65 41 59 42 61 43 21 44 64 45
REMARK SMILES IDX 58 46 57 47 22 49 48 50 31 51 47 52 32 53 35 54 46 55 62 56
REMARK SMILES IDX 33 57 34 58 45 60 63 61 36 62 23 63 24 64 29 65 25 66 26 67
REMARK SMILES IDX 28 68 30 69 27 70 49 71 50 72 55 73 51 74 52 75 54 76 56 77
REMARK SMILES IDX 53 78 37 79 38 80 43 81 39 82 40 83 42 84 44 85 41 86
REMARK H PARENT 7 5 73 17 11 29 61 48 35 59
REMARK Flexibility Score: inf
ROOT
ATOM      1  C   UNL A   1      31.416  30.218  25.905  1.00  0.00     0.117 C 
ENDROOT
BRANCH   1   2
ATOM      2  N   UNL A   1      32.236  29.792  24.789  1.00  0.00    -0.355 N 
ATOM      3  C   UNL A   1      32.016  29.050  23.679  1.00  0.00     0.228 C 
ATOM      4  O   UNL A   1      32.898  29.151  22.813  1.00  0.00    -0.274 OA
ATOM      5  H   UNL A   1      33.164  30.117  24.852  1.00  0.00     0.163 HD
BRANCH   3   6
ATOM      6  C   UNL A   1      30.852  28.063  23.478  1.00  0.00     0.068 C 
ATOM      7  C   UNL A   1      30.768  27.154  24.735  1.00  0.00     0.040 C 
ATOM      8  C   UNL A   1      31.163  26.964  22.445  1.00  0.00     0.138 C 
ATOM      9  C   UNL A   1      31.961  26.212  24.546  1.00  0.00     0.122 C 
ATOM     10  N   UNL A   1      32.031  26.005  23.112  1.00  0.00    -0.324 N 
BRANCH   6  11
ATOM     11  C   UNL A   1      29.488  28.720  23.160  1.00  0.00     0.018 C 
BRANCH  11  12
ATOM     12  C   UNL A   1      29.313  30.170  22.665  1.00  0.00    -0.002 C 
ATOM     13  C   UNL A   1      28.653  31.229  23.524  1.00  0.00     0.004 C 
ENDBRANCH  11  12
ENDBRANCH   6  11
BRANCH  10  14
ATOM     14  C   UNL A   1      32.725  25.120  22.358  1.00  0.00     0.317 C 
ATOM     15  O   UNL A   1      33.639  25.492  21.615  1.00  0.00    -0.249 OA
ATOM     16  N   UNL A   1      32.482  23.802  22.362  1.00  0.00    -0.335 N 
ATOM     17  H   UNL A   1      33.044  23.328  21.706  1.00  0.00     0.165 HD
BRANCH  16  18
ATOM     18  C   UNL A   1      31.609  22.889  23.079  1.00  0.00     0.152 C 
BRANCH  18  19
ATOM     19  C   UNL A   1      32.337  21.799  23.923  1.00  0.00     0.083 C 
ATOM     20  C   UNL A   1      31.843  21.664  25.361  1.00  0.00     0.039 C 
ATOM     21  O   UNL A   1      33.711  22.244  24.082  1.00  0.00    -0.373 OA
ATOM     22  C   UNL A   1      32.360  20.437  23.227  1.00  0.00     0.044 C 
ATOM     23  C   UNL A   1      32.489  22.850  26.035  1.00  0.00     0.031 C 
ATOM     24  C   UNL A   1      33.849  22.879  25.365  1.00  0.00     0.161 C 
ENDBRANCH  18  19
ENDBRANCH  16  18
ENDBRANCH  10  14
ENDBRANCH   3   6
ENDBRANCH   1   2
BRANCH   1  25
ATOM     25  C   UNL A   1      31.407  31.709  26.212  1.00  0.00     0.042 C 
BRANCH  25  26
ATOM     26  C   UNL A   1      32.572  32.263  27.028  1.00  0.00     0.118 C 
BRANCH  26  27
ATOM     27  N   UNL A   1      32.422  33.657  27.406  1.00  0.00    -0.352 N 
ATOM     28  C   UNL A   1      33.079  34.376  28.368  1.00  0.00     0.251 C 
ATOM     29  H   UNL A   1      31.748  34.160  26.894  1.00  0.00     0.163 HD
ATOM     30  O   UNL A   1      32.690  35.499  28.677  1.00  0.00    -0.269 OA
BRANCH  28  31
ATOM     31  C   UNL A   1      34.255  33.792  29.040  1.00  0.00     0.039 A 
ATOM     32  C   UNL A   1      34.056  32.874  30.073  1.00  0.00     0.014 A 
ATOM     33  C   UNL A   1      35.548  34.160  28.657  1.00  0.00     0.014 A 
ATOM     34  C   UNL A   1      35.159  32.284  30.688  1.00  0.00     0.010 A 
ATOM     35  C   UNL A   1      36.645  33.519  29.224  1.00  0.00     0.010 A 
ATOM     36  C   UNL A   1      36.462  32.581  30.251  1.00  0.00    -0.014 A 
BRANCH  36  37
ATOM     37  C   UNL A   1      37.638  31.914  30.864  1.00  0.00     0.031 A 
ATOM     38  C   UNL A   1      38.367  30.832  30.117  1.00  0.00     0.074 A 
ATOM     39  C   UNL A   1      38.021  32.260  32.109  1.00  0.00     0.049 A 
ATOM     40  N   UNL A   1      39.399  30.121  30.495  1.00  0.00    -0.248 NA
ATOM     41  C   UNL A   1      37.861  30.486  28.779  1.00  0.00     0.031 C 
ATOM     42  C   UNL A   1      37.365  33.266  32.948  1.00  0.00     0.029 A 
ATOM     43  N   UNL A   1      39.053  31.803  32.889  1.00  0.00    -0.354 N 
ATOM     44  C   UNL A   1      39.654  29.238  29.454  1.00  0.00     0.074 A 
ATOM     45  C   UNL A   1      38.644  29.470  28.445  1.00  0.00     0.031 C 
ATOM     46  C   UNL A   1      38.027  33.369  34.111  1.00  0.00     0.029 A 
ATOM     47  C   UNL A   1      39.127  32.411  34.119  1.00  0.00     0.049 A 
ATOM     48  H   UNL A   1      39.683  31.106  32.594  1.00  0.00     0.167 HD
ATOM     49  C   UNL A   1      40.651  28.331  29.342  1.00  0.00     0.037 A 
ATOM     50  C   UNL A   1      39.981  32.210  35.141  1.00  0.00     0.037 A 
ATOM     51  C   UNL A   1      41.673  28.129  30.335  1.00  0.00     0.049 A 
ATOM     52  C   UNL A   1      41.072  31.184  34.987  1.00  0.00     0.074 A 
ATOM     53  C   UNL A   1      42.772  27.289  30.278  1.00  0.00     0.029 A 
ATOM     54  N   UNL A   1      41.718  28.767  31.564  1.00  0.00    -0.354 N 
ATOM     55  N   UNL A   1      41.355  30.423  33.958  1.00  0.00    -0.248 NA
ATOM     56  C   UNL A   1      41.968  30.993  36.137  1.00  0.00     0.031 C 
ATOM     57  C   UNL A   1      43.448  27.373  31.499  1.00  0.00     0.029 A 
ATOM     58  C   UNL A   1      42.806  28.312  32.290  1.00  0.00     0.049 A 
ATOM     59  H   UNL A   1      41.072  29.442  31.875  1.00  0.00     0.167 HD
ATOM     60  C   UNL A   1      42.481  29.694  34.321  1.00  0.00     0.074 A 
ATOM     61  C   UNL A   1      42.838  30.116  35.659  1.00  0.00     0.031 C 
ATOM     62  C   UNL A   1      43.159  28.757  33.613  1.00  0.00     0.037 A 
BRANCH  49  63
ATOM     63  C   UNL A   1      40.696  27.480  28.106  1.00  0.00     0.057 A 
ATOM     64  C   UNL A   1      41.412  27.863  26.965  1.00  0.00     0.134 A 
ATOM     65  C   UNL A   1      40.078  26.222  28.087  1.00  0.00     0.134 A 
ATOM     66  F   UNL A   1      42.018  29.059  26.913  1.00  0.00    -0.206 F 
ATOM     67  C   UNL A   1      41.502  27.033  25.845  1.00  0.00     0.040 A 
ATOM     68  C   UNL A   1      40.183  25.372  26.986  1.00  0.00     0.040 A 
ATOM     69  F   UNL A   1      39.381  25.790  29.149  1.00  0.00    -0.206 F 
ATOM     70  C   UNL A   1      40.894  25.778  25.859  1.00  0.00     0.006 A 
ENDBRANCH  49  63
BRANCH  50  71
ATOM     71  C   UNL A   1      39.857  32.992  36.400  1.00  0.00     0.057 A 
ATOM     72  C   UNL A   1      38.938  32.627  37.392  1.00  0.00     0.134 A 
ATOM     73  C   UNL A   1      40.611  34.150  36.619  1.00  0.00     0.134 A 
ATOM     74  F   UNL A   1      38.172  31.537  37.234  1.00  0.00    -0.206 F 
ATOM     75  C   UNL A   1      38.744  33.405  38.534  1.00  0.00     0.040 A 
ATOM     76  C   UNL A   1      40.451  34.921  37.772  1.00  0.00     0.040 A 
ATOM     77  F   UNL A   1      41.516  34.552  35.714  1.00  0.00    -0.206 F 
ATOM     78  C   UNL A   1      39.504  34.556  38.727  1.00  0.00     0.006 A 
ENDBRANCH  50  71
BRANCH  62  79
ATOM     79  C   UNL A   1      44.383  28.165  34.249  1.00  0.00     0.057 A 
ATOM     80  C   UNL A   1      45.645  28.761  34.128  1.00  0.00     0.134 A 
ATOM     81  C   UNL A   1      44.287  27.004  35.026  1.00  0.00     0.134 A 
ATOM     82  F   UNL A   1      45.808  29.868  33.388  1.00  0.00    -0.206 F 
ATOM     83  C   UNL A   1      46.773  28.205  34.734  1.00  0.00     0.040 A 
ATOM     84  C   UNL A   1      45.401  26.458  35.664  1.00  0.00     0.040 A 
ATOM     85  F   UNL A   1      43.106  26.390  35.193  1.00  0.00    -0.206 F 
ATOM     86  C   UNL A   1      46.651  27.055  35.512  1.00  0.00     0.006 A 
ENDBRANCH  62  79
ENDBRANCH  36  37
ENDBRANCH  28  31
ENDBRANCH  26  27
ENDBRANCH  25  26
ENDBRANCH   1  25
TORSDOF 15
ENDMDL
