MODEL 1
REMARK VINA RESULT:     -12.4      0.000      0.000
REMARK SMILES CCc1cccc(C)c1Nc1ccccc1CC(=O)NCCCNC(=O)c1ccc(-c2c3nc(c(-c4c(F)cccc4F)c4ccc([nH]4)c(-c4c(F)cccc4F)c4nc(c(-c5c(F)cccc5F)c5ccc2[nH]5)C=C4)C=C3)cc1
REMARK SMILES IDX 21 1 20 2 18 3 19 4 17 6 16 7 11 8 12 9 13 10 15 11 14 12
REMARK SMILES IDX 10 13 9 15 3 16 4 17 5 18 7 19 6 20 8 21 2 22 1 23 22 24
REMARK SMILES IDX 23 25 24 26 25 27 26 29 27 30 28 31 80 32 29 33 79 34 30 35
REMARK SMILES IDX 31 36 32 37 73 38 33 39 78 40 72 41 74 42 34 43 77 44 71 45
REMARK SMILES IDX 70 46 35 48 61 49 44 50 60 51 45 52 48 53 59 54 75 55 46 56
REMARK SMILES IDX 47 57 58 59 76 60 49 61 36 62 37 63 42 64 38 65 39 66 41 67
REMARK SMILES IDX 43 68 40 69 62 70 63 71 68 72 64 73 65 74 67 75 69 76 66 77
REMARK SMILES IDX 50 78 51 79 56 80 52 81 53 82 55 83 57 84 54 85
REMARK H PARENT 20 5 10 14 24 28 74 47 48 58
REMARK Flexibility Score: inf
ROOT
ATOM      1  C   UNL A   1      37.015  21.302  25.352  1.00  0.00     0.117 C 
ENDROOT
BRANCH   1   2
ATOM      2  N   UNL A   1      36.396  21.913  24.190  1.00  0.00    -0.356 N 
ATOM      3  C   UNL A   1      35.875  23.166  24.019  1.00  0.00     0.224 C 
ATOM      4  O   UNL A   1      35.746  23.565  22.859  1.00  0.00    -0.275 OA
ATOM      5  H   UNL A   1      36.343  21.333  23.397  1.00  0.00     0.163 HD
BRANCH   3   6
ATOM      6  C   UNL A   1      35.580  24.082  25.193  1.00  0.00     0.137 C 
BRANCH   6   7
ATOM      7  C   UNL A   1      34.225  23.930  25.855  1.00  0.00    -0.015 A 
ATOM      8  C   UNL A   1      33.147  24.815  25.635  1.00  0.00     0.042 A 
ATOM      9  C   UNL A   1      31.947  24.617  26.341  1.00  0.00     0.026 A 
ATOM     10  C   UNL A   1      31.786  23.543  27.215  1.00  0.00     0.002 A 
ATOM     11  C   UNL A   1      34.057  22.874  26.774  1.00  0.00     0.006 A 
ATOM     12  C   UNL A   1      32.844  22.671  27.433  1.00  0.00     0.000 A 
BRANCH   8  13
ATOM     13  N   UNL A   1      33.260  25.996  24.875  1.00  0.00    -0.355 N 
ATOM     14  H   UNL A   1      34.187  26.240  24.654  1.00  0.00     0.167 HD
BRANCH  13  15
ATOM     15  C   UNL A   1      32.292  26.896  24.369  1.00  0.00     0.045 A 
ATOM     16  C   UNL A   1      32.075  28.127  25.040  1.00  0.00    -0.024 A 
ATOM     17  C   UNL A   1      31.380  29.155  24.364  1.00  0.00     0.006 A 
ATOM     18  C   UNL A   1      30.798  28.943  23.123  1.00  0.00     0.001 A 
ATOM     19  C   UNL A   1      31.503  26.622  23.227  1.00  0.00    -0.027 A 
ATOM     20  C   UNL A   1      30.812  27.666  22.585  1.00  0.00     0.005 A 
ATOM     21  C   UNL A   1      31.338  25.244  22.653  1.00  0.00     0.046 C 
BRANCH  16  22
ATOM     22  C   UNL A   1      32.503  28.478  26.457  1.00  0.00     0.034 C 
ATOM     23  C   UNL A   1      31.548  28.222  27.619  1.00  0.00     0.009 C 
ENDBRANCH  16  22
ENDBRANCH  13  15
ENDBRANCH   8  13
ENDBRANCH   6   7
ENDBRANCH   3   6
ENDBRANCH   1   2
BRANCH   1  24
ATOM     24  C   UNL A   1      38.517  21.537  25.474  1.00  0.00     0.042 C 
BRANCH  24  25
ATOM     25  C   UNL A   1      38.917  22.818  26.199  1.00  0.00     0.118 C 
BRANCH  25  26
ATOM     26  N   UNL A   1      40.349  22.950  26.440  1.00  0.00    -0.352 N 
ATOM     27  C   UNL A   1      41.070  24.047  26.880  1.00  0.00     0.251 C 
ATOM     28  H   UNL A   1      40.882  22.141  26.262  1.00  0.00     0.163 HD
ATOM     29  O   UNL A   1      42.276  23.953  27.056  1.00  0.00    -0.269 OA
BRANCH  27  30
ATOM     30  C   UNL A   1      40.359  25.293  27.266  1.00  0.00     0.039 A 
ATOM     31  C   UNL A   1      40.602  26.442  26.502  1.00  0.00     0.014 A 
ATOM     32  C   UNL A   1      39.601  25.380  28.430  1.00  0.00     0.014 A 
ATOM     33  C   UNL A   1      40.310  27.694  27.036  1.00  0.00     0.010 A 
ATOM     34  C   UNL A   1      39.375  26.621  28.996  1.00  0.00     0.010 A 
ATOM     35  C   UNL A   1      39.808  27.772  28.334  1.00  0.00    -0.014 A 
BRANCH  35  36
ATOM     36  C   UNL A   1      39.843  28.998  29.119  1.00  0.00     0.031 A 
ATOM     37  C   UNL A   1      38.824  30.049  28.932  1.00  0.00     0.074 A 
ATOM     38  C   UNL A   1      40.822  29.150  30.038  1.00  0.00     0.049 A 
ATOM     39  N   UNL A   1      38.988  31.280  29.287  1.00  0.00    -0.248 NA
ATOM     40  C   UNL A   1      37.563  29.818  28.235  1.00  0.00     0.031 C 
ATOM     41  C   UNL A   1      40.913  30.159  31.089  1.00  0.00     0.029 A 
ATOM     42  N   UNL A   1      42.083  28.533  30.035  1.00  0.00    -0.354 N 
ATOM     43  C   UNL A   1      37.781  31.919  29.144  1.00  0.00     0.074 A 
ATOM     44  C   UNL A   1      36.985  31.020  28.348  1.00  0.00     0.031 C 
ATOM     45  C   UNL A   1      42.202  30.310  31.429  1.00  0.00     0.029 A 
ATOM     46  C   UNL A   1      42.987  29.512  30.502  1.00  0.00     0.049 A 
ATOM     47  H   UNL A   1      42.294  27.610  29.762  1.00  0.00     0.167 HD
ATOM     48  C   UNL A   1      37.561  33.065  29.846  1.00  0.00     0.037 A 
ATOM     49  C   UNL A   1      43.995  29.993  29.718  1.00  0.00     0.037 A 
ATOM     50  C   UNL A   1      38.816  33.593  30.386  1.00  0.00     0.049 A 
ATOM     51  C   UNL A   1      43.961  31.489  29.517  1.00  0.00     0.074 A 
ATOM     52  C   UNL A   1      39.371  33.612  31.653  1.00  0.00     0.029 A 
ATOM     53  N   UNL A   1      39.820  33.992  29.507  1.00  0.00    -0.354 N 
ATOM     54  N   UNL A   1      42.904  32.224  29.721  1.00  0.00    -0.248 NA
ATOM     55  C   UNL A   1      45.099  32.268  29.034  1.00  0.00     0.031 C 
ATOM     56  C   UNL A   1      40.751  33.924  31.516  1.00  0.00     0.029 A 
ATOM     57  C   UNL A   1      41.017  34.145  30.174  1.00  0.00     0.049 A 
ATOM     58  H   UNL A   1      39.692  34.144  28.542  1.00  0.00     0.167 HD
ATOM     59  C   UNL A   1      43.181  33.523  29.386  1.00  0.00     0.074 A 
ATOM     60  C   UNL A   1      44.573  33.505  28.982  1.00  0.00     0.031 C 
ATOM     61  C   UNL A   1      42.230  34.501  29.452  1.00  0.00     0.037 A 
BRANCH  48  62
ATOM     62  C   UNL A   1      36.200  33.611  30.249  1.00  0.00     0.057 A 
ATOM     63  C   UNL A   1      35.332  34.139  29.268  1.00  0.00     0.134 A 
ATOM     64  C   UNL A   1      35.734  33.784  31.569  1.00  0.00     0.134 A 
ATOM     65  F   UNL A   1      35.619  34.055  27.962  1.00  0.00    -0.206 F 
ATOM     66  C   UNL A   1      34.135  34.807  29.578  1.00  0.00     0.040 A 
ATOM     67  C   UNL A   1      34.518  34.409  31.888  1.00  0.00     0.040 A 
ATOM     68  F   UNL A   1      36.439  33.415  32.641  1.00  0.00    -0.206 F 
ATOM     69  C   UNL A   1      33.721  34.941  30.893  1.00  0.00     0.006 A 
ENDBRANCH  48  62
BRANCH  49  70
ATOM     70  C   UNL A   1      44.493  29.015  28.717  1.00  0.00     0.057 A 
ATOM     71  C   UNL A   1      45.373  28.004  29.139  1.00  0.00     0.134 A 
ATOM     72  C   UNL A   1      43.862  28.836  27.483  1.00  0.00     0.134 A 
ATOM     73  F   UNL A   1      46.014  28.116  30.315  1.00  0.00    -0.206 F 
ATOM     74  C   UNL A   1      45.533  26.817  28.421  1.00  0.00     0.040 A 
ATOM     75  C   UNL A   1      44.024  27.656  26.749  1.00  0.00     0.040 A 
ATOM     76  F   UNL A   1      42.994  29.748  27.022  1.00  0.00    -0.206 F 
ATOM     77  C   UNL A   1      44.830  26.628  27.235  1.00  0.00     0.006 A 
ENDBRANCH  49  70
BRANCH  61  78
ATOM     78  C   UNL A   1      42.379  35.898  28.908  1.00  0.00     0.057 A 
ATOM     79  C   UNL A   1      43.195  36.885  29.482  1.00  0.00     0.134 A 
ATOM     80  C   UNL A   1      41.799  36.245  27.669  1.00  0.00     0.134 A 
ATOM     81  F   UNL A   1      43.890  36.652  30.605  1.00  0.00    -0.206 F 
ATOM     82  C   UNL A   1      43.377  38.144  28.895  1.00  0.00     0.040 A 
ATOM     83  C   UNL A   1      42.013  37.480  27.050  1.00  0.00     0.040 A 
ATOM     84  F   UNL A   1      41.014  35.389  26.997  1.00  0.00    -0.206 F 
ATOM     85  C   UNL A   1      42.795  38.443  27.670  1.00  0.00     0.006 A 
ENDBRANCH  61  78
ENDBRANCH  35  36
ENDBRANCH  27  30
ENDBRANCH  25  26
ENDBRANCH  24  25
ENDBRANCH   1  24
TORSDOF 14
ENDMDL
MODEL 2
REMARK VINA RESULT:     -12.3      3.778      9.207
REMARK SMILES CCc1cccc(C)c1Nc1ccccc1CC(=O)NCCCNC(=O)c1ccc(-c2c3nc(c(-c4c(F)cccc4F)c4ccc([nH]4)c(-c4c(F)cccc4F)c4nc(c(-c5c(F)cccc5F)c5ccc2[nH]5)C=C4)C=C3)cc1
REMARK SMILES IDX 21 1 20 2 18 3 19 4 17 6 16 7 11 8 12 9 13 10 15 11 14 12
REMARK SMILES IDX 10 13 9 15 3 16 4 17 5 18 7 19 6 20 8 21 2 22 1 23 22 24
REMARK SMILES IDX 23 25 24 26 25 27 26 29 27 30 28 31 80 32 29 33 79 34 30 35
REMARK SMILES IDX 31 36 32 37 73 38 33 39 78 40 72 41 74 42 34 43 77 44 71 45
REMARK SMILES IDX 70 46 35 48 61 49 44 50 60 51 45 52 48 53 59 54 75 55 46 56
REMARK SMILES IDX 47 57 58 59 76 60 49 61 36 62 37 63 42 64 38 65 39 66 41 67
REMARK SMILES IDX 43 68 40 69 62 70 63 71 68 72 64 73 65 74 67 75 69 76 66 77
REMARK SMILES IDX 50 78 51 79 56 80 52 81 53 82 55 83 57 84 54 85
REMARK H PARENT 20 5 10 14 24 28 74 47 48 58
REMARK Flexibility Score: inf
ROOT
ATOM      1  C   UNL A   1      32.029  30.035  25.813  1.00  0.00     0.117 C 
ENDROOT
BRANCH   1   2
ATOM      2  N   UNL A   1      31.433  28.800  26.289  1.00  0.00    -0.356 N 
ATOM      3  C   UNL A   1      31.997  27.576  26.520  1.00  0.00     0.224 C 
ATOM      4  O   UNL A   1      31.378  26.806  27.259  1.00  0.00    -0.275 OA
ATOM      5  H   UNL A   1      30.468  28.851  26.474  1.00  0.00     0.163 HD
BRANCH   3   6
ATOM      6  C   UNL A   1      33.377  27.214  26.002  1.00  0.00     0.137 C 
BRANCH   6   7
ATOM      7  C   UNL A   1      33.443  26.540  24.647  1.00  0.00    -0.015 A 
ATOM      8  C   UNL A   1      34.037  25.277  24.433  1.00  0.00     0.042 A 
ATOM      9  C   UNL A   1      34.096  24.762  23.125  1.00  0.00     0.026 A 
ATOM     10  C   UNL A   1      33.540  25.450  22.049  1.00  0.00     0.002 A 
ATOM     11  C   UNL A   1      32.924  27.239  23.538  1.00  0.00     0.006 A 
ATOM     12  C   UNL A   1      32.954  26.692  22.256  1.00  0.00     0.000 A 
BRANCH   8  13
ATOM     13  N   UNL A   1      34.737  24.574  25.434  1.00  0.00    -0.355 N 
ATOM     14  H   UNL A   1      34.959  25.118  26.223  1.00  0.00     0.167 HD
BRANCH  13  15
ATOM     15  C   UNL A   1      35.178  23.232  25.519  1.00  0.00     0.045 A 
ATOM     16  C   UNL A   1      34.219  22.194  25.647  1.00  0.00    -0.024 A 
ATOM     17  C   UNL A   1      34.620  20.864  25.388  1.00  0.00     0.006 A 
ATOM     18  C   UNL A   1      35.946  20.540  25.145  1.00  0.00     0.001 A 
ATOM     19  C   UNL A   1      36.546  22.865  25.506  1.00  0.00    -0.027 A 
ATOM     20  C   UNL A   1      36.911  21.529  25.260  1.00  0.00     0.005 A 
ATOM     21  C   UNL A   1      37.660  23.837  25.765  1.00  0.00     0.046 C 
BRANCH  16  22
ATOM     22  C   UNL A   1      32.763  22.348  26.058  1.00  0.00     0.034 C 
ATOM     23  C   UNL A   1      31.670  22.309  24.994  1.00  0.00     0.009 C 
ENDBRANCH  16  22
ENDBRANCH  13  15
ENDBRANCH   8  13
ENDBRANCH   6   7
ENDBRANCH   3   6
ENDBRANCH   1   2
BRANCH   1  24
ATOM     24  C   UNL A   1      32.553  30.957  26.909  1.00  0.00     0.042 C 
BRANCH  24  25
ATOM     25  C   UNL A   1      33.873  30.528  27.542  1.00  0.00     0.118 C 
BRANCH  25  26
ATOM     26  N   UNL A   1      34.378  31.444  28.558  1.00  0.00    -0.352 N 
ATOM     27  C   UNL A   1      35.545  31.378  29.300  1.00  0.00     0.251 C 
ATOM     28  H   UNL A   1      33.805  32.223  28.744  1.00  0.00     0.163 HD
ATOM     29  O   UNL A   1      35.816  32.271  30.089  1.00  0.00    -0.269 OA
BRANCH  27  30
ATOM     30  C   UNL A   1      36.528  30.297  29.038  1.00  0.00     0.039 A 
ATOM     31  C   UNL A   1      36.712  29.330  30.035  1.00  0.00     0.014 A 
ATOM     32  C   UNL A   1      37.361  30.310  27.922  1.00  0.00     0.014 A 
ATOM     33  C   UNL A   1      37.871  28.559  30.038  1.00  0.00     0.010 A 
ATOM     34  C   UNL A   1      38.547  29.600  27.958  1.00  0.00     0.010 A 
ATOM     35  C   UNL A   1      38.835  28.791  29.059  1.00  0.00    -0.014 A 
BRANCH  35  36
ATOM     36  C   UNL A   1      40.215  28.343  29.192  1.00  0.00     0.031 A 
ATOM     37  C   UNL A   1      40.628  27.006  28.726  1.00  0.00     0.074 A 
ATOM     38  C   UNL A   1      41.118  29.187  29.739  1.00  0.00     0.049 A 
ATOM     39  N   UNL A   1      41.692  26.399  29.136  1.00  0.00    -0.248 NA
ATOM     40  C   UNL A   1      39.818  26.193  27.824  1.00  0.00     0.031 C 
ATOM     41  C   UNL A   1      42.572  29.056  29.749  1.00  0.00     0.029 A 
ATOM     42  N   UNL A   1      40.855  30.240  30.630  1.00  0.00    -0.354 N 
ATOM     43  C   UNL A   1      41.862  25.282  28.355  1.00  0.00     0.074 A 
ATOM     44  C   UNL A   1      40.602  25.119  27.674  1.00  0.00     0.031 C 
ATOM     45  C   UNL A   1      43.060  29.756  30.784  1.00  0.00     0.029 A 
ATOM     46  C   UNL A   1      41.923  30.232  31.554  1.00  0.00     0.049 A 
ATOM     47  H   UNL A   1      40.087  30.856  30.614  1.00  0.00     0.167 HD
ATOM     48  C   UNL A   1      43.101  24.723  28.273  1.00  0.00     0.037 A 
ATOM     49  C   UNL A   1      41.722  29.987  32.881  1.00  0.00     0.037 A 
ATOM     50  C   UNL A   1      43.976  25.243  29.326  1.00  0.00     0.049 A 
ATOM     51  C   UNL A   1      42.503  28.813  33.419  1.00  0.00     0.074 A 
ATOM     52  C   UNL A   1      45.021  26.150  29.331  1.00  0.00     0.029 A 
ATOM     53  N   UNL A   1      43.650  25.006  30.659  1.00  0.00    -0.354 N 
ATOM     54  N   UNL A   1      43.017  27.879  32.667  1.00  0.00    -0.248 NA
ATOM     55  C   UNL A   1      42.735  28.575  34.842  1.00  0.00     0.031 C 
ATOM     56  C   UNL A   1      45.251  26.538  30.679  1.00  0.00     0.029 A 
ATOM     57  C   UNL A   1      44.382  25.828  31.492  1.00  0.00     0.049 A 
ATOM     58  H   UNL A   1      42.988  24.344  30.965  1.00  0.00     0.167 HD
ATOM     59  C   UNL A   1      43.602  26.927  33.460  1.00  0.00     0.074 A 
ATOM     60  C   UNL A   1      43.420  27.418  34.812  1.00  0.00     0.031 C 
ATOM     61  C   UNL A   1      44.172  25.804  32.932  1.00  0.00     0.037 A 
BRANCH  48  62
ATOM     62  C   UNL A   1      43.617  23.875  27.121  1.00  0.00     0.057 A 
ATOM     63  C   UNL A   1      44.277  24.487  26.033  1.00  0.00     0.134 A 
ATOM     64  C   UNL A   1      43.383  22.497  26.939  1.00  0.00     0.134 A 
ATOM     65  F   UNL A   1      44.583  25.792  26.044  1.00  0.00    -0.206 F 
ATOM     66  C   UNL A   1      44.635  23.798  24.862  1.00  0.00     0.040 A 
ATOM     67  C   UNL A   1      43.777  21.787  25.793  1.00  0.00     0.040 A 
ATOM     68  F   UNL A   1      42.714  21.751  27.821  1.00  0.00    -0.206 F 
ATOM     69  C   UNL A   1      44.389  22.440  24.740  1.00  0.00     0.006 A 
ENDBRANCH  48  62
BRANCH  49  70
ATOM     70  C   UNL A   1      40.386  30.411  33.373  1.00  0.00     0.057 A 
ATOM     71  C   UNL A   1      40.159  31.775  33.623  1.00  0.00     0.134 A 
ATOM     72  C   UNL A   1      39.262  29.589  33.255  1.00  0.00     0.134 A 
ATOM     73  F   UNL A   1      41.197  32.619  33.750  1.00  0.00    -0.206 F 
ATOM     74  C   UNL A   1      38.872  32.318  33.644  1.00  0.00     0.040 A 
ATOM     75  C   UNL A   1      37.968  30.120  33.286  1.00  0.00     0.040 A 
ATOM     76  F   UNL A   1      39.397  28.281  32.997  1.00  0.00    -0.206 F 
ATOM     77  C   UNL A   1      37.771  31.492  33.442  1.00  0.00     0.006 A 
ENDBRANCH  49  70
BRANCH  61  78
ATOM     78  C   UNL A   1      44.645  24.613  33.725  1.00  0.00     0.057 A 
ATOM     79  C   UNL A   1      43.789  23.706  34.369  1.00  0.00     0.134 A 
ATOM     80  C   UNL A   1      46.011  24.259  33.732  1.00  0.00     0.134 A 
ATOM     81  F   UNL A   1      42.458  23.863  34.348  1.00  0.00    -0.206 F 
ATOM     82  C   UNL A   1      44.264  22.559  35.020  1.00  0.00     0.040 A 
ATOM     83  C   UNL A   1      46.490  23.093  34.336  1.00  0.00     0.040 A 
ATOM     84  F   UNL A   1      46.937  25.024  33.135  1.00  0.00    -0.206 F 
ATOM     85  C   UNL A   1      45.616  22.243  34.997  1.00  0.00     0.006 A 
ENDBRANCH  61  78
ENDBRANCH  35  36
ENDBRANCH  27  30
ENDBRANCH  25  26
ENDBRANCH  24  25
ENDBRANCH   1  24
TORSDOF 14
ENDMDL
MODEL 3
REMARK VINA RESULT:     -12.3      1.481      2.420
REMARK SMILES CCc1cccc(C)c1Nc1ccccc1CC(=O)NCCCNC(=O)c1ccc(-c2c3nc(c(-c4c(F)cccc4F)c4ccc([nH]4)c(-c4c(F)cccc4F)c4nc(c(-c5c(F)cccc5F)c5ccc2[nH]5)C=C4)C=C3)cc1
REMARK SMILES IDX 21 1 20 2 18 3 19 4 17 6 16 7 11 8 12 9 13 10 15 11 14 12
REMARK SMILES IDX 10 13 9 15 3 16 4 17 5 18 7 19 6 20 8 21 2 22 1 23 22 24
REMARK SMILES IDX 23 25 24 26 25 27 26 29 27 30 28 31 80 32 29 33 79 34 30 35
REMARK SMILES IDX 31 36 32 37 73 38 33 39 78 40 72 41 74 42 34 43 77 44 71 45
REMARK SMILES IDX 70 46 35 48 61 49 44 50 60 51 45 52 48 53 59 54 75 55 46 56
REMARK SMILES IDX 47 57 58 59 76 60 49 61 36 62 37 63 42 64 38 65 39 66 41 67
REMARK SMILES IDX 43 68 40 69 62 70 63 71 68 72 64 73 65 74 67 75 69 76 66 77
REMARK SMILES IDX 50 78 51 79 56 80 52 81 53 82 55 83 57 84 54 85
REMARK H PARENT 20 5 10 14 24 28 74 47 48 58
REMARK Flexibility Score: inf
ROOT
ATOM      1  C   UNL A   1      36.410  21.127  25.561  1.00  0.00     0.117 C 
ENDROOT
BRANCH   1   2
ATOM      2  N   UNL A   1      35.722  21.998  26.496  1.00  0.00    -0.356 N 
ATOM      3  C   UNL A   1      34.439  21.957  26.967  1.00  0.00     0.224 C 
ATOM      4  O   UNL A   1      34.206  22.570  28.012  1.00  0.00    -0.275 OA
ATOM      5  H   UNL A   1      36.266  22.739  26.848  1.00  0.00     0.163 HD
BRANCH   3   6
ATOM      6  C   UNL A   1      33.369  21.099  26.315  1.00  0.00     0.137 C 
BRANCH   6   7
ATOM      7  C   UNL A   1      32.809  21.590  24.996  1.00  0.00    -0.015 A 
ATOM      8  C   UNL A   1      32.314  22.898  24.798  1.00  0.00     0.042 A 
ATOM      9  C   UNL A   1      31.763  23.238  23.549  1.00  0.00     0.026 A 
ATOM     10  C   UNL A   1      31.740  22.328  22.494  1.00  0.00     0.002 A 
ATOM     11  C   UNL A   1      32.737  20.671  23.929  1.00  0.00     0.006 A 
ATOM     12  C   UNL A   1      32.226  21.042  22.685  1.00  0.00     0.000 A 
BRANCH   8  13
ATOM     13  N   UNL A   1      32.178  23.837  25.840  1.00  0.00    -0.355 N 
ATOM     14  H   UNL A   1      31.883  23.447  26.693  1.00  0.00     0.167 HD
BRANCH  13  15
ATOM     15  C   UNL A   1      32.389  25.236  25.890  1.00  0.00     0.045 A 
ATOM     16  C   UNL A   1      31.271  26.100  26.022  1.00  0.00    -0.024 A 
ATOM     17  C   UNL A   1      31.490  27.439  26.414  1.00  0.00     0.006 A 
ATOM     18  C   UNL A   1      32.770  27.957  26.542  1.00  0.00     0.001 A 
ATOM     19  C   UNL A   1      33.670  25.830  25.793  1.00  0.00    -0.027 A 
ATOM     20  C   UNL A   1      33.852  27.171  26.177  1.00  0.00     0.005 A 
ATOM     21  C   UNL A   1      34.875  25.102  25.272  1.00  0.00     0.046 C 
BRANCH  16  22
ATOM     22  C   UNL A   1      29.814  25.745  25.768  1.00  0.00     0.034 C 
ATOM     23  C   UNL A   1      29.160  26.138  24.446  1.00  0.00     0.009 C 
ENDBRANCH  16  22
ENDBRANCH  13  15
ENDBRANCH   8  13
ENDBRANCH   6   7
ENDBRANCH   3   6
ENDBRANCH   1   2
BRANCH   1  24
ATOM     24  C   UNL A   1      37.801  21.598  25.151  1.00  0.00     0.042 C 
BRANCH  24  25
ATOM     25  C   UNL A   1      38.372  22.739  25.987  1.00  0.00     0.118 C 
BRANCH  25  26
ATOM     26  N   UNL A   1      39.823  22.707  26.135  1.00  0.00    -0.352 N 
ATOM     27  C   UNL A   1      40.684  23.700  26.571  1.00  0.00     0.251 C 
ATOM     28  H   UNL A   1      40.252  21.857  25.887  1.00  0.00     0.163 HD
ATOM     29  O   UNL A   1      41.881  23.471  26.661  1.00  0.00    -0.269 OA
BRANCH  27  30
ATOM     30  C   UNL A   1      40.138  24.993  27.057  1.00  0.00     0.039 A 
ATOM     31  C   UNL A   1      40.490  26.151  26.354  1.00  0.00     0.014 A 
ATOM     32  C   UNL A   1      39.433  25.093  28.254  1.00  0.00     0.014 A 
ATOM     33  C   UNL A   1      40.366  27.393  26.972  1.00  0.00     0.010 A 
ATOM     34  C   UNL A   1      39.373  26.314  28.900  1.00  0.00     0.010 A 
ATOM     35  C   UNL A   1      39.917  27.446  28.290  1.00  0.00    -0.014 A 
BRANCH  35  36
ATOM     36  C   UNL A   1      40.121  28.608  29.144  1.00  0.00     0.031 A 
ATOM     37  C   UNL A   1      39.097  29.665  29.248  1.00  0.00     0.074 A 
ATOM     38  C   UNL A   1      41.267  28.693  29.857  1.00  0.00     0.049 A 
ATOM     39  N   UNL A   1      39.342  30.865  29.656  1.00  0.00    -0.248 NA
ATOM     40  C   UNL A   1      37.719  29.482  28.803  1.00  0.00     0.031 C 
ATOM     41  C   UNL A   1      41.578  29.619  30.943  1.00  0.00     0.029 A 
ATOM     42  N   UNL A   1      42.496  28.086  29.553  1.00  0.00    -0.354 N 
ATOM     43  C   UNL A   1      38.137  31.507  29.809  1.00  0.00     0.074 A 
ATOM     44  C   UNL A   1      37.188  30.668  29.122  1.00  0.00     0.031 C 
ATOM     45  C   UNL A   1      42.910  29.750  31.028  1.00  0.00     0.029 A 
ATOM     46  C   UNL A   1      43.484  29.031  29.903  1.00  0.00     0.049 A 
ATOM     47  H   UNL A   1      42.638  27.188  29.174  1.00  0.00     0.167 HD
ATOM     48  C   UNL A   1      38.074  32.594  30.627  1.00  0.00     0.037 A 
ATOM     49  C   UNL A   1      44.319  29.576  28.972  1.00  0.00     0.037 A 
ATOM     50  C   UNL A   1      39.417  33.086  30.942  1.00  0.00     0.049 A 
ATOM     51  C   UNL A   1      44.261  31.083  28.897  1.00  0.00     0.074 A 
ATOM     52  C   UNL A   1      40.216  33.009  32.069  1.00  0.00     0.029 A 
ATOM     53  N   UNL A   1      40.228  33.556  29.913  1.00  0.00    -0.354 N 
ATOM     54  N   UNL A   1      43.274  31.795  29.366  1.00  0.00    -0.248 NA
ATOM     55  C   UNL A   1      45.287  31.903  28.257  1.00  0.00     0.031 C 
ATOM     56  C   UNL A   1      41.543  33.338  31.682  1.00  0.00     0.029 A 
ATOM     57  C   UNL A   1      41.537  33.664  30.336  1.00  0.00     0.049 A 
ATOM     58  H   UNL A   1      39.911  33.782  29.008  1.00  0.00     0.167 HD
ATOM     59  C   UNL A   1      43.492  33.117  29.083  1.00  0.00     0.074 A 
ATOM     60  C   UNL A   1      44.774  33.138  28.408  1.00  0.00     0.031 C 
ATOM     61  C   UNL A   1      42.584  34.082  29.414  1.00  0.00     0.037 A 
BRANCH  48  62
ATOM     62  C   UNL A   1      36.827  33.100  31.336  1.00  0.00     0.057 A 
ATOM     63  C   UNL A   1      36.546  32.682  32.655  1.00  0.00     0.134 A 
ATOM     64  C   UNL A   1      35.798  33.868  30.754  1.00  0.00     0.134 A 
ATOM     65  F   UNL A   1      37.420  31.949  33.358  1.00  0.00    -0.206 F 
ATOM     66  C   UNL A   1      35.339  32.972  33.314  1.00  0.00     0.040 A 
ATOM     67  C   UNL A   1      34.607  34.202  31.419  1.00  0.00     0.040 A 
ATOM     68  F   UNL A   1      35.841  34.301  29.492  1.00  0.00    -0.206 F 
ATOM     69  C   UNL A   1      34.365  33.739  32.697  1.00  0.00     0.006 A 
ENDBRANCH  48  62
BRANCH  49  70
ATOM     70  C   UNL A   1      44.596  28.682  27.819  1.00  0.00     0.057 A 
ATOM     71  C   UNL A   1      45.453  27.583  28.006  1.00  0.00     0.134 A 
ATOM     72  C   UNL A   1      43.783  28.669  26.683  1.00  0.00     0.134 A 
ATOM     73  F   UNL A   1      46.263  27.535  29.077  1.00  0.00    -0.206 F 
ATOM     74  C   UNL A   1      45.422  26.471  27.162  1.00  0.00     0.040 A 
ATOM     75  C   UNL A   1      43.752  27.565  25.824  1.00  0.00     0.040 A 
ATOM     76  F   UNL A   1      42.925  29.672  26.446  1.00  0.00    -0.206 F 
ATOM     77  C   UNL A   1      44.544  26.447  26.083  1.00  0.00     0.006 A 
ENDBRANCH  49  70
BRANCH  61  78
ATOM     78  C   UNL A   1      42.634  35.517  28.960  1.00  0.00     0.057 A 
ATOM     79  C   UNL A   1      41.815  36.055  27.956  1.00  0.00     0.134 A 
ATOM     80  C   UNL A   1      43.431  36.456  29.651  1.00  0.00     0.134 A 
ATOM     81  F   UNL A   1      40.932  35.295  27.291  1.00  0.00    -0.206 F 
ATOM     82  C   UNL A   1      41.828  37.416  27.624  1.00  0.00     0.040 A 
ATOM     83  C   UNL A   1      43.416  37.823  29.362  1.00  0.00     0.040 A 
ATOM     84  F   UNL A   1      44.246  36.084  30.650  1.00  0.00    -0.206 F 
ATOM     85  C   UNL A   1      42.621  38.308  28.335  1.00  0.00     0.006 A 
ENDBRANCH  61  78
ENDBRANCH  35  36
ENDBRANCH  27  30
ENDBRANCH  25  26
ENDBRANCH  24  25
ENDBRANCH   1  24
TORSDOF 14
ENDMDL
