MODEL 1
REMARK VINA RESULT:     -11.8      0.000      0.000
REMARK SMILES O=C(NCCCNC(=O)[C@@H]1[C@H](C(=O)Nc2cccc(Cl)c2F)[C@@H]2C=C[C@H]1C2)c1ccc(-c2c3nc(c(-c4c(F)cccc4F)c4ccc([nH]4)c(-c4c(F)cccc4F)c4nc(c(-c5c(F)cccc5F)c5ccc2[nH]5)C=C4)C=C3)cc1
REMARK SMILES IDX 5 1 4 2 3 3 1 4 2 5 28 7 29 8 81 9 30 10 80 11 31 12 32 13
REMARK SMILES IDX 33 14 74 15 34 16 79 17 73 18 75 19 35 20 78 21 72 22 71 23
REMARK SMILES IDX 36 25 62 26 45 27 61 28 46 29 49 30 60 31 76 32 47 33 48 34
REMARK SMILES IDX 59 36 77 37 50 38 37 39 38 40 43 41 39 42 40 43 42 44 44 45
REMARK SMILES IDX 41 46 63 47 64 48 69 49 65 50 66 51 68 52 70 53 67 54 51 55
REMARK SMILES IDX 52 56 57 57 53 58 54 59 56 60 58 61 55 62 6 63 7 64 8 65
REMARK SMILES IDX 9 67 10 68 11 69 26 70 23 71 25 72 27 73 24 74 12 75 13 76
REMARK SMILES IDX 14 77 15 79 16 80 21 81 17 82 19 83 22 84 18 85 20 86
REMARK H PARENT 3 6 75 24 49 35 7 66 14 78
REMARK Flexibility Score: inf
ROOT
ATOM      1  C   UNL A   1      37.542  19.599  24.727  1.00  0.00     0.042 C 
ENDROOT
BRANCH   1   2
ATOM      2  C   UNL A   1      38.629  20.174  25.640  1.00  0.00     0.118 C 
BRANCH   2   3
ATOM      3  N   UNL A   1      39.797  19.308  25.735  1.00  0.00    -0.352 N 
ATOM      4  O   UNL A   1      41.954  18.714  25.862  1.00  0.00    -0.269 OA
ATOM      5  C   UNL A   1      41.099  19.584  26.042  1.00  0.00     0.251 C 
ATOM      6  H   UNL A   1      39.617  18.358  25.546  1.00  0.00     0.163 HD
BRANCH   5   7
ATOM      7  C   UNL A   1      41.512  20.903  26.564  1.00  0.00     0.039 A 
ATOM      8  C   UNL A   1      41.944  21.929  25.718  1.00  0.00     0.014 A 
ATOM      9  C   UNL A   1      41.375  21.144  27.936  1.00  0.00     0.014 A 
ATOM     10  C   UNL A   1      42.340  23.157  26.254  1.00  0.00     0.010 A 
ATOM     11  C   UNL A   1      41.716  22.391  28.464  1.00  0.00     0.010 A 
ATOM     12  C   UNL A   1      42.226  23.400  27.631  1.00  0.00    -0.014 A 
BRANCH  12  13
ATOM     13  C   UNL A   1      42.613  24.713  28.208  1.00  0.00     0.031 A 
ATOM     14  C   UNL A   1      41.580  25.783  28.424  1.00  0.00     0.074 A 
ATOM     15  C   UNL A   1      43.904  24.958  28.499  1.00  0.00     0.049 A 
ATOM     16  N   UNL A   1      41.739  27.019  28.826  1.00  0.00    -0.248 NA
ATOM     17  C   UNL A   1      40.186  25.418  28.135  1.00  0.00     0.031 C 
ATOM     18  C   UNL A   1      45.002  24.007  28.331  1.00  0.00     0.029 A 
ATOM     19  N   UNL A   1      44.512  26.090  28.982  1.00  0.00    -0.354 N 
ATOM     20  C   UNL A   1      40.470  27.585  28.820  1.00  0.00     0.074 A 
ATOM     21  C   UNL A   1      39.558  26.566  28.347  1.00  0.00     0.031 C 
ATOM     22  C   UNL A   1      46.149  24.591  28.708  1.00  0.00     0.029 A 
ATOM     23  C   UNL A   1      45.876  25.972  29.095  1.00  0.00     0.049 A 
ATOM     24  H   UNL A   1      44.019  26.906  29.225  1.00  0.00     0.167 HD
ATOM     25  C   UNL A   1      40.101  28.838  29.181  1.00  0.00     0.037 A 
ATOM     26  C   UNL A   1      46.807  26.879  29.444  1.00  0.00     0.037 A 
ATOM     27  C   UNL A   1      41.012  29.846  29.659  1.00  0.00     0.049 A 
ATOM     28  C   UNL A   1      46.382  28.273  29.807  1.00  0.00     0.074 A 
ATOM     29  C   UNL A   1      40.729  31.132  30.087  1.00  0.00     0.029 A 
ATOM     30  N   UNL A   1      42.387  29.686  29.763  1.00  0.00    -0.354 N 
ATOM     31  N   UNL A   1      45.175  28.786  29.832  1.00  0.00    -0.248 NA
ATOM     32  C   UNL A   1      47.444  29.214  30.190  1.00  0.00     0.031 C 
ATOM     33  C   UNL A   1      41.936  31.765  30.403  1.00  0.00     0.029 A 
ATOM     34  C   UNL A   1      42.967  30.856  30.224  1.00  0.00     0.049 A 
ATOM     35  H   UNL A   1      42.877  28.860  29.540  1.00  0.00     0.167 HD
ATOM     36  C   UNL A   1      45.328  30.098  30.260  1.00  0.00     0.074 A 
ATOM     37  C   UNL A   1      46.745  30.302  30.486  1.00  0.00     0.031 C 
ATOM     38  C   UNL A   1      44.377  31.044  30.455  1.00  0.00     0.037 A 
BRANCH  25  39
ATOM     39  C   UNL A   1      38.648  29.195  29.047  1.00  0.00     0.057 A 
ATOM     40  C   UNL A   1      37.764  29.134  30.131  1.00  0.00     0.134 A 
ATOM     41  C   UNL A   1      38.131  29.622  27.817  1.00  0.00     0.134 A 
ATOM     42  F   UNL A   1      38.191  28.724  31.334  1.00  0.00    -0.206 F 
ATOM     43  C   UNL A   1      36.412  29.453  29.989  1.00  0.00     0.040 A 
ATOM     44  C   UNL A   1      36.787  29.970  27.669  1.00  0.00     0.040 A 
ATOM     45  F   UNL A   1      38.924  29.712  26.738  1.00  0.00    -0.206 F 
ATOM     46  C   UNL A   1      35.921  29.877  28.756  1.00  0.00     0.006 A 
ENDBRANCH  25  39
BRANCH  26  47
ATOM     47  C   UNL A   1      48.237  26.485  29.459  1.00  0.00     0.057 A 
ATOM     48  C   UNL A   1      49.067  26.730  28.361  1.00  0.00     0.134 A 
ATOM     49  C   UNL A   1      48.817  25.892  30.589  1.00  0.00     0.134 A 
ATOM     50  F   UNL A   1      48.564  27.279  27.245  1.00  0.00    -0.206 F 
ATOM     51  C   UNL A   1      50.422  26.395  28.381  1.00  0.00     0.040 A 
ATOM     52  C   UNL A   1      50.174  25.574  30.631  1.00  0.00     0.040 A 
ATOM     53  F   UNL A   1      48.074  25.639  31.677  1.00  0.00    -0.206 F 
ATOM     54  C   UNL A   1      50.981  25.824  29.523  1.00  0.00     0.006 A 
ENDBRANCH  26  47
BRANCH  38  55
ATOM     55  C   UNL A   1      44.824  32.377  30.981  1.00  0.00     0.057 A 
ATOM     56  C   UNL A   1      45.143  33.441  30.130  1.00  0.00     0.134 A 
ATOM     57  C   UNL A   1      44.876  32.611  32.361  1.00  0.00     0.134 A 
ATOM     58  F   UNL A   1      45.126  33.278  28.799  1.00  0.00    -0.206 F 
ATOM     59  C   UNL A   1      45.509  34.691  30.634  1.00  0.00     0.040 A 
ATOM     60  C   UNL A   1      45.217  33.862  32.877  1.00  0.00     0.040 A 
ATOM     61  F   UNL A   1      44.575  31.635  33.230  1.00  0.00    -0.206 F 
ATOM     62  C   UNL A   1      45.538  34.906  32.011  1.00  0.00     0.006 A 
ENDBRANCH  38  55
ENDBRANCH  12  13
ENDBRANCH   5   7
ENDBRANCH   2   3
ENDBRANCH   1   2
BRANCH   1  63
ATOM     63  C   UNL A   1      36.120  20.114  24.997  1.00  0.00     0.117 C 
BRANCH  63  64
ATOM     64  N   UNL A   1      36.102  21.483  25.492  1.00  0.00    -0.356 N 
ATOM     65  C   UNL A   1      35.717  22.541  24.709  1.00  0.00     0.224 C 
ATOM     66  H   UNL A   1      36.377  21.656  26.422  1.00  0.00     0.163 HD
ATOM     67  O   UNL A   1      36.592  23.365  24.456  1.00  0.00    -0.275 OA
BRANCH  65  68
ATOM     68  C   UNL A   1      34.330  22.505  24.083  1.00  0.00     0.098 C 
ATOM     69  C   UNL A   1      33.288  23.502  24.617  1.00  0.00     0.099 C 
ATOM     70  C   UNL A   1      33.481  21.206  23.903  1.00  0.00     0.025 C 
ATOM     71  C   UNL A   1      31.937  22.776  24.390  1.00  0.00     0.025 C 
ATOM     72  C   UNL A   1      32.681  20.752  25.110  1.00  0.00    -0.027 C 
ATOM     73  C   UNL A   1      32.269  21.854  23.192  1.00  0.00     0.017 C 
ATOM     74  C   UNL A   1      31.758  21.684  25.393  1.00  0.00    -0.027 C 
BRANCH  69  75
ATOM     75  C   UNL A   1      33.529  24.262  25.916  1.00  0.00     0.228 C 
ATOM     76  O   UNL A   1      33.992  23.592  26.861  1.00  0.00    -0.274 OA
ATOM     77  N   UNL A   1      33.443  25.585  26.180  1.00  0.00    -0.323 N 
ATOM     78  H   UNL A   1      33.900  25.786  27.029  1.00  0.00     0.170 HD
BRANCH  77  79
ATOM     79  C   UNL A   1      32.912  26.773  25.634  1.00  0.00     0.078 A 
ATOM     80  C   UNL A   1      33.647  27.928  25.948  1.00  0.00     0.029 A 
ATOM     81  C   UNL A   1      31.738  26.954  24.893  1.00  0.00     0.165 A 
ATOM     82  C   UNL A   1      33.283  29.190  25.464  1.00  0.00     0.004 A 
ATOM     83  C   UNL A   1      31.357  28.219  24.424  1.00  0.00     0.078 A 
ATOM     84  F   UNL A   1      30.914  25.946  24.604  1.00  0.00    -0.203 F 
ATOM     85  C   UNL A   1      32.137  29.336  24.691  1.00  0.00     0.024 A 
ATOM     86  Cl  UNL A   1      29.914  28.408  23.494  1.00  0.00    -0.081 Cl
ENDBRANCH  77  79
ENDBRANCH  69  75
ENDBRANCH  65  68
ENDBRANCH  63  64
ENDBRANCH   1  63
TORSDOF 12
ENDMDL
MODEL 2
REMARK VINA RESULT:     -11.8      2.229      7.043
REMARK SMILES O=C(NCCCNC(=O)[C@@H]1[C@H](C(=O)Nc2cccc(Cl)c2F)[C@@H]2C=C[C@H]1C2)c1ccc(-c2c3nc(c(-c4c(F)cccc4F)c4ccc([nH]4)c(-c4c(F)cccc4F)c4nc(c(-c5c(F)cccc5F)c5ccc2[nH]5)C=C4)C=C3)cc1
REMARK SMILES IDX 5 1 4 2 3 3 1 4 2 5 28 7 29 8 81 9 30 10 80 11 31 12 32 13
REMARK SMILES IDX 33 14 74 15 34 16 79 17 73 18 75 19 35 20 78 21 72 22 71 23
REMARK SMILES IDX 36 25 62 26 45 27 61 28 46 29 49 30 60 31 76 32 47 33 48 34
REMARK SMILES IDX 59 36 77 37 50 38 37 39 38 40 43 41 39 42 40 43 42 44 44 45
REMARK SMILES IDX 41 46 63 47 64 48 69 49 65 50 66 51 68 52 70 53 67 54 51 55
REMARK SMILES IDX 52 56 57 57 53 58 54 59 56 60 58 61 55 62 6 63 7 64 8 65
REMARK SMILES IDX 9 67 10 68 11 69 26 70 23 71 25 72 27 73 24 74 12 75 13 76
REMARK SMILES IDX 14 77 15 79 16 80 21 81 17 82 19 83 22 84 18 85 20 86
REMARK H PARENT 3 6 75 24 49 35 7 66 14 78
REMARK Flexibility Score: inf
ROOT
ATOM      1  C   UNL A   1      32.601  27.620  27.252  1.00  0.00     0.042 C 
ENDROOT
BRANCH   1   2
ATOM      2  C   UNL A   1      33.915  28.390  27.088  1.00  0.00     0.118 C 
BRANCH   2   3
ATOM      3  N   UNL A   1      33.824  29.763  27.568  1.00  0.00    -0.352 N 
ATOM      4  O   UNL A   1      34.327  31.604  28.742  1.00  0.00    -0.269 OA
ATOM      5  C   UNL A   1      34.708  30.529  28.273  1.00  0.00     0.251 C 
ATOM      6  H   UNL A   1      32.979  30.217  27.346  1.00  0.00     0.163 HD
BRANCH   5   7
ATOM      7  C   UNL A   1      36.102  30.096  28.503  1.00  0.00     0.039 A 
ATOM      8  C   UNL A   1      36.512  29.548  29.722  1.00  0.00     0.014 A 
ATOM      9  C   UNL A   1      37.001  30.162  27.432  1.00  0.00     0.014 A 
ATOM     10  C   UNL A   1      37.843  29.165  29.903  1.00  0.00     0.010 A 
ATOM     11  C   UNL A   1      38.316  29.725  27.597  1.00  0.00     0.010 A 
ATOM     12  C   UNL A   1      38.756  29.247  28.841  1.00  0.00    -0.014 A 
BRANCH  12  13
ATOM     13  C   UNL A   1      40.166  28.812  29.013  1.00  0.00     0.031 A 
ATOM     14  C   UNL A   1      41.199  29.769  29.537  1.00  0.00     0.074 A 
ATOM     15  C   UNL A   1      40.527  27.565  28.656  1.00  0.00     0.049 A 
ATOM     16  N   UNL A   1      42.491  29.604  29.667  1.00  0.00    -0.248 NA
ATOM     17  C   UNL A   1      40.715  31.092  29.958  1.00  0.00     0.031 C 
ATOM     18  C   UNL A   1      39.622  26.543  28.129  1.00  0.00     0.029 A 
ATOM     19  N   UNL A   1      41.755  26.951  28.667  1.00  0.00    -0.354 N 
ATOM     20  C   UNL A   1      42.978  30.806  30.165  1.00  0.00     0.074 A 
ATOM     21  C   UNL A   1      41.846  31.700  30.286  1.00  0.00     0.031 C 
ATOM     22  C   UNL A   1      40.322  25.429  27.871  1.00  0.00     0.029 A 
ATOM     23  C   UNL A   1      41.732  25.673  28.166  1.00  0.00     0.049 A 
ATOM     24  H   UNL A   1      42.572  27.385  29.003  1.00  0.00     0.167 HD
ATOM     25  C   UNL A   1      44.251  31.132  30.495  1.00  0.00     0.037 A 
ATOM     26  C   UNL A   1      42.734  24.804  27.940  1.00  0.00     0.037 A 
ATOM     27  C   UNL A   1      45.373  30.236  30.380  1.00  0.00     0.049 A 
ATOM     28  C   UNL A   1      44.144  25.195  28.280  1.00  0.00     0.074 A 
ATOM     29  C   UNL A   1      46.695  30.460  30.727  1.00  0.00     0.029 A 
ATOM     30  N   UNL A   1      45.308  28.947  29.871  1.00  0.00    -0.354 N 
ATOM     31  N   UNL A   1      44.587  26.322  28.784  1.00  0.00    -0.248 NA
ATOM     32  C   UNL A   1      45.192  24.198  28.022  1.00  0.00     0.031 C 
ATOM     33  C   UNL A   1      47.437  29.324  30.381  1.00  0.00     0.029 A 
ATOM     34  C   UNL A   1      46.569  28.373  29.871  1.00  0.00     0.049 A 
ATOM     35  H   UNL A   1      44.485  28.505  29.555  1.00  0.00     0.167 HD
ATOM     36  C   UNL A   1      45.959  26.160  28.930  1.00  0.00     0.074 A 
ATOM     37  C   UNL A   1      46.274  24.826  28.463  1.00  0.00     0.031 C 
ATOM     38  C   UNL A   1      46.870  27.039  29.414  1.00  0.00     0.037 A 
BRANCH  25  39
ATOM     39  C   UNL A   1      44.501  32.528  30.989  1.00  0.00     0.057 A 
ATOM     40  C   UNL A   1      44.778  33.587  30.116  1.00  0.00     0.134 A 
ATOM     41  C   UNL A   1      44.444  32.819  32.358  1.00  0.00     0.134 A 
ATOM     42  F   UNL A   1      44.857  33.377  28.794  1.00  0.00    -0.206 F 
ATOM     43  C   UNL A   1      45.024  34.878  30.588  1.00  0.00     0.040 A 
ATOM     44  C   UNL A   1      44.660  34.112  32.840  1.00  0.00     0.040 A 
ATOM     45  F   UNL A   1      44.174  31.854  33.250  1.00  0.00    -0.206 F 
ATOM     46  C   UNL A   1      44.961  35.144  31.955  1.00  0.00     0.006 A 
ENDBRANCH  25  39
BRANCH  26  47
ATOM     47  C   UNL A   1      42.427  23.475  27.356  1.00  0.00     0.057 A 
ATOM     48  C   UNL A   1      42.542  23.244  25.982  1.00  0.00     0.134 A 
ATOM     49  C   UNL A   1      42.051  22.394  28.165  1.00  0.00     0.134 A 
ATOM     50  F   UNL A   1      42.881  24.245  25.157  1.00  0.00    -0.206 F 
ATOM     51  C   UNL A   1      42.290  21.987  25.429  1.00  0.00     0.040 A 
ATOM     52  C   UNL A   1      41.820  21.127  27.629  1.00  0.00     0.040 A 
ATOM     53  F   UNL A   1      41.932  22.550  29.492  1.00  0.00    -0.206 F 
ATOM     54  C   UNL A   1      41.937  20.922  26.256  1.00  0.00     0.006 A 
ENDBRANCH  26  47
BRANCH  38  55
ATOM     55  C   UNL A   1      48.294  26.575  29.511  1.00  0.00     0.057 A 
ATOM     56  C   UNL A   1      48.784  25.916  30.644  1.00  0.00     0.134 A 
ATOM     57  C   UNL A   1      49.166  26.740  28.427  1.00  0.00     0.134 A 
ATOM     58  F   UNL A   1      48.004  25.739  31.720  1.00  0.00    -0.206 F 
ATOM     59  C   UNL A   1      50.098  25.445  30.700  1.00  0.00     0.040 A 
ATOM     60  C   UNL A   1      50.474  26.253  28.462  1.00  0.00     0.040 A 
ATOM     61  F   UNL A   1      48.756  27.357  27.310  1.00  0.00    -0.206 F 
ATOM     62  C   UNL A   1      50.944  25.606  29.603  1.00  0.00     0.006 A 
ENDBRANCH  38  55
ENDBRANCH  12  13
ENDBRANCH   5   7
ENDBRANCH   2   3
ENDBRANCH   1   2
BRANCH   1  63
ATOM     63  C   UNL A   1      32.197  26.751  26.050  1.00  0.00     0.117 C 
BRANCH  63  64
ATOM     64  N   UNL A   1      31.973  25.359  26.413  1.00  0.00    -0.356 N 
ATOM     65  C   UNL A   1      32.607  24.325  25.775  1.00  0.00     0.224 C 
ATOM     66  H   UNL A   1      31.343  25.154  27.142  1.00  0.00     0.163 HD
ATOM     67  O   UNL A   1      31.882  23.565  25.137  1.00  0.00    -0.275 OA
BRANCH  65  68
ATOM     68  C   UNL A   1      34.129  24.315  25.757  1.00  0.00     0.098 C 
ATOM     69  C   UNL A   1      34.820  24.402  24.387  1.00  0.00     0.099 C 
ATOM     70  C   UNL A   1      35.009  23.262  26.504  1.00  0.00     0.025 C 
ATOM     71  C   UNL A   1      36.159  23.652  24.603  1.00  0.00     0.025 C 
ATOM     72  C   UNL A   1      35.236  21.943  25.786  1.00  0.00    -0.027 C 
ATOM     73  C   UNL A   1      36.390  23.845  26.121  1.00  0.00     0.017 C 
ATOM     74  C   UNL A   1      35.927  22.177  24.660  1.00  0.00    -0.027 C 
BRANCH  69  75
ATOM     75  C   UNL A   1      34.032  24.185  23.100  1.00  0.00     0.228 C 
ATOM     76  O   UNL A   1      34.230  23.100  22.517  1.00  0.00    -0.274 OA
ATOM     77  N   UNL A   1      33.046  24.927  22.546  1.00  0.00    -0.323 N 
ATOM     78  H   UNL A   1      32.574  24.397  21.864  1.00  0.00     0.170 HD
BRANCH  77  79
ATOM     79  C   UNL A   1      32.475  26.214  22.629  1.00  0.00     0.078 A 
ATOM     80  C   UNL A   1      33.411  27.262  22.595  1.00  0.00     0.029 A 
ATOM     81  C   UNL A   1      31.133  26.573  22.802  1.00  0.00     0.165 A 
ATOM     82  C   UNL A   1      33.019  28.605  22.633  1.00  0.00     0.004 A 
ATOM     83  C   UNL A   1      30.737  27.916  22.863  1.00  0.00     0.078 A 
ATOM     84  F   UNL A   1      30.163  25.667  22.932  1.00  0.00    -0.203 F 
ATOM     85  C   UNL A   1      31.675  28.935  22.760  1.00  0.00     0.024 A 
ATOM     86  Cl  UNL A   1      29.071  28.329  23.056  1.00  0.00    -0.081 Cl
ENDBRANCH  77  79
ENDBRANCH  69  75
ENDBRANCH  65  68
ENDBRANCH  63  64
ENDBRANCH   1  63
TORSDOF 12
ENDMDL
MODEL 3
REMARK VINA RESULT:     -11.8      1.395      2.175
REMARK SMILES O=C(NCCCNC(=O)[C@@H]1[C@H](C(=O)Nc2cccc(Cl)c2F)[C@@H]2C=C[C@H]1C2)c1ccc(-c2c3nc(c(-c4c(F)cccc4F)c4ccc([nH]4)c(-c4c(F)cccc4F)c4nc(c(-c5c(F)cccc5F)c5ccc2[nH]5)C=C4)C=C3)cc1
REMARK SMILES IDX 5 1 4 2 3 3 1 4 2 5 28 7 29 8 81 9 30 10 80 11 31 12 32 13
REMARK SMILES IDX 33 14 74 15 34 16 79 17 73 18 75 19 35 20 78 21 72 22 71 23
REMARK SMILES IDX 36 25 62 26 45 27 61 28 46 29 49 30 60 31 76 32 47 33 48 34
REMARK SMILES IDX 59 36 77 37 50 38 37 39 38 40 43 41 39 42 40 43 42 44 44 45
REMARK SMILES IDX 41 46 63 47 64 48 69 49 65 50 66 51 68 52 70 53 67 54 51 55
REMARK SMILES IDX 52 56 57 57 53 58 54 59 56 60 58 61 55 62 6 63 7 64 8 65
REMARK SMILES IDX 9 67 10 68 11 69 26 70 23 71 25 72 27 73 24 74 12 75 13 76
REMARK SMILES IDX 14 77 15 79 16 80 21 81 17 82 19 83 22 84 18 85 20 86
REMARK H PARENT 3 6 75 24 49 35 7 66 14 78
REMARK Flexibility Score: inf
ROOT
ATOM      1  C   UNL A   1      38.214  19.970  24.820  1.00  0.00     0.042 C 
ENDROOT
BRANCH   1   2
ATOM      2  C   UNL A   1      38.982  19.764  26.130  1.00  0.00     0.118 C 
BRANCH   2   3
ATOM      3  N   UNL A   1      40.197  18.981  25.950  1.00  0.00    -0.352 N 
ATOM      4  O   UNL A   1      42.367  18.538  25.614  1.00  0.00    -0.269 OA
ATOM      5  C   UNL A   1      41.514  19.340  25.999  1.00  0.00     0.251 C 
ATOM      6  H   UNL A   1      40.042  18.027  25.762  1.00  0.00     0.163 HD
BRANCH   5   7
ATOM      7  C   UNL A   1      41.940  20.670  26.482  1.00  0.00     0.039 A 
ATOM      8  C   UNL A   1      42.128  20.934  27.842  1.00  0.00     0.014 A 
ATOM      9  C   UNL A   1      42.245  21.652  25.533  1.00  0.00     0.014 A 
ATOM     10  C   UNL A   1      42.517  22.210  28.258  1.00  0.00     0.010 A 
ATOM     11  C   UNL A   1      42.690  22.909  25.947  1.00  0.00     0.010 A 
ATOM     12  C   UNL A   1      42.805  23.208  27.314  1.00  0.00    -0.014 A 
BRANCH  12  13
ATOM     13  C   UNL A   1      43.252  24.557  27.744  1.00  0.00     0.031 A 
ATOM     14  C   UNL A   1      42.246  25.601  28.140  1.00  0.00     0.074 A 
ATOM     15  C   UNL A   1      44.564  24.859  27.736  1.00  0.00     0.049 A 
ATOM     16  N   UNL A   1      42.435  26.858  28.452  1.00  0.00    -0.248 NA
ATOM     17  C   UNL A   1      40.839  25.177  28.177  1.00  0.00     0.031 C 
ATOM     18  C   UNL A   1      45.639  23.939  27.367  1.00  0.00     0.029 A 
ATOM     19  N   UNL A   1      45.213  26.031  28.032  1.00  0.00    -0.354 N 
ATOM     20  C   UNL A   1      41.172  27.380  28.703  1.00  0.00     0.074 A 
ATOM     21  C   UNL A   1      40.223  26.311  28.479  1.00  0.00     0.031 C 
ATOM     22  C   UNL A   1      46.814  24.577  27.462  1.00  0.00     0.029 A 
ATOM     23  C   UNL A   1      46.573  25.964  27.849  1.00  0.00     0.049 A 
ATOM     24  H   UNL A   1      44.750  26.841  28.347  1.00  0.00     0.167 HD
ATOM     25  C   UNL A   1      40.837  28.635  29.090  1.00  0.00     0.037 A 
ATOM     26  C   UNL A   1      47.518  26.918  27.952  1.00  0.00     0.037 A 
ATOM     27  C   UNL A   1      41.786  29.694  29.319  1.00  0.00     0.049 A 
ATOM     28  C   UNL A   1      47.122  28.312  28.347  1.00  0.00     0.074 A 
ATOM     29  C   UNL A   1      41.548  30.988  29.751  1.00  0.00     0.029 A 
ATOM     30  N   UNL A   1      43.156  29.585  29.126  1.00  0.00    -0.354 N 
ATOM     31  N   UNL A   1      45.929  28.784  28.617  1.00  0.00    -0.248 NA
ATOM     32  C   UNL A   1      48.201  29.303  28.454  1.00  0.00     0.031 C 
ATOM     33  C   UNL A   1      42.767  31.675  29.772  1.00  0.00     0.029 A 
ATOM     34  C   UNL A   1      43.772  30.794  29.406  1.00  0.00     0.049 A 
ATOM     35  H   UNL A   1      43.621  28.767  28.832  1.00  0.00     0.167 HD
ATOM     36  C   UNL A   1      46.115  30.119  28.953  1.00  0.00     0.074 A 
ATOM     37  C   UNL A   1      47.537  30.380  28.855  1.00  0.00     0.031 C 
ATOM     38  C   UNL A   1      45.189  31.040  29.316  1.00  0.00     0.037 A 
BRANCH  25  39
ATOM     39  C   UNL A   1      39.376  28.936  29.263  1.00  0.00     0.057 A 
ATOM     40  C   UNL A   1      38.577  29.381  28.203  1.00  0.00     0.134 A 
ATOM     41  C   UNL A   1      38.756  28.760  30.507  1.00  0.00     0.134 A 
ATOM     42  F   UNL A   1      39.108  29.580  26.988  1.00  0.00    -0.206 F 
ATOM     43  C   UNL A   1      37.223  29.673  28.381  1.00  0.00     0.040 A 
ATOM     44  C   UNL A   1      37.397  29.022  30.691  1.00  0.00     0.040 A 
ATOM     45  F   UNL A   1      39.460  28.328  31.565  1.00  0.00    -0.206 F 
ATOM     46  C   UNL A   1      36.628  29.489  29.628  1.00  0.00     0.006 A 
ENDBRANCH  25  39
BRANCH  26  47
ATOM     47  C   UNL A   1      48.933  26.573  27.668  1.00  0.00     0.057 A 
ATOM     48  C   UNL A   1      49.785  26.125  28.682  1.00  0.00     0.134 A 
ATOM     49  C   UNL A   1      49.453  26.646  26.370  1.00  0.00     0.134 A 
ATOM     50  F   UNL A   1      49.348  26.051  29.947  1.00  0.00    -0.206 F 
ATOM     51  C   UNL A   1      51.108  25.764  28.417  1.00  0.00     0.040 A 
ATOM     52  C   UNL A   1      50.765  26.266  26.086  1.00  0.00     0.040 A 
ATOM     53  F   UNL A   1      48.683  27.062  25.354  1.00  0.00    -0.206 F 
ATOM     54  C   UNL A   1      51.597  25.826  27.113  1.00  0.00     0.006 A 
ENDBRANCH  26  47
BRANCH  38  55
ATOM     55  C   UNL A   1      45.682  32.409  29.681  1.00  0.00     0.057 A 
ATOM     56  C   UNL A   1      45.750  33.448  28.746  1.00  0.00     0.134 A 
ATOM     57  C   UNL A   1      46.036  32.703  31.005  1.00  0.00     0.134 A 
ATOM     58  F   UNL A   1      45.439  33.228  27.460  1.00  0.00    -0.206 F 
ATOM     59  C   UNL A   1      46.163  34.731  29.112  1.00  0.00     0.040 A 
ATOM     60  C   UNL A   1      46.428  33.987  31.388  1.00  0.00     0.040 A 
ATOM     61  F   UNL A   1      45.986  31.754  31.951  1.00  0.00    -0.206 F 
ATOM     62  C   UNL A   1      46.495  35.005  30.438  1.00  0.00     0.006 A 
ENDBRANCH  38  55
ENDBRANCH  12  13
ENDBRANCH   5   7
ENDBRANCH   2   3
ENDBRANCH   1   2
BRANCH   1  63
ATOM     63  C   UNL A   1      37.393  21.267  24.739  1.00  0.00     0.117 C 
BRANCH  63  64
ATOM     64  N   UNL A   1      36.645  21.535  25.959  1.00  0.00    -0.356 N 
ATOM     65  C   UNL A   1      35.397  22.102  25.943  1.00  0.00     0.224 C 
ATOM     66  H   UNL A   1      37.050  21.301  26.826  1.00  0.00     0.163 HD
ATOM     67  O   UNL A   1      35.309  23.216  26.454  1.00  0.00    -0.275 OA
BRANCH  65  68
ATOM     68  C   UNL A   1      34.299  21.406  25.149  1.00  0.00     0.098 C 
ATOM     69  C   UNL A   1      33.947  21.988  23.771  1.00  0.00     0.099 C 
ATOM     70  C   UNL A   1      32.892  21.048  25.725  1.00  0.00     0.025 C 
ATOM     71  C   UNL A   1      32.453  21.618  23.588  1.00  0.00     0.025 C 
ATOM     72  C   UNL A   1      31.857  22.158  25.714  1.00  0.00    -0.027 C 
ATOM     73  C   UNL A   1      32.331  20.348  24.465  1.00  0.00     0.017 C 
ATOM     74  C   UNL A   1      31.592  22.490  24.441  1.00  0.00    -0.027 C 
BRANCH  69  75
ATOM     75  C   UNL A   1      34.440  23.370  23.358  1.00  0.00     0.228 C 
ATOM     76  O   UNL A   1      35.497  23.396  22.697  1.00  0.00    -0.274 OA
ATOM     77  N   UNL A   1      33.845  24.579  23.480  1.00  0.00    -0.323 N 
ATOM     78  H   UNL A   1      34.296  25.231  22.896  1.00  0.00     0.170 HD
BRANCH  77  79
ATOM     79  C   UNL A   1      32.789  25.209  24.171  1.00  0.00     0.078 A 
ATOM     80  C   UNL A   1      33.086  25.524  25.508  1.00  0.00     0.029 A 
ATOM     81  C   UNL A   1      31.492  25.494  23.728  1.00  0.00     0.165 A 
ATOM     82  C   UNL A   1      32.166  26.181  26.333  1.00  0.00     0.004 A 
ATOM     83  C   UNL A   1      30.560  26.132  24.558  1.00  0.00     0.078 A 
ATOM     84  F   UNL A   1      31.067  25.167  22.508  1.00  0.00    -0.203 F 
ATOM     85  C   UNL A   1      30.899  26.495  25.855  1.00  0.00     0.024 A 
ATOM     86  Cl  UNL A   1      28.974  26.491  23.977  1.00  0.00    -0.081 Cl
ENDBRANCH  77  79
ENDBRANCH  69  75
ENDBRANCH  65  68
ENDBRANCH  63  64
ENDBRANCH   1  63
TORSDOF 12
ENDMDL
