MODEL 1
REMARK VINA RESULT:     -12.3      0.000      0.000
REMARK SMILES C[C@H]1[C@H](C(=O)NCCCNC(=O)c2ccc(-c3c4nc(c(-c5c(F)cccc5F)c5ccc([nH]5)c(-c5c(F)cccc5F)c5nc(c(-c6c(F)cccc6F)c6ccc3[nH]6)C=C5)C=C4)cc2)CC[N@@H+]1Cc1nnnn1-c1ccccc1
REMARK SMILES IDX 7 1 6 2 4 3 5 4 3 6 1 7 2 8 69 9 67 10 68 11 70 13 71 14
REMARK SMILES IDX 72 15 75 16 73 17 74 18 76 19 77 20 81 21 78 22 80 23 79 24
REMARK SMILES IDX 8 25 9 26 10 27 11 28 12 30 13 31 14 32 66 33 15 34 65 35
REMARK SMILES IDX 16 36 17 37 18 38 59 39 19 40 64 41 58 42 60 43 20 44 63 45
REMARK SMILES IDX 57 46 56 47 21 49 47 50 30 51 46 52 31 53 34 54 45 55 61 56
REMARK SMILES IDX 32 57 33 58 44 60 62 61 35 62 22 63 23 64 28 65 24 66 25 67
REMARK SMILES IDX 27 68 29 69 26 70 48 71 49 72 54 73 50 74 51 75 53 76 55 77
REMARK SMILES IDX 52 78 36 79 37 80 42 81 38 82 39 83 41 84 43 85 40 86
REMARK H PARENT 6 5 69 12 10 29 60 48 34 59
REMARK Flexibility Score: inf
ROOT
ATOM      1  C   UNL A   1      36.651  20.842  24.829  1.00  0.00     0.117 C 
ENDROOT
BRANCH   1   2
ATOM      2  N   UNL A   1      35.400  20.436  25.417  1.00  0.00    -0.356 N 
ATOM      3  C   UNL A   1      34.131  20.690  25.011  1.00  0.00     0.229 C 
ATOM      4  O   UNL A   1      33.230  20.080  25.596  1.00  0.00    -0.275 OA
ATOM      5  H   UNL A   1      35.477  19.893  26.233  1.00  0.00     0.163 HD
BRANCH   3   6
ATOM      6  C   UNL A   1      33.782  21.635  23.865  1.00  0.00     0.142 C 
ATOM      7  C   UNL A   1      32.012  21.004  22.205  1.00  0.00     0.076 C 
ATOM      8  C   UNL A   1      32.294  21.803  23.490  1.00  0.00     0.194 C 
ATOM      9  N   UNL A   1      32.112  23.235  23.185  1.00  0.00    -0.326 N 
ATOM     10  C   UNL A   1      34.310  23.057  23.993  1.00  0.00     0.081 C 
ATOM     11  C   UNL A   1      33.436  23.804  22.998  1.00  0.00     0.263 C 
ATOM     12  H   UNL A   1      31.583  23.306  22.315  1.00  0.00     0.348 HD
BRANCH   9  13
ATOM     13  C   UNL A   1      31.083  24.023  23.889  1.00  0.00     0.343 C 
BRANCH  13  14
ATOM     14  C   UNL A   1      30.907  23.917  25.378  1.00  0.00     0.210 A 
ATOM     15  N   UNL A   1      30.172  23.022  26.016  1.00  0.00    -0.107 NA
ATOM     16  N   UNL A   1      31.493  24.708  26.351  1.00  0.00    -0.192 N 
ATOM     17  N   UNL A   1      30.493  23.126  27.345  1.00  0.00    -0.023 NA
ATOM     18  N   UNL A   1      31.399  24.069  27.537  1.00  0.00    -0.040 NA
BRANCH  16  19
ATOM     19  C   UNL A   1      32.046  25.989  26.265  1.00  0.00     0.069 A 
ATOM     20  C   UNL A   1      31.262  27.102  26.586  1.00  0.00     0.028 A 
ATOM     21  C   UNL A   1      33.392  26.124  25.913  1.00  0.00     0.028 A 
ATOM     22  C   UNL A   1      31.869  28.354  26.655  1.00  0.00     0.002 A 
ATOM     23  C   UNL A   1      33.972  27.387  25.928  1.00  0.00     0.002 A 
ATOM     24  C   UNL A   1      33.221  28.495  26.327  1.00  0.00     0.000 A 
ENDBRANCH  16  19
ENDBRANCH  13  14
ENDBRANCH   9  13
ENDBRANCH   3   6
ENDBRANCH   1   2
BRANCH   1  25
ATOM     25  C   UNL A   1      37.742  19.786  24.964  1.00  0.00     0.042 C 
BRANCH  25  26
ATOM     26  C   UNL A   1      38.968  20.267  25.723  1.00  0.00     0.118 C 
BRANCH  26  27
ATOM     27  N   UNL A   1      40.104  19.355  25.697  1.00  0.00    -0.352 N 
ATOM     28  C   UNL A   1      41.410  19.517  26.100  1.00  0.00     0.251 C 
ATOM     29  H   UNL A   1      39.901  18.466  25.326  1.00  0.00     0.163 HD
ATOM     30  O   UNL A   1      42.206  18.599  25.977  1.00  0.00    -0.269 OA
BRANCH  28  31
ATOM     31  C   UNL A   1      41.876  20.818  26.628  1.00  0.00     0.039 A 
ATOM     32  C   UNL A   1      42.308  21.786  25.715  1.00  0.00     0.014 A 
ATOM     33  C   UNL A   1      41.866  21.104  27.991  1.00  0.00     0.014 A 
ATOM     34  C   UNL A   1      42.650  23.061  26.166  1.00  0.00     0.010 A 
ATOM     35  C   UNL A   1      42.080  22.406  28.424  1.00  0.00     0.010 A 
ATOM     36  C   UNL A   1      42.488  23.394  27.519  1.00  0.00    -0.014 A 
BRANCH  36  37
ATOM     37  C   UNL A   1      42.754  24.764  28.020  1.00  0.00     0.031 A 
ATOM     38  C   UNL A   1      44.146  25.149  28.442  1.00  0.00     0.074 A 
ATOM     39  C   UNL A   1      41.733  25.628  28.174  1.00  0.00     0.049 A 
ATOM     40  N   UNL A   1      44.566  26.254  29.004  1.00  0.00    -0.248 NA
ATOM     41  C   UNL A   1      45.201  24.140  28.248  1.00  0.00     0.031 C 
ATOM     42  C   UNL A   1      40.328  25.346  27.864  1.00  0.00     0.029 A 
ATOM     43  N   UNL A   1      41.714  26.917  28.642  1.00  0.00    -0.354 N 
ATOM     44  C   UNL A   1      45.919  26.061  29.247  1.00  0.00     0.074 A 
ATOM     45  C   UNL A   1      46.236  24.710  28.843  1.00  0.00     0.031 C 
ATOM     46  C   UNL A   1      39.593  26.439  28.121  1.00  0.00     0.029 A 
ATOM     47  C   UNL A   1      40.463  27.481  28.654  1.00  0.00     0.049 A 
ATOM     48  H   UNL A   1      42.523  27.393  28.942  1.00  0.00     0.167 HD
ATOM     49  C   UNL A   1      46.828  26.941  29.731  1.00  0.00     0.037 A 
ATOM     50  C   UNL A   1      40.062  28.702  29.056  1.00  0.00     0.037 A 
ATOM     51  C   UNL A   1      46.510  28.295  30.100  1.00  0.00     0.049 A 
ATOM     52  C   UNL A   1      41.090  29.669  29.574  1.00  0.00     0.074 A 
ATOM     53  C   UNL A   1      47.360  29.290  30.547  1.00  0.00     0.029 A 
ATOM     54  N   UNL A   1      45.236  28.844  30.061  1.00  0.00    -0.354 N 
ATOM     55  N   UNL A   1      42.379  29.496  29.737  1.00  0.00    -0.248 NA
ATOM     56  C   UNL A   1      40.608  31.003  29.952  1.00  0.00     0.031 C 
ATOM     57  C   UNL A   1      46.594  30.429  30.818  1.00  0.00     0.029 A 
ATOM     58  C   UNL A   1      45.274  30.158  30.492  1.00  0.00     0.049 A 
ATOM     59  H   UNL A   1      44.424  28.368  29.770  1.00  0.00     0.167 HD
ATOM     60  C   UNL A   1      42.867  30.705  30.216  1.00  0.00     0.074 A 
ATOM     61  C   UNL A   1      41.737  31.607  30.294  1.00  0.00     0.031 C 
ATOM     62  C   UNL A   1      44.135  31.039  30.562  1.00  0.00     0.037 A 
BRANCH  49  63
ATOM     63  C   UNL A   1      48.245  26.463  29.874  1.00  0.00     0.057 A 
ATOM     64  C   UNL A   1      48.701  25.842  31.046  1.00  0.00     0.134 A 
ATOM     65  C   UNL A   1      49.163  26.615  28.828  1.00  0.00     0.134 A 
ATOM     66  F   UNL A   1      47.878  25.678  32.093  1.00  0.00    -0.206 F 
ATOM     67  C   UNL A   1      50.025  25.422  31.185  1.00  0.00     0.040 A 
ATOM     68  C   UNL A   1      50.482  26.170  28.943  1.00  0.00     0.040 A 
ATOM     69  F   UNL A   1      48.795  27.197  27.677  1.00  0.00    -0.206 F 
ATOM     70  C   UNL A   1      50.918  25.580  30.128  1.00  0.00     0.006 A 
ENDBRANCH  49  63
BRANCH  50  71
ATOM     71  C   UNL A   1      38.630  29.084  28.958  1.00  0.00     0.057 A 
ATOM     72  C   UNL A   1      38.084  29.538  27.751  1.00  0.00     0.134 A 
ATOM     73  C   UNL A   1      37.773  29.001  30.061  1.00  0.00     0.134 A 
ATOM     74  F   UNL A   1      38.859  29.654  26.662  1.00  0.00    -0.206 F 
ATOM     75  C   UNL A   1      36.745  29.916  27.649  1.00  0.00     0.040 A 
ATOM     76  C   UNL A   1      36.424  29.349  29.967  1.00  0.00     0.040 A 
ATOM     77  F   UNL A   1      38.229  28.562  31.243  1.00  0.00    -0.206 F 
ATOM     78  C   UNL A   1      35.909  29.817  28.760  1.00  0.00     0.006 A 
ENDBRANCH  50  71
BRANCH  62  79
ATOM     79  C   UNL A   1      44.365  32.447  31.029  1.00  0.00     0.057 A 
ATOM     80  C   UNL A   1      44.653  33.485  30.135  1.00  0.00     0.134 A 
ATOM     81  C   UNL A   1      44.274  32.768  32.389  1.00  0.00     0.134 A 
ATOM     82  F   UNL A   1      44.767  33.240  28.822  1.00  0.00    -0.206 F 
ATOM     83  C   UNL A   1      44.874  34.790  30.581  1.00  0.00     0.040 A 
ATOM     84  C   UNL A   1      44.461  34.075  32.843  1.00  0.00     0.040 A 
ATOM     85  F   UNL A   1      43.989  31.823  33.297  1.00  0.00    -0.206 F 
ATOM     86  C   UNL A   1      44.772  35.087  31.939  1.00  0.00     0.006 A 
ENDBRANCH  62  79
ENDBRANCH  36  37
ENDBRANCH  28  31
ENDBRANCH  26  27
ENDBRANCH  25  26
ENDBRANCH   1  25
TORSDOF 13
ENDMDL
MODEL 2
REMARK VINA RESULT:     -12.2      1.500      1.814
REMARK SMILES C[C@H]1[C@H](C(=O)NCCCNC(=O)c2ccc(-c3c4nc(c(-c5c(F)cccc5F)c5ccc([nH]5)c(-c5c(F)cccc5F)c5nc(c(-c6c(F)cccc6F)c6ccc3[nH]6)C=C5)C=C4)cc2)CC[N@@H+]1Cc1nnnn1-c1ccccc1
REMARK SMILES IDX 7 1 6 2 4 3 5 4 3 6 1 7 2 8 69 9 67 10 68 11 70 13 71 14
REMARK SMILES IDX 72 15 75 16 73 17 74 18 76 19 77 20 81 21 78 22 80 23 79 24
REMARK SMILES IDX 8 25 9 26 10 27 11 28 12 30 13 31 14 32 66 33 15 34 65 35
REMARK SMILES IDX 16 36 17 37 18 38 59 39 19 40 64 41 58 42 60 43 20 44 63 45
REMARK SMILES IDX 57 46 56 47 21 49 47 50 30 51 46 52 31 53 34 54 45 55 61 56
REMARK SMILES IDX 32 57 33 58 44 60 62 61 35 62 22 63 23 64 28 65 24 66 25 67
REMARK SMILES IDX 27 68 29 69 26 70 48 71 49 72 54 73 50 74 51 75 53 76 55 77
REMARK SMILES IDX 52 78 36 79 37 80 42 81 38 82 39 83 41 84 43 85 40 86
REMARK H PARENT 6 5 69 12 10 29 60 48 34 59
REMARK Flexibility Score: inf
ROOT
ATOM      1  C   UNL A   1      37.329  20.881  24.676  1.00  0.00     0.117 C 
ENDROOT
BRANCH   1   2
ATOM      2  N   UNL A   1      36.356  21.186  25.694  1.00  0.00    -0.356 N 
ATOM      3  C   UNL A   1      35.030  21.442  25.574  1.00  0.00     0.229 C 
ATOM      4  O   UNL A   1      34.381  21.506  26.623  1.00  0.00    -0.275 OA
ATOM      5  H   UNL A   1      36.706  21.212  26.613  1.00  0.00     0.163 HD
BRANCH   3   6
ATOM      6  C   UNL A   1      34.318  21.604  24.235  1.00  0.00     0.142 C 
ATOM      7  C   UNL A   1      32.528  19.985  23.555  1.00  0.00     0.076 C 
ATOM      8  C   UNL A   1      32.793  21.362  24.189  1.00  0.00     0.194 C 
ATOM      9  N   UNL A   1      32.245  22.393  23.287  1.00  0.00    -0.326 N 
ATOM     10  C   UNL A   1      34.516  22.941  23.535  1.00  0.00     0.081 C 
ATOM     11  C   UNL A   1      33.364  22.946  22.542  1.00  0.00     0.263 C 
ATOM     12  H   UNL A   1      31.599  21.935  22.643  1.00  0.00     0.348 HD
BRANCH   9  13
ATOM     13  C   UNL A   1      31.171  23.293  23.746  1.00  0.00     0.343 C 
BRANCH  13  14
ATOM     14  C   UNL A   1      30.969  23.579  25.207  1.00  0.00     0.210 A 
ATOM     15  N   UNL A   1      30.281  22.839  26.060  1.00  0.00    -0.107 NA
ATOM     16  N   UNL A   1      31.480  24.641  25.934  1.00  0.00    -0.192 N 
ATOM     17  N   UNL A   1      30.564  23.319  27.313  1.00  0.00    -0.023 NA
ATOM     18  N   UNL A   1      31.402  24.339  27.247  1.00  0.00    -0.040 NA
BRANCH  16  19
ATOM     19  C   UNL A   1      31.949  25.887  25.507  1.00  0.00     0.069 A 
ATOM     20  C   UNL A   1      33.254  26.000  25.015  1.00  0.00     0.028 A 
ATOM     21  C   UNL A   1      31.082  26.983  25.528  1.00  0.00     0.028 A 
ATOM     22  C   UNL A   1      33.654  27.205  24.442  1.00  0.00     0.002 A 
ATOM     23  C   UNL A   1      31.513  28.197  25.007  1.00  0.00     0.002 A 
ATOM     24  C   UNL A   1      32.784  28.300  24.438  1.00  0.00     0.000 A 
ENDBRANCH  16  19
ENDBRANCH  13  14
ENDBRANCH   9  13
ENDBRANCH   3   6
ENDBRANCH   1   2
BRANCH   1  25
ATOM     25  C   UNL A   1      38.142  19.629  24.986  1.00  0.00     0.042 C 
BRANCH  25  26
ATOM     26  C   UNL A   1      39.271  19.864  25.976  1.00  0.00     0.118 C 
BRANCH  26  27
ATOM     27  N   UNL A   1      40.384  18.929  25.872  1.00  0.00    -0.352 N 
ATOM     28  C   UNL A   1      41.735  19.097  26.074  1.00  0.00     0.251 C 
ATOM     29  H   UNL A   1      40.123  18.017  25.612  1.00  0.00     0.163 HD
ATOM     30  O   UNL A   1      42.497  18.156  25.922  1.00  0.00    -0.269 OA
BRANCH  28  31
ATOM     31  C   UNL A   1      42.282  20.428  26.418  1.00  0.00     0.039 A 
ATOM     32  C   UNL A   1      42.690  21.266  25.374  1.00  0.00     0.014 A 
ATOM     33  C   UNL A   1      42.370  20.869  27.736  1.00  0.00     0.014 A 
ATOM     34  C   UNL A   1      43.108  22.567  25.652  1.00  0.00     0.010 A 
ATOM     35  C   UNL A   1      42.660  22.200  28.000  1.00  0.00     0.010 A 
ATOM     36  C   UNL A   1      43.045  23.060  26.963  1.00  0.00    -0.014 A 
BRANCH  36  37
ATOM     37  C   UNL A   1      43.394  24.465  27.284  1.00  0.00     0.031 A 
ATOM     38  C   UNL A   1      44.828  24.915  27.213  1.00  0.00     0.074 A 
ATOM     39  C   UNL A   1      42.437  25.306  27.719  1.00  0.00     0.049 A 
ATOM     40  N   UNL A   1      45.353  26.064  27.554  1.00  0.00    -0.248 NA
ATOM     41  C   UNL A   1      45.810  23.927  26.736  1.00  0.00     0.031 C 
ATOM     42  C   UNL A   1      41.023  24.966  27.895  1.00  0.00     0.029 A 
ATOM     43  N   UNL A   1      42.510  26.621  28.104  1.00  0.00    -0.354 N 
ATOM     44  C   UNL A   1      46.721  25.925  27.354  1.00  0.00     0.074 A 
ATOM     45  C   UNL A   1      46.954  24.562  26.935  1.00  0.00     0.031 C 
ATOM     46  C   UNL A   1      40.358  26.051  28.323  1.00  0.00     0.029 A 
ATOM     47  C   UNL A   1      41.304  27.148  28.494  1.00  0.00     0.049 A 
ATOM     48  H   UNL A   1      43.348  27.138  28.102  1.00  0.00     0.167 HD
ATOM     49  C   UNL A   1      47.694  26.859  27.474  1.00  0.00     0.037 A 
ATOM     50  C   UNL A   1      40.997  28.379  28.944  1.00  0.00     0.037 A 
ATOM     51  C   UNL A   1      47.449  28.223  27.860  1.00  0.00     0.049 A 
ATOM     52  C   UNL A   1      42.089  29.405  29.054  1.00  0.00     0.074 A 
ATOM     53  C   UNL A   1      48.350  29.268  27.959  1.00  0.00     0.029 A 
ATOM     54  N   UNL A   1      46.206  28.732  28.210  1.00  0.00    -0.354 N 
ATOM     55  N   UNL A   1      43.369  29.280  28.799  1.00  0.00    -0.248 NA
ATOM     56  C   UNL A   1      41.693  30.746  29.503  1.00  0.00     0.031 C 
ATOM     57  C   UNL A   1      47.659  30.399  28.409  1.00  0.00     0.029 A 
ATOM     58  C   UNL A   1      46.319  30.071  28.541  1.00  0.00     0.049 A 
ATOM     59  H   UNL A   1      45.367  28.215  28.221  1.00  0.00     0.167 HD
ATOM     60  C   UNL A   1      43.928  30.530  29.034  1.00  0.00     0.074 A 
ATOM     61  C   UNL A   1      42.842  31.402  29.430  1.00  0.00     0.031 C 
ATOM     62  C   UNL A   1      45.223  30.921  28.934  1.00  0.00     0.037 A 
BRANCH  49  63
ATOM     63  C   UNL A   1      49.102  26.432  27.173  1.00  0.00     0.057 A 
ATOM     64  C   UNL A   1      49.960  25.954  28.175  1.00  0.00     0.134 A 
ATOM     65  C   UNL A   1      49.607  26.489  25.868  1.00  0.00     0.134 A 
ATOM     66  F   UNL A   1      49.546  25.887  29.450  1.00  0.00    -0.206 F 
ATOM     67  C   UNL A   1      51.277  25.582  27.896  1.00  0.00     0.040 A 
ATOM     68  C   UNL A   1      50.912  26.089  25.571  1.00  0.00     0.040 A 
ATOM     69  F   UNL A   1      48.842  26.933  24.860  1.00  0.00    -0.206 F 
ATOM     70  C   UNL A   1      51.753  25.643  26.588  1.00  0.00     0.006 A 
ENDBRANCH  49  63
BRANCH  50  71
ATOM     71  C   UNL A   1      39.592  28.713  29.298  1.00  0.00     0.057 A 
ATOM     72  C   UNL A   1      38.701  29.200  28.334  1.00  0.00     0.134 A 
ATOM     73  C   UNL A   1      39.107  28.550  30.600  1.00  0.00     0.134 A 
ATOM     74  F   UNL A   1      39.112  29.393  27.071  1.00  0.00    -0.206 F 
ATOM     75  C   UNL A   1      37.385  29.533  28.656  1.00  0.00     0.040 A 
ATOM     76  C   UNL A   1      37.784  28.853  30.930  1.00  0.00     0.040 A 
ATOM     77  F   UNL A   1      39.905  28.076  31.567  1.00  0.00    -0.206 F 
ATOM     78  C   UNL A   1      36.922  29.355  29.958  1.00  0.00     0.006 A 
ENDBRANCH  50  71
BRANCH  62  79
ATOM     79  C   UNL A   1      45.524  32.360  29.233  1.00  0.00     0.057 A 
ATOM     80  C   UNL A   1      45.457  33.351  28.245  1.00  0.00     0.134 A 
ATOM     81  C   UNL A   1      45.863  32.761  30.531  1.00  0.00     0.134 A 
ATOM     82  F   UNL A   1      45.151  33.030  26.979  1.00  0.00    -0.206 F 
ATOM     83  C   UNL A   1      45.748  34.686  28.531  1.00  0.00     0.040 A 
ATOM     84  C   UNL A   1      46.125  34.098  30.836  1.00  0.00     0.040 A 
ATOM     85  F   UNL A   1      45.934  31.865  31.526  1.00  0.00    -0.206 F 
ATOM     86  C   UNL A   1      46.077  35.062  29.832  1.00  0.00     0.006 A 
ENDBRANCH  62  79
ENDBRANCH  36  37
ENDBRANCH  28  31
ENDBRANCH  26  27
ENDBRANCH  25  26
ENDBRANCH   1  25
TORSDOF 13
ENDMDL
MODEL 3
REMARK VINA RESULT:     -12.1      2.227      7.387
REMARK SMILES C[C@H]1[C@H](C(=O)NCCCNC(=O)c2ccc(-c3c4nc(c(-c5c(F)cccc5F)c5ccc([nH]5)c(-c5c(F)cccc5F)c5nc(c(-c6c(F)cccc6F)c6ccc3[nH]6)C=C5)C=C4)cc2)CC[N@@H+]1Cc1nnnn1-c1ccccc1
REMARK SMILES IDX 7 1 6 2 4 3 5 4 3 6 1 7 2 8 69 9 67 10 68 11 70 13 71 14
REMARK SMILES IDX 72 15 75 16 73 17 74 18 76 19 77 20 81 21 78 22 80 23 79 24
REMARK SMILES IDX 8 25 9 26 10 27 11 28 12 30 13 31 14 32 66 33 15 34 65 35
REMARK SMILES IDX 16 36 17 37 18 38 59 39 19 40 64 41 58 42 60 43 20 44 63 45
REMARK SMILES IDX 57 46 56 47 21 49 47 50 30 51 46 52 31 53 34 54 45 55 61 56
REMARK SMILES IDX 32 57 33 58 44 60 62 61 35 62 22 63 23 64 28 65 24 66 25 67
REMARK SMILES IDX 27 68 29 69 26 70 48 71 49 72 54 73 50 74 51 75 53 76 55 77
REMARK SMILES IDX 52 78 36 79 37 80 42 81 38 82 39 83 41 84 43 85 40 86
REMARK H PARENT 6 5 69 12 10 29 60 48 34 59
REMARK Flexibility Score: inf
ROOT
ATOM      1  C   UNL A   1      31.448  27.829  26.787  1.00  0.00     0.117 C 
ENDROOT
BRANCH   1   2
ATOM      2  N   UNL A   1      30.909  26.496  26.891  1.00  0.00    -0.356 N 
ATOM      3  C   UNL A   1      30.967  25.469  26.007  1.00  0.00     0.229 C 
ATOM      4  O   UNL A   1      30.571  24.370  26.409  1.00  0.00    -0.275 OA
ATOM      5  H   UNL A   1      30.429  26.302  27.727  1.00  0.00     0.163 HD
BRANCH   3   6
ATOM      6  C   UNL A   1      31.525  25.599  24.594  1.00  0.00     0.142 C 
ATOM      7  C   UNL A   1      33.784  26.623  24.221  1.00  0.00     0.076 C 
ATOM      8  C   UNL A   1      33.024  25.294  24.374  1.00  0.00     0.194 C 
ATOM      9  N   UNL A   1      33.106  24.571  23.090  1.00  0.00    -0.326 N 
ATOM     10  C   UNL A   1      30.807  24.796  23.519  1.00  0.00     0.081 C 
ATOM     11  C   UNL A   1      31.841  24.774  22.404  1.00  0.00     0.263 C 
ATOM     12  H   UNL A   1      33.862  24.986  22.544  1.00  0.00     0.348 HD
BRANCH   9  13
ATOM     13  C   UNL A   1      33.760  23.251  23.018  1.00  0.00     0.343 C 
BRANCH  13  14
ATOM     14  C   UNL A   1      33.583  22.235  24.110  1.00  0.00     0.210 A 
ATOM     15  N   UNL A   1      32.440  21.687  24.489  1.00  0.00    -0.107 NA
ATOM     16  N   UNL A   1      34.569  21.667  24.899  1.00  0.00    -0.192 N 
ATOM     17  N   UNL A   1      32.761  20.647  25.323  1.00  0.00    -0.023 NA
ATOM     18  N   UNL A   1      34.071  20.550  25.471  1.00  0.00    -0.040 NA
BRANCH  16  19
ATOM     19  C   UNL A   1      35.861  22.113  25.193  1.00  0.00     0.069 A 
ATOM     20  C   UNL A   1      36.047  23.408  25.689  1.00  0.00     0.028 A 
ATOM     21  C   UNL A   1      36.935  21.232  25.037  1.00  0.00     0.028 A 
ATOM     22  C   UNL A   1      37.314  23.782  26.132  1.00  0.00     0.002 A 
ATOM     23  C   UNL A   1      38.206  21.638  25.428  1.00  0.00     0.002 A 
ATOM     24  C   UNL A   1      38.389  22.898  26.001  1.00  0.00     0.000 A 
ENDBRANCH  16  19
ENDBRANCH  13  14
ENDBRANCH   9  13
ENDBRANCH   3   6
ENDBRANCH   1   2
BRANCH   1  25
ATOM     25  C   UNL A   1      32.735  28.012  27.583  1.00  0.00     0.042 C 
BRANCH  25  26
ATOM     26  C   UNL A   1      33.652  29.087  27.022  1.00  0.00     0.118 C 
BRANCH  26  27
ATOM     27  N   UNL A   1      33.681  30.330  27.784  1.00  0.00    -0.352 N 
ATOM     28  C   UNL A   1      34.690  30.938  28.495  1.00  0.00     0.251 C 
ATOM     29  H   UNL A   1      32.827  30.820  27.790  1.00  0.00     0.163 HD
ATOM     30  O   UNL A   1      34.481  31.995  29.069  1.00  0.00    -0.269 OA
BRANCH  28  31
ATOM     31  C   UNL A   1      36.014  30.290  28.620  1.00  0.00     0.039 A 
ATOM     32  C   UNL A   1      36.881  30.341  27.523  1.00  0.00     0.014 A 
ATOM     33  C   UNL A   1      36.419  29.667  29.798  1.00  0.00     0.014 A 
ATOM     34  C   UNL A   1      38.177  29.837  27.640  1.00  0.00     0.010 A 
ATOM     35  C   UNL A   1      37.745  29.285  29.955  1.00  0.00     0.010 A 
ATOM     36  C   UNL A   1      38.634  29.354  28.874  1.00  0.00    -0.014 A 
BRANCH  36  37
ATOM     37  C   UNL A   1      40.031  28.895  29.062  1.00  0.00     0.031 A 
ATOM     38  C   UNL A   1      41.062  29.841  29.614  1.00  0.00     0.074 A 
ATOM     39  C   UNL A   1      40.387  27.660  28.658  1.00  0.00     0.049 A 
ATOM     40  N   UNL A   1      42.352  29.671  29.755  1.00  0.00    -0.248 NA
ATOM     41  C   UNL A   1      40.587  31.174  30.022  1.00  0.00     0.031 C 
ATOM     42  C   UNL A   1      39.492  26.676  28.044  1.00  0.00     0.029 A 
ATOM     43  N   UNL A   1      41.602  27.024  28.691  1.00  0.00    -0.354 N 
ATOM     44  C   UNL A   1      42.838  30.877  30.244  1.00  0.00     0.074 A 
ATOM     45  C   UNL A   1      41.722  31.793  30.304  1.00  0.00     0.031 C 
ATOM     46  C   UNL A   1      40.180  25.553  27.788  1.00  0.00     0.029 A 
ATOM     47  C   UNL A   1      41.572  25.751  28.177  1.00  0.00     0.049 A 
ATOM     48  H   UNL A   1      42.419  27.441  29.049  1.00  0.00     0.167 HD
ATOM     49  C   UNL A   1      44.095  31.185  30.641  1.00  0.00     0.037 A 
ATOM     50  C   UNL A   1      42.559  24.848  28.032  1.00  0.00     0.037 A 
ATOM     51  C   UNL A   1      45.194  30.256  30.608  1.00  0.00     0.049 A 
ATOM     52  C   UNL A   1      43.944  25.205  28.495  1.00  0.00     0.074 A 
ATOM     53  C   UNL A   1      46.496  30.442  31.038  1.00  0.00     0.029 A 
ATOM     54  N   UNL A   1      45.116  28.960  30.117  1.00  0.00    -0.354 N 
ATOM     55  N   UNL A   1      44.377  26.327  29.016  1.00  0.00    -0.248 NA
ATOM     56  C   UNL A   1      44.973  24.166  28.359  1.00  0.00     0.031 C 
ATOM     57  C   UNL A   1      47.215  29.273  30.768  1.00  0.00     0.029 A 
ATOM     58  C   UNL A   1      46.349  28.341  30.217  1.00  0.00     0.049 A 
ATOM     59  H   UNL A   1      44.302  28.544  29.750  1.00  0.00     0.167 HD
ATOM     60  C   UNL A   1      45.723  26.123  29.291  1.00  0.00     0.074 A 
ATOM     61  C   UNL A   1      46.026  24.762  28.900  1.00  0.00     0.031 C 
ATOM     62  C   UNL A   1      46.629  26.984  29.819  1.00  0.00     0.037 A 
BRANCH  49  63
ATOM     63  C   UNL A   1      44.337  32.577  31.151  1.00  0.00     0.057 A 
ATOM     64  C   UNL A   1      44.218  32.896  32.512  1.00  0.00     0.134 A 
ATOM     65  C   UNL A   1      44.703  33.609  30.278  1.00  0.00     0.134 A 
ATOM     66  F   UNL A   1      43.857  31.959  33.402  1.00  0.00    -0.206 F 
ATOM     67  C   UNL A   1      44.419  34.196  32.980  1.00  0.00     0.040 A 
ATOM     68  C   UNL A   1      44.938  34.906  30.739  1.00  0.00     0.040 A 
ATOM     69  F   UNL A   1      44.839  33.375  28.965  1.00  0.00    -0.206 F 
ATOM     70  C   UNL A   1      44.787  35.205  32.091  1.00  0.00     0.006 A 
ENDBRANCH  49  63
BRANCH  50  71
ATOM     71  C   UNL A   1      42.266  23.513  27.448  1.00  0.00     0.057 A 
ATOM     72  C   UNL A   1      42.336  23.299  26.066  1.00  0.00     0.134 A 
ATOM     73  C   UNL A   1      41.915  22.423  28.252  1.00  0.00     0.134 A 
ATOM     74  F   UNL A   1      42.651  24.309  25.242  1.00  0.00    -0.206 F 
ATOM     75  C   UNL A   1      42.046  22.056  25.503  1.00  0.00     0.040 A 
ATOM     76  C   UNL A   1      41.650  21.166  27.705  1.00  0.00     0.040 A 
ATOM     77  F   UNL A   1      41.842  22.558  29.584  1.00  0.00    -0.206 F 
ATOM     78  C   UNL A   1      41.707  20.983  26.325  1.00  0.00     0.006 A 
ENDBRANCH  50  71
BRANCH  62  79
ATOM     79  C   UNL A   1      48.021  26.465  30.026  1.00  0.00     0.057 A 
ATOM     80  C   UNL A   1      49.007  26.577  29.037  1.00  0.00     0.134 A 
ATOM     81  C   UNL A   1      48.384  25.866  31.238  1.00  0.00     0.134 A 
ATOM     82  F   UNL A   1      48.720  27.129  27.849  1.00  0.00    -0.206 F 
ATOM     83  C   UNL A   1      50.298  26.083  29.236  1.00  0.00     0.040 A 
ATOM     84  C   UNL A   1      49.680  25.397  31.460  1.00  0.00     0.040 A 
ATOM     85  F   UNL A   1      47.491  25.738  32.231  1.00  0.00    -0.206 F 
ATOM     86  C   UNL A   1      50.637  25.496  30.454  1.00  0.00     0.006 A 
ENDBRANCH  62  79
ENDBRANCH  36  37
ENDBRANCH  28  31
ENDBRANCH  26  27
ENDBRANCH  25  26
ENDBRANCH   1  25
TORSDOF 13
ENDMDL
