MODEL 1
REMARK VINA RESULT:      -9.2      0.000      0.000
REMARK SMILES COc1ccc(OC)c(-c2cc(-c3ccccc3)nc(S[C@H](C)C(=O)NCCCNC(=O)c3ccc(-c4c5nc(c(-c6c(F)cccc6F)c6ccc([nH]6)c(-c6c(F)cccc6F)c6nc(c(-c7c(F)cccc7F)c7ccc4[nH]7)C=C6)C=C5)cc3)c2C#N)c1
REMARK SMILES IDX 27 1 26 2 24 3 25 4 22 6 23 7 21 8 20 9 10 10 11 11 87 12
REMARK SMILES IDX 12 13 19 14 9 15 3 16 4 17 90 18 5 19 6 20 2 21 1 22 7 23
REMARK SMILES IDX 8 24 88 25 89 26 13 27 14 28 18 29 15 30 17 31 16 32 28 33
REMARK SMILES IDX 29 34 30 35 31 36 32 38 33 39 34 40 86 41 35 42 85 43 36 44
REMARK SMILES IDX 37 45 38 46 79 47 39 48 84 49 78 50 80 51 40 52 83 53 77 54
REMARK SMILES IDX 76 55 41 57 67 58 50 59 66 60 51 61 54 62 65 63 81 64 52 65
REMARK SMILES IDX 53 66 64 68 82 69 55 70 42 71 43 72 48 73 44 74 45 75 47 76
REMARK SMILES IDX 49 77 46 78 68 79 69 80 74 81 70 82 71 83 73 84 75 85 72 86
REMARK SMILES IDX 56 87 57 88 62 89 58 90 59 91 61 92 63 93 60 94
REMARK H PARENT 26 5 30 37 80 56 54 67
REMARK Flexibility Score: inf
ROOT
ATOM      1  C   UNL A   1      42.175  20.452  25.835  1.00  0.00     0.117 C 
ENDROOT
BRANCH   1   2
ATOM      2  N   UNL A   1      43.582  20.770  25.857  1.00  0.00    -0.355 N 
ATOM      3  C   UNL A   1      44.242  21.921  26.156  1.00  0.00     0.233 C 
ATOM      4  O   UNL A   1      45.478  21.840  26.158  1.00  0.00    -0.274 OA
ATOM      5  H   UNL A   1      44.170  20.020  25.611  1.00  0.00     0.163 HD
BRANCH   3   6
ATOM      6  C   UNL A   1      43.570  23.280  26.386  1.00  0.00     0.139 C 
ATOM      7  C   UNL A   1      43.740  23.791  27.804  1.00  0.00     0.030 C 
BRANCH   6   8
ATOM      8  S   UNL A   1      43.711  24.432  24.961  1.00  0.00    -0.092 SA
BRANCH   8   9
ATOM      9  C   UNL A   1      44.873  25.737  25.398  1.00  0.00     0.116 A 
ATOM     10  C   UNL A   1      47.106  26.678  25.339  1.00  0.00     0.008 A 
ATOM     11  C   UNL A   1      46.570  27.835  25.917  1.00  0.00     0.039 A 
ATOM     12  C   UNL A   1      46.227  25.612  25.051  1.00  0.00     0.092 A 
ATOM     13  C   UNL A   1      45.234  27.865  26.294  1.00  0.00     0.072 A 
ATOM     14  N   UNL A   1      44.397  26.828  26.047  1.00  0.00    -0.240 NA
BRANCH  10  15
ATOM     15  C   UNL A   1      48.542  26.641  24.990  1.00  0.00     0.029 A 
ATOM     16  C   UNL A   1      50.784  25.971  25.773  1.00  0.00     0.119 A 
ATOM     17  C   UNL A   1      51.344  26.540  24.640  1.00  0.00     0.050 A 
ATOM     18  C   UNL A   1      49.400  26.017  25.938  1.00  0.00     0.059 A 
ATOM     19  C   UNL A   1      50.525  27.131  23.681  1.00  0.00     0.051 A 
ATOM     20  C   UNL A   1      49.128  27.198  23.834  1.00  0.00     0.127 A 
BRANCH  16  21
ATOM     21  O   UNL A   1      51.680  25.457  26.667  1.00  0.00    -0.497 OA
ATOM     22  C   UNL A   1      52.652  26.359  27.180  1.00  0.00     0.278 C 
ENDBRANCH  16  21
BRANCH  20  23
ATOM     23  O   UNL A   1      48.576  27.883  22.790  1.00  0.00    -0.496 OA
ATOM     24  C   UNL A   1      49.161  27.920  21.505  1.00  0.00     0.278 C 
ENDBRANCH  20  23
ENDBRANCH  10  15
BRANCH  12  25
ATOM     25  C   UNL A   1      46.717  24.418  24.417  1.00  0.00     0.103 C 
ATOM     26  N   UNL A   1      47.126  23.460  23.908  1.00  0.00    -0.192 NA
ENDBRANCH  12  25
BRANCH  13  27
ATOM     27  C   UNL A   1      44.688  29.013  27.038  1.00  0.00     0.000 A 
ATOM     28  C   UNL A   1      45.479  29.727  27.952  1.00  0.00     0.010 A 
ATOM     29  C   UNL A   1      43.385  29.480  26.809  1.00  0.00     0.010 A 
ATOM     30  C   UNL A   1      45.006  30.873  28.599  1.00  0.00     0.001 A 
ATOM     31  C   UNL A   1      42.901  30.620  27.461  1.00  0.00     0.001 A 
ATOM     32  C   UNL A   1      43.714  31.319  28.352  1.00  0.00     0.000 A 
ENDBRANCH  13  27
ENDBRANCH   8   9
ENDBRANCH   6   8
ENDBRANCH   3   6
ENDBRANCH   1   2
BRANCH   1  33
ATOM     33  C   UNL A   1      41.580  20.325  27.224  1.00  0.00     0.042 C 
BRANCH  33  34
ATOM     34  C   UNL A   1      40.759  21.532  27.640  1.00  0.00     0.118 C 
BRANCH  34  35
ATOM     35  N   UNL A   1      39.822  21.925  26.593  1.00  0.00    -0.352 N 
ATOM     36  C   UNL A   1      39.178  23.122  26.392  1.00  0.00     0.251 C 
ATOM     37  H   UNL A   1      39.621  21.226  25.930  1.00  0.00     0.163 HD
ATOM     38  O   UNL A   1      38.212  23.175  25.638  1.00  0.00    -0.269 OA
BRANCH  36  39
ATOM     39  C   UNL A   1      39.635  24.340  27.096  1.00  0.00     0.039 A 
ATOM     40  C   UNL A   1      40.446  25.261  26.423  1.00  0.00     0.014 A 
ATOM     41  C   UNL A   1      39.281  24.564  28.426  1.00  0.00     0.014 A 
ATOM     42  C   UNL A   1      40.830  26.443  27.062  1.00  0.00     0.010 A 
ATOM     43  C   UNL A   1      39.578  25.781  29.025  1.00  0.00     0.010 A 
ATOM     44  C   UNL A   1      40.363  26.730  28.354  1.00  0.00    -0.014 A 
BRANCH  44  45
ATOM     45  C   UNL A   1      40.688  27.996  29.058  1.00  0.00     0.031 A 
ATOM     46  C   UNL A   1      41.988  28.108  29.811  1.00  0.00     0.074 A 
ATOM     47  C   UNL A   1      39.779  28.988  29.124  1.00  0.00     0.049 A 
ATOM     48  N   UNL A   1      42.379  29.024  30.658  1.00  0.00    -0.248 NA
ATOM     49  C   UNL A   1      42.960  27.019  29.612  1.00  0.00     0.031 C 
ATOM     50  C   UNL A   1      38.476  28.991  28.458  1.00  0.00     0.029 A 
ATOM     51  N   UNL A   1      39.802  30.177  29.812  1.00  0.00    -0.354 N 
ATOM     52  C   UNL A   1      43.623  28.606  31.115  1.00  0.00     0.074 A 
ATOM     53  C   UNL A   1      43.902  27.333  30.488  1.00  0.00     0.031 C 
ATOM     54  C   UNL A   1      37.825  30.125  28.769  1.00  0.00     0.029 A 
ATOM     55  C   UNL A   1      38.639  30.901  29.700  1.00  0.00     0.049 A 
ATOM     56  H   UNL A   1      40.577  30.480  30.337  1.00  0.00     0.167 HD
ATOM     57  C   UNL A   1      44.463  29.236  31.969  1.00  0.00     0.037 A 
ATOM     58  C   UNL A   1      38.260  32.044  30.304  1.00  0.00     0.037 A 
ATOM     59  C   UNL A   1      44.194  30.517  32.562  1.00  0.00     0.049 A 
ATOM     60  C   UNL A   1      39.204  32.713  31.269  1.00  0.00     0.074 A 
ATOM     61  C   UNL A   1      45.008  31.270  33.389  1.00  0.00     0.029 A 
ATOM     62  N   UNL A   1      43.019  31.234  32.392  1.00  0.00    -0.354 N 
ATOM     63  N   UNL A   1      40.400  32.337  31.650  1.00  0.00    -0.248 NA
ATOM     64  C   UNL A   1      38.747  33.965  31.890  1.00  0.00     0.031 C 
ATOM     65  C   UNL A   1      44.302  32.414  33.769  1.00  0.00     0.029 A 
ATOM     66  C   UNL A   1      43.077  32.408  33.123  1.00  0.00     0.049 A 
ATOM     67  H   UNL A   1      42.258  30.951  31.836  1.00  0.00     0.167 HD
ATOM     68  C   UNL A   1      40.854  33.323  32.517  1.00  0.00     0.074 A 
ATOM     69  C   UNL A   1      39.806  34.317  32.606  1.00  0.00     0.031 C 
ATOM     70  C   UNL A   1      42.035  33.402  33.175  1.00  0.00     0.037 A 
BRANCH  57  71
ATOM     71  C   UNL A   1      45.752  28.551  32.321  1.00  0.00     0.057 A 
ATOM     72  C   UNL A   1      46.964  28.884  31.704  1.00  0.00     0.134 A 
ATOM     73  C   UNL A   1      45.789  27.584  33.334  1.00  0.00     0.134 A 
ATOM     74  F   UNL A   1      46.998  29.795  30.719  1.00  0.00    -0.206 F 
ATOM     75  C   UNL A   1      48.162  28.267  32.066  1.00  0.00     0.040 A 
ATOM     76  C   UNL A   1      46.985  26.981  33.727  1.00  0.00     0.040 A 
ATOM     77  F   UNL A   1      44.665  27.221  33.972  1.00  0.00    -0.206 F 
ATOM     78  C   UNL A   1      48.176  27.320  33.088  1.00  0.00     0.006 A 
ENDBRANCH  57  71
BRANCH  58  79
ATOM     79  C   UNL A   1      36.920  32.630  30.028  1.00  0.00     0.057 A 
ATOM     80  C   UNL A   1      36.741  33.572  29.008  1.00  0.00     0.134 A 
ATOM     81  C   UNL A   1      35.797  32.287  30.791  1.00  0.00     0.134 A 
ATOM     82  F   UNL A   1      37.780  33.954  28.251  1.00  0.00    -0.206 F 
ATOM     83  C   UNL A   1      35.503  34.176  28.778  1.00  0.00     0.040 A 
ATOM     84  C   UNL A   1      34.547  32.861  30.552  1.00  0.00     0.040 A 
ATOM     85  F   UNL A   1      35.895  31.380  31.774  1.00  0.00    -0.206 F 
ATOM     86  C   UNL A   1      34.400  33.818  29.551  1.00  0.00     0.006 A 
ENDBRANCH  58  79
BRANCH  70  87
ATOM     87  C   UNL A   1      42.301  34.628  33.998  1.00  0.00     0.057 A 
ATOM     88  C   UNL A   1      42.062  34.666  35.376  1.00  0.00     0.134 A 
ATOM     89  C   UNL A   1      42.898  35.754  33.412  1.00  0.00     0.134 A 
ATOM     90  F   UNL A   1      41.484  33.627  35.996  1.00  0.00    -0.206 F 
ATOM     91  C   UNL A   1      42.402  35.784  36.142  1.00  0.00     0.040 A 
ATOM     92  C   UNL A   1      43.266  36.864  34.172  1.00  0.00     0.040 A 
ATOM     93  F   UNL A   1      43.163  35.777  32.097  1.00  0.00    -0.206 F 
ATOM     94  C   UNL A   1      43.017  36.881  35.542  1.00  0.00     0.006 A 
ENDBRANCH  70  87
ENDBRANCH  44  45
ENDBRANCH  36  39
ENDBRANCH  34  35
ENDBRANCH  33  34
ENDBRANCH   1  33
TORSDOF 17
ENDMDL
MODEL 2
REMARK VINA RESULT:      -9.1      0.613      2.162
REMARK SMILES COc1ccc(OC)c(-c2cc(-c3ccccc3)nc(S[C@H](C)C(=O)NCCCNC(=O)c3ccc(-c4c5nc(c(-c6c(F)cccc6F)c6ccc([nH]6)c(-c6c(F)cccc6F)c6nc(c(-c7c(F)cccc7F)c7ccc4[nH]7)C=C6)C=C5)cc3)c2C#N)c1
REMARK SMILES IDX 27 1 26 2 24 3 25 4 22 6 23 7 21 8 20 9 10 10 11 11 87 12
REMARK SMILES IDX 12 13 19 14 9 15 3 16 4 17 90 18 5 19 6 20 2 21 1 22 7 23
REMARK SMILES IDX 8 24 88 25 89 26 13 27 14 28 18 29 15 30 17 31 16 32 28 33
REMARK SMILES IDX 29 34 30 35 31 36 32 38 33 39 34 40 86 41 35 42 85 43 36 44
REMARK SMILES IDX 37 45 38 46 79 47 39 48 84 49 78 50 80 51 40 52 83 53 77 54
REMARK SMILES IDX 76 55 41 57 67 58 50 59 66 60 51 61 54 62 65 63 81 64 52 65
REMARK SMILES IDX 53 66 64 68 82 69 55 70 42 71 43 72 48 73 44 74 45 75 47 76
REMARK SMILES IDX 49 77 46 78 68 79 69 80 74 81 70 82 71 83 73 84 75 85 72 86
REMARK SMILES IDX 56 87 57 88 62 89 58 90 59 91 61 92 63 93 60 94
REMARK H PARENT 26 5 30 37 80 56 54 67
REMARK Flexibility Score: inf
ROOT
ATOM      1  C   UNL A   1      42.398  20.467  25.903  1.00  0.00     0.117 C 
ENDROOT
BRANCH   1   2
ATOM      2  N   UNL A   1      43.822  20.655  25.766  1.00  0.00    -0.355 N 
ATOM      3  C   UNL A   1      44.637  21.679  26.135  1.00  0.00     0.233 C 
ATOM      4  O   UNL A   1      45.846  21.494  25.944  1.00  0.00    -0.274 OA
ATOM      5  H   UNL A   1      44.288  19.908  25.326  1.00  0.00     0.163 HD
BRANCH   3   6
ATOM      6  C   UNL A   1      44.152  23.034  26.665  1.00  0.00     0.139 C 
ATOM      7  C   UNL A   1      44.862  23.462  27.934  1.00  0.00     0.030 C 
BRANCH   6   8
ATOM      8  S   UNL A   1      43.787  24.262  25.347  1.00  0.00    -0.092 SA
BRANCH   8   9
ATOM      9  C   UNL A   1      44.842  25.700  25.602  1.00  0.00     0.116 A 
ATOM     10  C   UNL A   1      46.934  26.869  25.241  1.00  0.00     0.008 A 
ATOM     11  C   UNL A   1      46.347  27.985  25.850  1.00  0.00     0.039 A 
ATOM     12  C   UNL A   1      46.150  25.706  25.093  1.00  0.00     0.092 A 
ATOM     13  C   UNL A   1      45.071  27.889  26.389  1.00  0.00     0.072 A 
ATOM     14  N   UNL A   1      44.329  26.759  26.274  1.00  0.00    -0.240 NA
BRANCH  10  15
ATOM     15  C   UNL A   1      48.313  26.971  24.719  1.00  0.00     0.029 A 
ATOM     16  C   UNL A   1      49.674  27.389  22.703  1.00  0.00     0.119 A 
ATOM     17  C   UNL A   1      50.822  27.114  23.429  1.00  0.00     0.050 A 
ATOM     18  C   UNL A   1      48.437  27.324  23.346  1.00  0.00     0.059 A 
ATOM     19  C   UNL A   1      50.732  26.795  24.782  1.00  0.00     0.051 A 
ATOM     20  C   UNL A   1      49.495  26.714  25.445  1.00  0.00     0.127 A 
BRANCH  16  21
ATOM     21  O   UNL A   1      49.873  27.648  21.377  1.00  0.00    -0.497 OA
ATOM     22  C   UNL A   1      49.141  26.848  20.458  1.00  0.00     0.278 C 
ENDBRANCH  16  21
BRANCH  20  23
ATOM     23  O   UNL A   1      49.685  26.321  26.739  1.00  0.00    -0.496 OA
ATOM     24  C   UNL A   1      49.235  25.078  27.236  1.00  0.00     0.278 C 
ENDBRANCH  20  23
ENDBRANCH  10  15
BRANCH  12  25
ATOM     25  C   UNL A   1      46.689  24.547  24.436  1.00  0.00     0.103 C 
ATOM     26  N   UNL A   1      47.135  23.619  23.901  1.00  0.00    -0.192 NA
ENDBRANCH  12  25
BRANCH  13  27
ATOM     27  C   UNL A   1      44.494  29.001  27.163  1.00  0.00     0.000 A 
ATOM     28  C   UNL A   1      45.264  29.706  28.102  1.00  0.00     0.010 A 
ATOM     29  C   UNL A   1      43.182  29.444  26.941  1.00  0.00     0.010 A 
ATOM     30  C   UNL A   1      44.761  30.820  28.780  1.00  0.00     0.001 A 
ATOM     31  C   UNL A   1      42.668  30.553  27.624  1.00  0.00     0.001 A 
ATOM     32  C   UNL A   1      43.460  31.243  28.539  1.00  0.00     0.000 A 
ENDBRANCH  13  27
ENDBRANCH   8   9
ENDBRANCH   6   8
ENDBRANCH   3   6
ENDBRANCH   1   2
BRANCH   1  33
ATOM     33  C   UNL A   1      41.943  20.465  27.349  1.00  0.00     0.042 C 
BRANCH  33  34
ATOM     34  C   UNL A   1      40.997  21.604  27.683  1.00  0.00     0.118 C 
BRANCH  34  35
ATOM     35  N   UNL A   1      40.040  21.836  26.606  1.00  0.00    -0.352 N 
ATOM     36  C   UNL A   1      39.240  22.925  26.358  1.00  0.00     0.251 C 
ATOM     37  H   UNL A   1      39.955  21.100  25.959  1.00  0.00     0.163 HD
ATOM     38  O   UNL A   1      38.295  22.824  25.582  1.00  0.00    -0.269 OA
BRANCH  36  39
ATOM     39  C   UNL A   1      39.504  24.212  27.038  1.00  0.00     0.039 A 
ATOM     40  C   UNL A   1      38.949  24.452  28.299  1.00  0.00     0.014 A 
ATOM     41  C   UNL A   1      40.285  25.190  26.423  1.00  0.00     0.014 A 
ATOM     42  C   UNL A   1      39.246  25.640  28.973  1.00  0.00     0.010 A 
ATOM     43  C   UNL A   1      40.661  26.323  27.132  1.00  0.00     0.010 A 
ATOM     44  C   UNL A   1      40.139  26.565  28.412  1.00  0.00    -0.014 A 
BRANCH  44  45
ATOM     45  C   UNL A   1      40.538  27.814  29.107  1.00  0.00     0.031 A 
ATOM     46  C   UNL A   1      41.852  27.860  29.842  1.00  0.00     0.074 A 
ATOM     47  C   UNL A   1      39.683  28.852  29.182  1.00  0.00     0.049 A 
ATOM     48  N   UNL A   1      42.302  28.757  30.680  1.00  0.00    -0.248 NA
ATOM     49  C   UNL A   1      42.763  26.722  29.634  1.00  0.00     0.031 C 
ATOM     50  C   UNL A   1      38.372  28.921  28.534  1.00  0.00     0.029 A 
ATOM     51  N   UNL A   1      39.777  30.040  29.866  1.00  0.00    -0.354 N 
ATOM     52  C   UNL A   1      43.529  28.276  31.122  1.00  0.00     0.074 A 
ATOM     53  C   UNL A   1      43.733  26.989  30.496  1.00  0.00     0.031 C 
ATOM     54  C   UNL A   1      37.786  30.088  28.851  1.00  0.00     0.029 A 
ATOM     55  C   UNL A   1      38.651  30.823  29.768  1.00  0.00     0.049 A 
ATOM     56  H   UNL A   1      40.574  30.304  30.379  1.00  0.00     0.167 HD
ATOM     57  C   UNL A   1      44.412  28.864  31.962  1.00  0.00     0.037 A 
ATOM     58  C   UNL A   1      38.340  31.986  30.373  1.00  0.00     0.037 A 
ATOM     59  C   UNL A   1      44.218  30.159  32.554  1.00  0.00     0.049 A 
ATOM     60  C   UNL A   1      39.331  32.608  31.323  1.00  0.00     0.074 A 
ATOM     61  C   UNL A   1      45.081  30.871  33.367  1.00  0.00     0.029 A 
ATOM     62  N   UNL A   1      43.080  30.936  32.398  1.00  0.00    -0.354 N 
ATOM     63  N   UNL A   1      40.512  32.170  31.689  1.00  0.00    -0.248 NA
ATOM     64  C   UNL A   1      38.948  33.883  31.946  1.00  0.00     0.031 C 
ATOM     65  C   UNL A   1      44.441  32.050  33.753  1.00  0.00     0.029 A 
ATOM     66  C   UNL A   1      43.208  32.107  33.124  1.00  0.00     0.049 A 
ATOM     67  H   UNL A   1      42.297  30.691  31.853  1.00  0.00     0.167 HD
ATOM     68  C   UNL A   1      41.028  33.134  32.546  1.00  0.00     0.074 A 
ATOM     69  C   UNL A   1      40.034  34.181  32.646  1.00  0.00     0.031 C 
ATOM     70  C   UNL A   1      42.220  33.154  33.187  1.00  0.00     0.037 A 
BRANCH  57  71
ATOM     71  C   UNL A   1      45.669  28.114  32.298  1.00  0.00     0.057 A 
ATOM     72  C   UNL A   1      45.685  27.072  33.235  1.00  0.00     0.134 A 
ATOM     73  C   UNL A   1      46.867  28.400  31.632  1.00  0.00     0.134 A 
ATOM     74  F   UNL A   1      44.574  26.753  33.917  1.00  0.00    -0.206 F 
ATOM     75  C   UNL A   1      46.851  26.357  33.511  1.00  0.00     0.040 A 
ATOM     76  C   UNL A   1      48.032  27.672  31.876  1.00  0.00     0.040 A 
ATOM     77  F   UNL A   1      46.921  29.381  30.717  1.00  0.00    -0.206 F 
ATOM     78  C   UNL A   1      48.027  26.650  32.823  1.00  0.00     0.006 A 
ENDBRANCH  57  71
BRANCH  58  79
ATOM     79  C   UNL A   1      37.029  32.639  30.113  1.00  0.00     0.057 A 
ATOM     80  C   UNL A   1      35.897  32.309  30.866  1.00  0.00     0.134 A 
ATOM     81  C   UNL A   1      36.869  33.584  29.092  1.00  0.00     0.134 A 
ATOM     82  F   UNL A   1      35.980  31.400  31.849  1.00  0.00    -0.206 F 
ATOM     83  C   UNL A   1      34.647  32.868  30.594  1.00  0.00     0.040 A 
ATOM     84  C   UNL A   1      35.631  34.173  28.828  1.00  0.00     0.040 A 
ATOM     85  F   UNL A   1      37.916  33.957  28.342  1.00  0.00    -0.206 F 
ATOM     86  C   UNL A   1      34.512  33.806  29.572  1.00  0.00     0.006 A 
ENDBRANCH  58  79
BRANCH  70  87
ATOM     87  C   UNL A   1      42.561  34.366  34.003  1.00  0.00     0.057 A 
ATOM     88  C   UNL A   1      43.070  35.534  33.425  1.00  0.00     0.134 A 
ATOM     89  C   UNL A   1      42.282  34.391  35.377  1.00  0.00     0.134 A 
ATOM     90  F   UNL A   1      43.370  35.573  32.118  1.00  0.00    -0.206 F 
ATOM     91  C   UNL A   1      43.296  36.683  34.187  1.00  0.00     0.040 A 
ATOM     92  C   UNL A   1      42.476  35.541  36.141  1.00  0.00     0.040 A 
ATOM     93  F   UNL A   1      41.782  33.307  35.990  1.00  0.00    -0.206 F 
ATOM     94  C   UNL A   1      42.985  36.693  35.545  1.00  0.00     0.006 A 
ENDBRANCH  70  87
ENDBRANCH  44  45
ENDBRANCH  36  39
ENDBRANCH  34  35
ENDBRANCH  33  34
ENDBRANCH   1  33
TORSDOF 17
ENDMDL
MODEL 3
REMARK VINA RESULT:      -9.1      1.537      3.154
REMARK SMILES COc1ccc(OC)c(-c2cc(-c3ccccc3)nc(S[C@H](C)C(=O)NCCCNC(=O)c3ccc(-c4c5nc(c(-c6c(F)cccc6F)c6ccc([nH]6)c(-c6c(F)cccc6F)c6nc(c(-c7c(F)cccc7F)c7ccc4[nH]7)C=C6)C=C5)cc3)c2C#N)c1
REMARK SMILES IDX 27 1 26 2 24 3 25 4 22 6 23 7 21 8 20 9 10 10 11 11 87 12
REMARK SMILES IDX 12 13 19 14 9 15 3 16 4 17 90 18 5 19 6 20 2 21 1 22 7 23
REMARK SMILES IDX 8 24 88 25 89 26 13 27 14 28 18 29 15 30 17 31 16 32 28 33
REMARK SMILES IDX 29 34 30 35 31 36 32 38 33 39 34 40 86 41 35 42 85 43 36 44
REMARK SMILES IDX 37 45 38 46 79 47 39 48 84 49 78 50 80 51 40 52 83 53 77 54
REMARK SMILES IDX 76 55 41 57 67 58 50 59 66 60 51 61 54 62 65 63 81 64 52 65
REMARK SMILES IDX 53 66 64 68 82 69 55 70 42 71 43 72 48 73 44 74 45 75 47 76
REMARK SMILES IDX 49 77 46 78 68 79 69 80 74 81 70 82 71 83 73 84 75 85 72 86
REMARK SMILES IDX 56 87 57 88 62 89 58 90 59 91 61 92 63 93 60 94
REMARK H PARENT 26 5 30 37 80 56 54 67
REMARK Flexibility Score: inf
ROOT
ATOM      1  C   UNL A   1      42.447  20.779  25.986  1.00  0.00     0.117 C 
ENDROOT
BRANCH   1   2
ATOM      2  N   UNL A   1      43.872  20.581  25.875  1.00  0.00    -0.355 N 
ATOM      3  C   UNL A   1      44.862  21.390  25.412  1.00  0.00     0.233 C 
ATOM      4  O   UNL A   1      46.012  20.944  25.529  1.00  0.00    -0.274 OA
ATOM      5  H   UNL A   1      44.184  19.702  26.190  1.00  0.00     0.163 HD
BRANCH   3   6
ATOM      6  C   UNL A   1      44.635  22.726  24.695  1.00  0.00     0.139 C 
ATOM      7  C   UNL A   1      43.300  23.360  25.032  1.00  0.00     0.030 C 
BRANCH   6   8
ATOM      8  S   UNL A   1      46.146  23.764  24.556  1.00  0.00    -0.092 SA
BRANCH   8   9
ATOM      9  C   UNL A   1      46.256  24.806  26.021  1.00  0.00     0.116 A 
ATOM     10  C   UNL A   1      46.831  26.914  27.070  1.00  0.00     0.008 A 
ATOM     11  C   UNL A   1      46.229  26.429  28.238  1.00  0.00     0.039 A 
ATOM     12  C   UNL A   1      46.820  26.087  25.926  1.00  0.00     0.092 A 
ATOM     13  C   UNL A   1      45.748  25.128  28.280  1.00  0.00     0.072 A 
ATOM     14  N   UNL A   1      45.767  24.322  27.189  1.00  0.00    -0.240 NA
BRANCH  10  15
ATOM     15  C   UNL A   1      47.386  28.284  27.056  1.00  0.00     0.029 A 
ATOM     16  C   UNL A   1      46.880  30.653  26.588  1.00  0.00     0.119 A 
ATOM     17  C   UNL A   1      48.206  30.977  26.828  1.00  0.00     0.050 A 
ATOM     18  C   UNL A   1      46.479  29.323  26.708  1.00  0.00     0.059 A 
ATOM     19  C   UNL A   1      49.110  29.984  27.199  1.00  0.00     0.051 A 
ATOM     20  C   UNL A   1      48.727  28.636  27.315  1.00  0.00     0.127 A 
BRANCH  16  21
ATOM     21  O   UNL A   1      46.091  31.694  26.190  1.00  0.00    -0.497 OA
ATOM     22  C   UNL A   1      44.739  31.669  26.627  1.00  0.00     0.278 C 
ENDBRANCH  16  21
BRANCH  20  23
ATOM     23  O   UNL A   1      49.813  27.868  27.624  1.00  0.00    -0.496 OA
ATOM     24  C   UNL A   1      50.511  27.107  26.661  1.00  0.00     0.278 C 
ENDBRANCH  20  23
ENDBRANCH  10  15
BRANCH  12  25
ATOM     25  C   UNL A   1      47.386  26.552  24.689  1.00  0.00     0.103 C 
ATOM     26  N   UNL A   1      47.829  26.929  23.686  1.00  0.00    -0.192 NA
ENDBRANCH  12  25
BRANCH  13  27
ATOM     27  C   UNL A   1      45.248  24.551  29.539  1.00  0.00     0.000 A 
ATOM     28  C   UNL A   1      45.646  25.068  30.782  1.00  0.00     0.010 A 
ATOM     29  C   UNL A   1      44.304  23.513  29.544  1.00  0.00     0.010 A 
ATOM     30  C   UNL A   1      45.114  24.592  31.984  1.00  0.00     0.001 A 
ATOM     31  C   UNL A   1      43.774  23.025  30.744  1.00  0.00     0.001 A 
ATOM     32  C   UNL A   1      44.175  23.568  31.963  1.00  0.00     0.000 A 
ENDBRANCH  13  27
ENDBRANCH   8   9
ENDBRANCH   6   8
ENDBRANCH   3   6
ENDBRANCH   1   2
BRANCH   1  33
ATOM     33  C   UNL A   1      41.972  20.832  27.425  1.00  0.00     0.042 C 
BRANCH  33  34
ATOM     34  C   UNL A   1      41.090  22.030  27.724  1.00  0.00     0.118 C 
BRANCH  34  35
ATOM     35  N   UNL A   1      40.043  22.184  26.720  1.00  0.00    -0.352 N 
ATOM     36  C   UNL A   1      39.165  23.222  26.514  1.00  0.00     0.251 C 
ATOM     37  H   UNL A   1      39.951  21.430  26.094  1.00  0.00     0.163 HD
ATOM     38  O   UNL A   1      38.172  23.051  25.815  1.00  0.00    -0.269 OA
BRANCH  36  39
ATOM     39  C   UNL A   1      39.408  24.537  27.147  1.00  0.00     0.039 A 
ATOM     40  C   UNL A   1      38.916  24.783  28.433  1.00  0.00     0.014 A 
ATOM     41  C   UNL A   1      40.105  25.534  26.464  1.00  0.00     0.014 A 
ATOM     42  C   UNL A   1      39.195  26.001  29.061  1.00  0.00     0.010 A 
ATOM     43  C   UNL A   1      40.467  26.700  27.124  1.00  0.00     0.010 A 
ATOM     44  C   UNL A   1      40.008  26.951  28.426  1.00  0.00    -0.014 A 
BRANCH  44  45
ATOM     45  C   UNL A   1      40.388  28.235  29.068  1.00  0.00     0.031 A 
ATOM     46  C   UNL A   1      41.743  28.364  29.712  1.00  0.00     0.074 A 
ATOM     47  C   UNL A   1      39.487  29.230  29.179  1.00  0.00     0.049 A 
ATOM     48  N   UNL A   1      42.200  29.302  30.500  1.00  0.00    -0.248 NA
ATOM     49  C   UNL A   1      42.696  27.268  29.466  1.00  0.00     0.031 C 
ATOM     50  C   UNL A   1      38.134  29.218  28.619  1.00  0.00     0.029 A 
ATOM     51  N   UNL A   1      39.564  30.437  29.831  1.00  0.00    -0.354 N 
ATOM     52  C   UNL A   1      43.477  28.894  30.867  1.00  0.00     0.074 A 
ATOM     53  C   UNL A   1      43.705  27.605  30.255  1.00  0.00     0.031 C 
ATOM     54  C   UNL A   1      37.510  30.361  28.950  1.00  0.00     0.029 A 
ATOM     55  C   UNL A   1      38.395  31.160  29.793  1.00  0.00     0.049 A 
ATOM     56  H   UNL A   1      40.378  30.752  30.284  1.00  0.00     0.167 HD
ATOM     57  C   UNL A   1      44.382  29.545  31.635  1.00  0.00     0.037 A 
ATOM     58  C   UNL A   1      38.065  32.320  30.394  1.00  0.00     0.037 A 
ATOM     59  C   UNL A   1      44.160  30.843  32.212  1.00  0.00     0.049 A 
ATOM     60  C   UNL A   1      39.083  33.013  31.262  1.00  0.00     0.074 A 
ATOM     61  C   UNL A   1      45.038  31.616  32.951  1.00  0.00     0.029 A 
ATOM     62  N   UNL A   1      42.976  31.557  32.117  1.00  0.00    -0.354 N 
ATOM     63  N   UNL A   1      40.306  32.644  31.557  1.00  0.00    -0.248 NA
ATOM     64  C   UNL A   1      38.677  34.282  31.883  1.00  0.00     0.031 C 
ATOM     65  C   UNL A   1      44.365  32.771  33.355  1.00  0.00     0.029 A 
ATOM     66  C   UNL A   1      43.091  32.750  32.809  1.00  0.00     0.049 A 
ATOM     67  H   UNL A   1      42.173  31.260  31.631  1.00  0.00     0.167 HD
ATOM     68  C   UNL A   1      40.827  33.653  32.357  1.00  0.00     0.074 A 
ATOM     69  C   UNL A   1      39.790  34.650  32.503  1.00  0.00     0.031 C 
ATOM     70  C   UNL A   1      42.057  33.747  32.917  1.00  0.00     0.037 A 
BRANCH  57  71
ATOM     71  C   UNL A   1      45.695  28.867  31.901  1.00  0.00     0.057 A 
ATOM     72  C   UNL A   1      45.895  28.046  33.018  1.00  0.00     0.134 A 
ATOM     73  C   UNL A   1      46.756  28.993  30.995  1.00  0.00     0.134 A 
ATOM     74  F   UNL A   1      44.924  27.890  33.930  1.00  0.00    -0.206 F 
ATOM     75  C   UNL A   1      47.108  27.390  33.234  1.00  0.00     0.040 A 
ATOM     76  C   UNL A   1      47.963  28.319  31.184  1.00  0.00     0.040 A 
ATOM     77  F   UNL A   1      46.631  29.759  29.899  1.00  0.00    -0.206 F 
ATOM     78  C   UNL A   1      48.143  27.518  32.310  1.00  0.00     0.006 A 
ENDBRANCH  57  71
BRANCH  58  79
ATOM     79  C   UNL A   1      36.708  32.900  30.209  1.00  0.00     0.057 A 
ATOM     80  C   UNL A   1      36.409  33.696  29.098  1.00  0.00     0.134 A 
ATOM     81  C   UNL A   1      35.690  32.700  31.150  1.00  0.00     0.134 A 
ATOM     82  F   UNL A   1      37.344  33.938  28.168  1.00  0.00    -0.206 F 
ATOM     83  C   UNL A   1      35.158  34.298  28.943  1.00  0.00     0.040 A 
ATOM     84  C   UNL A   1      34.426  33.272  30.992  1.00  0.00     0.040 A 
ATOM     85  F   UNL A   1      35.904  31.937  32.231  1.00  0.00    -0.206 F 
ATOM     86  C   UNL A   1      34.161  34.085  29.892  1.00  0.00     0.006 A 
ENDBRANCH  58  79
BRANCH  70  87
ATOM     87  C   UNL A   1      42.388  34.994  33.683  1.00  0.00     0.057 A 
ATOM     88  C   UNL A   1      42.947  36.120  33.069  1.00  0.00     0.134 A 
ATOM     89  C   UNL A   1      42.049  35.097  35.040  1.00  0.00     0.134 A 
ATOM     90  F   UNL A   1      43.304  36.084  31.777  1.00  0.00    -0.206 F 
ATOM     91  C   UNL A   1      43.163  37.303  33.780  1.00  0.00     0.040 A 
ATOM     92  C   UNL A   1      42.234  36.282  35.752  1.00  0.00     0.040 A 
ATOM     93  F   UNL A   1      41.499  34.057  35.685  1.00  0.00    -0.206 F 
ATOM     94  C   UNL A   1      42.794  37.390  35.121  1.00  0.00     0.006 A 
ENDBRANCH  70  87
ENDBRANCH  44  45
ENDBRANCH  36  39
ENDBRANCH  34  35
ENDBRANCH  33  34
ENDBRANCH   1  33
TORSDOF 17
ENDMDL
