MODEL 1
REMARK VINA RESULT:     -12.7      0.000      0.000
REMARK SMILES COc1cc2c(cc1OC)[C@H](C(=O)NCCCNC(=O)c1ccc(-c3c4nc(c(-c5c(F)cccc5F)c5ccc([nH]5)c(-c5c(F)cccc5F)c5nc(c(-c6c(F)cccc6F)c6ccc3[nH]6)C=C5)C=C4)cc1)[C@H](c1cccc(Cl)c1)N(C)C2=O
REMARK SMILES IDX 16 1 15 2 14 3 12 4 13 5 11 7 3 8 4 9 8 10 5 11 7 12 6 13
REMARK SMILES IDX 85 14 83 15 86 16 75 17 84 18 2 19 1 20 9 21 10 22 76 23
REMARK SMILES IDX 77 24 82 25 78 26 80 27 79 28 81 29 17 30 18 31 19 32 20 34
REMARK SMILES IDX 21 35 22 36 74 37 23 38 73 39 24 40 25 41 26 42 67 43 27 44
REMARK SMILES IDX 72 45 66 46 68 47 28 48 71 49 65 50 64 51 29 53 55 54 38 55
REMARK SMILES IDX 54 56 39 57 42 58 53 59 69 60 40 61 41 62 52 64 70 65 43 66
REMARK SMILES IDX 30 67 31 68 36 69 32 70 33 71 35 72 37 73 34 74 56 75 57 76
REMARK SMILES IDX 62 77 58 78 59 79 61 80 63 81 60 82 44 83 45 84 50 85 46 86
REMARK SMILES IDX 47 87 49 88 51 89 48 90
REMARK H PARENT 14 6 18 33 68 52 42 63
REMARK Flexibility Score: inf
ROOT
ATOM      1  C   UNL A   1      37.920  21.270  26.053  1.00  0.00     0.042 C 
ENDROOT
BRANCH   1   2
ATOM      2  C   UNL A   1      37.982  22.763  25.723  1.00  0.00     0.117 C 
BRANCH   2   3
ATOM      3  N   UNL A   1      37.344  23.002  24.438  1.00  0.00    -0.355 N 
ATOM      4  C   UNL A   1      36.071  23.292  24.072  1.00  0.00     0.230 C 
ATOM      5  O   UNL A   1      35.886  23.320  22.845  1.00  0.00    -0.274 OA
ATOM      6  H   UNL A   1      37.966  22.942  23.677  1.00  0.00     0.163 HD
BRANCH   4   7
ATOM      7  C   UNL A   1      34.923  23.718  24.984  1.00  0.00     0.136 C 
ATOM      8  C   UNL A   1      31.661  26.161  23.566  1.00  0.00     0.161 A 
ATOM      9  C   UNL A   1      31.491  25.323  24.666  1.00  0.00     0.064 A 
ATOM     10  C   UNL A   1      32.944  26.391  23.062  1.00  0.00     0.161 A 
ATOM     11  C   UNL A   1      32.590  24.630  25.182  1.00  0.00     0.048 A 
ATOM     12  C   UNL A   1      34.036  25.717  23.625  1.00  0.00     0.056 A 
ATOM     13  C   UNL A   1      33.845  24.692  24.552  1.00  0.00    -0.016 A 
ATOM     14  C   UNL A   1      32.445  23.881  26.466  1.00  0.00     0.254 C 
ATOM     15  N   UNL A   1      33.397  22.898  26.718  1.00  0.00    -0.333 N 
ATOM     16  O   UNL A   1      31.531  24.154  27.234  1.00  0.00    -0.269 OA
ATOM     17  C   UNL A   1      34.292  22.443  25.640  1.00  0.00     0.132 C 
ATOM     18  C   UNL A   1      33.364  22.182  27.979  1.00  0.00     0.147 C 
BRANCH   8  19
ATOM     19  O   UNL A   1      30.541  26.679  22.977  1.00  0.00    -0.493 OA
ATOM     20  C   UNL A   1      30.100  27.855  23.649  1.00  0.00     0.278 C 
ENDBRANCH   8  19
BRANCH  10  21
ATOM     21  O   UNL A   1      33.260  27.254  22.046  1.00  0.00    -0.493 OA
ATOM     22  C   UNL A   1      33.794  28.510  22.468  1.00  0.00     0.278 C 
ENDBRANCH  10  21
BRANCH  17  23
ATOM     23  C   UNL A   1      33.589  21.444  24.697  1.00  0.00    -0.023 A 
ATOM     24  C   UNL A   1      32.871  21.910  23.582  1.00  0.00     0.006 A 
ATOM     25  C   UNL A   1      33.652  20.047  24.877  1.00  0.00     0.026 A 
ATOM     26  C   UNL A   1      32.172  21.033  22.744  1.00  0.00     0.002 A 
ATOM     27  C   UNL A   1      32.966  19.171  24.031  1.00  0.00     0.041 A 
ATOM     28  C   UNL A   1      32.210  19.661  22.976  1.00  0.00     0.020 A 
ATOM     29  Cl  UNL A   1      33.066  17.475  24.301  1.00  0.00    -0.084 Cl
ENDBRANCH  17  23
ENDBRANCH   4   7
ENDBRANCH   2   3
ENDBRANCH   1   2
BRANCH   1  30
ATOM     30  C   UNL A   1      38.417  20.366  24.939  1.00  0.00     0.118 C 
BRANCH  30  31
ATOM     31  N   UNL A   1      39.436  19.440  25.407  1.00  0.00    -0.352 N 
ATOM     32  C   UNL A   1      40.670  19.621  25.984  1.00  0.00     0.251 C 
ATOM     33  H   UNL A   1      39.192  18.494  25.285  1.00  0.00     0.163 HD
ATOM     34  O   UNL A   1      41.416  18.645  26.050  1.00  0.00    -0.269 OA
BRANCH  32  35
ATOM     35  C   UNL A   1      41.150  20.929  26.507  1.00  0.00     0.039 A 
ATOM     36  C   UNL A   1      41.056  21.164  27.888  1.00  0.00     0.014 A 
ATOM     37  C   UNL A   1      41.606  21.961  25.690  1.00  0.00     0.014 A 
ATOM     38  C   UNL A   1      41.450  22.393  28.433  1.00  0.00     0.010 A 
ATOM     39  C   UNL A   1      42.117  23.136  26.243  1.00  0.00     0.010 A 
ATOM     40  C   UNL A   1      42.016  23.383  27.618  1.00  0.00    -0.014 A 
BRANCH  40  41
ATOM     41  C   UNL A   1      42.457  24.697  28.163  1.00  0.00     0.031 A 
ATOM     42  C   UNL A   1      41.453  25.795  28.408  1.00  0.00     0.074 A 
ATOM     43  C   UNL A   1      43.767  24.937  28.364  1.00  0.00     0.049 A 
ATOM     44  N   UNL A   1      41.650  27.037  28.776  1.00  0.00    -0.248 NA
ATOM     45  C   UNL A   1      40.039  25.464  28.164  1.00  0.00     0.031 C 
ATOM     46  C   UNL A   1      44.850  23.986  28.106  1.00  0.00     0.029 A 
ATOM     47  N   UNL A   1      44.412  26.062  28.816  1.00  0.00    -0.354 N 
ATOM     48  C   UNL A   1      40.397  27.638  28.769  1.00  0.00     0.074 A 
ATOM     49  C   UNL A   1      39.457  26.645  28.300  1.00  0.00     0.031 C 
ATOM     50  C   UNL A   1      46.021  24.559  28.426  1.00  0.00     0.029 A 
ATOM     51  C   UNL A   1      45.778  25.928  28.869  1.00  0.00     0.049 A 
ATOM     52  H   UNL A   1      43.940  26.885  29.076  1.00  0.00     0.167 HD
ATOM     53  C   UNL A   1      40.052  28.893  29.146  1.00  0.00     0.037 A 
ATOM     54  C   UNL A   1      46.730  26.811  29.227  1.00  0.00     0.037 A 
ATOM     55  C   UNL A   1      40.982  29.866  29.654  1.00  0.00     0.049 A 
ATOM     56  C   UNL A   1      46.328  28.186  29.674  1.00  0.00     0.074 A 
ATOM     57  C   UNL A   1      40.726  31.135  30.144  1.00  0.00     0.029 A 
ATOM     58  N   UNL A   1      42.354  29.676  29.736  1.00  0.00    -0.354 N 
ATOM     59  N   UNL A   1      45.130  28.717  29.736  1.00  0.00    -0.248 NA
ATOM     60  C   UNL A   1      47.407  29.084  30.111  1.00  0.00     0.031 C 
ATOM     61  C   UNL A   1      41.948  31.729  30.479  1.00  0.00     0.029 A 
ATOM     62  C   UNL A   1      42.961  30.811  30.246  1.00  0.00     0.049 A 
ATOM     63  H   UNL A   1      42.827  28.854  29.471  1.00  0.00     0.167 HD
ATOM     64  C   UNL A   1      45.308  30.002  30.234  1.00  0.00     0.074 A 
ATOM     65  C   UNL A   1      46.728  30.163  30.474  1.00  0.00     0.031 C 
ATOM     66  C   UNL A   1      44.377  30.959  30.474  1.00  0.00     0.037 A 
BRANCH  53  67
ATOM     67  C   UNL A   1      38.603  29.277  29.015  1.00  0.00     0.057 A 
ATOM     68  C   UNL A   1      37.722  29.244  30.106  1.00  0.00     0.134 A 
ATOM     69  C   UNL A   1      38.077  29.674  27.779  1.00  0.00     0.134 A 
ATOM     70  F   UNL A   1      38.155  28.863  31.318  1.00  0.00    -0.206 F 
ATOM     71  C   UNL A   1      36.366  29.541  29.963  1.00  0.00     0.040 A 
ATOM     72  C   UNL A   1      36.728  30.007  27.630  1.00  0.00     0.040 A 
ATOM     73  F   UNL A   1      38.862  29.740  26.693  1.00  0.00    -0.206 F 
ATOM     74  C   UNL A   1      35.866  29.926  28.721  1.00  0.00     0.006 A 
ENDBRANCH  53  67
BRANCH  54  75
ATOM     75  C   UNL A   1      48.155  26.395  29.201  1.00  0.00     0.057 A 
ATOM     76  C   UNL A   1      48.742  25.760  30.302  1.00  0.00     0.134 A 
ATOM     77  C   UNL A   1      48.949  26.581  28.064  1.00  0.00     0.134 A 
ATOM     78  F   UNL A   1      48.035  25.567  31.425  1.00  0.00    -0.206 F 
ATOM     79  C   UNL A   1      50.068  25.329  30.274  1.00  0.00     0.040 A 
ATOM     80  C   UNL A   1      50.270  26.134  28.014  1.00  0.00     0.040 A 
ATOM     81  F   UNL A   1      48.442  27.173  26.973  1.00  0.00    -0.206 F 
ATOM     82  C   UNL A   1      50.834  25.508  29.124  1.00  0.00     0.006 A 
ENDBRANCH  54  75
BRANCH  66  83
ATOM     83  C   UNL A   1      44.863  32.261  31.041  1.00  0.00     0.057 A 
ATOM     84  C   UNL A   1      45.216  33.340  30.221  1.00  0.00     0.134 A 
ATOM     85  C   UNL A   1      44.937  32.450  32.427  1.00  0.00     0.134 A 
ATOM     86  F   UNL A   1      45.179  33.219  28.886  1.00  0.00    -0.206 F 
ATOM     87  C   UNL A   1      45.645  34.555  30.759  1.00  0.00     0.040 A 
ATOM     88  C   UNL A   1      45.339  33.669  32.978  1.00  0.00     0.040 A 
ATOM     89  F   UNL A   1      44.605  31.460  33.269  1.00  0.00    -0.206 F 
ATOM     90  C   UNL A   1      45.700  34.723  32.142  1.00  0.00     0.006 A 
ENDBRANCH  66  83
ENDBRANCH  40  41
ENDBRANCH  32  35
ENDBRANCH  30  31
ENDBRANCH   1  30
TORSDOF 13
ENDMDL
MODEL 2
REMARK VINA RESULT:     -12.6      3.828      8.736
REMARK SMILES COc1cc2c(cc1OC)[C@H](C(=O)NCCCNC(=O)c1ccc(-c3c4nc(c(-c5c(F)cccc5F)c5ccc([nH]5)c(-c5c(F)cccc5F)c5nc(c(-c6c(F)cccc6F)c6ccc3[nH]6)C=C5)C=C4)cc1)[C@H](c1cccc(Cl)c1)N(C)C2=O
REMARK SMILES IDX 16 1 15 2 14 3 12 4 13 5 11 7 3 8 4 9 8 10 5 11 7 12 6 13
REMARK SMILES IDX 85 14 83 15 86 16 75 17 84 18 2 19 1 20 9 21 10 22 76 23
REMARK SMILES IDX 77 24 82 25 78 26 80 27 79 28 81 29 17 30 18 31 19 32 20 34
REMARK SMILES IDX 21 35 22 36 74 37 23 38 73 39 24 40 25 41 26 42 67 43 27 44
REMARK SMILES IDX 72 45 66 46 68 47 28 48 71 49 65 50 64 51 29 53 55 54 38 55
REMARK SMILES IDX 54 56 39 57 42 58 53 59 69 60 40 61 41 62 52 64 70 65 43 66
REMARK SMILES IDX 30 67 31 68 36 69 32 70 33 71 35 72 37 73 34 74 56 75 57 76
REMARK SMILES IDX 62 77 58 78 59 79 61 80 63 81 60 82 44 83 45 84 50 85 46 86
REMARK SMILES IDX 47 87 49 88 51 89 48 90
REMARK H PARENT 14 6 18 33 68 52 42 63
REMARK Flexibility Score: inf
ROOT
ATOM      1  C   UNL A   1      33.049  31.121  26.473  1.00  0.00     0.042 C 
ENDROOT
BRANCH   1   2
ATOM      2  C   UNL A   1      33.732  29.992  27.248  1.00  0.00     0.117 C 
BRANCH   2   3
ATOM      3  N   UNL A   1      32.760  28.954  27.550  1.00  0.00    -0.355 N 
ATOM      4  C   UNL A   1      32.328  27.859  26.875  1.00  0.00     0.230 C 
ATOM      5  O   UNL A   1      31.389  27.260  27.421  1.00  0.00    -0.274 OA
ATOM      6  H   UNL A   1      32.326  29.069  28.426  1.00  0.00     0.163 HD
BRANCH   4   7
ATOM      7  C   UNL A   1      32.960  27.233  25.635  1.00  0.00     0.136 C 
ATOM      8  C   UNL A   1      32.541  23.035  24.728  1.00  0.00     0.161 A 
ATOM      9  C   UNL A   1      32.795  23.955  23.714  1.00  0.00     0.064 A 
ATOM     10  C   UNL A   1      32.653  23.428  26.064  1.00  0.00     0.161 A 
ATOM     11  C   UNL A   1      33.045  25.292  24.041  1.00  0.00     0.048 A 
ATOM     12  C   UNL A   1      32.946  24.764  26.367  1.00  0.00     0.056 A 
ATOM     13  C   UNL A   1      32.952  25.740  25.370  1.00  0.00    -0.016 A 
ATOM     14  C   UNL A   1      33.497  26.233  22.974  1.00  0.00     0.254 C 
ATOM     15  N   UNL A   1      33.333  27.590  23.238  1.00  0.00    -0.333 N 
ATOM     16  O   UNL A   1      33.990  25.798  21.941  1.00  0.00    -0.269 OA
ATOM     17  C   UNL A   1      32.493  28.026  24.367  1.00  0.00     0.132 C 
ATOM     18  C   UNL A   1      33.818  28.565  22.280  1.00  0.00     0.147 C 
BRANCH   8  19
ATOM     19  O   UNL A   1      32.124  21.784  24.366  1.00  0.00    -0.493 OA
ATOM     20  C   UNL A   1      32.282  21.570  22.967  1.00  0.00     0.278 C 
ENDBRANCH   8  19
BRANCH  10  21
ATOM     21  O   UNL A   1      32.515  22.607  27.152  1.00  0.00    -0.493 OA
ATOM     22  C   UNL A   1      33.714  21.950  27.567  1.00  0.00     0.278 C 
ENDBRANCH  10  21
BRANCH  17  23
ATOM     23  C   UNL A   1      30.991  27.968  24.018  1.00  0.00    -0.023 A 
ATOM     24  C   UNL A   1      30.257  26.792  24.248  1.00  0.00     0.006 A 
ATOM     25  C   UNL A   1      30.283  29.069  23.493  1.00  0.00     0.026 A 
ATOM     26  C   UNL A   1      28.909  26.689  23.885  1.00  0.00     0.002 A 
ATOM     27  C   UNL A   1      28.934  28.970  23.144  1.00  0.00     0.041 A 
ATOM     28  C   UNL A   1      28.248  27.776  23.320  1.00  0.00     0.020 A 
ATOM     29  Cl  UNL A   1      28.120  30.340  22.496  1.00  0.00    -0.084 Cl
ENDBRANCH  17  23
ENDBRANCH   4   7
ENDBRANCH   2   3
ENDBRANCH   1   2
BRANCH   1  30
ATOM     30  C   UNL A   1      31.846  31.719  27.180  1.00  0.00     0.118 C 
BRANCH  30  31
ATOM     31  N   UNL A   1      31.970  33.161  27.332  1.00  0.00    -0.352 N 
ATOM     32  C   UNL A   1      32.868  33.956  28.003  1.00  0.00     0.251 C 
ATOM     33  H   UNL A   1      31.269  33.667  26.861  1.00  0.00     0.163 HD
ATOM     34  O   UNL A   1      32.575  35.141  28.155  1.00  0.00    -0.269 OA
BRANCH  32  35
ATOM     35  C   UNL A   1      34.150  33.455  28.567  1.00  0.00     0.039 A 
ATOM     36  C   UNL A   1      35.333  33.720  27.859  1.00  0.00     0.014 A 
ATOM     37  C   UNL A   1      34.228  32.665  29.712  1.00  0.00     0.014 A 
ATOM     38  C   UNL A   1      36.565  33.235  28.316  1.00  0.00     0.010 A 
ATOM     39  C   UNL A   1      35.466  32.290  30.237  1.00  0.00     0.010 A 
ATOM     40  C   UNL A   1      36.649  32.540  29.530  1.00  0.00    -0.014 A 
BRANCH  40  41
ATOM     41  C   UNL A   1      37.942  32.020  30.054  1.00  0.00     0.031 A 
ATOM     42  C   UNL A   1      38.516  30.732  29.520  1.00  0.00     0.074 A 
ATOM     43  C   UNL A   1      38.564  32.658  31.064  1.00  0.00     0.049 A 
ATOM     44  N   UNL A   1      39.569  30.062  29.919  1.00  0.00    -0.248 NA
ATOM     45  C   UNL A   1      37.783  30.087  28.419  1.00  0.00     0.031 C 
ATOM     46  C   UNL A   1      38.086  33.877  31.717  1.00  0.00     0.029 A 
ATOM     47  N   UNL A   1      39.727  32.358  31.730  1.00  0.00    -0.354 N 
ATOM     48  C   UNL A   1      39.599  28.907  29.145  1.00  0.00     0.074 A 
ATOM     49  C   UNL A   1      38.425  28.937  28.301  1.00  0.00     0.031 C 
ATOM     50  C   UNL A   1      38.958  34.234  32.673  1.00  0.00     0.029 A 
ATOM     51  C   UNL A   1      40.033  33.249  32.730  1.00  0.00     0.049 A 
ATOM     52  H   UNL A   1      40.287  31.579  31.512  1.00  0.00     0.167 HD
ATOM     53  C   UNL A   1      40.531  27.924  29.117  1.00  0.00     0.037 A 
ATOM     54  C   UNL A   1      41.059  33.267  33.602  1.00  0.00     0.037 A 
ATOM     55  C   UNL A   1      41.721  27.919  29.926  1.00  0.00     0.049 A 
ATOM     56  C   UNL A   1      42.102  32.188  33.534  1.00  0.00     0.074 A 
ATOM     57  C   UNL A   1      42.771  27.017  29.915  1.00  0.00     0.029 A 
ATOM     58  N   UNL A   1      42.017  28.865  30.896  1.00  0.00    -0.354 N 
ATOM     59  N   UNL A   1      42.157  31.142  32.746  1.00  0.00    -0.248 NA
ATOM     60  C   UNL A   1      43.229  32.296  34.470  1.00  0.00     0.031 C 
ATOM     61  C   UNL A   1      43.680  27.393  30.910  1.00  0.00     0.029 A 
ATOM     62  C   UNL A   1      43.222  28.557  31.506  1.00  0.00     0.049 A 
ATOM     63  H   UNL A   1      41.454  29.641  31.118  1.00  0.00     0.167 HD
ATOM     64  C   UNL A   1      43.331  30.477  33.076  1.00  0.00     0.074 A 
ATOM     65  C   UNL A   1      43.965  31.249  34.126  1.00  0.00     0.031 C 
ATOM     66  C   UNL A   1      43.838  29.332  32.555  1.00  0.00     0.037 A 
BRANCH  53  67
ATOM     67  C   UNL A   1      40.289  26.774  28.178  1.00  0.00     0.057 A 
ATOM     68  C   UNL A   1      40.864  26.721  26.900  1.00  0.00     0.134 A 
ATOM     69  C   UNL A   1      39.461  25.708  28.552  1.00  0.00     0.134 A 
ATOM     70  F   UNL A   1      41.659  27.714  26.472  1.00  0.00    -0.206 F 
ATOM     71  C   UNL A   1      40.584  25.681  26.012  1.00  0.00     0.040 A 
ATOM     72  C   UNL A   1      39.200  24.643  27.684  1.00  0.00     0.040 A 
ATOM     73  F   UNL A   1      38.885  25.682  29.763  1.00  0.00    -0.206 F 
ATOM     74  C   UNL A   1      39.751  24.636  26.405  1.00  0.00     0.006 A 
ENDBRANCH  53  67
BRANCH  54  75
ATOM     75  C   UNL A   1      41.155  34.370  34.591  1.00  0.00     0.057 A 
ATOM     76  C   UNL A   1      41.767  35.584  34.261  1.00  0.00     0.134 A 
ATOM     77  C   UNL A   1      40.600  34.253  35.870  1.00  0.00     0.134 A 
ATOM     78  F   UNL A   1      42.330  35.749  33.055  1.00  0.00    -0.206 F 
ATOM     79  C   UNL A   1      41.827  36.642  35.168  1.00  0.00     0.040 A 
ATOM     80  C   UNL A   1      40.632  35.311  36.780  1.00  0.00     0.040 A 
ATOM     81  F   UNL A   1      39.989  33.119  36.243  1.00  0.00    -0.206 F 
ATOM     82  C   UNL A   1      41.250  36.510  36.430  1.00  0.00     0.006 A 
ENDBRANCH  54  75
BRANCH  66  83
ATOM     83  C   UNL A   1      45.153  28.855  33.098  1.00  0.00     0.057 A 
ATOM     84  C   UNL A   1      46.375  29.285  32.565  1.00  0.00     0.134 A 
ATOM     85  C   UNL A   1      45.196  27.987  34.197  1.00  0.00     0.134 A 
ATOM     86  F   UNL A   1      46.401  30.106  31.504  1.00  0.00    -0.206 F 
ATOM     87  C   UNL A   1      47.593  28.853  33.091  1.00  0.00     0.040 A 
ATOM     88  C   UNL A   1      46.408  27.569  34.750  1.00  0.00     0.040 A 
ATOM     89  F   UNL A   1      44.063  27.544  34.761  1.00  0.00    -0.206 F 
ATOM     90  C   UNL A   1      47.611  27.998  34.193  1.00  0.00     0.006 A 
ENDBRANCH  66  83
ENDBRANCH  40  41
ENDBRANCH  32  35
ENDBRANCH  30  31
ENDBRANCH   1  30
TORSDOF 13
ENDMDL
MODEL 3
REMARK VINA RESULT:     -12.5      3.267      7.879
REMARK SMILES COc1cc2c(cc1OC)[C@H](C(=O)NCCCNC(=O)c1ccc(-c3c4nc(c(-c5c(F)cccc5F)c5ccc([nH]5)c(-c5c(F)cccc5F)c5nc(c(-c6c(F)cccc6F)c6ccc3[nH]6)C=C5)C=C4)cc1)[C@H](c1cccc(Cl)c1)N(C)C2=O
REMARK SMILES IDX 16 1 15 2 14 3 12 4 13 5 11 7 3 8 4 9 8 10 5 11 7 12 6 13
REMARK SMILES IDX 85 14 83 15 86 16 75 17 84 18 2 19 1 20 9 21 10 22 76 23
REMARK SMILES IDX 77 24 82 25 78 26 80 27 79 28 81 29 17 30 18 31 19 32 20 34
REMARK SMILES IDX 21 35 22 36 74 37 23 38 73 39 24 40 25 41 26 42 67 43 27 44
REMARK SMILES IDX 72 45 66 46 68 47 28 48 71 49 65 50 64 51 29 53 55 54 38 55
REMARK SMILES IDX 54 56 39 57 42 58 53 59 69 60 40 61 41 62 52 64 70 65 43 66
REMARK SMILES IDX 30 67 31 68 36 69 32 70 33 71 35 72 37 73 34 74 56 75 57 76
REMARK SMILES IDX 62 77 58 78 59 79 61 80 63 81 60 82 44 83 45 84 50 85 46 86
REMARK SMILES IDX 47 87 49 88 51 89 48 90
REMARK H PARENT 14 6 18 33 68 52 42 63
REMARK Flexibility Score: inf
ROOT
ATOM      1  C   UNL A   1      34.559  30.044  27.398  1.00  0.00     0.042 C 
ENDROOT
BRANCH   1   2
ATOM      2  C   UNL A   1      33.113  30.364  27.013  1.00  0.00     0.117 C 
BRANCH   2   3
ATOM      3  N   UNL A   1      32.247  29.275  27.434  1.00  0.00    -0.355 N 
ATOM      4  C   UNL A   1      31.926  28.076  26.884  1.00  0.00     0.230 C 
ATOM      5  O   UNL A   1      31.049  27.451  27.500  1.00  0.00    -0.274 OA
ATOM      6  H   UNL A   1      31.803  29.441  28.296  1.00  0.00     0.163 HD
BRANCH   4   7
ATOM      7  C   UNL A   1      32.618  27.384  25.713  1.00  0.00     0.136 C 
ATOM      8  C   UNL A   1      32.215  23.148  24.998  1.00  0.00     0.161 A 
ATOM      9  C   UNL A   1      32.531  24.014  23.954  1.00  0.00     0.064 A 
ATOM     10  C   UNL A   1      32.258  23.608  26.317  1.00  0.00     0.161 A 
ATOM     11  C   UNL A   1      32.773  25.365  24.227  1.00  0.00     0.048 A 
ATOM     12  C   UNL A   1      32.545  24.956  26.567  1.00  0.00     0.056 A 
ATOM     13  C   UNL A   1      32.612  25.880  25.524  1.00  0.00    -0.016 A 
ATOM     14  C   UNL A   1      33.289  26.248  23.139  1.00  0.00     0.254 C 
ATOM     15  N   UNL A   1      33.122  27.617  23.325  1.00  0.00    -0.333 N 
ATOM     16  O   UNL A   1      33.833  25.758  22.158  1.00  0.00    -0.269 OA
ATOM     17  C   UNL A   1      32.226  28.115  24.383  1.00  0.00     0.132 C 
ATOM     18  C   UNL A   1      33.665  28.540  22.347  1.00  0.00     0.147 C 
BRANCH   8  19
ATOM     19  O   UNL A   1      31.809  21.883  24.678  1.00  0.00    -0.493 OA
ATOM     20  C   UNL A   1      32.917  21.051  24.346  1.00  0.00     0.278 C 
ENDBRANCH   8  19
BRANCH  10  21
ATOM     21  O   UNL A   1      32.056  22.844  27.436  1.00  0.00    -0.493 OA
ATOM     22  C   UNL A   1      33.236  22.251  27.982  1.00  0.00     0.278 C 
ENDBRANCH  10  21
BRANCH  17  23
ATOM     23  C   UNL A   1      30.745  28.047  23.957  1.00  0.00    -0.023 A 
ATOM     24  C   UNL A   1      29.972  26.915  24.267  1.00  0.00     0.006 A 
ATOM     25  C   UNL A   1      30.093  29.099  23.281  1.00  0.00     0.026 A 
ATOM     26  C   UNL A   1      28.643  26.798  23.840  1.00  0.00     0.002 A 
ATOM     27  C   UNL A   1      28.763  28.987  22.868  1.00  0.00     0.041 A 
ATOM     28  C   UNL A   1      28.041  27.831  23.128  1.00  0.00     0.020 A 
ATOM     29  Cl  UNL A   1      28.018  30.296  22.035  1.00  0.00    -0.084 Cl
ENDBRANCH  17  23
ENDBRANCH   4   7
ENDBRANCH   2   3
ENDBRANCH   1   2
BRANCH   1  30
ATOM     30  C   UNL A   1      35.282  31.183  28.095  1.00  0.00     0.118 C 
BRANCH  30  31
ATOM     31  N   UNL A   1      35.377  30.966  29.530  1.00  0.00    -0.352 N 
ATOM     32  C   UNL A   1      36.307  30.335  30.321  1.00  0.00     0.251 C 
ATOM     33  H   UNL A   1      34.622  31.347  30.036  1.00  0.00     0.163 HD
ATOM     34  O   UNL A   1      35.994  30.095  31.487  1.00  0.00    -0.269 OA
BRANCH  32  35
ATOM     35  C   UNL A   1      37.649  29.912  29.837  1.00  0.00     0.039 A 
ATOM     36  C   UNL A   1      38.594  29.493  30.787  1.00  0.00     0.014 A 
ATOM     37  C   UNL A   1      38.045  29.994  28.504  1.00  0.00     0.014 A 
ATOM     38  C   UNL A   1      39.888  29.128  30.397  1.00  0.00     0.010 A 
ATOM     39  C   UNL A   1      39.289  29.511  28.098  1.00  0.00     0.010 A 
ATOM     40  C   UNL A   1      40.241  29.103  29.040  1.00  0.00    -0.014 A 
BRANCH  40  41
ATOM     41  C   UNL A   1      41.603  28.709  28.587  1.00  0.00     0.031 A 
ATOM     42  C   UNL A   1      41.882  27.290  28.160  1.00  0.00     0.074 A 
ATOM     43  C   UNL A   1      42.613  29.600  28.632  1.00  0.00     0.049 A 
ATOM     44  N   UNL A   1      43.019  26.726  27.835  1.00  0.00    -0.248 NA
ATOM     45  C   UNL A   1      40.733  26.369  28.137  1.00  0.00     0.031 C 
ATOM     46  C   UNL A   1      42.497  30.987  29.086  1.00  0.00     0.029 A 
ATOM     47  N   UNL A   1      43.940  29.466  28.307  1.00  0.00    -0.354 N 
ATOM     48  C   UNL A   1      42.727  25.386  27.609  1.00  0.00     0.074 A 
ATOM     49  C   UNL A   1      41.321  25.208  27.895  1.00  0.00     0.031 C 
ATOM     50  C   UNL A   1      43.696  31.581  28.989  1.00  0.00     0.029 A 
ATOM     51  C   UNL A   1      44.673  30.610  28.509  1.00  0.00     0.049 A 
ATOM     52  H   UNL A   1      44.328  28.629  27.964  1.00  0.00     0.167 HD
ATOM     53  C   UNL A   1      43.544  24.396  27.174  1.00  0.00     0.037 A 
ATOM     54  C   UNL A   1      45.987  30.849  28.334  1.00  0.00     0.037 A 
ATOM     55  C   UNL A   1      44.933  24.585  26.848  1.00  0.00     0.049 A 
ATOM     56  C   UNL A   1      46.873  29.751  27.819  1.00  0.00     0.074 A 
ATOM     57  C   UNL A   1      45.829  23.673  26.319  1.00  0.00     0.029 A 
ATOM     58  N   UNL A   1      45.629  25.773  27.022  1.00  0.00    -0.354 N 
ATOM     59  N   UNL A   1      46.567  28.507  27.536  1.00  0.00    -0.248 NA
ATOM     60  C   UNL A   1      48.284  30.091  27.590  1.00  0.00     0.031 C 
ATOM     61  C   UNL A   1      47.078  24.296  26.216  1.00  0.00     0.029 A 
ATOM     62  C   UNL A   1      46.948  25.611  26.633  1.00  0.00     0.049 A 
ATOM     63  H   UNL A   1      45.241  26.608  27.370  1.00  0.00     0.167 HD
ATOM     64  C   UNL A   1      47.741  27.921  27.080  1.00  0.00     0.074 A 
ATOM     65  C   UNL A   1      48.760  28.951  27.108  1.00  0.00     0.031 C 
ATOM     66  C   UNL A   1      47.953  26.645  26.672  1.00  0.00     0.037 A 
BRANCH  53  67
ATOM     67  C   UNL A   1      42.948  23.023  27.034  1.00  0.00     0.057 A 
ATOM     68  C   UNL A   1      42.683  22.208  28.144  1.00  0.00     0.134 A 
ATOM     69  C   UNL A   1      42.643  22.502  25.770  1.00  0.00     0.134 A 
ATOM     70  F   UNL A   1      42.961  22.639  29.384  1.00  0.00    -0.206 F 
ATOM     71  C   UNL A   1      42.188  20.911  28.001  1.00  0.00     0.040 A 
ATOM     72  C   UNL A   1      42.115  21.217  25.615  1.00  0.00     0.040 A 
ATOM     73  F   UNL A   1      42.858  23.227  24.662  1.00  0.00    -0.206 F 
ATOM     74  C   UNL A   1      41.900  20.413  26.732  1.00  0.00     0.006 A 
ENDBRANCH  53  67
BRANCH  54  75
ATOM     75  C   UNL A   1      46.525  32.202  28.623  1.00  0.00     0.057 A 
ATOM     76  C   UNL A   1      46.554  33.194  27.636  1.00  0.00     0.134 A 
ATOM     77  C   UNL A   1      46.981  32.548  29.901  1.00  0.00     0.134 A 
ATOM     78  F   UNL A   1      46.145  32.917  26.390  1.00  0.00    -0.206 F 
ATOM     79  C   UNL A   1      47.021  34.480  27.908  1.00  0.00     0.040 A 
ATOM     80  C   UNL A   1      47.429  33.837  30.192  1.00  0.00     0.040 A 
ATOM     81  F   UNL A   1      46.968  31.645  30.892  1.00  0.00    -0.206 F 
ATOM     82  C   UNL A   1      47.452  34.807  29.192  1.00  0.00     0.006 A 
ENDBRANCH  54  75
BRANCH  66  83
ATOM     83  C   UNL A   1      49.336  26.295  26.204  1.00  0.00     0.057 A 
ATOM     84  C   UNL A   1      49.796  26.646  24.929  1.00  0.00     0.134 A 
ATOM     85  C   UNL A   1      50.231  25.638  27.058  1.00  0.00     0.134 A 
ATOM     86  F   UNL A   1      48.984  27.265  24.060  1.00  0.00    -0.206 F 
ATOM     87  C   UNL A   1      51.092  26.336  24.511  1.00  0.00     0.040 A 
ATOM     88  C   UNL A   1      51.538  25.347  26.662  1.00  0.00     0.040 A 
ATOM     89  F   UNL A   1      49.856  25.283  28.296  1.00  0.00    -0.206 F 
ATOM     90  C   UNL A   1      51.969  25.691  25.382  1.00  0.00     0.006 A 
ENDBRANCH  66  83
ENDBRANCH  40  41
ENDBRANCH  32  35
ENDBRANCH  30  31
ENDBRANCH   1  30
TORSDOF 13
ENDMDL
