MODEL 1
REMARK VINA RESULT:     -11.7      0.000      0.000
REMARK SMILES Cc1nc2nc(CNC(=O)OC(C)(C)C)nn2c(C)c1CCC(=O)NCCCNC(=O)c1ccc(-c2c3nc(c(-c4c(F)cccc4F)c4ccc([nH]4)c(-c4c(F)cccc4F)c4nc(c(-c5c(F)cccc5F)c5ccc2[nH]5)C=C4)C=C3)cc1
REMARK SMILES IDX 23 1 24 2 25 3 22 5 21 6 20 7 1 8 2 9 3 10 4 11 18 12 5 13
REMARK SMILES IDX 17 14 19 15 6 16 16 17 7 18 8 19 9 20 10 22 11 23 12 24
REMARK SMILES IDX 13 25 14 26 15 27 26 28 27 29 28 30 29 31 30 32 31 34 32 35
REMARK SMILES IDX 33 36 85 37 34 38 84 39 35 40 36 41 37 42 78 43 38 44 83 45
REMARK SMILES IDX 77 46 79 47 39 48 82 49 76 50 75 51 40 53 66 54 49 55 65 56
REMARK SMILES IDX 50 57 53 58 64 59 80 60 51 61 52 62 63 64 81 65 54 66 41 67
REMARK SMILES IDX 42 68 47 69 43 70 44 71 46 72 48 73 45 74 67 75 68 76 73 77
REMARK SMILES IDX 69 78 70 79 72 80 74 81 71 82 55 83 56 84 61 85 57 86 58 87
REMARK SMILES IDX 60 88 62 89 59 90
REMARK H PARENT 25 4 8 21 29 33 79 52 53 63
REMARK Flexibility Score: inf
ROOT
ATOM      1  C   UNL A   1      33.747  27.289  22.953  1.00  0.00     0.220 C 
ATOM      2  O   UNL A   1      33.596  27.375  21.728  1.00  0.00    -0.275 OA
ATOM      3  N   UNL A   1      34.007  26.049  23.480  1.00  0.00    -0.356 N 
ATOM      4  H   UNL A   1      33.895  25.330  22.818  1.00  0.00     0.163 HD
ENDROOT
BRANCH   1   5
ATOM      5  C   UNL A   1      33.573  28.539  23.804  1.00  0.00     0.105 C 
BRANCH   5   6
ATOM      6  C   UNL A   1      32.086  28.985  23.881  1.00  0.00     0.049 C 
BRANCH   6   7
ATOM      7  C   UNL A   1      31.329  28.047  24.785  1.00  0.00    -0.005 A 
ATOM      8  C   UNL A   1      32.119  29.382  26.932  1.00  0.00     0.067 C 
ATOM      9  C   UNL A   1      31.573  28.112  26.279  1.00  0.00     0.046 A 
ATOM     10  N   UNL A   1      31.321  27.110  27.069  1.00  0.00    -0.216 NA
ATOM     11  C   UNL A   1      31.087  25.915  26.443  1.00  0.00     0.252 A 
ATOM     12  C   UNL A   1      30.676  26.937  24.327  1.00  0.00     0.048 A 
ATOM     13  N   UNL A   1      31.503  24.744  26.832  1.00  0.00    -0.192 NA
ATOM     14  N   UNL A   1      30.739  25.772  25.118  1.00  0.00    -0.201 N 
ATOM     15  C   UNL A   1      30.080  26.776  22.972  1.00  0.00     0.067 C 
ATOM     16  C   UNL A   1      31.390  23.813  25.844  1.00  0.00     0.172 A 
ATOM     17  N   UNL A   1      30.824  24.400  24.753  1.00  0.00    -0.148 NA
BRANCH  16  18
ATOM     18  C   UNL A   1      31.769  22.224  26.085  1.00  0.00     0.199 C 
BRANCH  18  19
ATOM     19  N   UNL A   1      33.145  21.467  25.686  1.00  0.00    -0.314 N 
ATOM     20  C   UNL A   1      33.851  20.289  25.352  1.00  0.00     0.408 C 
ATOM     21  H   UNL A   1      33.824  22.178  25.667  1.00  0.00     0.167 HD
ATOM     22  O   UNL A   1      35.010  20.448  24.932  1.00  0.00    -0.225 OA
BRANCH  20  23
ATOM     23  O   UNL A   1      33.335  19.033  25.470  1.00  0.00    -0.444 OA
BRANCH  23  24
ATOM     24  C   UNL A   1      33.113  17.937  24.443  1.00  0.00     0.106 C 
ATOM     25  C   UNL A   1      32.330  16.757  25.027  1.00  0.00     0.056 C 
ATOM     26  C   UNL A   1      32.459  18.441  23.152  1.00  0.00     0.056 C 
ATOM     27  C   UNL A   1      34.489  17.335  23.993  1.00  0.00     0.056 C 
ENDBRANCH  23  24
ENDBRANCH  20  23
ENDBRANCH  18  19
ENDBRANCH  16  18
ENDBRANCH   6   7
ENDBRANCH   5   6
ENDBRANCH   1   5
BRANCH   3  28
ATOM     28  C   UNL A   1      34.420  25.526  24.827  1.00  0.00     0.117 C 
BRANCH  28  29
ATOM     29  C   UNL A   1      35.224  24.181  24.819  1.00  0.00     0.042 C 
BRANCH  29  30
ATOM     30  C   UNL A   1      36.395  23.808  25.856  1.00  0.00     0.118 C 
BRANCH  30  31
ATOM     31  N   UNL A   1      37.369  22.473  25.643  1.00  0.00    -0.352 N 
ATOM     32  C   UNL A   1      38.681  21.804  25.908  1.00  0.00     0.251 C 
ATOM     33  H   UNL A   1      36.846  21.840  25.099  1.00  0.00     0.163 HD
ATOM     34  O   UNL A   1      38.758  20.663  25.423  1.00  0.00    -0.269 OA
BRANCH  32  35
ATOM     35  C   UNL A   1      40.018  22.241  26.723  1.00  0.00     0.039 A 
ATOM     36  C   UNL A   1      40.126  23.317  27.604  1.00  0.00     0.014 A 
ATOM     37  C   UNL A   1      41.219  21.542  26.735  1.00  0.00     0.014 A 
ATOM     38  C   UNL A   1      41.312  24.034  27.845  1.00  0.00     0.010 A 
ATOM     39  C   UNL A   1      42.456  22.240  26.897  1.00  0.00     0.010 A 
ATOM     40  C   UNL A   1      42.497  23.576  27.304  1.00  0.00    -0.014 A 
BRANCH  40  41
ATOM     41  C   UNL A   1      43.722  24.352  27.590  1.00  0.00     0.031 A 
ATOM     42  C   UNL A   1      43.912  24.421  29.054  1.00  0.00     0.074 A 
ATOM     43  C   UNL A   1      44.674  24.944  26.824  1.00  0.00     0.049 A 
ATOM     44  N   UNL A   1      43.702  25.430  29.833  1.00  0.00    -0.248 NA
ATOM     45  C   UNL A   1      44.158  23.143  29.730  1.00  0.00     0.031 C 
ATOM     46  C   UNL A   1      44.920  24.866  25.385  1.00  0.00     0.029 A 
ATOM     47  N   UNL A   1      45.726  25.727  27.257  1.00  0.00    -0.354 N 
ATOM     48  C   UNL A   1      43.912  24.928  31.106  1.00  0.00     0.074 A 
ATOM     49  C   UNL A   1      43.949  23.493  30.993  1.00  0.00     0.031 C 
ATOM     50  C   UNL A   1      46.150  25.373  25.109  1.00  0.00     0.029 A 
ATOM     51  C   UNL A   1      46.744  25.915  26.324  1.00  0.00     0.049 A 
ATOM     52  H   UNL A   1      45.755  26.123  28.157  1.00  0.00     0.167 HD
ATOM     53  C   UNL A   1      44.297  25.705  32.148  1.00  0.00     0.037 A 
ATOM     54  C   UNL A   1      47.991  26.411  26.562  1.00  0.00     0.037 A 
ATOM     55  C   UNL A   1      44.086  27.105  31.912  1.00  0.00     0.049 A 
ATOM     56  C   UNL A   1      47.951  27.165  27.839  1.00  0.00     0.074 A 
ATOM     57  C   UNL A   1      42.990  27.880  31.583  1.00  0.00     0.029 A 
ATOM     58  N   UNL A   1      45.182  27.897  31.675  1.00  0.00    -0.354 N 
ATOM     59  N   UNL A   1      47.430  28.347  27.986  1.00  0.00    -0.248 NA
ATOM     60  C   UNL A   1      48.222  26.443  29.073  1.00  0.00     0.031 C 
ATOM     61  C   UNL A   1      43.494  28.905  30.733  1.00  0.00     0.029 A 
ATOM     62  C   UNL A   1      44.866  28.702  30.610  1.00  0.00     0.049 A 
ATOM     63  H   UNL A   1      46.031  27.888  32.174  1.00  0.00     0.167 HD
ATOM     64  C   UNL A   1      46.902  28.334  29.266  1.00  0.00     0.074 A 
ATOM     65  C   UNL A   1      47.521  27.191  29.926  1.00  0.00     0.031 C 
ATOM     66  C   UNL A   1      45.800  29.075  29.578  1.00  0.00     0.037 A 
BRANCH  53  67
ATOM     67  C   UNL A   1      45.163  25.160  33.242  1.00  0.00     0.057 A 
ATOM     68  C   UNL A   1      44.632  24.953  34.519  1.00  0.00     0.134 A 
ATOM     69  C   UNL A   1      46.566  25.023  33.135  1.00  0.00     0.134 A 
ATOM     70  F   UNL A   1      43.321  25.121  34.751  1.00  0.00    -0.206 F 
ATOM     71  C   UNL A   1      45.441  24.628  35.611  1.00  0.00     0.040 A 
ATOM     72  C   UNL A   1      47.372  24.626  34.198  1.00  0.00     0.040 A 
ATOM     73  F   UNL A   1      47.233  25.355  32.020  1.00  0.00    -0.206 F 
ATOM     74  C   UNL A   1      46.813  24.449  35.450  1.00  0.00     0.006 A 
ENDBRANCH  53  67
BRANCH  54  75
ATOM     75  C   UNL A   1      49.304  26.145  25.908  1.00  0.00     0.057 A 
ATOM     76  C   UNL A   1      49.766  26.947  24.843  1.00  0.00     0.134 A 
ATOM     77  C   UNL A   1      50.266  25.309  26.493  1.00  0.00     0.134 A 
ATOM     78  F   UNL A   1      48.946  27.808  24.224  1.00  0.00    -0.206 F 
ATOM     79  C   UNL A   1      51.106  26.948  24.424  1.00  0.00     0.040 A 
ATOM     80  C   UNL A   1      51.605  25.294  26.077  1.00  0.00     0.040 A 
ATOM     81  F   UNL A   1      49.966  24.545  27.551  1.00  0.00    -0.206 F 
ATOM     82  C   UNL A   1      52.035  26.129  25.054  1.00  0.00     0.006 A 
ENDBRANCH  54  75
BRANCH  66  83
ATOM     83  C   UNL A   1      45.367  30.145  28.616  1.00  0.00     0.057 A 
ATOM     84  C   UNL A   1      44.541  29.915  27.504  1.00  0.00     0.134 A 
ATOM     85  C   UNL A   1      45.678  31.478  28.911  1.00  0.00     0.134 A 
ATOM     86  F   UNL A   1      44.108  28.684  27.200  1.00  0.00    -0.206 F 
ATOM     87  C   UNL A   1      44.084  30.964  26.701  1.00  0.00     0.040 A 
ATOM     88  C   UNL A   1      45.196  32.536  28.138  1.00  0.00     0.040 A 
ATOM     89  F   UNL A   1      46.422  31.778  29.988  1.00  0.00    -0.206 F 
ATOM     90  C   UNL A   1      44.403  32.280  27.022  1.00  0.00     0.006 A 
ENDBRANCH  66  83
ENDBRANCH  40  41
ENDBRANCH  32  35
ENDBRANCH  30  31
ENDBRANCH  29  30
ENDBRANCH  28  29
ENDBRANCH   3  28
TORSDOF 16
ENDMDL
MODEL 2
REMARK VINA RESULT:     -11.6      3.115      6.121
REMARK SMILES Cc1nc2nc(CNC(=O)OC(C)(C)C)nn2c(C)c1CCC(=O)NCCCNC(=O)c1ccc(-c2c3nc(c(-c4c(F)cccc4F)c4ccc([nH]4)c(-c4c(F)cccc4F)c4nc(c(-c5c(F)cccc5F)c5ccc2[nH]5)C=C4)C=C3)cc1
REMARK SMILES IDX 23 1 24 2 25 3 22 5 21 6 20 7 1 8 2 9 3 10 4 11 18 12 5 13
REMARK SMILES IDX 17 14 19 15 6 16 16 17 7 18 8 19 9 20 10 22 11 23 12 24
REMARK SMILES IDX 13 25 14 26 15 27 26 28 27 29 28 30 29 31 30 32 31 34 32 35
REMARK SMILES IDX 33 36 85 37 34 38 84 39 35 40 36 41 37 42 78 43 38 44 83 45
REMARK SMILES IDX 77 46 79 47 39 48 82 49 76 50 75 51 40 53 66 54 49 55 65 56
REMARK SMILES IDX 50 57 53 58 64 59 80 60 51 61 52 62 63 64 81 65 54 66 41 67
REMARK SMILES IDX 42 68 47 69 43 70 44 71 46 72 48 73 45 74 67 75 68 76 73 77
REMARK SMILES IDX 69 78 70 79 72 80 74 81 71 82 55 83 56 84 61 85 57 86 58 87
REMARK SMILES IDX 60 88 62 89 59 90
REMARK H PARENT 25 4 8 21 29 33 79 52 53 63
REMARK Flexibility Score: inf
ROOT
ATOM      1  C   UNL A   1      30.886  24.335  26.381  1.00  0.00     0.220 C 
ATOM      2  O   UNL A   1      30.244  23.713  27.236  1.00  0.00    -0.275 OA
ATOM      3  N   UNL A   1      31.452  25.529  26.748  1.00  0.00    -0.356 N 
ATOM      4  H   UNL A   1      31.149  25.830  27.635  1.00  0.00     0.163 HD
ENDROOT
BRANCH   1   5
ATOM      5  C   UNL A   1      30.956  23.777  24.966  1.00  0.00     0.105 C 
BRANCH   5   6
ATOM      6  C   UNL A   1      31.951  22.588  24.861  1.00  0.00     0.049 C 
BRANCH   6   7
ATOM      7  C   UNL A   1      33.358  23.118  24.772  1.00  0.00    -0.005 A 
ATOM      8  C   UNL A   1      33.037  23.716  22.213  1.00  0.00     0.067 C 
ATOM      9  C   UNL A   1      33.943  23.422  23.409  1.00  0.00     0.046 A 
ATOM     10  N   UNL A   1      35.225  23.462  23.195  1.00  0.00    -0.216 NA
ATOM     11  C   UNL A   1      36.002  22.947  24.197  1.00  0.00     0.252 A 
ATOM     12  C   UNL A   1      34.247  23.046  25.809  1.00  0.00     0.048 A 
ATOM     13  N   UNL A   1      37.073  22.220  24.049  1.00  0.00    -0.192 NA
ATOM     14  N   UNL A   1      35.589  22.750  25.496  1.00  0.00    -0.201 N 
ATOM     15  C   UNL A   1      33.897  23.043  27.256  1.00  0.00     0.067 C 
ATOM     16  C   UNL A   1      37.427  21.598  25.207  1.00  0.00     0.172 A 
ATOM     17  N   UNL A   1      36.559  21.974  26.188  1.00  0.00    -0.148 NA
BRANCH  16  18
ATOM     18  C   UNL A   1      38.791  20.676  25.331  1.00  0.00     0.199 C 
BRANCH  18  19
ATOM     19  N   UNL A   1      40.100  20.968  26.240  1.00  0.00    -0.314 N 
ATOM     20  C   UNL A   1      40.759  21.703  27.251  1.00  0.00     0.408 C 
ATOM     21  H   UNL A   1      40.763  20.306  25.940  1.00  0.00     0.167 HD
ATOM     22  O   UNL A   1      41.844  21.239  27.645  1.00  0.00    -0.225 OA
BRANCH  20  23
ATOM     23  O   UNL A   1      40.277  22.858  27.790  1.00  0.00    -0.444 OA
BRANCH  23  24
ATOM     24  C   UNL A   1      40.242  24.279  27.254  1.00  0.00     0.106 C 
ATOM     25  C   UNL A   1      38.911  24.599  26.568  1.00  0.00     0.056 C 
ATOM     26  C   UNL A   1      40.579  25.334  28.314  1.00  0.00     0.056 C 
ATOM     27  C   UNL A   1      41.332  24.460  26.140  1.00  0.00     0.056 C 
ENDBRANCH  23  24
ENDBRANCH  20  23
ENDBRANCH  18  19
ENDBRANCH  16  18
ENDBRANCH   6   7
ENDBRANCH   5   6
ENDBRANCH   1   5
BRANCH   3  28
ATOM     28  C   UNL A   1      32.424  26.489  26.121  1.00  0.00     0.117 C 
BRANCH  28  29
ATOM     29  C   UNL A   1      32.458  27.928  26.741  1.00  0.00     0.042 C 
BRANCH  29  30
ATOM     30  C   UNL A   1      32.782  29.272  25.920  1.00  0.00     0.118 C 
BRANCH  30  31
ATOM     31  N   UNL A   1      33.439  30.616  26.652  1.00  0.00    -0.352 N 
ATOM     32  C   UNL A   1      34.529  31.196  27.496  1.00  0.00     0.251 C 
ATOM     33  H   UNL A   1      32.840  31.366  26.429  1.00  0.00     0.163 HD
ATOM     34  O   UNL A   1      34.422  32.423  27.664  1.00  0.00    -0.269 OA
BRANCH  32  35
ATOM     35  C   UNL A   1      35.845  30.569  28.215  1.00  0.00     0.039 A 
ATOM     36  C   UNL A   1      36.842  31.289  28.874  1.00  0.00     0.014 A 
ATOM     37  C   UNL A   1      36.114  29.213  28.363  1.00  0.00     0.014 A 
ATOM     38  C   UNL A   1      38.185  30.883  28.976  1.00  0.00     0.010 A 
ATOM     39  C   UNL A   1      37.465  28.746  28.391  1.00  0.00     0.010 A 
ATOM     40  C   UNL A   1      38.542  29.625  28.535  1.00  0.00    -0.014 A 
BRANCH  40  41
ATOM     41  C   UNL A   1      39.961  29.232  28.670  1.00  0.00     0.031 A 
ATOM     42  C   UNL A   1      40.287  29.107  30.106  1.00  0.00     0.074 A 
ATOM     43  C   UNL A   1      40.955  28.941  27.792  1.00  0.00     0.049 A 
ATOM     44  N   UNL A   1      40.970  29.923  30.837  1.00  0.00    -0.248 NA
ATOM     45  C   UNL A   1      39.575  28.052  30.835  1.00  0.00     0.031 C 
ATOM     46  C   UNL A   1      40.916  28.737  26.345  1.00  0.00     0.029 A 
ATOM     47  N   UNL A   1      42.278  28.678  28.087  1.00  0.00    -0.354 N 
ATOM     48  C   UNL A   1      40.868  29.404  32.116  1.00  0.00     0.074 A 
ATOM     49  C   UNL A   1      39.822  28.415  32.088  1.00  0.00     0.031 C 
ATOM     50  C   UNL A   1      42.083  28.171  25.937  1.00  0.00     0.029 A 
ATOM     51  C   UNL A   1      43.001  28.070  27.063  1.00  0.00     0.049 A 
ATOM     52  H   UNL A   1      42.681  28.904  28.957  1.00  0.00     0.167 HD
ATOM     53  C   UNL A   1      41.804  29.619  33.073  1.00  0.00     0.037 A 
ATOM     54  C   UNL A   1      44.224  27.474  27.166  1.00  0.00     0.037 A 
ATOM     55  C   UNL A   1      42.674  30.720  32.771  1.00  0.00     0.049 A 
ATOM     56  C   UNL A   1      44.883  27.984  28.394  1.00  0.00     0.074 A 
ATOM     57  C   UNL A   1      42.482  32.060  32.488  1.00  0.00     0.029 A 
ATOM     58  N   UNL A   1      43.965  30.445  32.396  1.00  0.00    -0.354 N 
ATOM     59  N   UNL A   1      45.424  29.160  28.511  1.00  0.00    -0.248 NA
ATOM     60  C   UNL A   1      44.654  27.272  29.642  1.00  0.00     0.031 C 
ATOM     61  C   UNL A   1      43.489  32.393  31.538  1.00  0.00     0.029 A 
ATOM     62  C   UNL A   1      44.241  31.242  31.314  1.00  0.00     0.049 A 
ATOM     63  H   UNL A   1      44.575  29.800  32.821  1.00  0.00     0.167 HD
ATOM     64  C   UNL A   1      45.191  29.515  29.829  1.00  0.00     0.074 A 
ATOM     65  C   UNL A   1      44.826  28.275  30.503  1.00  0.00     0.031 C 
ATOM     66  C   UNL A   1      45.035  30.823  30.186  1.00  0.00     0.037 A 
BRANCH  53  67
ATOM     67  C   UNL A   1      42.090  28.588  34.122  1.00  0.00     0.057 A 
ATOM     68  C   UNL A   1      42.619  27.346  33.758  1.00  0.00     0.134 A 
ATOM     69  C   UNL A   1      41.669  28.702  35.466  1.00  0.00     0.134 A 
ATOM     70  F   UNL A   1      42.991  27.105  32.491  1.00  0.00    -0.206 F 
ATOM     71  C   UNL A   1      42.725  26.292  34.670  1.00  0.00     0.040 A 
ATOM     72  C   UNL A   1      41.838  27.685  36.403  1.00  0.00     0.040 A 
ATOM     73  F   UNL A   1      40.990  29.768  35.915  1.00  0.00    -0.206 F 
ATOM     74  C   UNL A   1      42.348  26.464  36.000  1.00  0.00     0.006 A 
ENDBRANCH  53  67
BRANCH  54  75
ATOM     75  C   UNL A   1      44.836  26.337  26.421  1.00  0.00     0.057 A 
ATOM     76  C   UNL A   1      45.731  26.559  25.353  1.00  0.00     0.134 A 
ATOM     77  C   UNL A   1      44.807  25.027  26.919  1.00  0.00     0.134 A 
ATOM     78  F   UNL A   1      45.869  27.779  24.814  1.00  0.00    -0.206 F 
ATOM     79  C   UNL A   1      46.572  25.554  24.850  1.00  0.00     0.040 A 
ATOM     80  C   UNL A   1      45.634  24.011  26.419  1.00  0.00     0.040 A 
ATOM     81  F   UNL A   1      44.043  24.703  27.970  1.00  0.00    -0.206 F 
ATOM     82  C   UNL A   1      46.535  24.276  25.395  1.00  0.00     0.006 A 
ENDBRANCH  54  75
BRANCH  66  83
ATOM     83  C   UNL A   1      45.439  31.882  29.201  1.00  0.00     0.057 A 
ATOM     84  C   UNL A   1      44.647  32.290  28.115  1.00  0.00     0.134 A 
ATOM     85  C   UNL A   1      46.605  32.617  29.445  1.00  0.00     0.134 A 
ATOM     86  F   UNL A   1      43.464  31.713  27.861  1.00  0.00    -0.206 F 
ATOM     87  C   UNL A   1      45.025  33.352  27.289  1.00  0.00     0.040 A 
ATOM     88  C   UNL A   1      46.974  33.704  28.650  1.00  0.00     0.040 A 
ATOM     89  F   UNL A   1      47.388  32.316  30.495  1.00  0.00    -0.206 F 
ATOM     90  C   UNL A   1      46.187  34.069  27.561  1.00  0.00     0.006 A 
ENDBRANCH  66  83
ENDBRANCH  40  41
ENDBRANCH  32  35
ENDBRANCH  30  31
ENDBRANCH  29  30
ENDBRANCH  28  29
ENDBRANCH   3  28
TORSDOF 16
ENDMDL
MODEL 3
REMARK VINA RESULT:     -11.5      3.410      7.599
REMARK SMILES Cc1nc2nc(CNC(=O)OC(C)(C)C)nn2c(C)c1CCC(=O)NCCCNC(=O)c1ccc(-c2c3nc(c(-c4c(F)cccc4F)c4ccc([nH]4)c(-c4c(F)cccc4F)c4nc(c(-c5c(F)cccc5F)c5ccc2[nH]5)C=C4)C=C3)cc1
REMARK SMILES IDX 23 1 24 2 25 3 22 5 21 6 20 7 1 8 2 9 3 10 4 11 18 12 5 13
REMARK SMILES IDX 17 14 19 15 6 16 16 17 7 18 8 19 9 20 10 22 11 23 12 24
REMARK SMILES IDX 13 25 14 26 15 27 26 28 27 29 28 30 29 31 30 32 31 34 32 35
REMARK SMILES IDX 33 36 85 37 34 38 84 39 35 40 36 41 37 42 78 43 38 44 83 45
REMARK SMILES IDX 77 46 79 47 39 48 82 49 76 50 75 51 40 53 66 54 49 55 65 56
REMARK SMILES IDX 50 57 53 58 64 59 80 60 51 61 52 62 63 64 81 65 54 66 41 67
REMARK SMILES IDX 42 68 47 69 43 70 44 71 46 72 48 73 45 74 67 75 68 76 73 77
REMARK SMILES IDX 69 78 70 79 72 80 74 81 71 82 55 83 56 84 61 85 57 86 58 87
REMARK SMILES IDX 60 88 62 89 59 90
REMARK H PARENT 25 4 8 21 29 33 79 52 53 63
REMARK Flexibility Score: inf
ROOT
ATOM      1  C   UNL A   1      31.061  25.258  26.072  1.00  0.00     0.220 C 
ATOM      2  O   UNL A   1      31.482  26.084  26.891  1.00  0.00    -0.275 OA
ATOM      3  N   UNL A   1      31.666  24.027  26.037  1.00  0.00    -0.356 N 
ATOM      4  H   UNL A   1      32.484  23.995  26.584  1.00  0.00     0.163 HD
ENDROOT
BRANCH   1   5
ATOM      5  C   UNL A   1      29.952  25.671  25.115  1.00  0.00     0.105 C 
BRANCH   5   6
ATOM      6  C   UNL A   1      30.459  25.769  23.649  1.00  0.00     0.049 C 
BRANCH   6   7
ATOM      7  C   UNL A   1      31.520  26.833  23.557  1.00  0.00    -0.005 A 
ATOM      8  C   UNL A   1      33.372  25.023  23.001  1.00  0.00     0.067 C 
ATOM      9  C   UNL A   1      32.975  26.415  23.495  1.00  0.00     0.046 A 
ATOM     10  N   UNL A   1      33.944  27.211  23.841  1.00  0.00    -0.216 NA
ATOM     11  C   UNL A   1      33.562  28.338  24.517  1.00  0.00     0.252 A 
ATOM     12  C   UNL A   1      31.282  28.149  23.841  1.00  0.00     0.048 A 
ATOM     13  N   UNL A   1      34.177  28.877  25.530  1.00  0.00    -0.192 NA
ATOM     14  N   UNL A   1      32.287  28.859  24.529  1.00  0.00    -0.201 N 
ATOM     15  C   UNL A   1      29.979  28.851  23.680  1.00  0.00     0.067 C 
ATOM     16  C   UNL A   1      33.391  29.780  26.179  1.00  0.00     0.172 A 
ATOM     17  N   UNL A   1      32.199  29.871  25.525  1.00  0.00    -0.148 NA
BRANCH  16  18
ATOM     18  C   UNL A   1      33.942  30.674  27.452  1.00  0.00     0.199 C 
BRANCH  18  19
ATOM     19  N   UNL A   1      33.472  32.161  27.891  1.00  0.00    -0.314 N 
ATOM     20  C   UNL A   1      33.721  33.391  28.541  1.00  0.00     0.408 C 
ATOM     21  H   UNL A   1      32.564  32.253  27.524  1.00  0.00     0.167 HD
ATOM     22  O   UNL A   1      32.901  34.300  28.324  1.00  0.00    -0.225 OA
BRANCH  20  23
ATOM     23  O   UNL A   1      34.781  33.614  29.368  1.00  0.00    -0.444 OA
BRANCH  23  24
ATOM     24  C   UNL A   1      34.848  33.998  30.836  1.00  0.00     0.106 C 
ATOM     25  C   UNL A   1      36.269  34.375  31.265  1.00  0.00     0.056 C 
ATOM     26  C   UNL A   1      33.851  35.099  31.218  1.00  0.00     0.056 C 
ATOM     27  C   UNL A   1      34.460  32.771  31.732  1.00  0.00     0.056 C 
ENDBRANCH  23  24
ENDBRANCH  20  23
ENDBRANCH  18  19
ENDBRANCH  16  18
ENDBRANCH   6   7
ENDBRANCH   5   6
ENDBRANCH   1   5
BRANCH   3  28
ATOM     28  C   UNL A   1      31.380  22.715  25.362  1.00  0.00     0.117 C 
BRANCH  28  29
ATOM     29  C   UNL A   1      32.634  21.843  25.007  1.00  0.00     0.042 C 
BRANCH  29  30
ATOM     30  C   UNL A   1      33.975  21.767  25.891  1.00  0.00     0.118 C 
BRANCH  30  31
ATOM     31  N   UNL A   1      35.279  20.835  25.435  1.00  0.00    -0.352 N 
ATOM     32  C   UNL A   1      36.763  20.718  25.281  1.00  0.00     0.251 C 
ATOM     33  H   UNL A   1      34.906  19.976  25.131  1.00  0.00     0.163 HD
ATOM     34  O   UNL A   1      37.128  19.608  24.858  1.00  0.00    -0.269 OA
BRANCH  32  35
ATOM     35  C   UNL A   1      38.004  21.725  25.578  1.00  0.00     0.039 A 
ATOM     36  C   UNL A   1      39.311  21.347  25.889  1.00  0.00     0.014 A 
ATOM     37  C   UNL A   1      37.964  23.110  25.465  1.00  0.00     0.014 A 
ATOM     38  C   UNL A   1      40.194  22.105  26.678  1.00  0.00     0.010 A 
ATOM     39  C   UNL A   1      38.788  23.925  26.303  1.00  0.00     0.010 A 
ATOM     40  C   UNL A   1      39.828  23.380  27.061  1.00  0.00    -0.014 A 
BRANCH  40  41
ATOM     41  C   UNL A   1      40.790  24.148  27.880  1.00  0.00     0.031 A 
ATOM     42  C   UNL A   1      40.273  25.522  28.059  1.00  0.00     0.074 A 
ATOM     43  C   UNL A   1      41.961  23.853  28.499  1.00  0.00     0.049 A 
ATOM     44  N   UNL A   1      40.681  26.602  27.480  1.00  0.00    -0.248 NA
ATOM     45  C   UNL A   1      39.019  25.643  28.810  1.00  0.00     0.031 C 
ATOM     46  C   UNL A   1      42.619  22.567  28.724  1.00  0.00     0.029 A 
ATOM     47  N   UNL A   1      42.800  24.729  29.160  1.00  0.00    -0.354 N 
ATOM     48  C   UNL A   1      39.787  27.573  27.901  1.00  0.00     0.074 A 
ATOM     49  C   UNL A   1      38.675  26.889  28.506  1.00  0.00     0.031 C 
ATOM     50  C   UNL A   1      43.609  22.722  29.644  1.00  0.00     0.029 A 
ATOM     51  C   UNL A   1      43.738  24.129  29.998  1.00  0.00     0.049 A 
ATOM     52  H   UNL A   1      42.740  25.705  29.048  1.00  0.00     0.167 HD
ATOM     53  C   UNL A   1      40.109  28.888  27.966  1.00  0.00     0.037 A 
ATOM     54  C   UNL A   1      44.499  24.743  30.948  1.00  0.00     0.037 A 
ATOM     55  C   UNL A   1      41.282  29.218  27.209  1.00  0.00     0.049 A 
ATOM     56  C   UNL A   1      44.542  26.193  30.637  1.00  0.00     0.074 A 
ATOM     57  C   UNL A   1      41.659  29.068  25.886  1.00  0.00     0.029 A 
ATOM     58  N   UNL A   1      42.438  29.503  27.891  1.00  0.00    -0.354 N 
ATOM     59  N   UNL A   1      45.255  26.728  29.691  1.00  0.00    -0.248 NA
ATOM     60  C   UNL A   1      43.507  27.048  31.201  1.00  0.00     0.031 C 
ATOM     61  C   UNL A   1      43.058  28.804  25.920  1.00  0.00     0.029 A 
ATOM     62  C   UNL A   1      43.450  28.826  27.257  1.00  0.00     0.049 A 
ATOM     63  H   UNL A   1      42.525  30.081  28.683  1.00  0.00     0.167 HD
ATOM     64  C   UNL A   1      44.488  27.789  29.240  1.00  0.00     0.074 A 
ATOM     65  C   UNL A   1      43.488  28.010  30.278  1.00  0.00     0.031 C 
ATOM     66  C   UNL A   1      44.553  28.200  27.941  1.00  0.00     0.037 A 
BRANCH  53  67
ATOM     67  C   UNL A   1      39.500  29.784  29.002  1.00  0.00     0.057 A 
ATOM     68  C   UNL A   1      38.384  30.564  28.684  1.00  0.00     0.134 A 
ATOM     69  C   UNL A   1      40.103  30.060  30.249  1.00  0.00     0.134 A 
ATOM     70  F   UNL A   1      37.772  30.433  27.498  1.00  0.00    -0.206 F 
ATOM     71  C   UNL A   1      37.901  31.549  29.551  1.00  0.00     0.040 A 
ATOM     72  C   UNL A   1      39.587  30.984  31.154  1.00  0.00     0.040 A 
ATOM     73  F   UNL A   1      41.273  29.514  30.613  1.00  0.00    -0.206 F 
ATOM     74  C   UNL A   1      38.492  31.750  30.796  1.00  0.00     0.006 A 
ENDBRANCH  53  67
BRANCH  54  75
ATOM     75  C   UNL A   1      45.051  24.253  32.243  1.00  0.00     0.057 A 
ATOM     76  C   UNL A   1      46.221  24.813  32.798  1.00  0.00     0.134 A 
ATOM     77  C   UNL A   1      44.297  23.451  33.111  1.00  0.00     0.134 A 
ATOM     78  F   UNL A   1      47.007  25.621  32.073  1.00  0.00    -0.206 F 
ATOM     79  C   UNL A   1      46.586  24.623  34.140  1.00  0.00     0.040 A 
ATOM     80  C   UNL A   1      44.657  23.246  34.451  1.00  0.00     0.040 A 
ATOM     81  F   UNL A   1      43.135  22.912  32.721  1.00  0.00    -0.206 F 
ATOM     82  C   UNL A   1      45.793  23.848  34.977  1.00  0.00     0.006 A 
ENDBRANCH  54  75
BRANCH  66  83
ATOM     83  C   UNL A   1      45.692  27.706  27.096  1.00  0.00     0.057 A 
ATOM     84  C   UNL A   1      46.917  28.378  26.957  1.00  0.00     0.134 A 
ATOM     85  C   UNL A   1      45.599  26.434  26.520  1.00  0.00     0.134 A 
ATOM     86  F   UNL A   1      47.137  29.557  27.556  1.00  0.00    -0.206 F 
ATOM     87  C   UNL A   1      47.982  27.823  26.241  1.00  0.00     0.040 A 
ATOM     88  C   UNL A   1      46.667  25.853  25.835  1.00  0.00     0.040 A 
ATOM     89  F   UNL A   1      44.474  25.711  26.654  1.00  0.00    -0.206 F 
ATOM     90  C   UNL A   1      47.862  26.552  25.685  1.00  0.00     0.006 A 
ENDBRANCH  66  83
ENDBRANCH  40  41
ENDBRANCH  32  35
ENDBRANCH  30  31
ENDBRANCH  29  30
ENDBRANCH  28  29
ENDBRANCH   3  28
TORSDOF 16
ENDMDL
