MODEL 1
REMARK VINA RESULT:     -12.0      0.000      0.000
REMARK SMILES CC[C@@H]1CCCN(S(=O)(=O)c2cc(C(=O)NCCCNC(=O)c3ccc(-c4c5nc(c(-c6c(F)cccc6F)c6ccc([nH]6)c(-c6c(F)cccc6F)c6nc(c(-c7c(F)cccc7F)c7ccc4[nH]7)C=C6)C=C5)cc3)ccc2F)C1
REMARK SMILES IDX 17 1 16 2 14 3 15 4 13 6 11 7 12 8 79 9 78 10 80 11 77 12
REMARK SMILES IDX 8 13 9 14 10 15 7 16 3 17 4 18 81 19 5 20 6 21 2 22 1 23
REMARK SMILES IDX 18 24 19 25 20 26 21 27 22 29 23 30 24 31 76 32 25 33 75 34
REMARK SMILES IDX 26 35 27 36 28 37 69 38 29 39 74 40 68 41 70 42 30 43 73 44
REMARK SMILES IDX 67 45 66 46 31 48 57 49 40 50 56 51 41 52 44 53 55 54 71 55
REMARK SMILES IDX 42 56 43 57 54 59 72 60 45 61 32 62 33 63 38 64 34 65 35 66
REMARK SMILES IDX 37 67 39 68 36 69 58 70 59 71 64 72 60 73 61 74 63 75 65 76
REMARK SMILES IDX 62 77 46 78 47 79 52 80 48 81 49 82 51 83 53 84 50 85
REMARK H PARENT 16 5 20 28 70 47 44 58
REMARK Flexibility Score: inf
ROOT
ATOM      1  C   UNL A   1      35.972  20.279  24.972  1.00  0.00     0.118 C 
ENDROOT
BRANCH   1   2
ATOM      2  N   UNL A   1      34.996  19.208  25.019  1.00  0.00    -0.352 N 
ATOM      3  C   UNL A   1      33.655  19.158  24.743  1.00  0.00     0.251 C 
ATOM      4  O   UNL A   1      33.120  18.049  24.766  1.00  0.00    -0.269 OA
ATOM      5  H   UNL A   1      35.372  18.344  25.305  1.00  0.00     0.163 HD
BRANCH   3   6
ATOM      6  C   UNL A   1      32.815  20.350  24.422  1.00  0.00     0.041 A 
ATOM      7  C   UNL A   1      31.796  22.409  25.255  1.00  0.00     0.119 A 
ATOM      8  C   UNL A   1      32.474  21.203  25.489  1.00  0.00     0.038 A 
ATOM      9  C   UNL A   1      31.470  22.773  23.957  1.00  0.00     0.143 A 
ATOM     10  C   UNL A   1      31.767  21.928  22.896  1.00  0.00     0.041 A 
ATOM     11  F   UNL A   1      30.870  23.938  23.680  1.00  0.00    -0.206 F 
ATOM     12  C   UNL A   1      32.455  20.732  23.125  1.00  0.00     0.017 A 
BRANCH   7  13
ATOM     13  S   UNL A   1      31.572  23.563  26.571  1.00  0.00     0.246 S 
ATOM     14  O   UNL A   1      32.423  23.169  27.677  1.00  0.00    -0.207 OA
ATOM     15  O   UNL A   1      30.145  23.699  26.776  1.00  0.00    -0.207 OA
BRANCH  13  16
ATOM     16  N   UNL A   1      32.141  25.092  25.979  1.00  0.00    -0.197 NA
ATOM     17  C   UNL A   1      31.740  27.578  26.083  1.00  0.00     0.004 C 
ATOM     18  C   UNL A   1      33.253  27.810  26.099  1.00  0.00     0.006 C 
ATOM     19  C   UNL A   1      31.387  26.199  26.651  1.00  0.00     0.106 C 
ATOM     20  C   UNL A   1      34.054  26.636  25.552  1.00  0.00     0.017 C 
ATOM     21  C   UNL A   1      33.613  25.294  26.125  1.00  0.00     0.102 C 
BRANCH  17  22
ATOM     22  C   UNL A   1      31.034  27.893  24.746  1.00  0.00     0.001 C 
ATOM     23  C   UNL A   1      31.637  28.972  23.863  1.00  0.00     0.004 C 
ENDBRANCH  17  22
ENDBRANCH  13  16
ENDBRANCH   7  13
ENDBRANCH   3   6
ENDBRANCH   1   2
BRANCH   1  24
ATOM     24  C   UNL A   1      37.375  19.757  24.659  1.00  0.00     0.042 C 
BRANCH  24  25
ATOM     25  C   UNL A   1      38.465  20.311  25.574  1.00  0.00     0.118 C 
BRANCH  25  26
ATOM     26  N   UNL A   1      39.592  19.400  25.697  1.00  0.00    -0.352 N 
ATOM     27  C   UNL A   1      40.899  19.641  26.036  1.00  0.00     0.251 C 
ATOM     28  H   UNL A   1      39.383  18.457  25.507  1.00  0.00     0.163 HD
ATOM     29  O   UNL A   1      41.737  18.762  25.853  1.00  0.00    -0.269 OA
BRANCH  27  30
ATOM     30  C   UNL A   1      41.317  20.939  26.612  1.00  0.00     0.039 A 
ATOM     31  C   UNL A   1      41.817  21.923  25.752  1.00  0.00     0.014 A 
ATOM     32  C   UNL A   1      41.294  21.171  27.990  1.00  0.00     0.014 A 
ATOM     33  C   UNL A   1      42.244  23.151  26.265  1.00  0.00     0.010 A 
ATOM     34  C   UNL A   1      41.660  22.418  28.495  1.00  0.00     0.010 A 
ATOM     35  C   UNL A   1      42.145  23.417  27.638  1.00  0.00    -0.014 A 
BRANCH  35  36
ATOM     36  C   UNL A   1      42.540  24.735  28.196  1.00  0.00     0.031 A 
ATOM     37  C   UNL A   1      41.513  25.812  28.409  1.00  0.00     0.074 A 
ATOM     38  C   UNL A   1      43.839  24.985  28.448  1.00  0.00     0.049 A 
ATOM     39  N   UNL A   1      41.682  27.046  28.813  1.00  0.00    -0.248 NA
ATOM     40  C   UNL A   1      40.117  25.465  28.104  1.00  0.00     0.031 C 
ATOM     41  C   UNL A   1      44.935  24.038  28.241  1.00  0.00     0.029 A 
ATOM     42  N   UNL A   1      44.459  26.115  28.921  1.00  0.00    -0.354 N 
ATOM     43  C   UNL A   1      40.422  27.628  28.787  1.00  0.00     0.074 A 
ATOM     44  C   UNL A   1      39.503  26.625  28.292  1.00  0.00     0.031 C 
ATOM     45  C   UNL A   1      46.090  24.618  28.602  1.00  0.00     0.029 A 
ATOM     46  C   UNL A   1      45.821  25.988  29.032  1.00  0.00     0.049 A 
ATOM     47  H   UNL A   1      43.973  26.937  29.157  1.00  0.00     0.167 HD
ATOM     48  C   UNL A   1      40.062  28.880  29.157  1.00  0.00     0.037 A 
ATOM     49  C   UNL A   1      46.754  26.875  29.429  1.00  0.00     0.037 A 
ATOM     50  C   UNL A   1      40.973  29.861  29.685  1.00  0.00     0.049 A 
ATOM     51  C   UNL A   1      46.331  28.252  29.850  1.00  0.00     0.074 A 
ATOM     52  C   UNL A   1      40.688  31.127  30.168  1.00  0.00     0.029 A 
ATOM     53  N   UNL A   1      42.344  29.690  29.796  1.00  0.00    -0.354 N 
ATOM     54  N   UNL A   1      45.126  28.769  29.880  1.00  0.00    -0.248 NA
ATOM     55  C   UNL A   1      47.390  29.167  30.296  1.00  0.00     0.031 C 
ATOM     56  C   UNL A   1      41.893  31.736  30.532  1.00  0.00     0.029 A 
ATOM     57  C   UNL A   1      42.923  30.835  30.317  1.00  0.00     0.049 A 
ATOM     58  H   UNL A   1      42.834  28.874  29.542  1.00  0.00     0.167 HD
ATOM     59  C   UNL A   1      45.280  30.063  30.359  1.00  0.00     0.074 A 
ATOM     60  C   UNL A   1      46.693  30.249  30.619  1.00  0.00     0.031 C 
ATOM     61  C   UNL A   1      44.332  31.010  30.565  1.00  0.00     0.037 A 
BRANCH  48  62
ATOM     62  C   UNL A   1      38.618  29.262  29.010  1.00  0.00     0.057 A 
ATOM     63  C   UNL A   1      37.746  29.185  30.103  1.00  0.00     0.134 A 
ATOM     64  C   UNL A   1      38.079  29.659  27.781  1.00  0.00     0.134 A 
ATOM     65  F   UNL A   1      38.195  28.804  31.310  1.00  0.00    -0.206 F 
ATOM     66  C   UNL A   1      36.389  29.487  29.978  1.00  0.00     0.040 A 
ATOM     67  C   UNL A   1      36.729  29.987  27.647  1.00  0.00     0.040 A 
ATOM     68  F   UNL A   1      38.862  29.762  26.697  1.00  0.00    -0.206 F 
ATOM     69  C   UNL A   1      35.878  29.895  28.747  1.00  0.00     0.006 A 
ENDBRANCH  48  62
BRANCH  49  70
ATOM     70  C   UNL A   1      48.176  26.457  29.472  1.00  0.00     0.057 A 
ATOM     71  C   UNL A   1      49.031  26.659  28.382  1.00  0.00     0.134 A 
ATOM     72  C   UNL A   1      48.693  25.788  30.586  1.00  0.00     0.134 A 
ATOM     73  F   UNL A   1      48.589  27.286  27.282  1.00  0.00    -0.206 F 
ATOM     74  C   UNL A   1      50.345  26.188  28.390  1.00  0.00     0.040 A 
ATOM     75  C   UNL A   1      50.010  25.329  30.615  1.00  0.00     0.040 A 
ATOM     76  F   UNL A   1      47.923  25.579  31.665  1.00  0.00    -0.206 F 
ATOM     77  C   UNL A   1      50.837  25.520  29.509  1.00  0.00     0.006 A 
ENDBRANCH  49  70
BRANCH  61  78
ATOM     78  C   UNL A   1      44.780  32.335  31.104  1.00  0.00     0.057 A 
ATOM     79  C   UNL A   1      45.176  33.362  30.236  1.00  0.00     0.134 A 
ATOM     80  C   UNL A   1      44.895  32.567  32.479  1.00  0.00     0.134 A 
ATOM     81  F   UNL A   1      45.097  33.198  28.907  1.00  0.00    -0.206 F 
ATOM     82  C   UNL A   1      45.687  34.566  30.719  1.00  0.00     0.040 A 
ATOM     83  C   UNL A   1      45.387  33.776  32.974  1.00  0.00     0.040 A 
ATOM     84  F   UNL A   1      44.523  31.627  33.360  1.00  0.00    -0.206 F 
ATOM     85  C   UNL A   1      45.793  34.776  32.092  1.00  0.00     0.006 A 
ENDBRANCH  61  78
ENDBRANCH  35  36
ENDBRANCH  27  30
ENDBRANCH  25  26
ENDBRANCH  24  25
ENDBRANCH   1  24
TORSDOF 13
ENDMDL
MODEL 2
REMARK VINA RESULT:     -12.0      4.331      9.295
REMARK SMILES CC[C@@H]1CCCN(S(=O)(=O)c2cc(C(=O)NCCCNC(=O)c3ccc(-c4c5nc(c(-c6c(F)cccc6F)c6ccc([nH]6)c(-c6c(F)cccc6F)c6nc(c(-c7c(F)cccc7F)c7ccc4[nH]7)C=C6)C=C5)cc3)ccc2F)C1
REMARK SMILES IDX 17 1 16 2 14 3 15 4 13 6 11 7 12 8 79 9 78 10 80 11 77 12
REMARK SMILES IDX 8 13 9 14 10 15 7 16 3 17 4 18 81 19 5 20 6 21 2 22 1 23
REMARK SMILES IDX 18 24 19 25 20 26 21 27 22 29 23 30 24 31 76 32 25 33 75 34
REMARK SMILES IDX 26 35 27 36 28 37 69 38 29 39 74 40 68 41 70 42 30 43 73 44
REMARK SMILES IDX 67 45 66 46 31 48 57 49 40 50 56 51 41 52 44 53 55 54 71 55
REMARK SMILES IDX 42 56 43 57 54 59 72 60 45 61 32 62 33 63 38 64 34 65 35 66
REMARK SMILES IDX 37 67 39 68 36 69 58 70 59 71 64 72 60 73 61 74 63 75 65 76
REMARK SMILES IDX 62 77 46 78 47 79 52 80 48 81 49 82 51 83 53 84 50 85
REMARK H PARENT 16 5 20 28 70 47 44 58
REMARK Flexibility Score: inf
ROOT
ATOM      1  C   UNL A   1      31.673  30.509  26.806  1.00  0.00     0.118 C 
ENDROOT
BRANCH   1   2
ATOM      2  N   UNL A   1      32.953  30.131  27.372  1.00  0.00    -0.352 N 
ATOM      3  C   UNL A   1      33.875  29.176  27.035  1.00  0.00     0.251 C 
ATOM      4  O   UNL A   1      34.940  29.183  27.653  1.00  0.00    -0.269 OA
ATOM      5  H   UNL A   1      33.212  30.670  28.155  1.00  0.00     0.163 HD
BRANCH   3   6
ATOM      6  C   UNL A   1      33.670  28.141  25.978  1.00  0.00     0.041 A 
ATOM      7  C   UNL A   1      32.610  26.022  25.381  1.00  0.00     0.119 A 
ATOM      8  C   UNL A   1      32.956  26.984  26.343  1.00  0.00     0.038 A 
ATOM      9  C   UNL A   1      32.961  26.219  24.054  1.00  0.00     0.143 A 
ATOM     10  C   UNL A   1      33.696  27.338  23.683  1.00  0.00     0.041 A 
ATOM     11  F   UNL A   1      32.608  25.356  23.094  1.00  0.00    -0.206 F 
ATOM     12  C   UNL A   1      34.030  28.305  24.636  1.00  0.00     0.017 A 
BRANCH   7  13
ATOM     13  S   UNL A   1      31.533  24.692  25.813  1.00  0.00     0.246 S 
ATOM     14  O   UNL A   1      30.315  24.818  25.036  1.00  0.00    -0.207 OA
ATOM     15  O   UNL A   1      31.462  24.657  27.259  1.00  0.00    -0.207 OA
BRANCH  13  16
ATOM     16  N   UNL A   1      32.335  23.235  25.315  1.00  0.00    -0.197 NA
ATOM     17  C   UNL A   1      34.471  21.919  25.552  1.00  0.00     0.004 C 
ATOM     18  C   UNL A   1      33.654  20.626  25.601  1.00  0.00     0.006 C 
ATOM     19  C   UNL A   1      33.641  23.113  26.038  1.00  0.00     0.106 C 
ATOM     20  C   UNL A   1      32.262  20.762  25.000  1.00  0.00     0.017 C 
ATOM     21  C   UNL A   1      31.519  21.998  25.491  1.00  0.00     0.102 C 
BRANCH  17  22
ATOM     22  C   UNL A   1      35.216  22.185  24.226  1.00  0.00     0.001 C 
ATOM     23  C   UNL A   1      35.691  23.601  23.951  1.00  0.00     0.004 C 
ENDBRANCH  17  22
ENDBRANCH  13  16
ENDBRANCH   7  13
ENDBRANCH   3   6
ENDBRANCH   1   2
BRANCH   1  24
ATOM     24  C   UNL A   1      31.437  32.018  26.889  1.00  0.00     0.042 C 
BRANCH  24  25
ATOM     25  C   UNL A   1      32.717  32.850  26.871  1.00  0.00     0.118 C 
BRANCH  25  26
ATOM     26  N   UNL A   1      32.555  34.117  27.567  1.00  0.00    -0.352 N 
ATOM     27  C   UNL A   1      33.150  34.589  28.710  1.00  0.00     0.251 C 
ATOM     28  H   UNL A   1      31.915  34.738  27.150  1.00  0.00     0.163 HD
ATOM     29  O   UNL A   1      32.695  35.594  29.250  1.00  0.00    -0.269 OA
BRANCH  27  30
ATOM     30  C   UNL A   1      34.324  33.908  29.303  1.00  0.00     0.039 A 
ATOM     31  C   UNL A   1      35.603  34.321  28.914  1.00  0.00     0.014 A 
ATOM     32  C   UNL A   1      34.180  32.826  30.175  1.00  0.00     0.014 A 
ATOM     33  C   UNL A   1      36.732  33.684  29.434  1.00  0.00     0.010 A 
ATOM     34  C   UNL A   1      35.306  32.233  30.743  1.00  0.00     0.010 A 
ATOM     35  C   UNL A   1      36.593  32.651  30.373  1.00  0.00    -0.014 A 
BRANCH  35  36
ATOM     36  C   UNL A   1      37.780  32.000  30.982  1.00  0.00     0.031 A 
ATOM     37  C   UNL A   1      38.501  30.898  30.256  1.00  0.00     0.074 A 
ATOM     38  C   UNL A   1      38.168  32.355  32.221  1.00  0.00     0.049 A 
ATOM     39  N   UNL A   1      39.506  30.163  30.659  1.00  0.00    -0.248 NA
ATOM     40  C   UNL A   1      38.013  30.562  28.909  1.00  0.00     0.031 C 
ATOM     41  C   UNL A   1      37.524  33.378  33.046  1.00  0.00     0.029 A 
ATOM     42  N   UNL A   1      39.191  31.887  33.008  1.00  0.00    -0.354 N 
ATOM     43  C   UNL A   1      39.754  29.264  29.631  1.00  0.00     0.074 A 
ATOM     44  C   UNL A   1      38.771  29.520  28.599  1.00  0.00     0.031 C 
ATOM     45  C   UNL A   1      38.176  33.473  34.214  1.00  0.00     0.029 A 
ATOM     46  C   UNL A   1      39.261  32.496  34.236  1.00  0.00     0.049 A 
ATOM     47  H   UNL A   1      39.813  31.181  32.720  1.00  0.00     0.167 HD
ATOM     48  C   UNL A   1      40.723  28.322  29.548  1.00  0.00     0.037 A 
ATOM     49  C   UNL A   1      40.100  32.290  35.269  1.00  0.00     0.037 A 
ATOM     50  C   UNL A   1      41.723  28.097  30.559  1.00  0.00     0.049 A 
ATOM     51  C   UNL A   1      41.177  31.251  35.149  1.00  0.00     0.074 A 
ATOM     52  C   UNL A   1      42.797  27.224  30.527  1.00  0.00     0.029 A 
ATOM     53  N   UNL A   1      41.769  28.745  31.784  1.00  0.00    -0.354 N 
ATOM     54  N   UNL A   1      41.439  30.450  34.145  1.00  0.00    -0.248 NA
ATOM     55  C   UNL A   1      42.076  31.088  36.300  1.00  0.00     0.031 C 
ATOM     56  C   UNL A   1      43.468  27.315  31.751  1.00  0.00     0.029 A 
ATOM     57  C   UNL A   1      42.840  28.275  32.527  1.00  0.00     0.049 A 
ATOM     58  H   UNL A   1      41.135  29.437  32.081  1.00  0.00     0.167 HD
ATOM     59  C   UNL A   1      42.539  29.699  34.535  1.00  0.00     0.074 A 
ATOM     60  C   UNL A   1      42.904  30.148  35.864  1.00  0.00     0.031 C 
ATOM     61  C   UNL A   1      43.188  28.725  33.850  1.00  0.00     0.037 A 
BRANCH  48  62
ATOM     62  C   UNL A   1      40.756  27.463  28.317  1.00  0.00     0.057 A 
ATOM     63  C   UNL A   1      41.505  27.849  27.198  1.00  0.00     0.134 A 
ATOM     64  C   UNL A   1      40.012  26.281  28.220  1.00  0.00     0.134 A 
ATOM     65  F   UNL A   1      42.236  28.974  27.221  1.00  0.00    -0.206 F 
ATOM     66  C   UNL A   1      41.510  27.091  26.026  1.00  0.00     0.040 A 
ATOM     67  C   UNL A   1      40.028  25.501  27.062  1.00  0.00     0.040 A 
ATOM     68  F   UNL A   1      39.281  25.850  29.259  1.00  0.00    -0.206 F 
ATOM     69  C   UNL A   1      40.774  25.910  25.958  1.00  0.00     0.006 A 
ENDBRANCH  48  62
BRANCH  49  70
ATOM     70  C   UNL A   1      39.960  33.119  36.491  1.00  0.00     0.057 A 
ATOM     71  C   UNL A   1      39.057  32.779  37.506  1.00  0.00     0.134 A 
ATOM     72  C   UNL A   1      40.683  34.307  36.637  1.00  0.00     0.134 A 
ATOM     73  F   UNL A   1      38.329  31.658  37.416  1.00  0.00    -0.206 F 
ATOM     74  C   UNL A   1      38.863  33.606  38.614  1.00  0.00     0.040 A 
ATOM     75  C   UNL A   1      40.513  35.133  37.749  1.00  0.00     0.040 A 
ATOM     76  F   UNL A   1      41.572  34.675  35.703  1.00  0.00    -0.206 F 
ATOM     77  C   UNL A   1      39.591  34.786  38.737  1.00  0.00     0.006 A 
ENDBRANCH  49  70
BRANCH  61  78
ATOM     78  C   UNL A   1      44.365  28.076  34.514  1.00  0.00     0.057 A 
ATOM     79  C   UNL A   1      44.196  26.936  35.312  1.00  0.00     0.134 A 
ATOM     80  C   UNL A   1      45.649  28.624  34.429  1.00  0.00     0.134 A 
ATOM     81  F   UNL A   1      42.987  26.368  35.441  1.00  0.00    -0.206 F 
ATOM     82  C   UNL A   1      45.261  26.376  36.015  1.00  0.00     0.040 A 
ATOM     83  C   UNL A   1      46.728  28.059  35.112  1.00  0.00     0.040 A 
ATOM     84  F   UNL A   1      45.877  29.708  33.673  1.00  0.00    -0.206 F 
ATOM     85  C   UNL A   1      46.532  26.937  35.916  1.00  0.00     0.006 A 
ENDBRANCH  61  78
ENDBRANCH  35  36
ENDBRANCH  27  30
ENDBRANCH  25  26
ENDBRANCH  24  25
ENDBRANCH   1  24
TORSDOF 13
ENDMDL
MODEL 3
REMARK VINA RESULT:     -12.0      1.691      6.471
REMARK SMILES CC[C@@H]1CCCN(S(=O)(=O)c2cc(C(=O)NCCCNC(=O)c3ccc(-c4c5nc(c(-c6c(F)cccc6F)c6ccc([nH]6)c(-c6c(F)cccc6F)c6nc(c(-c7c(F)cccc7F)c7ccc4[nH]7)C=C6)C=C5)cc3)ccc2F)C1
REMARK SMILES IDX 17 1 16 2 14 3 15 4 13 6 11 7 12 8 79 9 78 10 80 11 77 12
REMARK SMILES IDX 8 13 9 14 10 15 7 16 3 17 4 18 81 19 5 20 6 21 2 22 1 23
REMARK SMILES IDX 18 24 19 25 20 26 21 27 22 29 23 30 24 31 76 32 25 33 75 34
REMARK SMILES IDX 26 35 27 36 28 37 69 38 29 39 74 40 68 41 70 42 30 43 73 44
REMARK SMILES IDX 67 45 66 46 31 48 57 49 40 50 56 51 41 52 44 53 55 54 71 55
REMARK SMILES IDX 42 56 43 57 54 59 72 60 45 61 32 62 33 63 38 64 34 65 35 66
REMARK SMILES IDX 37 67 39 68 36 69 58 70 59 71 64 72 60 73 61 74 63 75 65 76
REMARK SMILES IDX 62 77 46 78 47 79 52 80 48 81 49 82 51 83 53 84 50 85
REMARK H PARENT 16 5 20 28 70 47 44 58
REMARK Flexibility Score: inf
ROOT
ATOM      1  C   UNL A   1      37.278  20.809  24.630  1.00  0.00     0.118 C 
ENDROOT
BRANCH   1   2
ATOM      2  N   UNL A   1      37.831  22.080  25.055  1.00  0.00    -0.352 N 
ATOM      3  C   UNL A   1      37.265  23.219  25.564  1.00  0.00     0.251 C 
ATOM      4  O   UNL A   1      38.032  24.104  25.945  1.00  0.00    -0.269 OA
ATOM      5  H   UNL A   1      38.810  22.136  24.959  1.00  0.00     0.163 HD
BRANCH   3   6
ATOM      6  C   UNL A   1      35.794  23.449  25.683  1.00  0.00     0.041 A 
ATOM      7  C   UNL A   1      33.755  24.211  24.572  1.00  0.00     0.119 A 
ATOM      8  C   UNL A   1      35.151  24.072  24.596  1.00  0.00     0.038 A 
ATOM      9  C   UNL A   1      32.997  23.716  25.623  1.00  0.00     0.143 A 
ATOM     10  C   UNL A   1      33.617  23.129  26.719  1.00  0.00     0.041 A 
ATOM     11  F   UNL A   1      31.660  23.779  25.621  1.00  0.00    -0.206 F 
ATOM     12  C   UNL A   1      35.007  22.977  26.739  1.00  0.00     0.017 A 
BRANCH   7  13
ATOM     13  S   UNL A   1      32.952  24.795  23.113  1.00  0.00     0.246 S 
ATOM     14  O   UNL A   1      32.077  23.749  22.622  1.00  0.00    -0.207 OA
ATOM     15  O   UNL A   1      33.982  25.334  22.251  1.00  0.00    -0.207 OA
BRANCH  13  16
ATOM     16  N   UNL A   1      31.961  26.132  23.606  1.00  0.00    -0.197 NA
ATOM     17  C   UNL A   1      31.957  28.257  24.961  1.00  0.00     0.004 C 
ATOM     18  C   UNL A   1      31.113  28.933  23.877  1.00  0.00     0.006 C 
ATOM     19  C   UNL A   1      32.791  27.112  24.376  1.00  0.00     0.106 C 
ATOM     20  C   UNL A   1      30.369  27.949  22.984  1.00  0.00     0.017 C 
ATOM     21  C   UNL A   1      31.251  26.812  22.483  1.00  0.00     0.102 C 
BRANCH  17  22
ATOM     22  C   UNL A   1      31.197  27.871  26.248  1.00  0.00     0.001 C 
ATOM     23  C   UNL A   1      31.758  28.355  27.574  1.00  0.00     0.004 C 
ENDBRANCH  17  22
ENDBRANCH  13  16
ENDBRANCH   7  13
ENDBRANCH   3   6
ENDBRANCH   1   2
BRANCH   1  24
ATOM     24  C   UNL A   1      38.272  19.663  24.823  1.00  0.00     0.042 C 
BRANCH  24  25
ATOM     25  C   UNL A   1      39.181  19.825  26.039  1.00  0.00     0.118 C 
BRANCH  25  26
ATOM     26  N   UNL A   1      40.450  19.133  25.870  1.00  0.00    -0.352 N 
ATOM     27  C   UNL A   1      41.737  19.603  25.941  1.00  0.00     0.251 C 
ATOM     28  H   UNL A   1      40.372  18.172  25.673  1.00  0.00     0.163 HD
ATOM     29  O   UNL A   1      42.655  18.895  25.536  1.00  0.00    -0.269 OA
BRANCH  27  30
ATOM     30  C   UNL A   1      42.037  20.944  26.491  1.00  0.00     0.039 A 
ATOM     31  C   UNL A   1      42.381  21.970  25.604  1.00  0.00     0.014 A 
ATOM     32  C   UNL A   1      42.056  21.183  27.868  1.00  0.00     0.014 A 
ATOM     33  C   UNL A   1      42.696  23.241  26.091  1.00  0.00     0.010 A 
ATOM     34  C   UNL A   1      42.307  22.467  28.350  1.00  0.00     0.010 A 
ATOM     35  C   UNL A   1      42.636  23.506  27.467  1.00  0.00    -0.014 A 
BRANCH  35  36
ATOM     36  C   UNL A   1      42.911  24.864  28.001  1.00  0.00     0.031 A 
ATOM     37  C   UNL A   1      44.303  25.256  28.410  1.00  0.00     0.074 A 
ATOM     38  C   UNL A   1      41.890  25.724  28.181  1.00  0.00     0.049 A 
ATOM     39  N   UNL A   1      44.719  26.366  28.965  1.00  0.00    -0.248 NA
ATOM     40  C   UNL A   1      45.363  24.260  28.189  1.00  0.00     0.031 C 
ATOM     41  C   UNL A   1      40.488  25.446  27.865  1.00  0.00     0.029 A 
ATOM     42  N   UNL A   1      41.872  27.000  28.685  1.00  0.00    -0.354 N 
ATOM     43  C   UNL A   1      46.080  26.193  29.182  1.00  0.00     0.074 A 
ATOM     44  C   UNL A   1      46.413  24.858  28.733  1.00  0.00     0.031 C 
ATOM     45  C   UNL A   1      39.750  26.525  28.165  1.00  0.00     0.029 A 
ATOM     46  C   UNL A   1      40.618  27.557  28.726  1.00  0.00     0.049 A 
ATOM     47  H   UNL A   1      42.681  27.471  28.989  1.00  0.00     0.167 HD
ATOM     48  C   UNL A   1      46.972  27.074  29.694  1.00  0.00     0.037 A 
ATOM     49  C   UNL A   1      40.208  28.761  29.170  1.00  0.00     0.037 A 
ATOM     50  C   UNL A   1      46.644  28.414  30.103  1.00  0.00     0.049 A 
ATOM     51  C   UNL A   1      41.216  29.727  29.719  1.00  0.00     0.074 A 
ATOM     52  C   UNL A   1      47.494  29.409  30.553  1.00  0.00     0.029 A 
ATOM     53  N   UNL A   1      45.363  28.946  30.115  1.00  0.00    -0.354 N 
ATOM     54  N   UNL A   1      42.511  29.574  29.860  1.00  0.00    -0.248 NA
ATOM     55  C   UNL A   1      40.713  31.033  30.166  1.00  0.00     0.031 C 
ATOM     56  C   UNL A   1      46.722  30.529  30.877  1.00  0.00     0.029 A 
ATOM     57  C   UNL A   1      45.397  30.248  30.588  1.00  0.00     0.049 A 
ATOM     58  H   UNL A   1      44.551  28.470  29.829  1.00  0.00     0.167 HD
ATOM     59  C   UNL A   1      42.979  30.765  30.398  1.00  0.00     0.074 A 
ATOM     60  C   UNL A   1      41.831  31.637  30.547  1.00  0.00     0.031 C 
ATOM     61  C   UNL A   1      44.246  31.103  30.737  1.00  0.00     0.037 A 
BRANCH  48  62
ATOM     62  C   UNL A   1      48.395  26.620  29.837  1.00  0.00     0.057 A 
ATOM     63  C   UNL A   1      48.819  25.957  30.996  1.00  0.00     0.134 A 
ATOM     64  C   UNL A   1      49.358  26.879  28.854  1.00  0.00     0.134 A 
ATOM     65  F   UNL A   1      47.950  25.683  31.982  1.00  0.00    -0.206 F 
ATOM     66  C   UNL A   1      50.148  25.570  31.171  1.00  0.00     0.040 A 
ATOM     67  C   UNL A   1      50.685  26.476  29.006  1.00  0.00     0.040 A 
ATOM     68  F   UNL A   1      49.015  27.502  27.716  1.00  0.00    -0.206 F 
ATOM     69  C   UNL A   1      51.085  25.824  30.172  1.00  0.00     0.006 A 
ENDBRANCH  48  62
BRANCH  49  70
ATOM     70  C   UNL A   1      38.771  29.115  29.075  1.00  0.00     0.057 A 
ATOM     71  C   UNL A   1      38.209  29.576  27.879  1.00  0.00     0.134 A 
ATOM     72  C   UNL A   1      37.943  29.058  30.201  1.00  0.00     0.134 A 
ATOM     73  F   UNL A   1      38.956  29.662  26.769  1.00  0.00    -0.206 F 
ATOM     74  C   UNL A   1      36.878  29.991  27.813  1.00  0.00     0.040 A 
ATOM     75  C   UNL A   1      36.606  29.452  30.144  1.00  0.00     0.040 A 
ATOM     76  F   UNL A   1      38.425  28.611  31.371  1.00  0.00    -0.206 F 
ATOM     77  C   UNL A   1      36.073  29.931  28.948  1.00  0.00     0.006 A 
ENDBRANCH  49  70
BRANCH  61  78
ATOM     78  C   UNL A   1      44.473  32.475  31.298  1.00  0.00     0.057 A 
ATOM     79  C   UNL A   1      44.762  33.554  30.451  1.00  0.00     0.134 A 
ATOM     80  C   UNL A   1      44.485  32.711  32.677  1.00  0.00     0.134 A 
ATOM     81  F   UNL A   1      44.775  33.390  29.120  1.00  0.00    -0.206 F 
ATOM     82  C   UNL A   1      45.073  34.815  30.960  1.00  0.00     0.040 A 
ATOM     83  C   UNL A   1      44.773  33.974  33.196  1.00  0.00     0.040 A 
ATOM     84  F   UNL A   1      44.205  31.721  33.538  1.00  0.00    -0.206 F 
ATOM     85  C   UNL A   1      45.078  35.028  32.336  1.00  0.00     0.006 A 
ENDBRANCH  61  78
ENDBRANCH  35  36
ENDBRANCH  27  30
ENDBRANCH  25  26
ENDBRANCH  24  25
ENDBRANCH   1  24
TORSDOF 13
ENDMDL
