MODEL 1
REMARK VINA RESULT:     -11.7      0.000      0.000
REMARK SMILES O=C(NC[C@@H]1CC[C@H](C(=O)NCCCNC(=O)c2ccc(-c3c4nc(c(-c5c(F)cccc5F)c5ccc([nH]5)c(-c5c(F)cccc5F)c5nc(c(-c6c(F)cccc6F)c6ccc3[nH]6)C=C5)C=C4)cc2)O1)Nc1ncccn1
REMARK SMILES IDX 12 1 11 2 9 3 10 4 8 6 5 7 6 8 72 9 7 10 4 11 3 12 1 13 2 14
REMARK SMILES IDX 73 15 74 18 75 19 79 20 76 21 78 22 77 23 13 24 14 25 15 26
REMARK SMILES IDX 16 27 17 29 18 30 19 31 71 32 20 33 70 34 21 35 22 36 23 37
REMARK SMILES IDX 64 38 24 39 69 40 63 41 65 42 25 43 68 44 62 45 61 46 26 48
REMARK SMILES IDX 52 49 35 50 51 51 36 52 39 53 50 54 66 55 37 56 38 57 49 59
REMARK SMILES IDX 67 60 40 61 27 62 28 63 33 64 29 65 30 66 32 67 34 68 31 69
REMARK SMILES IDX 53 70 54 71 59 72 55 73 56 74 58 75 60 76 57 77 41 78 42 79
REMARK SMILES IDX 47 80 43 81 44 82 46 83 48 84 45 85
REMARK H PARENT 11 5 3 16 73 17 15 28 65 47 39 58
REMARK Flexibility Score: inf
ROOT
ATOM      1  C   UNL A   1      36.924  20.472  25.088  1.00  0.00     0.117 C 
ENDROOT
BRANCH   1   2
ATOM      2  N   UNL A   1      36.791  21.492  24.074  1.00  0.00    -0.354 N 
ATOM      3  C   UNL A   1      36.296  22.759  24.178  1.00  0.00     0.249 C 
ATOM      4  O   UNL A   1      36.316  23.462  23.163  1.00  0.00    -0.272 OA
ATOM      5  H   UNL A   1      37.102  21.236  23.175  1.00  0.00     0.163 HD
BRANCH   3   6
ATOM      6  C   UNL A   1      35.653  23.279  25.485  1.00  0.00     0.207 C 
ATOM      7  C   UNL A   1      33.552  23.369  26.488  1.00  0.00     0.138 C 
ATOM      8  C   UNL A   1      33.666  24.620  25.640  1.00  0.00     0.037 C 
ATOM      9  O   UNL A   1      34.591  22.488  26.027  1.00  0.00    -0.363 OA
ATOM     10  C   UNL A   1      35.144  24.708  25.347  1.00  0.00     0.045 C 
BRANCH   7  11
ATOM     11  C   UNL A   1      32.182  22.690  26.361  1.00  0.00     0.149 C 
BRANCH  11  12
ATOM     12  N   UNL A   1      31.954  22.214  25.009  1.00  0.00    -0.335 N 
ATOM     13  O   UNL A   1      32.118  20.815  23.289  1.00  0.00    -0.248 OA
ATOM     14  C   UNL A   1      32.163  20.964  24.509  1.00  0.00     0.321 C 
ATOM     15  N   UNL A   1      32.378  19.997  25.433  1.00  0.00    -0.276 N 
ATOM     16  H   UNL A   1      31.605  22.879  24.372  1.00  0.00     0.165 HD
ATOM     17  H   UNL A   1      32.125  20.200  26.363  1.00  0.00     0.175 HD
BRANCH  15  18
ATOM     18  C   UNL A   1      32.921  18.750  25.184  1.00  0.00     0.230 A 
ATOM     19  N   UNL A   1      34.129  18.775  24.596  1.00  0.00    -0.221 NA
ATOM     20  N   UNL A   1      32.233  17.633  25.445  1.00  0.00    -0.221 NA
ATOM     21  C   UNL A   1      34.683  17.579  24.313  1.00  0.00     0.117 A 
ATOM     22  C   UNL A   1      32.817  16.466  25.124  1.00  0.00     0.117 A 
ATOM     23  C   UNL A   1      34.063  16.378  24.557  1.00  0.00     0.040 A 
ENDBRANCH  15  18
ENDBRANCH  11  12
ENDBRANCH   7  11
ENDBRANCH   3   6
ENDBRANCH   1   2
BRANCH   1  24
ATOM     24  C   UNL A   1      38.196  19.653  24.921  1.00  0.00     0.042 C 
BRANCH  24  25
ATOM     25  C   UNL A   1      39.261  20.012  25.945  1.00  0.00     0.118 C 
BRANCH  25  26
ATOM     26  N   UNL A   1      40.367  19.060  25.935  1.00  0.00    -0.352 N 
ATOM     27  C   UNL A   1      41.716  19.264  26.069  1.00  0.00     0.251 C 
ATOM     28  H   UNL A   1      40.101  18.120  25.813  1.00  0.00     0.163 HD
ATOM     29  O   UNL A   1      42.494  18.345  25.825  1.00  0.00    -0.269 OA
BRANCH  27  30
ATOM     30  C   UNL A   1      42.239  20.582  26.483  1.00  0.00     0.039 A 
ATOM     31  C   UNL A   1      42.741  21.446  25.507  1.00  0.00     0.014 A 
ATOM     32  C   UNL A   1      42.263  20.958  27.829  1.00  0.00     0.014 A 
ATOM     33  C   UNL A   1      43.207  22.711  25.873  1.00  0.00     0.010 A 
ATOM     34  C   UNL A   1      42.640  22.249  28.180  1.00  0.00     0.010 A 
ATOM     35  C   UNL A   1      43.126  23.135  27.209  1.00  0.00    -0.014 A 
BRANCH  35  36
ATOM     36  C   UNL A   1      43.563  24.491  27.618  1.00  0.00     0.031 A 
ATOM     37  C   UNL A   1      42.538  25.524  28.000  1.00  0.00     0.074 A 
ATOM     38  C   UNL A   1      44.871  24.811  27.580  1.00  0.00     0.049 A 
ATOM     39  N   UNL A   1      42.706  26.791  28.281  1.00  0.00    -0.248 NA
ATOM     40  C   UNL A   1      41.134  25.082  28.042  1.00  0.00     0.031 C 
ATOM     41  C   UNL A   1      45.954  23.911  27.181  1.00  0.00     0.029 A 
ATOM     42  N   UNL A   1      45.511  25.990  27.869  1.00  0.00    -0.354 N 
ATOM     43  C   UNL A   1      41.433  27.294  28.524  1.00  0.00     0.074 A 
ATOM     44  C   UNL A   1      40.499  26.216  28.295  1.00  0.00     0.031 C 
ATOM     45  C   UNL A   1      47.125  24.564  27.265  1.00  0.00     0.029 A 
ATOM     46  C   UNL A   1      46.872  25.938  27.686  1.00  0.00     0.049 A 
ATOM     47  H   UNL A   1      45.040  26.798  28.178  1.00  0.00     0.167 HD
ATOM     48  C   UNL A   1      41.079  28.536  28.932  1.00  0.00     0.037 A 
ATOM     49  C   UNL A   1      47.807  26.896  27.828  1.00  0.00     0.037 A 
ATOM     50  C   UNL A   1      42.014  29.600  29.182  1.00  0.00     0.049 A 
ATOM     51  C   UNL A   1      47.383  28.268  28.275  1.00  0.00     0.074 A 
ATOM     52  C   UNL A   1      41.759  30.886  29.625  1.00  0.00     0.029 A 
ATOM     53  N   UNL A   1      43.387  29.496  29.022  1.00  0.00    -0.354 N 
ATOM     54  N   UNL A   1      46.181  28.716  28.546  1.00  0.00    -0.248 NA
ATOM     55  C   UNL A   1      48.448  29.267  28.446  1.00  0.00     0.031 C 
ATOM     56  C   UNL A   1      42.976  31.569  29.703  1.00  0.00     0.029 A 
ATOM     57  C   UNL A   1      43.992  30.696  29.351  1.00  0.00     0.049 A 
ATOM     58  H   UNL A   1      43.861  28.688  28.717  1.00  0.00     0.167 HD
ATOM     59  C   UNL A   1      46.348  30.035  28.947  1.00  0.00     0.074 A 
ATOM     60  C   UNL A   1      47.768  30.310  28.901  1.00  0.00     0.031 C 
ATOM     61  C   UNL A   1      45.410  30.940  29.317  1.00  0.00     0.037 A 
BRANCH  48  62
ATOM     62  C   UNL A   1      39.620  28.801  29.157  1.00  0.00     0.057 A 
ATOM     63  C   UNL A   1      39.031  28.628  30.418  1.00  0.00     0.134 A 
ATOM     64  C   UNL A   1      38.803  29.274  28.123  1.00  0.00     0.134 A 
ATOM     65  F   UNL A   1      39.754  28.162  31.448  1.00  0.00    -0.206 F 
ATOM     66  C   UNL A   1      37.680  28.898  30.636  1.00  0.00     0.040 A 
ATOM     67  C   UNL A   1      37.456  29.574  28.336  1.00  0.00     0.040 A 
ATOM     68  F   UNL A   1      39.304  29.467  26.893  1.00  0.00    -0.206 F 
ATOM     69  C   UNL A   1      36.890  29.382  29.595  1.00  0.00     0.006 A 
ENDBRANCH  48  62
BRANCH  49  70
ATOM     70  C   UNL A   1      49.236  26.598  27.554  1.00  0.00     0.057 A 
ATOM     71  C   UNL A   1      49.763  26.708  26.262  1.00  0.00     0.134 A 
ATOM     72  C   UNL A   1      50.099  26.164  28.567  1.00  0.00     0.134 A 
ATOM     73  F   UNL A   1      48.982  27.104  25.246  1.00  0.00    -0.206 F 
ATOM     74  C   UNL A   1      51.087  26.366  25.980  1.00  0.00     0.040 A 
ATOM     75  C   UNL A   1      51.433  25.845  28.305  1.00  0.00     0.040 A 
ATOM     76  F   UNL A   1      49.659  26.047  29.828  1.00  0.00    -0.206 F 
ATOM     77  C   UNL A   1      51.927  25.934  27.004  1.00  0.00     0.006 A 
ENDBRANCH  49  70
BRANCH  61  78
ATOM     78  C   UNL A   1      45.896  32.294  29.742  1.00  0.00     0.057 A 
ATOM     79  C   UNL A   1      46.251  32.569  31.069  1.00  0.00     0.134 A 
ATOM     80  C   UNL A   1      46.044  33.323  28.803  1.00  0.00     0.134 A 
ATOM     81  F   UNL A   1      46.120  31.629  32.016  1.00  0.00    -0.206 F 
ATOM     82  C   UNL A   1      46.715  33.829  31.450  1.00  0.00     0.040 A 
ATOM     83  C   UNL A   1      46.532  34.578  29.169  1.00  0.00     0.040 A 
ATOM     84  F   UNL A   1      45.729  33.120  27.515  1.00  0.00    -0.206 F 
ATOM     85  C   UNL A   1      46.863  34.834  30.497  1.00  0.00     0.006 A 
ENDBRANCH  61  78
ENDBRANCH  35  36
ENDBRANCH  27  30
ENDBRANCH  25  26
ENDBRANCH  24  25
ENDBRANCH   1  24
TORSDOF 13
ENDMDL
MODEL 2
REMARK VINA RESULT:     -11.7      1.928      7.087
REMARK SMILES O=C(NC[C@@H]1CC[C@H](C(=O)NCCCNC(=O)c2ccc(-c3c4nc(c(-c5c(F)cccc5F)c5ccc([nH]5)c(-c5c(F)cccc5F)c5nc(c(-c6c(F)cccc6F)c6ccc3[nH]6)C=C5)C=C4)cc2)O1)Nc1ncccn1
REMARK SMILES IDX 12 1 11 2 9 3 10 4 8 6 5 7 6 8 72 9 7 10 4 11 3 12 1 13 2 14
REMARK SMILES IDX 73 15 74 18 75 19 79 20 76 21 78 22 77 23 13 24 14 25 15 26
REMARK SMILES IDX 16 27 17 29 18 30 19 31 71 32 20 33 70 34 21 35 22 36 23 37
REMARK SMILES IDX 64 38 24 39 69 40 63 41 65 42 25 43 68 44 62 45 61 46 26 48
REMARK SMILES IDX 52 49 35 50 51 51 36 52 39 53 50 54 66 55 37 56 38 57 49 59
REMARK SMILES IDX 67 60 40 61 27 62 28 63 33 64 29 65 30 66 32 67 34 68 31 69
REMARK SMILES IDX 53 70 54 71 59 72 55 73 56 74 58 75 60 76 57 77 41 78 42 79
REMARK SMILES IDX 47 80 43 81 44 82 46 83 48 84 45 85
REMARK H PARENT 11 5 3 16 73 17 15 28 65 47 39 58
REMARK Flexibility Score: inf
ROOT
ATOM      1  C   UNL A   1      37.585  21.053  24.633  1.00  0.00     0.117 C 
ENDROOT
BRANCH   1   2
ATOM      2  N   UNL A   1      36.739  21.446  25.736  1.00  0.00    -0.354 N 
ATOM      3  C   UNL A   1      35.378  21.463  25.822  1.00  0.00     0.249 C 
ATOM      4  O   UNL A   1      34.881  21.814  26.897  1.00  0.00    -0.272 OA
ATOM      5  H   UNL A   1      37.214  21.747  26.545  1.00  0.00     0.163 HD
BRANCH   3   6
ATOM      6  C   UNL A   1      34.481  21.140  24.605  1.00  0.00     0.207 C 
ATOM      7  C   UNL A   1      32.411  21.771  23.738  1.00  0.00     0.138 C 
ATOM      8  C   UNL A   1      32.136  20.618  24.683  1.00  0.00     0.037 C 
ATOM      9  O   UNL A   1      33.735  22.234  24.060  1.00  0.00    -0.363 OA
ATOM     10  C   UNL A   1      33.501  20.010  24.895  1.00  0.00     0.045 C 
BRANCH   7  11
ATOM     11  C   UNL A   1      31.397  22.913  23.886  1.00  0.00     0.149 C 
BRANCH  11  12
ATOM     12  N   UNL A   1      30.940  23.036  25.258  1.00  0.00    -0.335 N 
ATOM     13  O   UNL A   1      30.795  23.947  27.282  1.00  0.00    -0.248 OA
ATOM     14  C   UNL A   1      31.044  24.112  26.088  1.00  0.00     0.321 C 
ATOM     15  N   UNL A   1      31.395  25.275  25.490  1.00  0.00    -0.276 N 
ATOM     16  H   UNL A   1      30.499  22.241  25.638  1.00  0.00     0.165 HD
ATOM     17  H   UNL A   1      31.305  25.323  24.511  1.00  0.00     0.175 HD
BRANCH  15  18
ATOM     18  C   UNL A   1      31.871  26.402  26.135  1.00  0.00     0.230 A 
ATOM     19  N   UNL A   1      33.139  26.726  25.830  1.00  0.00    -0.221 NA
ATOM     20  N   UNL A   1      31.128  27.042  27.045  1.00  0.00    -0.221 NA
ATOM     21  C   UNL A   1      33.650  27.804  26.457  1.00  0.00     0.117 A 
ATOM     22  C   UNL A   1      31.689  28.098  27.660  1.00  0.00     0.117 A 
ATOM     23  C   UNL A   1      32.961  28.535  27.394  1.00  0.00     0.040 A 
ENDBRANCH  15  18
ENDBRANCH  11  12
ENDBRANCH   7  11
ENDBRANCH   3   6
ENDBRANCH   1   2
BRANCH   1  24
ATOM     24  C   UNL A   1      38.328  19.753  24.908  1.00  0.00     0.042 C 
BRANCH  24  25
ATOM     25  C   UNL A   1      39.243  19.849  26.120  1.00  0.00     0.118 C 
BRANCH  25  26
ATOM     26  N   UNL A   1      40.480  19.101  25.927  1.00  0.00    -0.352 N 
ATOM     27  C   UNL A   1      41.786  19.513  25.993  1.00  0.00     0.251 C 
ATOM     28  H   UNL A   1      40.357  18.147  25.715  1.00  0.00     0.163 HD
ATOM     29  O   UNL A   1      42.677  18.767  25.593  1.00  0.00    -0.269 OA
BRANCH  27  30
ATOM     30  C   UNL A   1      42.127  20.850  26.521  1.00  0.00     0.039 A 
ATOM     31  C   UNL A   1      42.479  21.861  25.623  1.00  0.00     0.014 A 
ATOM     32  C   UNL A   1      42.128  21.104  27.895  1.00  0.00     0.014 A 
ATOM     33  C   UNL A   1      42.770  23.141  26.099  1.00  0.00     0.010 A 
ATOM     34  C   UNL A   1      42.326  22.399  28.360  1.00  0.00     0.010 A 
ATOM     35  C   UNL A   1      42.660  23.428  27.468  1.00  0.00    -0.014 A 
BRANCH  35  36
ATOM     36  C   UNL A   1      42.910  24.792  27.995  1.00  0.00     0.031 A 
ATOM     37  C   UNL A   1      44.299  25.185  28.421  1.00  0.00     0.074 A 
ATOM     38  C   UNL A   1      41.881  25.646  28.154  1.00  0.00     0.049 A 
ATOM     39  N   UNL A   1      44.704  26.284  29.004  1.00  0.00    -0.248 NA
ATOM     40  C   UNL A   1      45.369  24.201  28.186  1.00  0.00     0.031 C 
ATOM     41  C   UNL A   1      40.483  25.362  27.823  1.00  0.00     0.029 A 
ATOM     42  N   UNL A   1      41.851  26.925  28.649  1.00  0.00    -0.354 N 
ATOM     43  C   UNL A   1      46.068  26.118  29.212  1.00  0.00     0.074 A 
ATOM     44  C   UNL A   1      46.411  24.791  28.753  1.00  0.00     0.031 C 
ATOM     45  C   UNL A   1      39.735  26.440  28.108  1.00  0.00     0.029 A 
ATOM     46  C   UNL A   1      40.592  27.475  28.678  1.00  0.00     0.049 A 
ATOM     47  H   UNL A   1      42.655  27.405  28.954  1.00  0.00     0.167 HD
ATOM     48  C   UNL A   1      46.961  27.004  29.713  1.00  0.00     0.037 A 
ATOM     49  C   UNL A   1      40.176  28.674  29.127  1.00  0.00     0.037 A 
ATOM     50  C   UNL A   1      46.621  28.334  30.146  1.00  0.00     0.049 A 
ATOM     51  C   UNL A   1      41.189  29.636  29.684  1.00  0.00     0.074 A 
ATOM     52  C   UNL A   1      47.457  29.318  30.643  1.00  0.00     0.029 A 
ATOM     53  N   UNL A   1      45.342  28.866  30.124  1.00  0.00    -0.354 N 
ATOM     54  N   UNL A   1      42.483  29.482  29.832  1.00  0.00    -0.248 NA
ATOM     55  C   UNL A   1      40.685  30.943  30.130  1.00  0.00     0.031 C 
ATOM     56  C   UNL A   1      46.676  30.438  30.949  1.00  0.00     0.029 A 
ATOM     57  C   UNL A   1      45.363  30.164  30.604  1.00  0.00     0.049 A 
ATOM     58  H   UNL A   1      44.537  28.390  29.815  1.00  0.00     0.167 HD
ATOM     59  C   UNL A   1      42.950  30.680  30.357  1.00  0.00     0.074 A 
ATOM     60  C   UNL A   1      41.805  31.556  30.486  1.00  0.00     0.031 C 
ATOM     61  C   UNL A   1      44.214  31.024  30.705  1.00  0.00     0.037 A 
BRANCH  48  62
ATOM     62  C   UNL A   1      48.396  26.573  29.792  1.00  0.00     0.057 A 
ATOM     63  C   UNL A   1      48.898  25.907  30.919  1.00  0.00     0.134 A 
ATOM     64  C   UNL A   1      49.273  26.784  28.721  1.00  0.00     0.134 A 
ATOM     65  F   UNL A   1      48.114  25.687  31.985  1.00  0.00    -0.206 F 
ATOM     66  C   UNL A   1      50.225  25.482  30.984  1.00  0.00     0.040 A 
ATOM     67  C   UNL A   1      50.596  26.340  28.764  1.00  0.00     0.040 A 
ATOM     68  F   UNL A   1      48.856  27.411  27.612  1.00  0.00    -0.206 F 
ATOM     69  C   UNL A   1      51.077  25.691  29.900  1.00  0.00     0.006 A 
ENDBRANCH  48  62
BRANCH  49  70
ATOM     70  C   UNL A   1      38.738  29.042  29.065  1.00  0.00     0.057 A 
ATOM     71  C   UNL A   1      38.174  29.561  27.894  1.00  0.00     0.134 A 
ATOM     72  C   UNL A   1      37.903  28.917  30.181  1.00  0.00     0.134 A 
ATOM     73  F   UNL A   1      38.927  29.719  26.795  1.00  0.00    -0.206 F 
ATOM     74  C   UNL A   1      36.841  29.973  27.843  1.00  0.00     0.040 A 
ATOM     75  C   UNL A   1      36.561  29.300  30.138  1.00  0.00     0.040 A 
ATOM     76  F   UNL A   1      38.379  28.418  31.331  1.00  0.00    -0.206 F 
ATOM     77  C   UNL A   1      36.030  29.842  28.968  1.00  0.00     0.006 A 
ENDBRANCH  49  70
BRANCH  61  78
ATOM     78  C   UNL A   1      44.427  32.418  31.215  1.00  0.00     0.057 A 
ATOM     79  C   UNL A   1      44.693  33.489  30.352  1.00  0.00     0.134 A 
ATOM     80  C   UNL A   1      44.329  32.696  32.585  1.00  0.00     0.134 A 
ATOM     81  F   UNL A   1      44.811  33.285  29.032  1.00  0.00    -0.206 F 
ATOM     82  C   UNL A   1      44.876  34.785  30.837  1.00  0.00     0.040 A 
ATOM     83  C   UNL A   1      44.484  33.992  33.077  1.00  0.00     0.040 A 
ATOM     84  F   UNL A   1      44.068  31.716  33.462  1.00  0.00    -0.206 F 
ATOM     85  C   UNL A   1      44.765  35.039  32.203  1.00  0.00     0.006 A 
ENDBRANCH  61  78
ENDBRANCH  35  36
ENDBRANCH  27  30
ENDBRANCH  25  26
ENDBRANCH  24  25
ENDBRANCH   1  24
TORSDOF 13
ENDMDL
MODEL 3
REMARK VINA RESULT:     -11.7      2.570      4.143
REMARK SMILES O=C(NC[C@@H]1CC[C@H](C(=O)NCCCNC(=O)c2ccc(-c3c4nc(c(-c5c(F)cccc5F)c5ccc([nH]5)c(-c5c(F)cccc5F)c5nc(c(-c6c(F)cccc6F)c6ccc3[nH]6)C=C5)C=C4)cc2)O1)Nc1ncccn1
REMARK SMILES IDX 12 1 11 2 9 3 10 4 8 6 5 7 6 8 72 9 7 10 4 11 3 12 1 13 2 14
REMARK SMILES IDX 73 15 74 18 75 19 79 20 76 21 78 22 77 23 13 24 14 25 15 26
REMARK SMILES IDX 16 27 17 29 18 30 19 31 71 32 20 33 70 34 21 35 22 36 23 37
REMARK SMILES IDX 64 38 24 39 69 40 63 41 65 42 25 43 68 44 62 45 61 46 26 48
REMARK SMILES IDX 52 49 35 50 51 51 36 52 39 53 50 54 66 55 37 56 38 57 49 59
REMARK SMILES IDX 67 60 40 61 27 62 28 63 33 64 29 65 30 66 32 67 34 68 31 69
REMARK SMILES IDX 53 70 54 71 59 72 55 73 56 74 58 75 60 76 57 77 41 78 42 79
REMARK SMILES IDX 47 80 43 81 44 82 46 83 48 84 45 85
REMARK H PARENT 11 5 3 16 73 17 15 28 65 47 39 58
REMARK Flexibility Score: inf
ROOT
ATOM      1  C   UNL A   1      36.459  20.484  25.001  1.00  0.00     0.117 C 
ENDROOT
BRANCH   1   2
ATOM      2  N   UNL A   1      36.689  21.877  25.308  1.00  0.00    -0.354 N 
ATOM      3  C   UNL A   1      36.021  22.983  24.869  1.00  0.00     0.249 C 
ATOM      4  O   UNL A   1      36.390  24.078  25.304  1.00  0.00    -0.272 OA
ATOM      5  H   UNL A   1      37.436  22.055  25.924  1.00  0.00     0.163 HD
BRANCH   3   6
ATOM      6  C   UNL A   1      34.904  22.891  23.804  1.00  0.00     0.207 C 
ATOM      7  C   UNL A   1      33.367  24.293  22.753  1.00  0.00     0.138 C 
ATOM      8  C   UNL A   1      32.686  23.792  24.011  1.00  0.00     0.037 C 
ATOM      9  O   UNL A   1      34.768  24.016  22.930  1.00  0.00    -0.363 OA
ATOM     10  C   UNL A   1      33.539  22.618  24.425  1.00  0.00     0.045 C 
BRANCH   7  11
ATOM     11  C   UNL A   1      33.146  25.792  22.516  1.00  0.00     0.149 C 
BRANCH  11  12
ATOM     12  N   UNL A   1      32.698  26.455  23.727  1.00  0.00    -0.335 N 
ATOM     13  O   UNL A   1      31.572  27.945  24.935  1.00  0.00    -0.248 OA
ATOM     14  C   UNL A   1      31.656  27.320  23.878  1.00  0.00     0.321 C 
ATOM     15  N   UNL A   1      30.795  27.381  22.834  1.00  0.00    -0.276 N 
ATOM     16  H   UNL A   1      33.212  26.255  24.542  1.00  0.00     0.165 HD
ATOM     17  H   UNL A   1      30.830  26.647  22.179  1.00  0.00     0.175 HD
BRANCH  15  18
ATOM     18  C   UNL A   1      29.870  28.384  22.608  1.00  0.00     0.230 A 
ATOM     19  N   UNL A   1      28.653  28.147  23.126  1.00  0.00    -0.221 NA
ATOM     20  N   UNL A   1      30.176  29.450  21.859  1.00  0.00    -0.221 NA
ATOM     21  C   UNL A   1      27.714  29.089  22.906  1.00  0.00     0.117 A 
ATOM     22  C   UNL A   1      29.201  30.350  21.649  1.00  0.00     0.117 A 
ATOM     23  C   UNL A   1      27.936  30.224  22.164  1.00  0.00     0.040 A 
ENDBRANCH  15  18
ENDBRANCH  11  12
ENDBRANCH   7  11
ENDBRANCH   3   6
ENDBRANCH   1   2
BRANCH   1  24
ATOM     24  C   UNL A   1      37.756  19.724  24.757  1.00  0.00     0.042 C 
BRANCH  24  25
ATOM     25  C   UNL A   1      38.890  20.201  25.651  1.00  0.00     0.118 C 
BRANCH  25  26
ATOM     26  N   UNL A   1      39.922  19.182  25.809  1.00  0.00    -0.352 N 
ATOM     27  C   UNL A   1      41.266  19.309  26.042  1.00  0.00     0.251 C 
ATOM     28  H   UNL A   1      39.600  18.254  25.736  1.00  0.00     0.163 HD
ATOM     29  O   UNL A   1      41.995  18.325  25.936  1.00  0.00    -0.269 OA
BRANCH  27  30
ATOM     30  C   UNL A   1      41.847  20.619  26.399  1.00  0.00     0.039 A 
ATOM     31  C   UNL A   1      42.137  21.530  25.379  1.00  0.00     0.014 A 
ATOM     32  C   UNL A   1      42.133  20.945  27.728  1.00  0.00     0.014 A 
ATOM     33  C   UNL A   1      42.652  22.788  25.698  1.00  0.00     0.010 A 
ATOM     34  C   UNL A   1      42.557  22.228  28.051  1.00  0.00     0.010 A 
ATOM     35  C   UNL A   1      42.832  23.159  27.039  1.00  0.00    -0.014 A 
BRANCH  35  36
ATOM     36  C   UNL A   1      43.327  24.507  27.409  1.00  0.00     0.031 A 
ATOM     37  C   UNL A   1      42.353  25.565  27.856  1.00  0.00     0.074 A 
ATOM     38  C   UNL A   1      44.636  24.797  27.279  1.00  0.00     0.049 A 
ATOM     39  N   UNL A   1      42.568  26.828  28.117  1.00  0.00    -0.248 NA
ATOM     40  C   UNL A   1      40.946  25.154  27.998  1.00  0.00     0.031 C 
ATOM     41  C   UNL A   1      45.668  23.871  26.811  1.00  0.00     0.029 A 
ATOM     42  N   UNL A   1      45.320  25.963  27.516  1.00  0.00    -0.354 N 
ATOM     43  C   UNL A   1      41.327  27.361  28.445  1.00  0.00     0.074 A 
ATOM     44  C   UNL A   1      40.355  26.303  28.288  1.00  0.00     0.031 C 
ATOM     45  C   UNL A   1      46.855  24.498  26.810  1.00  0.00     0.029 A 
ATOM     46  C   UNL A   1      46.663  25.879  27.239  1.00  0.00     0.049 A 
ATOM     47  H   UNL A   1      44.890  26.782  27.853  1.00  0.00     0.167 HD
ATOM     48  C   UNL A   1      41.030  28.612  28.870  1.00  0.00     0.037 A 
ATOM     49  C   UNL A   1      47.627  26.816  27.311  1.00  0.00     0.037 A 
ATOM     50  C   UNL A   1      42.004  29.656  29.049  1.00  0.00     0.049 A 
ATOM     51  C   UNL A   1      47.266  28.199  27.779  1.00  0.00     0.074 A 
ATOM     52  C   UNL A   1      41.808  30.949  29.501  1.00  0.00     0.029 A 
ATOM     53  N   UNL A   1      43.359  29.520  28.794  1.00  0.00    -0.354 N 
ATOM     54  N   UNL A   1      46.095  28.676  28.129  1.00  0.00    -0.248 NA
ATOM     55  C   UNL A   1      48.362  29.175  27.869  1.00  0.00     0.031 C 
ATOM     56  C   UNL A   1      43.043  31.605  29.490  1.00  0.00     0.029 A 
ATOM     57  C   UNL A   1      44.013  30.708  29.073  1.00  0.00     0.049 A 
ATOM     58  H   UNL A   1      43.793  28.700  28.462  1.00  0.00     0.167 HD
ATOM     59  C   UNL A   1      46.320  29.992  28.510  1.00  0.00     0.074 A 
ATOM     60  C   UNL A   1      47.739  30.234  28.364  1.00  0.00     0.031 C 
ATOM     61  C   UNL A   1      45.430  30.920  28.939  1.00  0.00     0.037 A 
BRANCH  48  62
ATOM     62  C   UNL A   1      39.596  28.911  29.195  1.00  0.00     0.057 A 
ATOM     63  C   UNL A   1      38.706  29.380  28.218  1.00  0.00     0.134 A 
ATOM     64  C   UNL A   1      39.086  28.688  30.480  1.00  0.00     0.134 A 
ATOM     65  F   UNL A   1      39.135  29.628  26.971  1.00  0.00    -0.206 F 
ATOM     66  C   UNL A   1      37.367  29.634  28.512  1.00  0.00     0.040 A 
ATOM     67  C   UNL A   1      37.741  28.913  30.779  1.00  0.00     0.040 A 
ATOM     68  F   UNL A   1      39.882  28.236  31.460  1.00  0.00    -0.206 F 
ATOM     69  C   UNL A   1      36.878  29.392  29.795  1.00  0.00     0.006 A 
ENDBRANCH  48  62
BRANCH  49  70
ATOM     70  C   UNL A   1      49.026  26.485  26.940  1.00  0.00     0.057 A 
ATOM     71  C   UNL A   1      49.496  26.685  25.637  1.00  0.00     0.134 A 
ATOM     72  C   UNL A   1      49.916  25.930  27.867  1.00  0.00     0.134 A 
ATOM     73  F   UNL A   1      48.687  27.199  24.699  1.00  0.00    -0.206 F 
ATOM     74  C   UNL A   1      50.789  26.315  25.260  1.00  0.00     0.040 A 
ATOM     75  C   UNL A   1      51.220  25.580  27.511  1.00  0.00     0.040 A 
ATOM     76  F   UNL A   1      49.532  25.723  29.135  1.00  0.00    -0.206 F 
ATOM     77  C   UNL A   1      51.655  25.762  26.200  1.00  0.00     0.006 A 
ENDBRANCH  49  70
BRANCH  61  78
ATOM     78  C   UNL A   1      45.974  32.264  29.323  1.00  0.00     0.057 A 
ATOM     79  C   UNL A   1      46.443  32.531  30.615  1.00  0.00     0.134 A 
ATOM     80  C   UNL A   1      46.061  33.291  28.374  1.00  0.00     0.134 A 
ATOM     81  F   UNL A   1      46.374  31.593  31.570  1.00  0.00    -0.206 F 
ATOM     82  C   UNL A   1      46.961  33.781  30.956  1.00  0.00     0.040 A 
ATOM     83  C   UNL A   1      46.601  34.536  28.697  1.00  0.00     0.040 A 
ATOM     84  F   UNL A   1      45.637  33.096  27.117  1.00  0.00    -0.206 F 
ATOM     85  C   UNL A   1      47.046  34.785  29.993  1.00  0.00     0.006 A 
ENDBRANCH  61  78
ENDBRANCH  35  36
ENDBRANCH  27  30
ENDBRANCH  25  26
ENDBRANCH  24  25
ENDBRANCH   1  24
TORSDOF 13
ENDMDL
