MODEL 1
REMARK VINA RESULT:     -13.4      0.000      0.000
REMARK SMILES Cc1ccc(NS(=O)(=O)c2cc(C(=O)Nc3ccccc3C(=O)NCCCNC(=O)c3ccc(-c4c5nc(c(-c6c(F)cccc6F)c6ccc([nH]6)c(-c6c(F)cccc6F)c6nc(c(-c7c(F)cccc7F)c7ccc4[nH]7)C=C6)C=C5)cc3)ccc2Br)cc1
REMARK SMILES IDX 22 1 23 2 24 3 21 5 16 6 17 7 18 8 20 9 19 10 15 11 13 12
REMARK SMILES IDX 14 13 12 15 10 16 11 17 87 18 86 19 88 20 85 21 7 22 8 23
REMARK SMILES IDX 9 24 6 25 5 27 1 28 2 29 3 30 90 31 4 32 89 33 25 34 26 35
REMARK SMILES IDX 27 36 28 37 29 38 30 40 31 41 32 42 84 43 33 44 83 45 34 46
REMARK SMILES IDX 35 47 36 48 77 49 37 50 82 51 76 52 78 53 38 54 81 55 75 56
REMARK SMILES IDX 74 57 39 59 65 60 48 61 64 62 49 63 52 64 63 65 79 66 50 67
REMARK SMILES IDX 51 68 62 70 80 71 53 72 40 73 41 74 46 75 42 76 43 77 45 78
REMARK SMILES IDX 47 79 44 80 66 81 67 82 72 83 68 84 69 85 71 86 73 87 70 88
REMARK SMILES IDX 54 89 55 90 60 91 56 92 57 93 59 94 61 95 58 96
REMARK H PARENT 24 4 15 14 6 26 28 39 78 58 52 69
REMARK Flexibility Score: inf
ROOT
ATOM      1  C   UNL A   1      31.875  28.431  27.429  1.00  0.00     0.253 C 
ATOM      2  O   UNL A   1      31.299  27.829  28.329  1.00  0.00    -0.269 OA
ATOM      3  N   UNL A   1      33.031  29.095  27.740  1.00  0.00    -0.352 N 
ATOM      4  H   UNL A   1      33.160  29.263  28.702  1.00  0.00     0.163 HD
ENDROOT
BRANCH   1   5
ATOM      5  C   UNL A   1      31.246  28.537  26.085  1.00  0.00     0.063 A 
ATOM      6  C   UNL A   1      30.752  26.994  25.245  1.00  0.00     0.054 A 
ATOM      7  C   UNL A   1      30.072  27.180  23.340  1.00  0.00     0.027 A 
ATOM      8  C   UNL A   1      29.872  28.822  22.630  1.00  0.00     0.002 A 
ATOM      9  C   UNL A   1      31.019  30.071  25.231  1.00  0.00     0.016 A 
ATOM     10  C   UNL A   1      30.342  30.201  23.591  1.00  0.00     0.001 A 
BRANCH   6  11
ATOM     11  N   UNL A   1      30.870  25.830  26.204  1.00  0.00    -0.321 N 
ATOM     12  C   UNL A   1      31.746  24.730  26.337  1.00  0.00     0.255 C 
ATOM     13  O   UNL A   1      31.587  23.971  27.297  1.00  0.00    -0.269 OA
ATOM     14  H   UNL A   1      30.172  25.841  26.898  1.00  0.00     0.170 HD
BRANCH  12  15
ATOM     15  C   UNL A   1      32.970  24.493  25.498  1.00  0.00     0.041 A 
ATOM     16  C   UNL A   1      34.863  22.986  25.223  1.00  0.00     0.102 A 
ATOM     17  C   UNL A   1      33.943  23.670  25.979  1.00  0.00     0.037 A 
ATOM     18  C   UNL A   1      35.128  23.472  23.962  1.00  0.00     0.038 A 
ATOM     19  C   UNL A   1      34.307  24.509  23.469  1.00  0.00     0.018 A 
ATOM     20  Br  UNL A   1      36.608  22.903  22.941  1.00  0.00    -0.049 Br
ATOM     21  C   UNL A   1      33.179  24.959  24.204  1.00  0.00     0.015 A 
BRANCH  16  22
ATOM     22  S   UNL A   1      35.362  21.415  25.909  1.00  0.00     0.263 S 
ATOM     23  O   UNL A   1      34.894  20.396  24.993  1.00  0.00    -0.201 OA
ATOM     24  O   UNL A   1      34.983  21.410  27.304  1.00  0.00    -0.201 OA
BRANCH  22  25
ATOM     25  N   UNL A   1      37.078  21.322  25.809  1.00  0.00    -0.280 N 
ATOM     26  H   UNL A   1      37.436  20.475  25.459  1.00  0.00     0.180 HD
BRANCH  25  27
ATOM     27  C   UNL A   1      38.127  22.375  26.188  1.00  0.00     0.049 A 
ATOM     28  C   UNL A   1      41.967  24.914  28.449  1.00  0.00     0.044 C 
ATOM     29  C   UNL A   1      40.903  24.226  27.641  1.00  0.00    -0.051 A 
ATOM     30  C   UNL A   1      41.042  22.494  27.251  1.00  0.00     0.005 A 
ATOM     31  C   UNL A   1      39.471  25.171  27.340  1.00  0.00     0.005 A 
ATOM     32  C   UNL A   1      39.717  21.555  26.533  1.00  0.00     0.027 A 
ATOM     33  C   UNL A   1      38.057  24.359  26.611  1.00  0.00     0.027 A 
ENDBRANCH  25  27
ENDBRANCH  22  25
ENDBRANCH  16  22
ENDBRANCH  12  15
ENDBRANCH   6  11
ENDBRANCH   1   5
BRANCH   3  34
ATOM     34  C   UNL A   1      34.090  29.590  26.899  1.00  0.00     0.118 C 
BRANCH  34  35
ATOM     35  C   UNL A   1      35.394  29.810  27.624  1.00  0.00     0.042 C 
BRANCH  35  36
ATOM     36  C   UNL A   1      35.811  31.258  27.572  1.00  0.00     0.118 C 
BRANCH  36  37
ATOM     37  N   UNL A   1      35.412  32.023  28.754  1.00  0.00    -0.352 N 
ATOM     38  C   UNL A   1      36.180  32.757  29.646  1.00  0.00     0.251 C 
ATOM     39  H   UNL A   1      34.446  32.014  28.947  1.00  0.00     0.163 HD
ATOM     40  O   UNL A   1      35.627  33.434  30.507  1.00  0.00    -0.269 OA
BRANCH  38  41
ATOM     41  C   UNL A   1      37.649  32.868  29.438  1.00  0.00     0.039 A 
ATOM     42  C   UNL A   1      38.379  31.753  29.864  1.00  0.00     0.014 A 
ATOM     43  C   UNL A   1      38.201  34.135  29.499  1.00  0.00     0.014 A 
ATOM     44  C   UNL A   1      39.412  31.954  30.761  1.00  0.00     0.010 A 
ATOM     45  C   UNL A   1      39.067  34.351  30.534  1.00  0.00     0.010 A 
ATOM     46  C   UNL A   1      39.616  33.255  31.202  1.00  0.00    -0.014 A 
BRANCH  46  47
ATOM     47  C   UNL A   1      40.577  33.633  32.208  1.00  0.00     0.031 A 
ATOM     48  C   UNL A   1      39.912  34.191  33.400  1.00  0.00     0.074 A 
ATOM     49  C   UNL A   1      41.879  33.325  32.000  1.00  0.00     0.049 A 
ATOM     50  N   UNL A   1      40.340  35.172  34.098  1.00  0.00    -0.248 NA
ATOM     51  C   UNL A   1      38.560  33.777  33.819  1.00  0.00     0.031 C 
ATOM     52  C   UNL A   1      43.026  33.387  32.898  1.00  0.00     0.029 A 
ATOM     53  N   UNL A   1      42.466  33.026  30.756  1.00  0.00    -0.354 N 
ATOM     54  C   UNL A   1      39.600  35.156  35.267  1.00  0.00     0.074 A 
ATOM     55  C   UNL A   1      38.384  34.477  34.939  1.00  0.00     0.031 C 
ATOM     56  C   UNL A   1      44.150  33.520  32.162  1.00  0.00     0.029 A 
ATOM     57  C   UNL A   1      43.751  33.617  30.768  1.00  0.00     0.049 A 
ATOM     58  H   UNL A   1      42.062  32.508  30.023  1.00  0.00     0.167 HD
ATOM     59  C   UNL A   1      40.241  35.473  36.426  1.00  0.00     0.037 A 
ATOM     60  C   UNL A   1      44.008  34.676  29.942  1.00  0.00     0.037 A 
ATOM     61  C   UNL A   1      41.632  35.791  36.096  1.00  0.00     0.049 A 
ATOM     62  C   UNL A   1      44.103  35.953  30.744  1.00  0.00     0.074 A 
ATOM     63  C   UNL A   1      42.779  35.014  36.105  1.00  0.00     0.029 A 
ATOM     64  N   UNL A   1      41.886  36.861  35.247  1.00  0.00    -0.354 N 
ATOM     65  N   UNL A   1      43.501  36.134  31.893  1.00  0.00    -0.248 NA
ATOM     66  C   UNL A   1      44.977  37.064  30.381  1.00  0.00     0.031 C 
ATOM     67  C   UNL A   1      43.705  35.605  35.199  1.00  0.00     0.029 A 
ATOM     68  C   UNL A   1      43.114  36.723  34.633  1.00  0.00     0.049 A 
ATOM     69  H   UNL A   1      41.271  37.617  35.103  1.00  0.00     0.167 HD
ATOM     70  C   UNL A   1      43.942  37.305  32.453  1.00  0.00     0.074 A 
ATOM     71  C   UNL A   1      44.861  37.848  31.466  1.00  0.00     0.031 C 
ATOM     72  C   UNL A   1      43.570  37.738  33.695  1.00  0.00     0.037 A 
BRANCH  59  73
ATOM     73  C   UNL A   1      39.771  35.204  37.838  1.00  0.00     0.057 A 
ATOM     74  C   UNL A   1      39.666  33.870  38.288  1.00  0.00     0.134 A 
ATOM     75  C   UNL A   1      39.403  36.161  38.802  1.00  0.00     0.134 A 
ATOM     76  F   UNL A   1      40.024  32.836  37.514  1.00  0.00    -0.206 F 
ATOM     77  C   UNL A   1      39.199  33.519  39.560  1.00  0.00     0.040 A 
ATOM     78  C   UNL A   1      38.922  35.821  40.078  1.00  0.00     0.040 A 
ATOM     79  F   UNL A   1      39.520  37.475  38.593  1.00  0.00    -0.206 F 
ATOM     80  C   UNL A   1      38.816  34.496  40.462  1.00  0.00     0.006 A 
ENDBRANCH  59  73
BRANCH  60  81
ATOM     81  C   UNL A   1      43.372  34.473  28.605  1.00  0.00     0.057 A 
ATOM     82  C   UNL A   1      42.321  35.355  28.274  1.00  0.00     0.134 A 
ATOM     83  C   UNL A   1      44.080  33.911  27.541  1.00  0.00     0.134 A 
ATOM     84  F   UNL A   1      41.568  35.897  29.244  1.00  0.00    -0.206 F 
ATOM     85  C   UNL A   1      42.139  35.834  26.973  1.00  0.00     0.040 A 
ATOM     86  C   UNL A   1      43.884  34.369  26.230  1.00  0.00     0.040 A 
ATOM     87  F   UNL A   1      45.074  33.042  27.766  1.00  0.00    -0.206 F 
ATOM     88  C   UNL A   1      42.966  35.380  25.955  1.00  0.00     0.006 A 
ENDBRANCH  60  81
BRANCH  72  89
ATOM     89  C   UNL A   1      43.693  39.164  34.184  1.00  0.00     0.057 A 
ATOM     90  C   UNL A   1      44.390  39.534  35.343  1.00  0.00     0.134 A 
ATOM     91  C   UNL A   1      43.226  40.251  33.406  1.00  0.00     0.134 A 
ATOM     92  F   UNL A   1      45.056  38.641  36.086  1.00  0.00    -0.206 F 
ATOM     93  C   UNL A   1      44.492  40.862  35.766  1.00  0.00     0.040 A 
ATOM     94  C   UNL A   1      43.416  41.584  33.766  1.00  0.00     0.040 A 
ATOM     95  F   UNL A   1      42.587  40.082  32.239  1.00  0.00    -0.206 F 
ATOM     96  C   UNL A   1      44.012  41.893  34.974  1.00  0.00     0.006 A 
ENDBRANCH  72  89
ENDBRANCH  46  47
ENDBRANCH  38  41
ENDBRANCH  36  37
ENDBRANCH  35  36
ENDBRANCH  34  35
ENDBRANCH   3  34
TORSDOF 15
ENDMDL
MODEL 2
REMARK VINA RESULT:     -13.3      4.184      8.915
REMARK SMILES Cc1ccc(NS(=O)(=O)c2cc(C(=O)Nc3ccccc3C(=O)NCCCNC(=O)c3ccc(-c4c5nc(c(-c6c(F)cccc6F)c6ccc([nH]6)c(-c6c(F)cccc6F)c6nc(c(-c7c(F)cccc7F)c7ccc4[nH]7)C=C6)C=C5)cc3)ccc2Br)cc1
REMARK SMILES IDX 22 1 23 2 24 3 21 5 16 6 17 7 18 8 20 9 19 10 15 11 13 12
REMARK SMILES IDX 14 13 12 15 10 16 11 17 87 18 86 19 88 20 85 21 7 22 8 23
REMARK SMILES IDX 9 24 6 25 5 27 1 28 2 29 3 30 90 31 4 32 89 33 25 34 26 35
REMARK SMILES IDX 27 36 28 37 29 38 30 40 31 41 32 42 84 43 33 44 83 45 34 46
REMARK SMILES IDX 35 47 36 48 77 49 37 50 82 51 76 52 78 53 38 54 81 55 75 56
REMARK SMILES IDX 74 57 39 59 65 60 48 61 64 62 49 63 52 64 63 65 79 66 50 67
REMARK SMILES IDX 51 68 62 70 80 71 53 72 40 73 41 74 46 75 42 76 43 77 45 78
REMARK SMILES IDX 47 79 44 80 66 81 67 82 72 83 68 84 69 85 71 86 73 87 70 88
REMARK SMILES IDX 54 89 55 90 60 91 56 92 57 93 59 94 61 95 58 96
REMARK H PARENT 24 4 15 14 6 26 28 39 78 58 52 69
REMARK Flexibility Score: inf
ROOT
ATOM      1  C   UNL A   1      31.205  27.595  25.256  1.00  0.00     0.253 C 
ATOM      2  O   UNL A   1      31.400  26.385  25.300  1.00  0.00    -0.269 OA
ATOM      3  N   UNL A   1      31.691  28.360  26.282  1.00  0.00    -0.352 N 
ATOM      4  H   UNL A   1      31.915  27.856  27.098  1.00  0.00     0.163 HD
ENDROOT
BRANCH   1   5
ATOM      5  C   UNL A   1      30.348  28.170  24.185  1.00  0.00     0.063 A 
ATOM      6  C   UNL A   1      31.120  29.309  22.988  1.00  0.00     0.054 A 
ATOM      7  C   UNL A   1      29.871  30.210  21.662  1.00  0.00     0.027 A 
ATOM      8  C   UNL A   1      28.128  29.761  21.645  1.00  0.00     0.002 A 
ATOM      9  C   UNL A   1      28.609  27.863  24.055  1.00  0.00     0.016 A 
ATOM     10  C   UNL A   1      27.560  28.609  22.827  1.00  0.00     0.001 A 
BRANCH   6  11
ATOM     11  N   UNL A   1      32.622  29.298  23.167  1.00  0.00    -0.321 N 
ATOM     12  C   UNL A   1      33.626  28.306  23.119  1.00  0.00     0.255 C 
ATOM     13  O   UNL A   1      34.800  28.659  23.261  1.00  0.00    -0.269 OA
ATOM     14  H   UNL A   1      32.985  30.192  23.362  1.00  0.00     0.170 HD
BRANCH  12  15
ATOM     15  C   UNL A   1      33.406  26.869  22.742  1.00  0.00     0.041 A 
ATOM     16  C   UNL A   1      33.576  24.596  23.600  1.00  0.00     0.102 A 
ATOM     17  C   UNL A   1      34.000  25.898  23.489  1.00  0.00     0.037 A 
ATOM     18  C   UNL A   1      32.786  24.102  22.585  1.00  0.00     0.038 A 
ATOM     19  C   UNL A   1      32.315  25.012  21.615  1.00  0.00     0.018 A 
ATOM     20  Br  UNL A   1      32.428  22.262  22.375  1.00  0.00    -0.049 Br
ATOM     21  C   UNL A   1      32.556  26.406  21.741  1.00  0.00     0.015 A 
BRANCH  16  22
ATOM     22  S   UNL A   1      33.902  23.846  25.186  1.00  0.00     0.263 S 
ATOM     23  O   UNL A   1      32.627  23.381  25.694  1.00  0.00    -0.201 OA
ATOM     24  O   UNL A   1      34.726  24.763  25.940  1.00  0.00    -0.201 OA
BRANCH  22  25
ATOM     25  N   UNL A   1      34.800  22.404  24.909  1.00  0.00    -0.280 N 
ATOM     26  H   UNL A   1      34.283  21.643  24.562  1.00  0.00     0.180 HD
BRANCH  25  27
ATOM     27  C   UNL A   1      36.296  22.140  25.127  1.00  0.00     0.049 A 
ATOM     28  C   UNL A   1      40.789  20.078  26.492  1.00  0.00     0.044 C 
ATOM     29  C   UNL A   1      39.546  20.725  25.948  1.00  0.00    -0.051 A 
ATOM     30  C   UNL A   1      38.256  19.735  25.221  1.00  0.00     0.005 A 
ATOM     31  C   UNL A   1      39.379  22.424  26.293  1.00  0.00     0.005 A 
ATOM     32  C   UNL A   1      36.660  20.386  24.796  1.00  0.00     0.027 A 
ATOM     33  C   UNL A   1      37.827  23.219  25.909  1.00  0.00     0.027 A 
ENDBRANCH  25  27
ENDBRANCH  22  25
ENDBRANCH  16  22
ENDBRANCH  12  15
ENDBRANCH   6  11
ENDBRANCH   1   5
BRANCH   3  34
ATOM     34  C   UNL A   1      31.928  29.778  26.370  1.00  0.00     0.118 C 
BRANCH  34  35
ATOM     35  C   UNL A   1      32.822  30.178  27.518  1.00  0.00     0.042 C 
BRANCH  35  36
ATOM     36  C   UNL A   1      33.793  31.255  27.107  1.00  0.00     0.118 C 
BRANCH  36  37
ATOM     37  N   UNL A   1      34.455  31.907  28.238  1.00  0.00    -0.352 N 
ATOM     38  C   UNL A   1      35.478  31.454  29.057  1.00  0.00     0.251 C 
ATOM     39  H   UNL A   1      34.120  32.808  28.450  1.00  0.00     0.163 HD
ATOM     40  O   UNL A   1      35.979  32.216  29.877  1.00  0.00    -0.269 OA
BRANCH  38  41
ATOM     41  C   UNL A   1      36.085  30.118  28.812  1.00  0.00     0.039 A 
ATOM     42  C   UNL A   1      36.439  29.422  29.974  1.00  0.00     0.014 A 
ATOM     43  C   UNL A   1      36.815  29.960  27.649  1.00  0.00     0.014 A 
ATOM     44  C   UNL A   1      37.742  28.979  30.097  1.00  0.00     0.010 A 
ATOM     45  C   UNL A   1      38.151  29.726  27.819  1.00  0.00     0.010 A 
ATOM     46  C   UNL A   1      38.614  29.300  29.065  1.00  0.00    -0.014 A 
BRANCH  46  47
ATOM     47  C   UNL A   1      40.026  29.009  29.071  1.00  0.00     0.031 A 
ATOM     48  C   UNL A   1      40.285  27.610  28.681  1.00  0.00     0.074 A 
ATOM     49  C   UNL A   1      40.891  30.027  29.291  1.00  0.00     0.049 A 
ATOM     50  N   UNL A   1      41.178  26.851  29.190  1.00  0.00    -0.248 NA
ATOM     51  C   UNL A   1      39.403  26.868  27.761  1.00  0.00     0.031 C 
ATOM     52  C   UNL A   1      42.342  30.088  29.154  1.00  0.00     0.029 A 
ATOM     53  N   UNL A   1      40.576  31.260  29.893  1.00  0.00    -0.354 N 
ATOM     54  C   UNL A   1      41.281  25.765  28.339  1.00  0.00     0.074 A 
ATOM     55  C   UNL A   1      40.027  25.696  27.655  1.00  0.00     0.031 C 
ATOM     56  C   UNL A   1      42.815  31.059  29.965  1.00  0.00     0.029 A 
ATOM     57  C   UNL A   1      41.686  31.605  30.699  1.00  0.00     0.049 A 
ATOM     58  H   UNL A   1      39.747  31.779  29.776  1.00  0.00     0.167 HD
ATOM     59  C   UNL A   1      42.522  25.245  28.126  1.00  0.00     0.037 A 
ATOM     60  C   UNL A   1      41.550  31.605  32.059  1.00  0.00     0.037 A 
ATOM     61  C   UNL A   1      43.474  26.013  28.932  1.00  0.00     0.049 A 
ATOM     62  C   UNL A   1      42.282  30.426  32.657  1.00  0.00     0.074 A 
ATOM     63  C   UNL A   1      44.278  27.096  28.619  1.00  0.00     0.029 A 
ATOM     64  N   UNL A   1      43.324  26.017  30.313  1.00  0.00    -0.354 N 
ATOM     65  N   UNL A   1      42.513  29.311  32.009  1.00  0.00    -0.248 NA
ATOM     66  C   UNL A   1      42.917  30.459  33.970  1.00  0.00     0.031 C 
ATOM     67  C   UNL A   1      44.559  27.786  29.832  1.00  0.00     0.029 A 
ATOM     68  C   UNL A   1      43.913  27.134  30.870  1.00  0.00     0.049 A 
ATOM     69  H   UNL A   1      42.859  25.317  30.826  1.00  0.00     0.167 HD
ATOM     70  C   UNL A   1      43.359  28.528  32.748  1.00  0.00     0.074 A 
ATOM     71  C   UNL A   1      43.580  29.290  33.965  1.00  0.00     0.031 C 
ATOM     72  C   UNL A   1      43.863  27.334  32.311  1.00  0.00     0.037 A 
BRANCH  59  73
ATOM     73  C   UNL A   1      42.948  24.314  27.013  1.00  0.00     0.057 A 
ATOM     74  C   UNL A   1      43.239  22.966  27.316  1.00  0.00     0.134 A 
ATOM     75  C   UNL A   1      43.103  24.639  25.653  1.00  0.00     0.134 A 
ATOM     76  F   UNL A   1      43.096  22.475  28.554  1.00  0.00    -0.206 F 
ATOM     77  C   UNL A   1      43.684  22.040  26.364  1.00  0.00     0.040 A 
ATOM     78  C   UNL A   1      43.560  23.722  24.690  1.00  0.00     0.040 A 
ATOM     79  F   UNL A   1      42.790  25.840  25.160  1.00  0.00    -0.206 F 
ATOM     80  C   UNL A   1      43.854  22.417  25.044  1.00  0.00     0.006 A 
ENDBRANCH  59  73
BRANCH  60  81
ATOM     81  C   UNL A   1      40.225  32.166  32.461  1.00  0.00     0.057 A 
ATOM     82  C   UNL A   1      39.337  31.273  33.099  1.00  0.00     0.134 A 
ATOM     83  C   UNL A   1      40.066  33.523  32.749  1.00  0.00     0.134 A 
ATOM     84  F   UNL A   1      39.401  29.958  32.836  1.00  0.00    -0.206 F 
ATOM     85  C   UNL A   1      38.500  31.681  34.142  1.00  0.00     0.040 A 
ATOM     86  C   UNL A   1      39.208  33.941  33.776  1.00  0.00     0.040 A 
ATOM     87  F   UNL A   1      40.848  34.440  32.164  1.00  0.00    -0.206 F 
ATOM     88  C   UNL A   1      38.479  33.017  34.521  1.00  0.00     0.006 A 
ENDBRANCH  60  81
BRANCH  72  89
ATOM     89  C   UNL A   1      44.453  26.267  33.205  1.00  0.00     0.057 A 
ATOM     90  C   UNL A   1      43.750  25.642  34.244  1.00  0.00     0.134 A 
ATOM     91  C   UNL A   1      45.733  25.718  32.947  1.00  0.00     0.134 A 
ATOM     92  F   UNL A   1      42.462  25.912  34.491  1.00  0.00    -0.206 F 
ATOM     93  C   UNL A   1      44.321  24.654  35.050  1.00  0.00     0.040 A 
ATOM     94  C   UNL A   1      46.269  24.658  33.677  1.00  0.00     0.040 A 
ATOM     95  F   UNL A   1      46.520  26.155  31.954  1.00  0.00    -0.206 F 
ATOM     96  C   UNL A   1      45.581  24.152  34.764  1.00  0.00     0.006 A 
ENDBRANCH  72  89
ENDBRANCH  46  47
ENDBRANCH  38  41
ENDBRANCH  36  37
ENDBRANCH  35  36
ENDBRANCH  34  35
ENDBRANCH   3  34
TORSDOF 15
ENDMDL
MODEL 3
REMARK VINA RESULT:     -13.3      5.305     11.698
REMARK SMILES Cc1ccc(NS(=O)(=O)c2cc(C(=O)Nc3ccccc3C(=O)NCCCNC(=O)c3ccc(-c4c5nc(c(-c6c(F)cccc6F)c6ccc([nH]6)c(-c6c(F)cccc6F)c6nc(c(-c7c(F)cccc7F)c7ccc4[nH]7)C=C6)C=C5)cc3)ccc2Br)cc1
REMARK SMILES IDX 22 1 23 2 24 3 21 5 16 6 17 7 18 8 20 9 19 10 15 11 13 12
REMARK SMILES IDX 14 13 12 15 10 16 11 17 87 18 86 19 88 20 85 21 7 22 8 23
REMARK SMILES IDX 9 24 6 25 5 27 1 28 2 29 3 30 90 31 4 32 89 33 25 34 26 35
REMARK SMILES IDX 27 36 28 37 29 38 30 40 31 41 32 42 84 43 33 44 83 45 34 46
REMARK SMILES IDX 35 47 36 48 77 49 37 50 82 51 76 52 78 53 38 54 81 55 75 56
REMARK SMILES IDX 74 57 39 59 65 60 48 61 64 62 49 63 52 64 63 65 79 66 50 67
REMARK SMILES IDX 51 68 62 70 80 71 53 72 40 73 41 74 46 75 42 76 43 77 45 78
REMARK SMILES IDX 47 79 44 80 66 81 67 82 72 83 68 84 69 85 71 86 73 87 70 88
REMARK SMILES IDX 54 89 55 90 60 91 56 92 57 93 59 94 61 95 58 96
REMARK H PARENT 24 4 15 14 6 26 28 39 78 58 52 69
REMARK Flexibility Score: inf
ROOT
ATOM      1  C   UNL A   1      40.303  30.074  34.113  1.00  0.00     0.253 C 
ATOM      2  O   UNL A   1      40.073  28.925  34.476  1.00  0.00    -0.269 OA
ATOM      3  N   UNL A   1      41.176  30.255  33.074  1.00  0.00    -0.352 N 
ATOM      4  H   UNL A   1      41.750  29.479  32.882  1.00  0.00     0.163 HD
ENDROOT
BRANCH   1   5
ATOM      5  C   UNL A   1      39.749  31.220  34.882  1.00  0.00     0.063 A 
ATOM      6  C   UNL A   1      38.080  31.816  34.449  1.00  0.00     0.054 A 
ATOM      7  C   UNL A   1      37.445  33.496  35.399  1.00  0.00     0.027 A 
ATOM      8  C   UNL A   1      38.475  34.229  36.681  1.00  0.00     0.002 A 
ATOM      9  C   UNL A   1      40.649  32.079  36.142  1.00  0.00     0.016 A 
ATOM     10  C   UNL A   1      40.027  33.500  37.011  1.00  0.00     0.001 A 
BRANCH   6  11
ATOM     11  N   UNL A   1      37.426  30.851  33.484  1.00  0.00    -0.321 N 
ATOM     12  C   UNL A   1      36.433  30.956  32.486  1.00  0.00     0.255 C 
ATOM     13  O   UNL A   1      36.164  29.950  31.824  1.00  0.00    -0.269 OA
ATOM     14  H   UNL A   1      37.776  29.935  33.574  1.00  0.00     0.170 HD
BRANCH  12  15
ATOM     15  C   UNL A   1      35.784  32.236  32.042  1.00  0.00     0.041 A 
ATOM     16  C   UNL A   1      34.905  33.380  30.080  1.00  0.00     0.102 A 
ATOM     17  C   UNL A   1      35.795  32.550  30.717  1.00  0.00     0.037 A 
ATOM     18  C   UNL A   1      34.233  34.298  30.857  1.00  0.00     0.038 A 
ATOM     19  C   UNL A   1      34.361  34.194  32.258  1.00  0.00     0.018 A 
ATOM     20  Br  UNL A   1      33.274  35.747  30.122  1.00  0.00    -0.049 Br
ATOM     21  C   UNL A   1      35.067  33.115  32.850  1.00  0.00     0.015 A 
BRANCH  16  22
ATOM     22  S   UNL A   1      34.570  32.940  28.383  1.00  0.00     0.263 S 
ATOM     23  O   UNL A   1      35.775  33.231  27.635  1.00  0.00    -0.201 OA
ATOM     24  O   UNL A   1      33.298  33.526  28.025  1.00  0.00    -0.201 OA
BRANCH  22  25
ATOM     25  N   UNL A   1      34.424  31.226  28.305  1.00  0.00    -0.280 N 
ATOM     26  H   UNL A   1      34.979  30.725  28.944  1.00  0.00     0.180 HD
BRANCH  25  27
ATOM     27  C   UNL A   1      33.550  30.372  27.379  1.00  0.00     0.049 A 
ATOM     28  C   UNL A   1      31.900  27.190  23.710  1.00  0.00     0.044 C 
ATOM     29  C   UNL A   1      32.270  28.052  24.885  1.00  0.00    -0.051 A 
ATOM     30  C   UNL A   1      33.685  27.651  25.890  1.00  0.00     0.005 A 
ATOM     31  C   UNL A   1      31.377  29.540  25.026  1.00  0.00     0.005 A 
ATOM     32  C   UNL A   1      34.337  28.749  27.124  1.00  0.00     0.027 A 
ATOM     33  C   UNL A   1      31.914  30.740  26.235  1.00  0.00     0.027 A 
ENDBRANCH  25  27
ENDBRANCH  22  25
ENDBRANCH  16  22
ENDBRANCH  12  15
ENDBRANCH   6  11
ENDBRANCH   1   5
BRANCH   3  34
ATOM     34  C   UNL A   1      41.395  31.390  32.213  1.00  0.00     0.118 C 
BRANCH  34  35
ATOM     35  C   UNL A   1      40.226  31.711  31.316  1.00  0.00     0.042 C 
BRANCH  35  36
ATOM     36  C   UNL A   1      39.877  30.541  30.432  1.00  0.00     0.118 C 
BRANCH  36  37
ATOM     37  N   UNL A   1      38.753  30.804  29.533  1.00  0.00    -0.352 N 
ATOM     38  C   UNL A   1      38.315  30.102  28.420  1.00  0.00     0.251 C 
ATOM     39  H   UNL A   1      38.225  31.606  29.752  1.00  0.00     0.163 HD
ATOM     40  O   UNL A   1      37.264  30.425  27.874  1.00  0.00    -0.269 OA
BRANCH  38  41
ATOM     41  C   UNL A   1      39.015  28.855  28.010  1.00  0.00     0.039 A 
ATOM     42  C   UNL A   1      39.201  27.930  29.043  1.00  0.00     0.014 A 
ATOM     43  C   UNL A   1      39.936  28.956  26.983  1.00  0.00     0.014 A 
ATOM     44  C   UNL A   1      40.485  27.483  29.295  1.00  0.00     0.010 A 
ATOM     45  C   UNL A   1      41.234  28.703  27.329  1.00  0.00     0.010 A 
ATOM     46  C   UNL A   1      41.501  28.025  28.520  1.00  0.00    -0.014 A 
BRANCH  46  47
ATOM     47  C   UNL A   1      42.904  27.752  28.708  1.00  0.00     0.031 A 
ATOM     48  C   UNL A   1      43.698  28.995  28.690  1.00  0.00     0.074 A 
ATOM     49  C   UNL A   1      43.279  26.483  28.994  1.00  0.00     0.049 A 
ATOM     50  N   UNL A   1      44.854  29.130  28.161  1.00  0.00    -0.248 NA
ATOM     51  C   UNL A   1      43.152  30.290  29.136  1.00  0.00     0.031 C 
ATOM     52  C   UNL A   1      44.562  25.946  29.432  1.00  0.00     0.029 A 
ATOM     53  N   UNL A   1      42.515  25.325  28.753  1.00  0.00    -0.354 N 
ATOM     54  C   UNL A   1      45.350  30.331  28.636  1.00  0.00     0.074 A 
ATOM     55  C   UNL A   1      44.200  31.102  28.998  1.00  0.00     0.031 C 
ATOM     56  C   UNL A   1      44.635  24.646  29.076  1.00  0.00     0.029 A 
ATOM     57  C   UNL A   1      43.426  24.327  28.335  1.00  0.00     0.049 A 
ATOM     58  H   UNL A   1      41.541  25.229  28.856  1.00  0.00     0.167 HD
ATOM     59  C   UNL A   1      46.679  30.396  28.923  1.00  0.00     0.037 A 
ATOM     60  C   UNL A   1      43.382  23.880  27.044  1.00  0.00     0.037 A 
ATOM     61  C   UNL A   1      47.271  29.095  28.604  1.00  0.00     0.049 A 
ATOM     62  C   UNL A   1      44.572  24.401  26.270  1.00  0.00     0.074 A 
ATOM     63  C   UNL A   1      47.533  27.987  29.393  1.00  0.00     0.029 A 
ATOM     64  N   UNL A   1      47.214  28.642  27.292  1.00  0.00    -0.354 N 
ATOM     65  N   UNL A   1      45.206  25.506  26.573  1.00  0.00    -0.248 NA
ATOM     66  C   UNL A   1      45.211  23.659  25.189  1.00  0.00     0.031 C 
ATOM     67  C   UNL A   1      47.571  26.850  28.536  1.00  0.00     0.029 A 
ATOM     68  C   UNL A   1      47.317  27.267  27.240  1.00  0.00     0.049 A 
ATOM     69  H   UNL A   1      47.112  29.225  26.504  1.00  0.00     0.167 HD
ATOM     70  C   UNL A   1      46.344  25.594  25.815  1.00  0.00     0.074 A 
ATOM     71  C   UNL A   1      46.298  24.416  24.965  1.00  0.00     0.031 C 
ATOM     72  C   UNL A   1      47.272  26.588  25.953  1.00  0.00     0.037 A 
BRANCH  59  73
ATOM     73  C   UNL A   1      47.389  31.442  29.754  1.00  0.00     0.057 A 
ATOM     74  C   UNL A   1      47.545  31.229  31.141  1.00  0.00     0.134 A 
ATOM     75  C   UNL A   1      47.932  32.657  29.299  1.00  0.00     0.134 A 
ATOM     76  F   UNL A   1      47.130  30.101  31.732  1.00  0.00    -0.206 F 
ATOM     77  C   UNL A   1      48.146  32.157  32.001  1.00  0.00     0.040 A 
ATOM     78  C   UNL A   1      48.528  33.602  30.153  1.00  0.00     0.040 A 
ATOM     79  F   UNL A   1      47.960  32.994  28.007  1.00  0.00    -0.206 F 
ATOM     80  C   UNL A   1      48.635  33.355  31.510  1.00  0.00     0.006 A 
ENDBRANCH  59  73
BRANCH  60  81
ATOM     81  C   UNL A   1      41.969  23.742  26.577  1.00  0.00     0.057 A 
ATOM     82  C   UNL A   1      41.246  22.645  27.093  1.00  0.00     0.134 A 
ATOM     83  C   UNL A   1      41.224  24.853  26.174  1.00  0.00     0.134 A 
ATOM     84  F   UNL A   1      41.893  21.526  27.458  1.00  0.00    -0.206 F 
ATOM     85  C   UNL A   1      39.888  22.737  27.411  1.00  0.00     0.040 A 
ATOM     86  C   UNL A   1      39.856  24.940  26.467  1.00  0.00     0.040 A 
ATOM     87  F   UNL A   1      41.829  25.925  25.647  1.00  0.00    -0.206 F 
ATOM     88  C   UNL A   1      39.202  23.915  27.149  1.00  0.00     0.006 A 
ENDBRANCH  60  81
BRANCH  72  89
ATOM     89  C   UNL A   1      48.303  26.957  24.910  1.00  0.00     0.057 A 
ATOM     90  C   UNL A   1      49.661  26.624  25.004  1.00  0.00     0.134 A 
ATOM     91  C   UNL A   1      47.926  27.547  23.680  1.00  0.00     0.134 A 
ATOM     92  F   UNL A   1      50.145  25.893  26.017  1.00  0.00    -0.206 F 
ATOM     93  C   UNL A   1      50.590  26.973  24.021  1.00  0.00     0.040 A 
ATOM     94  C   UNL A   1      48.827  27.802  22.648  1.00  0.00     0.040 A 
ATOM     95  F   UNL A   1      46.658  27.878  23.396  1.00  0.00    -0.206 F 
ATOM     96  C   UNL A   1      50.175  27.557  22.834  1.00  0.00     0.006 A 
ENDBRANCH  72  89
ENDBRANCH  46  47
ENDBRANCH  38  41
ENDBRANCH  36  37
ENDBRANCH  35  36
ENDBRANCH  34  35
ENDBRANCH   3  34
TORSDOF 15
ENDMDL
