MODEL 1
REMARK VINA RESULT:     -10.7      0.000      0.000
REMARK SMILES CCC1(CC)C[NH+]([C@H](CCS(C)(=O)=O)C(=O)NCCCNC(=O)c2ccc(-c3c4nc(c(-c5c(F)cccc5F)c5ccc([nH]5)c(-c5c(F)cccc5F)c5nc(c(-c6c(F)cccc6F)c6ccc3[nH]6)C=C5)C=C4)cc2)C1
REMARK SMILES IDX 18 1 17 2 15 3 16 4 8 6 7 7 3 8 6 9 78 10 2 12 1 13 4 14
REMARK SMILES IDX 5 15 9 16 10 17 11 18 12 19 13 20 14 21 19 22 20 23 21 24
REMARK SMILES IDX 22 25 23 27 24 28 25 29 77 30 26 31 76 32 27 33 28 34 29 35
REMARK SMILES IDX 70 36 30 37 75 38 69 39 71 40 31 41 74 42 68 43 67 44 32 46
REMARK SMILES IDX 58 47 41 48 57 49 42 50 45 51 56 52 72 53 43 54 44 55 55 57
REMARK SMILES IDX 73 58 46 59 33 60 34 61 39 62 35 63 36 64 38 65 40 66 37 67
REMARK SMILES IDX 59 68 60 69 65 70 61 71 62 72 64 73 66 74 63 75 47 76 48 77
REMARK SMILES IDX 53 78 49 79 50 80 52 81 54 82 51 83
REMARK H PARENT 17 5 7 11 21 26 71 45 45 56
REMARK Flexibility Score: inf
ROOT
ATOM      1  C   UNL A   1      31.589  30.327  26.131  1.00  0.00     0.118 C 
ENDROOT
BRANCH   1   2
ATOM      2  N   UNL A   1      32.450  30.080  24.996  1.00  0.00    -0.351 N 
ATOM      3  C   UNL A   1      32.365  29.088  24.054  1.00  0.00     0.278 C 
ATOM      4  O   UNL A   1      33.071  29.223  23.052  1.00  0.00    -0.268 OA
ATOM      5  H   UNL A   1      33.198  30.711  24.884  1.00  0.00     0.163 HD
BRANCH   3   6
ATOM      6  C   UNL A   1      31.481  27.828  24.273  1.00  0.00     0.275 C 
BRANCH   6   7
ATOM      7  N   UNL A   1      32.249  26.731  24.910  1.00  0.00    -0.323 N 
ATOM      8  C   UNL A   1      33.473  25.038  24.495  1.00  0.00     0.068 C 
ATOM      9  C   UNL A   1      33.663  26.570  24.601  1.00  0.00     0.275 C 
ATOM     10  C   UNL A   1      31.941  25.373  24.452  1.00  0.00     0.275 C 
ATOM     11  H   UNL A   1      32.009  27.026  25.856  1.00  0.00     0.348 HD
BRANCH   8  12
ATOM     12  C   UNL A   1      34.020  24.489  23.158  1.00  0.00     0.015 C 
ATOM     13  C   UNL A   1      33.650  23.029  22.918  1.00  0.00     0.005 C 
ENDBRANCH   8  12
BRANCH   8  14
ATOM     14  C   UNL A   1      33.977  24.317  25.754  1.00  0.00     0.015 C 
ATOM     15  C   UNL A   1      35.470  24.042  25.704  1.00  0.00     0.005 C 
ENDBRANCH   8  14
ENDBRANCH   6   7
BRANCH   6  16
ATOM     16  C   UNL A   1      30.560  27.590  23.045  1.00  0.00     0.092 C 
BRANCH  16  17
ATOM     17  C   UNL A   1      29.183  28.247  23.128  1.00  0.00     0.143 C 
BRANCH  17  18
ATOM     18  S   UNL A   1      28.996  29.808  22.265  1.00  0.00     0.147 S 
ATOM     19  C   UNL A   1      29.149  31.078  23.504  1.00  0.00     0.158 C 
ATOM     20  O   UNL A   1      30.142  29.940  21.387  1.00  0.00    -0.229 OA
ATOM     21  O   UNL A   1      27.653  29.879  21.727  1.00  0.00    -0.229 OA
ENDBRANCH  17  18
ENDBRANCH  16  17
ENDBRANCH   6  16
ENDBRANCH   3   6
ENDBRANCH   1   2
BRANCH   1  22
ATOM     22  C   UNL A   1      31.422  31.774  26.515  1.00  0.00     0.042 C 
BRANCH  22  23
ATOM     23  C   UNL A   1      32.691  32.399  27.049  1.00  0.00     0.118 C 
BRANCH  23  24
ATOM     24  N   UNL A   1      32.515  33.787  27.468  1.00  0.00    -0.352 N 
ATOM     25  C   UNL A   1      33.128  34.518  28.459  1.00  0.00     0.251 C 
ATOM     26  H   UNL A   1      31.841  34.286  26.952  1.00  0.00     0.163 HD
ATOM     27  O   UNL A   1      32.698  35.628  28.753  1.00  0.00    -0.269 OA
BRANCH  25  28
ATOM     28  C   UNL A   1      34.276  33.951  29.197  1.00  0.00     0.039 A 
ATOM     29  C   UNL A   1      34.047  33.139  30.310  1.00  0.00     0.014 A 
ATOM     30  C   UNL A   1      35.580  34.199  28.776  1.00  0.00     0.014 A 
ATOM     31  C   UNL A   1      35.123  32.496  30.926  1.00  0.00     0.010 A 
ATOM     32  C   UNL A   1      36.623  33.442  29.283  1.00  0.00     0.010 A 
ATOM     33  C   UNL A   1      36.413  32.596  30.380  1.00  0.00    -0.014 A 
BRANCH  33  34
ATOM     34  C   UNL A   1      37.567  31.853  30.943  1.00  0.00     0.031 A 
ATOM     35  C   UNL A   1      38.061  32.177  32.328  1.00  0.00     0.074 A 
ATOM     36  C   UNL A   1      38.222  30.956  30.182  1.00  0.00     0.049 A 
ATOM     37  N   UNL A   1      39.104  31.708  32.965  1.00  0.00    -0.248 NA
ATOM     38  C   UNL A   1      37.310  33.195  33.080  1.00  0.00     0.031 C 
ATOM     39  C   UNL A   1      37.880  30.599  28.803  1.00  0.00     0.029 A 
ATOM     40  N   UNL A   1      39.321  30.182  30.460  1.00  0.00    -0.354 N 
ATOM     41  C   UNL A   1      39.144  32.392  34.174  1.00  0.00     0.074 A 
ATOM     42  C   UNL A   1      38.072  33.361  34.148  1.00  0.00     0.031 C 
ATOM     43  C   UNL A   1      38.721  29.646  28.374  1.00  0.00     0.029 A 
ATOM     44  C   UNL A   1      39.691  29.359  29.425  1.00  0.00     0.049 A 
ATOM     45  H   UNL A   1      39.799  30.215  31.320  1.00  0.00     0.167 HD
ATOM     46  C   UNL A   1      39.975  32.208  35.227  1.00  0.00     0.037 A 
ATOM     47  C   UNL A   1      40.700  28.473  29.335  1.00  0.00     0.037 A 
ATOM     48  C   UNL A   1      41.020  31.220  35.257  1.00  0.00     0.049 A 
ATOM     49  C   UNL A   1      41.618  28.288  30.511  1.00  0.00     0.074 A 
ATOM     50  C   UNL A   1      41.871  30.898  36.297  1.00  0.00     0.029 A 
ATOM     51  N   UNL A   1      41.356  30.397  34.192  1.00  0.00    -0.354 N 
ATOM     52  N   UNL A   1      41.595  28.884  31.679  1.00  0.00    -0.248 NA
ATOM     53  C   UNL A   1      42.697  27.305  30.359  1.00  0.00     0.031 C 
ATOM     54  C   UNL A   1      42.764  29.921  35.842  1.00  0.00     0.029 A 
ATOM     55  C   UNL A   1      42.427  29.590  34.539  1.00  0.00     0.049 A 
ATOM     56  H   UNL A   1      40.902  30.388  33.318  1.00  0.00     0.167 HD
ATOM     57  C   UNL A   1      42.636  28.328  32.411  1.00  0.00     0.074 A 
ATOM     58  C   UNL A   1      43.260  27.338  31.558  1.00  0.00     0.031 C 
ATOM     59  C   UNL A   1      43.036  28.608  33.676  1.00  0.00     0.037 A 
BRANCH  46  60
ATOM     60  C   UNL A   1      39.783  33.101  36.421  1.00  0.00     0.057 A 
ATOM     61  C   UNL A   1      38.875  32.791  37.444  1.00  0.00     0.134 A 
ATOM     62  C   UNL A   1      40.515  34.287  36.549  1.00  0.00     0.134 A 
ATOM     63  F   UNL A   1      38.129  31.678  37.378  1.00  0.00    -0.206 F 
ATOM     64  C   UNL A   1      38.669  33.651  38.525  1.00  0.00     0.040 A 
ATOM     65  C   UNL A   1      40.345  35.137  37.644  1.00  0.00     0.040 A 
ATOM     66  F   UNL A   1      41.406  34.644  35.612  1.00  0.00    -0.206 F 
ATOM     67  C   UNL A   1      39.410  34.825  38.630  1.00  0.00     0.006 A 
ENDBRANCH  46  60
BRANCH  47  68
ATOM     68  C   UNL A   1      40.868  27.665  28.099  1.00  0.00     0.057 A 
ATOM     69  C   UNL A   1      40.261  26.410  27.975  1.00  0.00     0.134 A 
ATOM     70  C   UNL A   1      41.623  28.126  27.014  1.00  0.00     0.134 A 
ATOM     71  F   UNL A   1      39.538  25.907  28.987  1.00  0.00    -0.206 F 
ATOM     72  C   UNL A   1      40.408  25.636  26.823  1.00  0.00     0.040 A 
ATOM     73  C   UNL A   1      41.757  27.375  25.846  1.00  0.00     0.040 A 
ATOM     74  F   UNL A   1      42.221  29.326  27.065  1.00  0.00    -0.206 F 
ATOM     75  C   UNL A   1      41.153  26.123  25.751  1.00  0.00     0.006 A 
ENDBRANCH  47  68
BRANCH  59  76
ATOM     76  C   UNL A   1      44.182  27.810  34.227  1.00  0.00     0.057 A 
ATOM     77  C   UNL A   1      45.505  28.266  34.161  1.00  0.00     0.134 A 
ATOM     78  C   UNL A   1      43.952  26.588  34.872  1.00  0.00     0.134 A 
ATOM     79  F   UNL A   1      45.795  29.424  33.547  1.00  0.00    -0.206 F 
ATOM     80  C   UNL A   1      46.559  27.523  34.694  1.00  0.00     0.040 A 
ATOM     81  C   UNL A   1      44.993  25.851  35.436  1.00  0.00     0.040 A 
ATOM     82  F   UNL A   1      42.707  26.097  34.979  1.00  0.00    -0.206 F 
ATOM     83  C   UNL A   1      46.303  26.316  35.341  1.00  0.00     0.006 A 
ENDBRANCH  59  76
ENDBRANCH  33  34
ENDBRANCH  25  28
ENDBRANCH  23  24
ENDBRANCH  22  23
ENDBRANCH   1  22
TORSDOF 16
ENDMDL
MODEL 2
REMARK VINA RESULT:     -10.7      5.342      9.891
REMARK SMILES CCC1(CC)C[NH+]([C@H](CCS(C)(=O)=O)C(=O)NCCCNC(=O)c2ccc(-c3c4nc(c(-c5c(F)cccc5F)c5ccc([nH]5)c(-c5c(F)cccc5F)c5nc(c(-c6c(F)cccc6F)c6ccc3[nH]6)C=C5)C=C4)cc2)C1
REMARK SMILES IDX 18 1 17 2 15 3 16 4 8 6 7 7 3 8 6 9 78 10 2 12 1 13 4 14
REMARK SMILES IDX 5 15 9 16 10 17 11 18 12 19 13 20 14 21 19 22 20 23 21 24
REMARK SMILES IDX 22 25 23 27 24 28 25 29 77 30 26 31 76 32 27 33 28 34 29 35
REMARK SMILES IDX 70 36 30 37 75 38 69 39 71 40 31 41 74 42 68 43 67 44 32 46
REMARK SMILES IDX 58 47 41 48 57 49 42 50 45 51 56 52 72 53 43 54 44 55 55 57
REMARK SMILES IDX 73 58 46 59 33 60 34 61 39 62 35 63 36 64 38 65 40 66 37 67
REMARK SMILES IDX 59 68 60 69 65 70 61 71 62 72 64 73 66 74 63 75 47 76 48 77
REMARK SMILES IDX 53 78 49 79 50 80 52 81 54 82 51 83
REMARK H PARENT 17 5 7 11 21 26 71 45 45 56
REMARK Flexibility Score: inf
ROOT
ATOM      1  C   UNL A   1      36.726  20.984  24.758  1.00  0.00     0.118 C 
ENDROOT
BRANCH   1   2
ATOM      2  N   UNL A   1      35.890  21.243  25.908  1.00  0.00    -0.351 N 
ATOM      3  C   UNL A   1      34.543  21.037  26.054  1.00  0.00     0.278 C 
ATOM      4  O   UNL A   1      34.098  21.113  27.202  1.00  0.00    -0.268 OA
ATOM      5  H   UNL A   1      36.351  21.617  26.694  1.00  0.00     0.163 HD
BRANCH   3   6
ATOM      6  C   UNL A   1      33.617  20.793  24.828  1.00  0.00     0.275 C 
BRANCH   6   7
ATOM      7  N   UNL A   1      33.002  22.056  24.354  1.00  0.00    -0.323 N 
ATOM      8  C   UNL A   1      32.331  23.974  24.993  1.00  0.00     0.068 C 
ATOM      9  C   UNL A   1      33.679  23.322  24.601  1.00  0.00     0.275 C 
ATOM     10  C   UNL A   1      31.801  22.500  25.068  1.00  0.00     0.275 C 
ATOM     11  H   UNL A   1      32.943  21.739  23.387  1.00  0.00     0.348 HD
BRANCH   8  12
ATOM     12  C   UNL A   1      32.416  24.668  26.371  1.00  0.00     0.015 C 
ATOM     13  C   UNL A   1      31.730  26.030  26.395  1.00  0.00     0.005 C 
ENDBRANCH   8  12
BRANCH   8  14
ATOM     14  C   UNL A   1      31.771  24.842  23.856  1.00  0.00     0.015 C 
ATOM     15  C   UNL A   1      30.486  24.277  23.277  1.00  0.00     0.005 C 
ENDBRANCH   8  14
ENDBRANCH   6   7
BRANCH   6  16
ATOM     16  C   UNL A   1      32.793  19.491  25.021  1.00  0.00     0.092 C 
BRANCH  16  17
ATOM     17  C   UNL A   1      32.820  18.523  23.839  1.00  0.00     0.143 C 
BRANCH  17  18
ATOM     18  S   UNL A   1      33.963  17.147  23.966  1.00  0.00     0.147 S 
ATOM     19  C   UNL A   1      33.252  16.022  25.148  1.00  0.00     0.158 C 
ATOM     20  O   UNL A   1      33.949  16.471  22.683  1.00  0.00    -0.229 OA
ATOM     21  O   UNL A   1      35.210  17.635  24.519  1.00  0.00    -0.229 OA
ENDBRANCH  17  18
ENDBRANCH  16  17
ENDBRANCH   6  16
ENDBRANCH   3   6
ENDBRANCH   1   2
BRANCH   1  22
ATOM     22  C   UNL A   1      37.777  19.920  24.946  1.00  0.00     0.042 C 
BRANCH  22  23
ATOM     23  C   UNL A   1      38.943  20.378  25.792  1.00  0.00     0.118 C 
BRANCH  23  24
ATOM     24  N   UNL A   1      40.032  19.406  25.843  1.00  0.00    -0.352 N 
ATOM     25  C   UNL A   1      41.370  19.559  26.126  1.00  0.00     0.251 C 
ATOM     26  H   UNL A   1      39.762  18.481  25.641  1.00  0.00     0.163 HD
ATOM     27  O   UNL A   1      42.143  18.625  25.940  1.00  0.00    -0.269 OA
BRANCH  25  28
ATOM     28  C   UNL A   1      41.882  20.857  26.613  1.00  0.00     0.039 A 
ATOM     29  C   UNL A   1      42.329  21.810  25.695  1.00  0.00     0.014 A 
ATOM     30  C   UNL A   1      41.896  21.145  27.975  1.00  0.00     0.014 A 
ATOM     31  C   UNL A   1      42.687  23.083  26.144  1.00  0.00     0.010 A 
ATOM     32  C   UNL A   1      42.097  22.448  28.401  1.00  0.00     0.010 A 
ATOM     33  C   UNL A   1      42.517  23.430  27.495  1.00  0.00    -0.014 A 
BRANCH  33  34
ATOM     34  C   UNL A   1      42.791  24.798  27.997  1.00  0.00     0.031 A 
ATOM     35  C   UNL A   1      44.196  25.188  28.376  1.00  0.00     0.074 A 
ATOM     36  C   UNL A   1      41.772  25.655  28.196  1.00  0.00     0.049 A 
ATOM     37  N   UNL A   1      44.629  26.299  28.916  1.00  0.00    -0.248 NA
ATOM     38  C   UNL A   1      45.246  24.180  28.160  1.00  0.00     0.031 C 
ATOM     39  C   UNL A   1      40.360  25.376  27.928  1.00  0.00     0.029 A 
ATOM     40  N   UNL A   1      41.767  26.940  28.679  1.00  0.00    -0.354 N 
ATOM     41  C   UNL A   1      45.989  26.109  29.124  1.00  0.00     0.074 A 
ATOM     42  C   UNL A   1      46.294  24.753  28.729  1.00  0.00     0.031 C 
ATOM     43  C   UNL A   1      39.634  26.469  28.206  1.00  0.00     0.029 A 
ATOM     44  C   UNL A   1      40.518  27.510  28.718  1.00  0.00     0.049 A 
ATOM     45  H   UNL A   1      42.583  27.409  28.970  1.00  0.00     0.167 HD
ATOM     46  C   UNL A   1      46.911  26.994  29.573  1.00  0.00     0.037 A 
ATOM     47  C   UNL A   1      40.132  28.734  29.121  1.00  0.00     0.037 A 
ATOM     48  C   UNL A   1      46.605  28.352  29.935  1.00  0.00     0.049 A 
ATOM     49  C   UNL A   1      41.169  29.700  29.623  1.00  0.00     0.074 A 
ATOM     50  C   UNL A   1      47.472  29.353  30.331  1.00  0.00     0.029 A 
ATOM     51  N   UNL A   1      45.329  28.894  29.950  1.00  0.00    -0.354 N 
ATOM     52  N   UNL A   1      42.464  29.535  29.739  1.00  0.00    -0.248 NA
ATOM     53  C   UNL A   1      40.690  31.022  30.045  1.00  0.00     0.031 C 
ATOM     54  C   UNL A   1      46.713  30.486  30.643  1.00  0.00     0.029 A 
ATOM     55  C   UNL A   1      45.380  30.210  30.381  1.00  0.00     0.049 A 
ATOM     56  H   UNL A   1      44.508  28.416  29.693  1.00  0.00     0.167 HD
ATOM     57  C   UNL A   1      42.960  30.740  30.219  1.00  0.00     0.074 A 
ATOM     58  C   UNL A   1      41.826  31.630  30.358  1.00  0.00     0.031 C 
ATOM     59  C   UNL A   1      44.239  31.081  30.513  1.00  0.00     0.037 A 
BRANCH  46  60
ATOM     60  C   UNL A   1      48.328  26.509  29.696  1.00  0.00     0.057 A 
ATOM     61  C   UNL A   1      48.822  25.942  30.881  1.00  0.00     0.134 A 
ATOM     62  C   UNL A   1      49.213  26.609  28.616  1.00  0.00     0.134 A 
ATOM     63  F   UNL A   1      48.033  25.829  31.961  1.00  0.00    -0.206 F 
ATOM     64  C   UNL A   1      50.153  25.538  31.001  1.00  0.00     0.040 A 
ATOM     65  C   UNL A   1      50.537  26.175  28.712  1.00  0.00     0.040 A 
ATOM     66  F   UNL A   1      48.809  27.134  27.449  1.00  0.00    -0.206 F 
ATOM     67  C   UNL A   1      51.013  25.649  29.911  1.00  0.00     0.006 A 
ENDBRANCH  46  60
BRANCH  47  68
ATOM     68  C   UNL A   1      38.702  29.127  29.027  1.00  0.00     0.057 A 
ATOM     69  C   UNL A   1      38.163  29.590  27.821  1.00  0.00     0.134 A 
ATOM     70  C   UNL A   1      37.839  29.039  30.126  1.00  0.00     0.134 A 
ATOM     71  F   UNL A   1      38.943  29.711  26.736  1.00  0.00    -0.206 F 
ATOM     72  C   UNL A   1      36.824  29.965  27.713  1.00  0.00     0.040 A 
ATOM     73  C   UNL A   1      36.492  29.387  30.026  1.00  0.00     0.040 A 
ATOM     74  F   UNL A   1      38.291  28.592  31.308  1.00  0.00    -0.206 F 
ATOM     75  C   UNL A   1      35.982  29.857  28.818  1.00  0.00     0.006 A 
ENDBRANCH  47  68
BRANCH  59  76
ATOM     76  C   UNL A   1      44.485  32.486  30.983  1.00  0.00     0.057 A 
ATOM     77  C   UNL A   1      44.797  33.523  30.094  1.00  0.00     0.134 A 
ATOM     78  C   UNL A   1      44.365  32.813  32.340  1.00  0.00     0.134 A 
ATOM     79  F   UNL A   1      44.939  33.275  28.782  1.00  0.00    -0.206 F 
ATOM     80  C   UNL A   1      45.006  34.828  30.541  1.00  0.00     0.040 A 
ATOM     81  C   UNL A   1      44.540  34.120  32.795  1.00  0.00     0.040 A 
ATOM     82  F   UNL A   1      44.058  31.870  33.244  1.00  0.00    -0.206 F 
ATOM     83  C   UNL A   1      44.869  35.131  31.895  1.00  0.00     0.006 A 
ENDBRANCH  59  76
ENDBRANCH  33  34
ENDBRANCH  25  28
ENDBRANCH  23  24
ENDBRANCH  22  23
ENDBRANCH   1  22
TORSDOF 16
ENDMDL
MODEL 3
REMARK VINA RESULT:     -10.6      0.744      6.439
REMARK SMILES CCC1(CC)C[NH+]([C@H](CCS(C)(=O)=O)C(=O)NCCCNC(=O)c2ccc(-c3c4nc(c(-c5c(F)cccc5F)c5ccc([nH]5)c(-c5c(F)cccc5F)c5nc(c(-c6c(F)cccc6F)c6ccc3[nH]6)C=C5)C=C4)cc2)C1
REMARK SMILES IDX 18 1 17 2 15 3 16 4 8 6 7 7 3 8 6 9 78 10 2 12 1 13 4 14
REMARK SMILES IDX 5 15 9 16 10 17 11 18 12 19 13 20 14 21 19 22 20 23 21 24
REMARK SMILES IDX 22 25 23 27 24 28 25 29 77 30 26 31 76 32 27 33 28 34 29 35
REMARK SMILES IDX 70 36 30 37 75 38 69 39 71 40 31 41 74 42 68 43 67 44 32 46
REMARK SMILES IDX 58 47 41 48 57 49 42 50 45 51 56 52 72 53 43 54 44 55 55 57
REMARK SMILES IDX 73 58 46 59 33 60 34 61 39 62 35 63 36 64 38 65 40 66 37 67
REMARK SMILES IDX 59 68 60 69 65 70 61 71 62 72 64 73 66 74 63 75 47 76 48 77
REMARK SMILES IDX 53 78 49 79 50 80 52 81 54 82 51 83
REMARK H PARENT 17 5 7 11 21 26 71 45 45 56
REMARK Flexibility Score: inf
ROOT
ATOM      1  C   UNL A   1      31.736  30.467  26.899  1.00  0.00     0.118 C 
ENDROOT
BRANCH   1   2
ATOM      2  N   UNL A   1      32.628  30.022  25.852  1.00  0.00    -0.351 N 
ATOM      3  C   UNL A   1      32.358  29.208  24.783  1.00  0.00     0.278 C 
ATOM      4  O   UNL A   1      33.217  29.162  23.899  1.00  0.00    -0.268 OA
ATOM      5  H   UNL A   1      33.555  30.348  25.916  1.00  0.00     0.163 HD
BRANCH   3   6
ATOM      6  C   UNL A   1      31.071  28.337  24.724  1.00  0.00     0.275 C 
BRANCH   6   7
ATOM      7  N   UNL A   1      31.341  26.942  25.146  1.00  0.00    -0.323 N 
ATOM      8  C   UNL A   1      32.805  25.395  25.094  1.00  0.00     0.068 C 
ATOM      9  C   UNL A   1      32.517  26.650  25.953  1.00  0.00     0.275 C 
ATOM     10  C   UNL A   1      31.773  26.018  24.092  1.00  0.00     0.275 C 
ATOM     11  H   UNL A   1      30.431  26.832  25.591  1.00  0.00     0.348 HD
BRANCH   8  12
ATOM     12  C   UNL A   1      34.255  25.393  24.560  1.00  0.00     0.015 C 
ATOM     13  C   UNL A   1      34.505  24.306  23.520  1.00  0.00     0.005 C 
ENDBRANCH   8  12
BRANCH   8  14
ATOM     14  C   UNL A   1      32.369  24.108  25.809  1.00  0.00     0.015 C 
ATOM     15  C   UNL A   1      33.487  23.499  26.637  1.00  0.00     0.005 C 
ENDBRANCH   8  14
ENDBRANCH   6   7
BRANCH   6  16
ATOM     16  C   UNL A   1      30.245  28.674  23.452  1.00  0.00     0.092 C 
BRANCH  16  17
ATOM     17  C   UNL A   1      29.594  30.056  23.446  1.00  0.00     0.143 C 
BRANCH  17  18
ATOM     18  S   UNL A   1      27.902  30.134  22.855  1.00  0.00     0.147 S 
ATOM     19  C   UNL A   1      27.995  30.680  21.164  1.00  0.00     0.158 C 
ATOM     20  O   UNL A   1      27.406  28.772  22.829  1.00  0.00    -0.229 OA
ATOM     21  O   UNL A   1      27.199  31.152  23.608  1.00  0.00    -0.229 OA
ENDBRANCH  17  18
ENDBRANCH  16  17
ENDBRANCH   6  16
ENDBRANCH   3   6
ENDBRANCH   1   2
BRANCH   1  22
ATOM     22  C   UNL A   1      31.354  31.923  26.848  1.00  0.00     0.042 C 
BRANCH  22  23
ATOM     23  C   UNL A   1      32.544  32.848  26.728  1.00  0.00     0.118 C 
BRANCH  23  24
ATOM     24  N   UNL A   1      32.420  34.053  27.544  1.00  0.00    -0.352 N 
ATOM     25  C   UNL A   1      33.138  34.486  28.634  1.00  0.00     0.251 C 
ATOM     26  H   UNL A   1      31.697  34.661  27.265  1.00  0.00     0.163 HD
ATOM     27  O   UNL A   1      32.747  35.454  29.277  1.00  0.00    -0.269 OA
BRANCH  25  28
ATOM     28  C   UNL A   1      34.356  33.762  29.056  1.00  0.00     0.039 A 
ATOM     29  C   UNL A   1      35.606  34.363  28.894  1.00  0.00     0.014 A 
ATOM     30  C   UNL A   1      34.263  32.500  29.637  1.00  0.00     0.014 A 
ATOM     31  C   UNL A   1      36.743  33.739  29.413  1.00  0.00     0.010 A 
ATOM     32  C   UNL A   1      35.360  31.960  30.288  1.00  0.00     0.010 A 
ATOM     33  C   UNL A   1      36.620  32.560  30.166  1.00  0.00    -0.014 A 
BRANCH  33  34
ATOM     34  C   UNL A   1      37.787  31.916  30.818  1.00  0.00     0.031 A 
ATOM     35  C   UNL A   1      38.552  30.843  30.089  1.00  0.00     0.074 A 
ATOM     36  C   UNL A   1      38.101  32.229  32.089  1.00  0.00     0.049 A 
ATOM     37  N   UNL A   1      39.540  30.098  30.515  1.00  0.00    -0.248 NA
ATOM     38  C   UNL A   1      38.120  30.536  28.716  1.00  0.00     0.031 C 
ATOM     39  C   UNL A   1      37.398  33.206  32.924  1.00  0.00     0.029 A 
ATOM     40  N   UNL A   1      39.094  31.751  32.906  1.00  0.00    -0.354 N 
ATOM     41  C   UNL A   1      39.827  29.224  29.473  1.00  0.00     0.074 A 
ATOM     42  C   UNL A   1      38.859  29.476  28.430  1.00  0.00     0.031 C 
ATOM     43  C   UNL A   1      38.009  33.288  34.115  1.00  0.00     0.029 A 
ATOM     44  C   UNL A   1      39.115  32.337  34.149  1.00  0.00     0.049 A 
ATOM     45  H   UNL A   1      39.732  31.055  32.629  1.00  0.00     0.167 HD
ATOM     46  C   UNL A   1      40.826  28.316  29.377  1.00  0.00     0.037 A 
ATOM     47  C   UNL A   1      39.933  32.127  35.197  1.00  0.00     0.037 A 
ATOM     48  C   UNL A   1      41.805  28.093  30.408  1.00  0.00     0.049 A 
ATOM     49  C   UNL A   1      41.032  31.110  35.074  1.00  0.00     0.074 A 
ATOM     50  C   UNL A   1      42.902  27.252  30.386  1.00  0.00     0.029 A 
ATOM     51  N   UNL A   1      41.797  28.714  31.648  1.00  0.00    -0.354 N 
ATOM     52  N   UNL A   1      41.342  30.346  34.053  1.00  0.00    -0.248 NA
ATOM     53  C   UNL A   1      41.898  30.928  36.246  1.00  0.00     0.031 C 
ATOM     54  C   UNL A   1      43.525  27.319  31.637  1.00  0.00     0.029 A 
ATOM     55  C   UNL A   1      42.854  28.249  32.414  1.00  0.00     0.049 A 
ATOM     56  H   UNL A   1      41.140  29.385  31.941  1.00  0.00     0.167 HD
ATOM     57  C   UNL A   1      42.456  29.616  34.449  1.00  0.00     0.074 A 
ATOM     58  C   UNL A   1      42.773  30.039  35.797  1.00  0.00     0.031 C 
ATOM     59  C   UNL A   1      43.154  28.683  33.757  1.00  0.00     0.037 A 
BRANCH  46  60
ATOM     60  C   UNL A   1      40.897  27.500  28.117  1.00  0.00     0.057 A 
ATOM     61  C   UNL A   1      40.237  26.270  27.987  1.00  0.00     0.134 A 
ATOM     62  C   UNL A   1      41.638  27.951  27.017  1.00  0.00     0.134 A 
ATOM     63  F   UNL A   1      39.523  25.770  29.007  1.00  0.00    -0.206 F 
ATOM     64  C   UNL A   1      40.349  25.498  26.828  1.00  0.00     0.040 A 
ATOM     65  C   UNL A   1      41.727  27.205  25.840  1.00  0.00     0.040 A 
ATOM     66  F   UNL A   1      42.290  29.122  27.067  1.00  0.00    -0.206 F 
ATOM     67  C   UNL A   1      41.091  25.969  25.748  1.00  0.00     0.006 A 
ENDBRANCH  46  60
BRANCH  47  68
ATOM     68  C   UNL A   1      39.767  32.929  36.436  1.00  0.00     0.057 A 
ATOM     69  C   UNL A   1      40.536  34.078  36.656  1.00  0.00     0.134 A 
ATOM     70  C   UNL A   1      38.836  32.580  37.421  1.00  0.00     0.134 A 
ATOM     71  F   UNL A   1      41.457  34.456  35.757  1.00  0.00    -0.206 F 
ATOM     72  C   UNL A   1      40.396  34.843  37.815  1.00  0.00     0.040 A 
ATOM     73  C   UNL A   1      38.667  33.350  38.573  1.00  0.00     0.040 A 
ATOM     74  F   UNL A   1      38.059  31.497  37.266  1.00  0.00    -0.206 F 
ATOM     75  C   UNL A   1      39.453  34.482  38.774  1.00  0.00     0.006 A 
ENDBRANCH  47  68
BRANCH  59  76
ATOM     76  C   UNL A   1      44.352  28.080  34.432  1.00  0.00     0.057 A 
ATOM     77  C   UNL A   1      44.271  26.886  35.161  1.00  0.00     0.134 A 
ATOM     78  C   UNL A   1      45.612  28.681  34.314  1.00  0.00     0.134 A 
ATOM     79  F   UNL A   1      43.092  26.266  35.323  1.00  0.00    -0.206 F 
ATOM     80  C   UNL A   1      45.396  26.326  35.769  1.00  0.00     0.040 A 
ATOM     81  C   UNL A   1      46.749  28.114  34.891  1.00  0.00     0.040 A 
ATOM     82  F   UNL A   1      45.762  29.820  33.622  1.00  0.00    -0.206 F 
ATOM     83  C   UNL A   1      46.641  26.937  35.627  1.00  0.00     0.006 A 
ENDBRANCH  59  76
ENDBRANCH  33  34
ENDBRANCH  25  28
ENDBRANCH  23  24
ENDBRANCH  22  23
ENDBRANCH   1  22
TORSDOF 16
ENDMDL
