MODEL 1
REMARK VINA RESULT:     -11.9      0.000      0.000
REMARK SMILES Cc1ccc(Nc2nnc(SCc3nc4sc(C(=O)NCCCNC(=O)c5ccc(-c6c7nc(c(-c8c(F)cccc8F)c8ccc([nH]8)c(-c8c(F)cccc8F)c8nc(c(-c9c(F)cccc9F)c9ccc6[nH]9)C=C8)C=C7)cc5)c(C)c4c(=O)[nH]3)s2)cc1C
REMARK SMILES IDX 18 1 19 2 20 3 17 5 13 6 14 7 86 8 15 9 84 10 16 12 83 13
REMARK SMILES IDX 85 14 81 15 82 16 12 17 11 18 10 19 7 20 8 21 87 22 9 23
REMARK SMILES IDX 6 24 5 26 1 27 2 28 3 29 89 30 4 31 88 32 90 33 21 34 22 35
REMARK SMILES IDX 23 36 24 37 25 38 26 40 27 41 28 42 80 43 29 44 79 45 30 46
REMARK SMILES IDX 31 47 32 48 73 49 33 50 78 51 72 52 74 53 34 54 77 55 71 56
REMARK SMILES IDX 70 57 35 59 61 60 44 61 60 62 45 63 48 64 59 65 75 66 46 67
REMARK SMILES IDX 47 68 58 70 76 71 49 72 36 73 37 74 42 75 38 76 39 77 41 78
REMARK SMILES IDX 43 79 40 80 62 81 63 82 68 83 64 84 65 85 67 86 69 87 66 88
REMARK SMILES IDX 50 89 51 90 56 91 52 92 53 93 55 94 57 95 54 96
REMARK H PARENT 20 4 86 11 6 25 24 39 74 58 48 69
REMARK Flexibility Score: inf
ROOT
ATOM      1  C   UNL A   1      31.808  29.943  25.590  1.00  0.00     0.261 C 
ATOM      2  O   UNL A   1      30.968  30.778  25.229  1.00  0.00    -0.268 OA
ATOM      3  N   UNL A   1      32.521  30.340  26.693  1.00  0.00    -0.351 N 
ATOM      4  H   UNL A   1      32.309  31.254  26.990  1.00  0.00     0.163 HD
ENDROOT
BRANCH   1   5
ATOM      5  C   UNL A   1      31.986  28.654  24.905  1.00  0.00     0.098 A 
ATOM      6  C   UNL A   1      31.488  24.245  23.397  1.00  0.00     0.121 A 
ATOM      7  N   UNL A   1      31.108  24.940  24.428  1.00  0.00    -0.223 NA
ATOM      8  N   UNL A   1      32.269  24.751  22.385  1.00  0.00    -0.309 N 
ATOM      9  C   UNL A   1      31.549  26.231  24.432  1.00  0.00     0.132 A 
ATOM     10  C   UNL A   1      32.858  25.982  22.423  1.00  0.00     0.259 A 
ATOM     11  H   UNL A   1      32.410  24.193  21.587  1.00  0.00     0.171 HD
ATOM     12  S   UNL A   1      31.080  27.343  25.618  1.00  0.00    -0.110 S 
ATOM     13  C   UNL A   1      32.392  26.811  23.517  1.00  0.00     0.080 A 
ATOM     14  O   UNL A   1      33.707  26.280  21.604  1.00  0.00    -0.269 OA
ATOM     15  C   UNL A   1      32.653  28.204  23.762  1.00  0.00    -0.012 A 
ATOM     16  C   UNL A   1      33.481  28.970  22.797  1.00  0.00     0.047 C 
BRANCH   6  17
ATOM     17  C   UNL A   1      31.110  22.797  23.205  1.00  0.00     0.152 C 
BRANCH  17  18
ATOM     18  S   UNL A   1      32.563  21.732  23.066  1.00  0.00    -0.085 SA
BRANCH  18  19
ATOM     19  C   UNL A   1      33.956  22.628  23.646  1.00  0.00     0.176 A 
ATOM     20  C   UNL A   1      35.862  23.652  24.676  1.00  0.00     0.210 A 
ATOM     21  N   UNL A   1      35.877  23.759  23.365  1.00  0.00    -0.119 NA
ATOM     22  S   UNL A   1      34.367  23.018  25.265  1.00  0.00    -0.068 S 
ATOM     23  N   UNL A   1      34.799  23.131  22.770  1.00  0.00    -0.130 NA
BRANCH  20  24
ATOM     24  N   UNL A   1      36.861  24.059  25.499  1.00  0.00    -0.330 N 
ATOM     25  H   UNL A   1      36.843  24.990  25.821  1.00  0.00     0.169 HD
BRANCH  24  26
ATOM     26  C   UNL A   1      37.931  23.228  25.925  1.00  0.00     0.041 A 
ATOM     27  C   UNL A   1      41.282  20.836  27.328  1.00  0.00     0.044 C 
ATOM     28  C   UNL A   1      40.113  21.639  26.827  1.00  0.00    -0.048 A 
ATOM     29  C   UNL A   1      39.990  22.983  27.207  1.00  0.00     0.006 A 
ATOM     30  C   UNL A   1      39.121  21.077  26.005  1.00  0.00    -0.046 A 
ATOM     31  C   UNL A   1      38.914  23.764  26.765  1.00  0.00     0.026 A 
ATOM     32  C   UNL A   1      38.042  21.877  25.574  1.00  0.00     0.029 A 
ATOM     33  C   UNL A   1      39.190  19.664  25.497  1.00  0.00     0.044 C 
ENDBRANCH  24  26
ENDBRANCH  20  24
ENDBRANCH  18  19
ENDBRANCH  17  18
ENDBRANCH   6  17
ENDBRANCH   1   5
BRANCH   3  34
ATOM     34  C   UNL A   1      33.520  29.685  27.505  1.00  0.00     0.118 C 
BRANCH  34  35
ATOM     35  C   UNL A   1      34.788  29.400  26.692  1.00  0.00     0.042 C 
BRANCH  35  36
ATOM     36  C   UNL A   1      36.019  29.291  27.539  1.00  0.00     0.118 C 
BRANCH  36  37
ATOM     37  N   UNL A   1      35.746  29.690  28.920  1.00  0.00    -0.352 N 
ATOM     38  C   UNL A   1      36.563  29.511  30.017  1.00  0.00     0.251 C 
ATOM     39  H   UNL A   1      34.885  30.137  29.085  1.00  0.00     0.163 HD
ATOM     40  O   UNL A   1      36.128  29.574  31.158  1.00  0.00    -0.269 OA
BRANCH  38  41
ATOM     41  C   UNL A   1      37.983  29.262  29.755  1.00  0.00     0.039 A 
ATOM     42  C   UNL A   1      38.813  30.202  29.140  1.00  0.00     0.014 A 
ATOM     43  C   UNL A   1      38.480  28.044  30.210  1.00  0.00     0.014 A 
ATOM     44  C   UNL A   1      40.158  29.890  29.004  1.00  0.00     0.010 A 
ATOM     45  C   UNL A   1      39.819  27.876  30.340  1.00  0.00     0.010 A 
ATOM     46  C   UNL A   1      40.633  28.716  29.603  1.00  0.00    -0.014 A 
BRANCH  46  47
ATOM     47  C   UNL A   1      42.003  28.273  29.501  1.00  0.00     0.031 A 
ATOM     48  C   UNL A   1      42.215  27.248  28.459  1.00  0.00     0.074 A 
ATOM     49  C   UNL A   1      42.986  28.977  30.105  1.00  0.00     0.049 A 
ATOM     50  N   UNL A   1      42.396  25.983  28.635  1.00  0.00    -0.248 NA
ATOM     51  C   UNL A   1      41.973  27.624  27.055  1.00  0.00     0.031 C 
ATOM     52  C   UNL A   1      42.894  30.234  30.865  1.00  0.00     0.029 A 
ATOM     53  N   UNL A   1      44.322  28.750  30.070  1.00  0.00    -0.354 N 
ATOM     54  C   UNL A   1      42.562  25.452  27.358  1.00  0.00     0.074 A 
ATOM     55  C   UNL A   1      42.020  26.431  26.459  1.00  0.00     0.031 C 
ATOM     56  C   UNL A   1      44.128  30.763  31.020  1.00  0.00     0.029 A 
ATOM     57  C   UNL A   1      45.102  29.815  30.520  1.00  0.00     0.049 A 
ATOM     58  H   UNL A   1      44.711  27.903  29.753  1.00  0.00     0.167 HD
ATOM     59  C   UNL A   1      43.419  24.413  27.152  1.00  0.00     0.037 A 
ATOM     60  C   UNL A   1      46.453  29.886  30.417  1.00  0.00     0.037 A 
ATOM     61  C   UNL A   1      43.798  23.821  28.419  1.00  0.00     0.049 A 
ATOM     62  C   UNL A   1      46.934  28.492  30.189  1.00  0.00     0.074 A 
ATOM     63  C   UNL A   1      43.114  23.226  29.461  1.00  0.00     0.029 A 
ATOM     64  N   UNL A   1      45.023  24.179  28.934  1.00  0.00    -0.354 N 
ATOM     65  N   UNL A   1      46.827  27.545  31.085  1.00  0.00    -0.248 NA
ATOM     66  C   UNL A   1      47.018  28.036  28.807  1.00  0.00     0.031 C 
ATOM     67  C   UNL A   1      43.758  23.702  30.642  1.00  0.00     0.029 A 
ATOM     68  C   UNL A   1      44.852  24.480  30.258  1.00  0.00     0.049 A 
ATOM     69  H   UNL A   1      45.873  24.213  28.437  1.00  0.00     0.167 HD
ATOM     70  C   UNL A   1      46.408  26.424  30.375  1.00  0.00     0.074 A 
ATOM     71  C   UNL A   1      46.592  26.778  28.966  1.00  0.00     0.031 C 
ATOM     72  C   UNL A   1      45.660  25.446  30.969  1.00  0.00     0.037 A 
BRANCH  59  73
ATOM     73  C   UNL A   1      44.283  24.228  25.915  1.00  0.00     0.057 A 
ATOM     74  C   UNL A   1      45.573  24.758  25.723  1.00  0.00     0.134 A 
ATOM     75  C   UNL A   1      43.932  23.198  25.020  1.00  0.00     0.134 A 
ATOM     76  F   UNL A   1      46.067  25.771  26.439  1.00  0.00    -0.206 F 
ATOM     77  C   UNL A   1      46.488  24.214  24.816  1.00  0.00     0.040 A 
ATOM     78  C   UNL A   1      44.852  22.620  24.138  1.00  0.00     0.040 A 
ATOM     79  F   UNL A   1      42.709  22.646  25.046  1.00  0.00    -0.206 F 
ATOM     80  C   UNL A   1      46.147  23.110  24.057  1.00  0.00     0.006 A 
ENDBRANCH  59  73
BRANCH  60  81
ATOM     81  C   UNL A   1      47.290  31.081  30.166  1.00  0.00     0.057 A 
ATOM     82  C   UNL A   1      47.317  31.703  28.904  1.00  0.00     0.134 A 
ATOM     83  C   UNL A   1      48.280  31.492  31.071  1.00  0.00     0.134 A 
ATOM     84  F   UNL A   1      46.470  31.329  27.934  1.00  0.00    -0.206 F 
ATOM     85  C   UNL A   1      48.270  32.667  28.558  1.00  0.00     0.040 A 
ATOM     86  C   UNL A   1      49.243  32.456  30.736  1.00  0.00     0.040 A 
ATOM     87  F   UNL A   1      48.368  30.924  32.282  1.00  0.00    -0.206 F 
ATOM     88  C   UNL A   1      49.246  33.040  29.473  1.00  0.00     0.006 A 
ENDBRANCH  60  81
BRANCH  72  89
ATOM     89  C   UNL A   1      45.472  25.498  32.460  1.00  0.00     0.057 A 
ATOM     90  C   UNL A   1      44.345  26.152  32.966  1.00  0.00     0.134 A 
ATOM     91  C   UNL A   1      46.445  25.106  33.392  1.00  0.00     0.134 A 
ATOM     92  F   UNL A   1      43.401  26.612  32.129  1.00  0.00    -0.206 F 
ATOM     93  C   UNL A   1      44.190  26.409  34.329  1.00  0.00     0.040 A 
ATOM     94  C   UNL A   1      46.289  25.328  34.765  1.00  0.00     0.040 A 
ATOM     95  F   UNL A   1      47.601  24.562  32.998  1.00  0.00    -0.206 F 
ATOM     96  C   UNL A   1      45.160  25.990  35.236  1.00  0.00     0.006 A 
ENDBRANCH  72  89
ENDBRANCH  46  47
ENDBRANCH  38  41
ENDBRANCH  36  37
ENDBRANCH  35  36
ENDBRANCH  34  35
ENDBRANCH   3  34
TORSDOF 15
ENDMDL
MODEL 2
REMARK VINA RESULT:     -11.7      1.977      5.866
REMARK SMILES Cc1ccc(Nc2nnc(SCc3nc4sc(C(=O)NCCCNC(=O)c5ccc(-c6c7nc(c(-c8c(F)cccc8F)c8ccc([nH]8)c(-c8c(F)cccc8F)c8nc(c(-c9c(F)cccc9F)c9ccc6[nH]9)C=C8)C=C7)cc5)c(C)c4c(=O)[nH]3)s2)cc1C
REMARK SMILES IDX 18 1 19 2 20 3 17 5 13 6 14 7 86 8 15 9 84 10 16 12 83 13
REMARK SMILES IDX 85 14 81 15 82 16 12 17 11 18 10 19 7 20 8 21 87 22 9 23
REMARK SMILES IDX 6 24 5 26 1 27 2 28 3 29 89 30 4 31 88 32 90 33 21 34 22 35
REMARK SMILES IDX 23 36 24 37 25 38 26 40 27 41 28 42 80 43 29 44 79 45 30 46
REMARK SMILES IDX 31 47 32 48 73 49 33 50 78 51 72 52 74 53 34 54 77 55 71 56
REMARK SMILES IDX 70 57 35 59 61 60 44 61 60 62 45 63 48 64 59 65 75 66 46 67
REMARK SMILES IDX 47 68 58 70 76 71 49 72 36 73 37 74 42 75 38 76 39 77 41 78
REMARK SMILES IDX 43 79 40 80 62 81 63 82 68 83 64 84 65 85 67 86 69 87 66 88
REMARK SMILES IDX 50 89 51 90 56 91 52 92 53 93 55 94 57 95 54 96
REMARK H PARENT 20 4 86 11 6 25 24 39 74 58 48 69
REMARK Flexibility Score: inf
ROOT
ATOM      1  C   UNL A   1      31.033  27.902  24.689  1.00  0.00     0.261 C 
ATOM      2  O   UNL A   1      30.245  28.509  23.952  1.00  0.00    -0.268 OA
ATOM      3  N   UNL A   1      31.336  28.593  25.836  1.00  0.00    -0.351 N 
ATOM      4  H   UNL A   1      30.939  29.493  25.870  1.00  0.00     0.163 HD
ENDROOT
BRANCH   1   5
ATOM      5  C   UNL A   1      31.556  26.568  24.360  1.00  0.00     0.098 A 
ATOM      6  C   UNL A   1      32.208  21.940  24.022  1.00  0.00     0.121 A 
ATOM      7  N   UNL A   1      31.599  22.752  24.834  1.00  0.00    -0.223 NA
ATOM      8  N   UNL A   1      32.927  22.357  22.927  1.00  0.00    -0.309 N 
ATOM      9  C   UNL A   1      31.728  24.072  24.515  1.00  0.00     0.132 A 
ATOM     10  C   UNL A   1      33.211  23.665  22.659  1.00  0.00     0.259 A 
ATOM     11  H   UNL A   1      33.255  21.673  22.300  1.00  0.00     0.171 HD
ATOM     12  S   UNL A   1      30.925  25.292  25.370  1.00  0.00    -0.110 S 
ATOM     13  C   UNL A   1      32.483  24.597  23.496  1.00  0.00     0.080 A 
ATOM     14  O   UNL A   1      34.030  23.951  21.805  1.00  0.00    -0.269 OA
ATOM     15  C   UNL A   1      32.396  26.028  23.381  1.00  0.00    -0.012 A 
ATOM     16  C   UNL A   1      33.097  26.714  22.266  1.00  0.00     0.047 C 
BRANCH   6  17
ATOM     17  C   UNL A   1      32.191  20.442  24.200  1.00  0.00     0.152 C 
BRANCH  17  18
ATOM     18  S   UNL A   1      33.156  19.921  25.636  1.00  0.00    -0.085 SA
BRANCH  18  19
ATOM     19  C   UNL A   1      34.444  21.087  25.881  1.00  0.00     0.176 A 
ATOM     20  C   UNL A   1      36.242  22.671  25.909  1.00  0.00     0.210 A 
ATOM     21  N   UNL A   1      35.373  22.876  26.876  1.00  0.00    -0.119 NA
ATOM     22  S   UNL A   1      35.949  21.193  25.066  1.00  0.00    -0.068 S 
ATOM     23  N   UNL A   1      34.315  21.988  26.832  1.00  0.00    -0.130 NA
BRANCH  20  24
ATOM     24  N   UNL A   1      37.301  23.474  25.637  1.00  0.00    -0.330 N 
ATOM     25  H   UNL A   1      37.232  24.085  24.868  1.00  0.00     0.169 HD
BRANCH  24  26
ATOM     26  C   UNL A   1      38.505  23.488  26.391  1.00  0.00     0.041 A 
ATOM     27  C   UNL A   1      42.151  23.717  28.751  1.00  0.00     0.044 C 
ATOM     28  C   UNL A   1      40.897  23.609  27.927  1.00  0.00    -0.048 A 
ATOM     29  C   UNL A   1      40.032  24.709  27.847  1.00  0.00     0.006 A 
ATOM     30  C   UNL A   1      40.551  22.428  27.250  1.00  0.00    -0.046 A 
ATOM     31  C   UNL A   1      38.853  24.648  27.093  1.00  0.00     0.026 A 
ATOM     32  C   UNL A   1      39.357  22.382  26.500  1.00  0.00     0.029 A 
ATOM     33  C   UNL A   1      41.438  21.213  27.227  1.00  0.00     0.044 C 
ENDBRANCH  24  26
ENDBRANCH  20  24
ENDBRANCH  18  19
ENDBRANCH  17  18
ENDBRANCH   6  17
ENDBRANCH   1   5
BRANCH   3  34
ATOM     34  C   UNL A   1      32.120  28.263  27.003  1.00  0.00     0.118 C 
BRANCH  34  35
ATOM     35  C   UNL A   1      33.593  28.636  26.798  1.00  0.00     0.042 C 
BRANCH  35  36
ATOM     36  C   UNL A   1      34.200  29.316  27.987  1.00  0.00     0.118 C 
BRANCH  36  37
ATOM     37  N   UNL A   1      34.384  30.747  27.739  1.00  0.00    -0.352 N 
ATOM     38  C   UNL A   1      35.521  31.493  27.967  1.00  0.00     0.251 C 
ATOM     39  H   UNL A   1      33.611  31.230  27.368  1.00  0.00     0.163 HD
ATOM     40  O   UNL A   1      35.484  32.713  28.043  1.00  0.00    -0.269 OA
BRANCH  38  41
ATOM     41  C   UNL A   1      36.784  30.760  28.097  1.00  0.00     0.039 A 
ATOM     42  C   UNL A   1      37.134  29.708  27.248  1.00  0.00     0.014 A 
ATOM     43  C   UNL A   1      37.650  31.212  29.087  1.00  0.00     0.014 A 
ATOM     44  C   UNL A   1      38.385  29.128  27.415  1.00  0.00     0.010 A 
ATOM     45  C   UNL A   1      38.956  30.849  29.048  1.00  0.00     0.010 A 
ATOM     46  C   UNL A   1      39.271  29.711  28.330  1.00  0.00    -0.014 A 
BRANCH  46  47
ATOM     47  C   UNL A   1      40.583  29.178  28.609  1.00  0.00     0.031 A 
ATOM     48  C   UNL A   1      40.798  28.860  30.036  1.00  0.00     0.074 A 
ATOM     49  C   UNL A   1      41.369  28.753  27.595  1.00  0.00     0.049 A 
ATOM     50  N   UNL A   1      41.492  29.535  30.889  1.00  0.00    -0.248 NA
ATOM     51  C   UNL A   1      39.969  27.806  30.645  1.00  0.00     0.031 C 
ATOM     52  C   UNL A   1      41.074  28.694  26.156  1.00  0.00     0.029 A 
ATOM     53  N   UNL A   1      42.593  28.175  27.671  1.00  0.00    -0.354 N 
ATOM     54  C   UNL A   1      41.400  28.826  32.084  1.00  0.00     0.074 A 
ATOM     55  C   UNL A   1      40.256  27.970  31.938  1.00  0.00     0.031 C 
ATOM     56  C   UNL A   1      41.989  27.917  25.534  1.00  0.00     0.029 A 
ATOM     57  C   UNL A   1      43.015  27.559  26.492  1.00  0.00     0.049 A 
ATOM     58  H   UNL A   1      43.140  28.187  28.489  1.00  0.00     0.167 HD
ATOM     59  C   UNL A   1      42.460  28.779  32.939  1.00  0.00     0.037 A 
ATOM     60  C   UNL A   1      44.116  26.775  26.377  1.00  0.00     0.037 A 
ATOM     61  C   UNL A   1      43.442  29.779  32.570  1.00  0.00     0.049 A 
ATOM     62  C   UNL A   1      44.980  27.082  27.554  1.00  0.00     0.074 A 
ATOM     63  C   UNL A   1      43.433  31.154  32.442  1.00  0.00     0.029 A 
ATOM     64  N   UNL A   1      44.537  29.345  31.856  1.00  0.00    -0.354 N 
ATOM     65  N   UNL A   1      45.551  28.244  27.738  1.00  0.00    -0.248 NA
ATOM     66  C   UNL A   1      44.753  26.301  28.765  1.00  0.00     0.031 C 
ATOM     67  C   UNL A   1      44.211  31.419  31.274  1.00  0.00     0.029 A 
ATOM     68  C   UNL A   1      44.727  30.207  30.811  1.00  0.00     0.049 A 
ATOM     69  H   UNL A   1      45.086  28.554  32.063  1.00  0.00     0.167 HD
ATOM     70  C   UNL A   1      45.371  28.524  29.088  1.00  0.00     0.074 A 
ATOM     71  C   UNL A   1      44.916  27.263  29.679  1.00  0.00     0.031 C 
ATOM     72  C   UNL A   1      45.300  29.811  29.544  1.00  0.00     0.037 A 
BRANCH  59  73
ATOM     73  C   UNL A   1      42.851  27.573  33.776  1.00  0.00     0.057 A 
ATOM     74  C   UNL A   1      43.517  26.424  33.307  1.00  0.00     0.134 A 
ATOM     75  C   UNL A   1      42.854  27.722  35.177  1.00  0.00     0.134 A 
ATOM     76  F   UNL A   1      43.580  26.084  32.017  1.00  0.00    -0.206 F 
ATOM     77  C   UNL A   1      44.244  25.574  34.146  1.00  0.00     0.040 A 
ATOM     78  C   UNL A   1      43.612  26.902  36.021  1.00  0.00     0.040 A 
ATOM     79  F   UNL A   1      42.203  28.736  35.766  1.00  0.00    -0.206 F 
ATOM     80  C   UNL A   1      44.337  25.840  35.500  1.00  0.00     0.006 A 
ENDBRANCH  59  73
BRANCH  60  81
ATOM     81  C   UNL A   1      44.299  25.575  25.531  1.00  0.00     0.057 A 
ATOM     82  C   UNL A   1      43.223  24.716  25.237  1.00  0.00     0.134 A 
ATOM     83  C   UNL A   1      45.574  25.090  25.202  1.00  0.00     0.134 A 
ATOM     84  F   UNL A   1      41.969  25.041  25.584  1.00  0.00    -0.206 F 
ATOM     85  C   UNL A   1      43.401  23.454  24.660  1.00  0.00     0.040 A 
ATOM     86  C   UNL A   1      45.766  23.826  24.625  1.00  0.00     0.040 A 
ATOM     87  F   UNL A   1      46.667  25.812  25.486  1.00  0.00    -0.206 F 
ATOM     88  C   UNL A   1      44.678  22.999  24.360  1.00  0.00     0.006 A 
ENDBRANCH  60  81
BRANCH  72  89
ATOM     89  C   UNL A   1      45.626  30.925  28.587  1.00  0.00     0.057 A 
ATOM     90  C   UNL A   1      44.587  31.487  27.840  1.00  0.00     0.134 A 
ATOM     91  C   UNL A   1      46.931  31.315  28.246  1.00  0.00     0.134 A 
ATOM     92  F   UNL A   1      43.318  31.115  28.068  1.00  0.00    -0.206 F 
ATOM     93  C   UNL A   1      44.828  32.389  26.802  1.00  0.00     0.040 A 
ATOM     94  C   UNL A   1      47.186  32.241  27.229  1.00  0.00     0.040 A 
ATOM     95  F   UNL A   1      47.996  30.760  28.836  1.00  0.00    -0.206 F 
ATOM     96  C   UNL A   1      46.130  32.775  26.497  1.00  0.00     0.006 A 
ENDBRANCH  72  89
ENDBRANCH  46  47
ENDBRANCH  38  41
ENDBRANCH  36  37
ENDBRANCH  35  36
ENDBRANCH  34  35
ENDBRANCH   3  34
TORSDOF 15
ENDMDL
MODEL 3
REMARK VINA RESULT:     -11.6      3.831      8.125
REMARK SMILES Cc1ccc(Nc2nnc(SCc3nc4sc(C(=O)NCCCNC(=O)c5ccc(-c6c7nc(c(-c8c(F)cccc8F)c8ccc([nH]8)c(-c8c(F)cccc8F)c8nc(c(-c9c(F)cccc9F)c9ccc6[nH]9)C=C8)C=C7)cc5)c(C)c4c(=O)[nH]3)s2)cc1C
REMARK SMILES IDX 18 1 19 2 20 3 17 5 13 6 14 7 86 8 15 9 84 10 16 12 83 13
REMARK SMILES IDX 85 14 81 15 82 16 12 17 11 18 10 19 7 20 8 21 87 22 9 23
REMARK SMILES IDX 6 24 5 26 1 27 2 28 3 29 89 30 4 31 88 32 90 33 21 34 22 35
REMARK SMILES IDX 23 36 24 37 25 38 26 40 27 41 28 42 80 43 29 44 79 45 30 46
REMARK SMILES IDX 31 47 32 48 73 49 33 50 78 51 72 52 74 53 34 54 77 55 71 56
REMARK SMILES IDX 70 57 35 59 61 60 44 61 60 62 45 63 48 64 59 65 75 66 46 67
REMARK SMILES IDX 47 68 58 70 76 71 49 72 36 73 37 74 42 75 38 76 39 77 41 78
REMARK SMILES IDX 43 79 40 80 62 81 63 82 68 83 64 84 65 85 67 86 69 87 66 88
REMARK SMILES IDX 50 89 51 90 56 91 52 92 53 93 55 94 57 95 54 96
REMARK H PARENT 20 4 86 11 6 25 24 39 74 58 48 69
REMARK Flexibility Score: inf
ROOT
ATOM      1  C   UNL A   1      32.359  28.367  24.620  1.00  0.00     0.261 C 
ATOM      2  O   UNL A   1      31.412  28.761  23.927  1.00  0.00    -0.268 OA
ATOM      3  N   UNL A   1      33.231  29.372  24.959  1.00  0.00    -0.351 N 
ATOM      4  H   UNL A   1      33.012  30.238  24.547  1.00  0.00     0.163 HD
ENDROOT
BRANCH   1   5
ATOM      5  C   UNL A   1      32.501  26.966  25.043  1.00  0.00     0.098 A 
ATOM      6  C   UNL A   1      34.175  22.697  26.006  1.00  0.00     0.121 A 
ATOM      7  N   UNL A   1      34.498  23.685  25.227  1.00  0.00    -0.223 NA
ATOM      8  N   UNL A   1      33.070  22.704  26.825  1.00  0.00    -0.309 N 
ATOM      9  C   UNL A   1      33.646  24.748  25.280  1.00  0.00     0.132 A 
ATOM     10  C   UNL A   1      32.110  23.675  26.796  1.00  0.00     0.259 A 
ATOM     11  H   UNL A   1      32.966  21.967  27.468  1.00  0.00     0.171 HD
ATOM     12  S   UNL A   1      33.938  26.185  24.434  1.00  0.00    -0.110 S 
ATOM     13  C   UNL A   1      32.479  24.827  25.998  1.00  0.00     0.080 A 
ATOM     14  O   UNL A   1      31.057  23.511  27.382  1.00  0.00    -0.269 OA
ATOM     15  C   UNL A   1      31.806  26.093  25.886  1.00  0.00    -0.012 A 
ATOM     16  C   UNL A   1      30.577  26.338  26.681  1.00  0.00     0.047 C 
BRANCH   6  17
ATOM     17  C   UNL A   1      34.985  21.427  26.093  1.00  0.00     0.152 C 
BRANCH  17  18
ATOM     18  S   UNL A   1      36.297  21.377  24.852  1.00  0.00    -0.085 SA
BRANCH  18  19
ATOM     19  C   UNL A   1      37.757  22.031  25.573  1.00  0.00     0.176 A 
ATOM     20  C   UNL A   1      39.562  23.096  26.734  1.00  0.00     0.210 A 
ATOM     21  N   UNL A   1      39.858  21.872  26.352  1.00  0.00    -0.119 NA
ATOM     22  S   UNL A   1      38.060  23.641  26.080  1.00  0.00    -0.068 S 
ATOM     23  N   UNL A   1      38.801  21.244  25.721  1.00  0.00    -0.130 NA
BRANCH  20  24
ATOM     24  N   UNL A   1      40.364  23.888  27.488  1.00  0.00    -0.330 N 
ATOM     25  H   UNL A   1      41.105  23.461  27.978  1.00  0.00     0.169 HD
BRANCH  24  26
ATOM     26  C   UNL A   1      40.203  25.293  27.618  1.00  0.00     0.041 A 
ATOM     27  C   UNL A   1      39.599  29.565  28.171  1.00  0.00     0.044 C 
ATOM     28  C   UNL A   1      39.825  28.093  27.955  1.00  0.00    -0.048 A 
ATOM     29  C   UNL A   1      39.244  27.173  28.837  1.00  0.00     0.006 A 
ATOM     30  C   UNL A   1      40.624  27.609  26.905  1.00  0.00    -0.046 A 
ATOM     31  C   UNL A   1      39.433  25.795  28.673  1.00  0.00     0.026 A 
ATOM     32  C   UNL A   1      40.807  26.218  26.758  1.00  0.00     0.029 A 
ATOM     33  C   UNL A   1      41.244  28.510  25.873  1.00  0.00     0.044 C 
ENDBRANCH  24  26
ENDBRANCH  20  24
ENDBRANCH  18  19
ENDBRANCH  17  18
ENDBRANCH   6  17
ENDBRANCH   1   5
BRANCH   3  34
ATOM     34  C   UNL A   1      34.404  29.412  25.801  1.00  0.00     0.118 C 
BRANCH  34  35
ATOM     35  C   UNL A   1      34.014  29.485  27.283  1.00  0.00     0.042 C 
BRANCH  35  36
ATOM     36  C   UNL A   1      34.904  30.386  28.082  1.00  0.00     0.118 C 
BRANCH  36  37
ATOM     37  N   UNL A   1      34.290  31.700  28.277  1.00  0.00    -0.352 N 
ATOM     38  C   UNL A   1      34.488  32.565  29.331  1.00  0.00     0.251 C 
ATOM     39  H   UNL A   1      33.666  31.999  27.577  1.00  0.00     0.163 HD
ATOM     40  O   UNL A   1      33.704  33.472  29.574  1.00  0.00    -0.269 OA
BRANCH  38  41
ATOM     41  C   UNL A   1      35.695  32.364  30.140  1.00  0.00     0.039 A 
ATOM     42  C   UNL A   1      35.682  31.676  31.354  1.00  0.00     0.014 A 
ATOM     43  C   UNL A   1      36.878  32.853  29.596  1.00  0.00     0.014 A 
ATOM     44  C   UNL A   1      36.894  31.482  32.003  1.00  0.00     0.010 A 
ATOM     45  C   UNL A   1      38.067  32.410  30.075  1.00  0.00     0.010 A 
ATOM     46  C   UNL A   1      38.069  31.869  31.348  1.00  0.00    -0.014 A 
BRANCH  46  47
ATOM     47  C   UNL A   1      39.382  31.746  31.936  1.00  0.00     0.031 A 
ATOM     48  C   UNL A   1      39.848  32.982  32.597  1.00  0.00     0.074 A 
ATOM     49  C   UNL A   1      39.935  30.524  32.100  1.00  0.00     0.049 A 
ATOM     50  N   UNL A   1      40.727  33.818  32.156  1.00  0.00    -0.248 NA
ATOM     51  C   UNL A   1      39.099  33.471  33.767  1.00  0.00     0.031 C 
ATOM     52  C   UNL A   1      39.367  29.201  31.801  1.00  0.00     0.029 A 
ATOM     53  N   UNL A   1      41.120  30.213  32.682  1.00  0.00    -0.354 N 
ATOM     54  C   UNL A   1      40.829  34.800  33.137  1.00  0.00     0.074 A 
ATOM     55  C   UNL A   1      39.636  34.682  33.928  1.00  0.00     0.031 C 
ATOM     56  C   UNL A   1      40.105  28.242  32.403  1.00  0.00     0.029 A 
ATOM     57  C   UNL A   1      41.276  28.861  32.989  1.00  0.00     0.049 A 
ATOM     58  H   UNL A   1      41.813  30.885  32.874  1.00  0.00     0.167 HD
ATOM     59  C   UNL A   1      42.030  35.390  33.397  1.00  0.00     0.037 A 
ATOM     60  C   UNL A   1      42.293  28.345  33.723  1.00  0.00     0.037 A 
ATOM     61  C   UNL A   1      42.972  35.086  32.340  1.00  0.00     0.049 A 
ATOM     62  C   UNL A   1      43.380  29.366  33.719  1.00  0.00     0.074 A 
ATOM     63  C   UNL A   1      43.010  35.298  30.976  1.00  0.00     0.029 A 
ATOM     64  N   UNL A   1      43.887  34.087  32.587  1.00  0.00    -0.354 N 
ATOM     65  N   UNL A   1      44.035  29.707  32.640  1.00  0.00    -0.248 NA
ATOM     66  C   UNL A   1      43.349  30.372  34.774  1.00  0.00     0.031 C 
ATOM     67  C   UNL A   1      43.563  34.099  30.433  1.00  0.00     0.029 A 
ATOM     68  C   UNL A   1      43.918  33.264  31.494  1.00  0.00     0.049 A 
ATOM     69  H   UNL A   1      44.424  33.983  33.406  1.00  0.00     0.167 HD
ATOM     70  C   UNL A   1      44.132  31.093  32.702  1.00  0.00     0.074 A 
ATOM     71  C   UNL A   1      43.734  31.441  34.067  1.00  0.00     0.031 C 
ATOM     72  C   UNL A   1      44.216  31.851  31.567  1.00  0.00     0.037 A 
BRANCH  59  73
ATOM     73  C   UNL A   1      42.511  35.816  34.773  1.00  0.00     0.057 A 
ATOM     74  C   UNL A   1      42.758  34.960  35.863  1.00  0.00     0.134 A 
ATOM     75  C   UNL A   1      43.068  37.105  34.902  1.00  0.00     0.134 A 
ATOM     76  F   UNL A   1      42.273  33.718  35.949  1.00  0.00    -0.206 F 
ATOM     77  C   UNL A   1      43.604  35.305  36.922  1.00  0.00     0.040 A 
ATOM     78  C   UNL A   1      43.948  37.446  35.935  1.00  0.00     0.040 A 
ATOM     79  F   UNL A   1      42.858  38.045  33.968  1.00  0.00    -0.206 F 
ATOM     80  C   UNL A   1      44.243  36.532  36.935  1.00  0.00     0.006 A 
ENDBRANCH  59  73
BRANCH  60  81
ATOM     81  C   UNL A   1      42.248  27.215  34.678  1.00  0.00     0.057 A 
ATOM     82  C   UNL A   1      41.695  27.366  35.964  1.00  0.00     0.134 A 
ATOM     83  C   UNL A   1      42.975  26.035  34.461  1.00  0.00     0.134 A 
ATOM     84  F   UNL A   1      41.051  28.490  36.310  1.00  0.00    -0.206 F 
ATOM     85  C   UNL A   1      41.858  26.409  36.972  1.00  0.00     0.040 A 
ATOM     86  C   UNL A   1      43.148  25.069  35.463  1.00  0.00     0.040 A 
ATOM     87  F   UNL A   1      43.581  25.820  33.285  1.00  0.00    -0.206 F 
ATOM     88  C   UNL A   1      42.596  25.259  36.728  1.00  0.00     0.006 A 
ENDBRANCH  60  81
BRANCH  72  89
ATOM     89  C   UNL A   1      44.410  31.147  30.252  1.00  0.00     0.057 A 
ATOM     90  C   UNL A   1      45.711  30.995  29.763  1.00  0.00     0.134 A 
ATOM     91  C   UNL A   1      43.364  30.799  29.382  1.00  0.00     0.134 A 
ATOM     92  F   UNL A   1      46.759  31.366  30.515  1.00  0.00    -0.206 F 
ATOM     93  C   UNL A   1      45.965  30.526  28.473  1.00  0.00     0.040 A 
ATOM     94  C   UNL A   1      43.604  30.297  28.098  1.00  0.00     0.040 A 
ATOM     95  F   UNL A   1      42.086  30.999  29.720  1.00  0.00    -0.206 F 
ATOM     96  C   UNL A   1      44.911  30.167  27.637  1.00  0.00     0.006 A 
ENDBRANCH  72  89
ENDBRANCH  46  47
ENDBRANCH  38  41
ENDBRANCH  36  37
ENDBRANCH  35  36
ENDBRANCH  34  35
ENDBRANCH   3  34
TORSDOF 15
ENDMDL
