MODEL 1
REMARK VINA RESULT:     -10.7      0.000      0.000
REMARK SMILES CC(C)N1C(=O)C[C@@H](Sc2csc(C(=O)NCCCNC(=O)c3ccc(-c4c5nc(c(-c6c(F)cccc6F)c6ccc([nH]6)c(-c6c(F)cccc6F)c6nc(c(-c7c(F)cccc7F)c7ccc4[nH]7)C=C6)C=C5)cc3)c2)C1=O
REMARK SMILES IDX 17 1 16 2 14 3 15 4 13 6 10 7 11 8 77 9 12 10 9 11 8 12 4 13
REMARK SMILES IDX 5 14 78 15 6 16 7 17 79 18 2 19 1 20 3 21 18 22 19 23 20 24
REMARK SMILES IDX 21 25 22 27 23 28 24 29 76 30 25 31 75 32 26 33 27 34 28 35
REMARK SMILES IDX 69 36 29 37 74 38 68 39 70 40 30 41 73 42 67 43 66 44 31 46
REMARK SMILES IDX 57 47 40 48 56 49 41 50 44 51 55 52 71 53 42 54 43 55 54 57
REMARK SMILES IDX 72 58 45 59 32 60 33 61 38 62 34 63 35 64 37 65 39 66 36 67
REMARK SMILES IDX 58 68 59 69 64 70 60 71 61 72 63 73 65 74 62 75 46 76 47 77
REMARK SMILES IDX 52 78 48 79 49 80 51 81 53 82 50 83
REMARK H PARENT 16 5 20 26 70 45 44 56
REMARK Flexibility Score: inf
ROOT
ATOM      1  C   UNL A   1      33.154  34.190  28.445  1.00  0.00     0.118 C 
ENDROOT
BRANCH   1   2
ATOM      2  N   UNL A   1      33.123  35.635  28.386  1.00  0.00    -0.351 N 
ATOM      3  C   UNL A   1      33.301  36.593  29.353  1.00  0.00     0.261 C 
ATOM      4  O   UNL A   1      33.240  37.756  28.945  1.00  0.00    -0.268 OA
ATOM      5  H   UNL A   1      32.942  35.998  27.489  1.00  0.00     0.163 HD
BRANCH   3   6
ATOM      6  C   UNL A   1      33.565  36.239  30.741  1.00  0.00     0.093 A 
ATOM      7  C   UNL A   1      34.213  35.205  32.761  1.00  0.00     0.020 A 
ATOM      8  C   UNL A   1      33.825  36.445  33.194  1.00  0.00     0.080 A 
ATOM      9  C   UNL A   1      33.977  35.069  31.358  1.00  0.00     0.040 A 
ATOM     10  S   UNL A   1      33.311  37.464  31.925  1.00  0.00    -0.137 S 
BRANCH   7  11
ATOM     11  S   UNL A   1      34.880  33.845  33.650  1.00  0.00    -0.111 SA
BRANCH  11  12
ATOM     12  C   UNL A   1      36.614  34.180  34.027  1.00  0.00     0.150 C 
ATOM     13  N   UNL A   1      38.468  32.769  33.849  1.00  0.00    -0.279 N 
ATOM     14  C   UNL A   1      38.533  33.598  32.764  1.00  0.00     0.231 C 
ATOM     15  C   UNL A   1      37.357  33.011  34.617  1.00  0.00     0.243 C 
ATOM     16  O   UNL A   1      39.317  33.528  31.826  1.00  0.00    -0.274 OA
ATOM     17  C   UNL A   1      37.440  34.621  32.836  1.00  0.00     0.125 C 
ATOM     18  O   UNL A   1      37.020  32.391  35.615  1.00  0.00    -0.273 OA
BRANCH  13  19
ATOM     19  C   UNL A   1      39.353  31.623  34.089  1.00  0.00     0.087 C 
ATOM     20  C   UNL A   1      38.998  30.447  33.178  1.00  0.00     0.031 C 
ATOM     21  C   UNL A   1      40.834  31.979  33.963  1.00  0.00     0.031 C 
ENDBRANCH  13  19
ENDBRANCH  11  12
ENDBRANCH   7  11
ENDBRANCH   3   6
ENDBRANCH   1   2
BRANCH   1  22
ATOM     22  C   UNL A   1      34.532  33.655  28.061  1.00  0.00     0.042 C 
BRANCH  22  23
ATOM     23  C   UNL A   1      34.975  32.487  28.938  1.00  0.00     0.118 C 
BRANCH  23  24
ATOM     24  N   UNL A   1      34.309  31.247  28.560  1.00  0.00    -0.352 N 
ATOM     25  C   UNL A   1      34.834  30.043  28.169  1.00  0.00     0.251 C 
ATOM     26  H   UNL A   1      33.326  31.279  28.590  1.00  0.00     0.163 HD
ATOM     27  O   UNL A   1      34.111  29.211  27.632  1.00  0.00    -0.269 OA
BRANCH  25  28
ATOM     28  C   UNL A   1      36.262  29.745  28.393  1.00  0.00     0.039 A 
ATOM     29  C   UNL A   1      36.666  29.276  29.646  1.00  0.00     0.014 A 
ATOM     30  C   UNL A   1      37.207  29.967  27.387  1.00  0.00     0.014 A 
ATOM     31  C   UNL A   1      38.010  28.978  29.872  1.00  0.00     0.010 A 
ATOM     32  C   UNL A   1      38.530  29.592  27.586  1.00  0.00     0.010 A 
ATOM     33  C   UNL A   1      38.945  29.099  28.831  1.00  0.00    -0.014 A 
BRANCH  33  34
ATOM     34  C   UNL A   1      40.362  28.707  29.024  1.00  0.00     0.031 A 
ATOM     35  C   UNL A   1      41.345  29.680  29.610  1.00  0.00     0.074 A 
ATOM     36  C   UNL A   1      40.773  27.497  28.602  1.00  0.00     0.049 A 
ATOM     37  N   UNL A   1      42.634  29.544  29.792  1.00  0.00    -0.248 NA
ATOM     38  C   UNL A   1      40.815  30.990  30.019  1.00  0.00     0.031 C 
ATOM     39  C   UNL A   1      39.919  26.485  27.977  1.00  0.00     0.029 A 
ATOM     40  N   UNL A   1      42.015  26.915  28.627  1.00  0.00    -0.354 N 
ATOM     41  C   UNL A   1      43.069  30.751  30.325  1.00  0.00     0.074 A 
ATOM     42  C   UNL A   1      41.919  31.628  30.378  1.00  0.00     0.031 C 
ATOM     43  C   UNL A   1      40.656  25.396  27.706  1.00  0.00     0.029 A 
ATOM     44  C   UNL A   1      42.039  25.651  28.093  1.00  0.00     0.049 A 
ATOM     45  H   UNL A   1      42.812  27.362  28.992  1.00  0.00     0.167 HD
ATOM     46  C   UNL A   1      44.310  31.088  30.752  1.00  0.00     0.037 A 
ATOM     47  C   UNL A   1      43.064  24.795  27.925  1.00  0.00     0.037 A 
ATOM     48  C   UNL A   1      45.447  30.206  30.701  1.00  0.00     0.049 A 
ATOM     49  C   UNL A   1      44.438  25.203  28.377  1.00  0.00     0.074 A 
ATOM     50  C   UNL A   1      46.734  30.430  31.156  1.00  0.00     0.029 A 
ATOM     51  N   UNL A   1      45.434  28.933  30.149  1.00  0.00    -0.354 N 
ATOM     52  N   UNL A   1      44.823  26.321  28.945  1.00  0.00    -0.248 NA
ATOM     53  C   UNL A   1      45.519  24.231  28.168  1.00  0.00     0.031 C 
ATOM     54  C   UNL A   1      47.513  29.316  30.828  1.00  0.00     0.029 A 
ATOM     55  C   UNL A   1      46.698  28.372  30.224  1.00  0.00     0.049 A 
ATOM     56  H   UNL A   1      44.643  28.494  29.762  1.00  0.00     0.167 HD
ATOM     57  C   UNL A   1      46.184  26.176  29.186  1.00  0.00     0.074 A 
ATOM     58  C   UNL A   1      46.551  24.856  28.715  1.00  0.00     0.031 C 
ATOM     59  C   UNL A   1      47.049  27.057  29.748  1.00  0.00     0.037 A 
BRANCH  46  60
ATOM     60  C   UNL A   1      44.496  32.477  31.299  1.00  0.00     0.057 A 
ATOM     61  C   UNL A   1      44.390  32.754  32.670  1.00  0.00     0.134 A 
ATOM     62  C   UNL A   1      44.795  33.548  30.449  1.00  0.00     0.134 A 
ATOM     63  F   UNL A   1      44.094  31.778  33.541  1.00  0.00    -0.206 F 
ATOM     64  C   UNL A   1      44.532  34.051  33.168  1.00  0.00     0.040 A 
ATOM     65  C   UNL A   1      44.974  34.843  30.939  1.00  0.00     0.040 A 
ATOM     66  F   UNL A   1      44.922  33.355  29.127  1.00  0.00    -0.206 F 
ATOM     67  C   UNL A   1      44.832  35.099  32.301  1.00  0.00     0.006 A 
ENDBRANCH  46  60
BRANCH  47  68
ATOM     68  C   UNL A   1      42.821  23.458  27.327  1.00  0.00     0.057 A 
ATOM     69  C   UNL A   1      42.419  22.377  28.120  1.00  0.00     0.134 A 
ATOM     70  C   UNL A   1      42.970  23.231  25.954  1.00  0.00     0.134 A 
ATOM     71  F   UNL A   1      42.274  22.530  29.445  1.00  0.00    -0.206 F 
ATOM     72  C   UNL A   1      42.187  21.115  27.573  1.00  0.00     0.040 A 
ATOM     73  C   UNL A   1      42.715  21.980  25.388  1.00  0.00     0.040 A 
ATOM     74  F   UNL A   1      43.342  24.227  25.138  1.00  0.00    -0.206 F 
ATOM     75  C   UNL A   1      42.329  20.916  26.201  1.00  0.00     0.006 A 
ENDBRANCH  47  68
BRANCH  59  76
ATOM     76  C   UNL A   1      48.473  26.608  29.913  1.00  0.00     0.057 A 
ATOM     77  C   UNL A   1      49.462  26.920  28.972  1.00  0.00     0.134 A 
ATOM     78  C   UNL A   1      48.866  25.889  31.049  1.00  0.00     0.134 A 
ATOM     79  F   UNL A   1      49.151  27.594  27.855  1.00  0.00    -0.206 F 
ATOM     80  C   UNL A   1      50.787  26.512  29.144  1.00  0.00     0.040 A 
ATOM     81  C   UNL A   1      50.191  25.502  31.248  1.00  0.00     0.040 A 
ATOM     82  F   UNL A   1      47.970  25.565  31.994  1.00  0.00    -0.206 F 
ATOM     83  C   UNL A   1      51.155  25.809  30.290  1.00  0.00     0.006 A 
ENDBRANCH  59  76
ENDBRANCH  33  34
ENDBRANCH  25  28
ENDBRANCH  23  24
ENDBRANCH  22  23
ENDBRANCH   1  22
TORSDOF 13
ENDMDL
MODEL 2
REMARK VINA RESULT:     -10.6      4.817      9.617
REMARK SMILES CC(C)N1C(=O)C[C@@H](Sc2csc(C(=O)NCCCNC(=O)c3ccc(-c4c5nc(c(-c6c(F)cccc6F)c6ccc([nH]6)c(-c6c(F)cccc6F)c6nc(c(-c7c(F)cccc7F)c7ccc4[nH]7)C=C6)C=C5)cc3)c2)C1=O
REMARK SMILES IDX 17 1 16 2 14 3 15 4 13 6 10 7 11 8 77 9 12 10 9 11 8 12 4 13
REMARK SMILES IDX 5 14 78 15 6 16 7 17 79 18 2 19 1 20 3 21 18 22 19 23 20 24
REMARK SMILES IDX 21 25 22 27 23 28 24 29 76 30 25 31 75 32 26 33 27 34 28 35
REMARK SMILES IDX 69 36 29 37 74 38 68 39 70 40 30 41 73 42 67 43 66 44 31 46
REMARK SMILES IDX 57 47 40 48 56 49 41 50 44 51 55 52 71 53 42 54 43 55 54 57
REMARK SMILES IDX 72 58 45 59 32 60 33 61 38 62 34 63 35 64 37 65 39 66 36 67
REMARK SMILES IDX 58 68 59 69 64 70 60 71 61 72 63 73 65 74 62 75 46 76 47 77
REMARK SMILES IDX 52 78 48 79 49 80 51 81 53 82 50 83
REMARK H PARENT 16 5 20 26 70 45 44 56
REMARK Flexibility Score: inf
ROOT
ATOM      1  C   UNL A   1      36.382  20.557  25.002  1.00  0.00     0.118 C 
ENDROOT
BRANCH   1   2
ATOM      2  N   UNL A   1      36.837  21.874  25.390  1.00  0.00    -0.351 N 
ATOM      3  C   UNL A   1      36.154  22.998  25.784  1.00  0.00     0.261 C 
ATOM      4  O   UNL A   1      36.869  23.959  26.081  1.00  0.00    -0.268 OA
ATOM      5  H   UNL A   1      37.815  21.985  25.368  1.00  0.00     0.163 HD
BRANCH   3   6
ATOM      6  C   UNL A   1      34.701  23.022  25.862  1.00  0.00     0.093 A 
ATOM      7  C   UNL A   1      32.383  23.132  25.433  1.00  0.00     0.020 A 
ATOM      8  C   UNL A   1      32.405  22.769  26.753  1.00  0.00     0.080 A 
ATOM      9  C   UNL A   1      33.710  23.360  24.954  1.00  0.00     0.040 A 
ATOM     10  S   UNL A   1      33.987  22.580  27.365  1.00  0.00    -0.137 S 
BRANCH   7  11
ATOM     11  S   UNL A   1      31.028  23.375  24.341  1.00  0.00    -0.111 SA
BRANCH  11  12
ATOM     12  C   UNL A   1      30.713  25.145  24.175  1.00  0.00     0.150 C 
ATOM     13  N   UNL A   1      31.763  26.943  25.237  1.00  0.00    -0.279 N 
ATOM     14  C   UNL A   1      32.287  26.906  23.975  1.00  0.00     0.231 C 
ATOM     15  C   UNL A   1      30.867  25.925  25.453  1.00  0.00     0.243 C 
ATOM     16  O   UNL A   1      33.209  27.584  23.539  1.00  0.00    -0.274 OA
ATOM     17  C   UNL A   1      31.601  25.847  23.168  1.00  0.00     0.125 C 
ATOM     18  O   UNL A   1      30.285  25.685  26.501  1.00  0.00    -0.273 OA
BRANCH  13  19
ATOM     19  C   UNL A   1      32.219  27.826  26.316  1.00  0.00     0.087 C 
ATOM     20  C   UNL A   1      33.736  27.740  26.500  1.00  0.00     0.031 C 
ATOM     21  C   UNL A   1      31.778  29.277  26.123  1.00  0.00     0.031 C 
ENDBRANCH  13  19
ENDBRANCH  11  12
ENDBRANCH   7  11
ENDBRANCH   3   6
ENDBRANCH   1   2
BRANCH   1  22
ATOM     22  C   UNL A   1      37.535  19.557  24.999  1.00  0.00     0.042 C 
BRANCH  22  23
ATOM     23  C   UNL A   1      38.843  20.164  25.500  1.00  0.00     0.118 C 
BRANCH  23  24
ATOM     24  N   UNL A   1      39.845  19.140  25.764  1.00  0.00    -0.352 N 
ATOM     25  C   UNL A   1      41.186  19.259  26.022  1.00  0.00     0.251 C 
ATOM     26  H   UNL A   1      39.506  18.216  25.756  1.00  0.00     0.163 HD
ATOM     27  O   UNL A   1      41.909  18.271  25.948  1.00  0.00    -0.269 OA
BRANCH  25  28
ATOM     28  C   UNL A   1      41.761  20.567  26.391  1.00  0.00     0.039 A 
ATOM     29  C   UNL A   1      42.194  21.425  25.376  1.00  0.00     0.014 A 
ATOM     30  C   UNL A   1      41.913  20.930  27.732  1.00  0.00     0.014 A 
ATOM     31  C   UNL A   1      42.728  22.671  25.706  1.00  0.00     0.010 A 
ATOM     32  C   UNL A   1      42.369  22.202  28.057  1.00  0.00     0.010 A 
ATOM     33  C   UNL A   1      42.786  23.082  27.048  1.00  0.00    -0.014 A 
BRANCH  33  34
ATOM     34  C   UNL A   1      43.271  24.434  27.415  1.00  0.00     0.031 A 
ATOM     35  C   UNL A   1      42.300  25.498  27.845  1.00  0.00     0.074 A 
ATOM     36  C   UNL A   1      44.580  24.719  27.293  1.00  0.00     0.049 A 
ATOM     37  N   UNL A   1      42.527  26.753  28.139  1.00  0.00    -0.248 NA
ATOM     38  C   UNL A   1      40.884  25.107  27.926  1.00  0.00     0.031 C 
ATOM     39  C   UNL A   1      45.611  23.781  26.843  1.00  0.00     0.029 A 
ATOM     40  N   UNL A   1      45.269  25.882  27.527  1.00  0.00    -0.354 N 
ATOM     41  C   UNL A   1      41.284  27.302  28.428  1.00  0.00     0.074 A 
ATOM     42  C   UNL A   1      40.302  26.262  28.213  1.00  0.00     0.031 C 
ATOM     43  C   UNL A   1      46.804  24.396  26.863  1.00  0.00     0.029 A 
ATOM     44  C   UNL A   1      46.616  25.782  27.279  1.00  0.00     0.049 A 
ATOM     45  H   UNL A   1      44.838  26.709  27.840  1.00  0.00     0.167 HD
ATOM     46  C   UNL A   1      40.992  28.554  28.856  1.00  0.00     0.037 A 
ATOM     47  C   UNL A   1      47.589  26.707  27.369  1.00  0.00     0.037 A 
ATOM     48  C   UNL A   1      41.977  29.582  29.072  1.00  0.00     0.049 A 
ATOM     49  C   UNL A   1      47.237  28.098  27.815  1.00  0.00     0.074 A 
ATOM     50  C   UNL A   1      41.794  30.865  29.555  1.00  0.00     0.029 A 
ATOM     51  N   UNL A   1      43.332  29.444  28.807  1.00  0.00    -0.354 N 
ATOM     52  N   UNL A   1      46.068  28.586  28.154  1.00  0.00    -0.248 NA
ATOM     53  C   UNL A   1      48.339  29.066  27.893  1.00  0.00     0.031 C 
ATOM     54  C   UNL A   1      43.028  31.522  29.527  1.00  0.00     0.029 A 
ATOM     55  C   UNL A   1      43.992  30.630  29.086  1.00  0.00     0.049 A 
ATOM     56  H   UNL A   1      43.761  28.625  28.471  1.00  0.00     0.167 HD
ATOM     57  C   UNL A   1      46.297  29.908  28.512  1.00  0.00     0.074 A 
ATOM     58  C   UNL A   1      47.720  30.139  28.362  1.00  0.00     0.031 C 
ATOM     59  C   UNL A   1      45.409  30.845  28.929  1.00  0.00     0.037 A 
BRANCH  46  60
ATOM     60  C   UNL A   1      39.544  28.877  29.103  1.00  0.00     0.057 A 
ATOM     61  C   UNL A   1      38.946  28.688  30.358  1.00  0.00     0.134 A 
ATOM     62  C   UNL A   1      38.740  29.393  28.080  1.00  0.00     0.134 A 
ATOM     63  F   UNL A   1      39.655  28.187  31.381  1.00  0.00    -0.206 F 
ATOM     64  C   UNL A   1      37.593  28.961  30.572  1.00  0.00     0.040 A 
ATOM     65  C   UNL A   1      37.395  29.701  28.291  1.00  0.00     0.040 A 
ATOM     66  F   UNL A   1      39.247  29.608  26.856  1.00  0.00    -0.206 F 
ATOM     67  C   UNL A   1      36.815  29.474  29.538  1.00  0.00     0.006 A 
ENDBRANCH  46  60
BRANCH  47  68
ATOM     68  C   UNL A   1      48.993  26.336  27.057  1.00  0.00     0.057 A 
ATOM     69  C   UNL A   1      49.486  26.422  25.750  1.00  0.00     0.134 A 
ATOM     70  C   UNL A   1      49.876  25.903  28.053  1.00  0.00     0.134 A 
ATOM     71  F   UNL A   1      48.683  26.815  24.751  1.00  0.00    -0.206 F 
ATOM     72  C   UNL A   1      50.802  26.076  25.441  1.00  0.00     0.040 A 
ATOM     73  C   UNL A   1      51.203  25.579  27.763  1.00  0.00     0.040 A 
ATOM     74  F   UNL A   1      49.468  25.809  29.327  1.00  0.00    -0.206 F 
ATOM     75  C   UNL A   1      51.667  25.660  26.452  1.00  0.00     0.006 A 
ENDBRANCH  47  68
BRANCH  59  76
ATOM     76  C   UNL A   1      45.956  32.198  29.283  1.00  0.00     0.057 A 
ATOM     77  C   UNL A   1      45.997  33.247  28.356  1.00  0.00     0.134 A 
ATOM     78  C   UNL A   1      46.411  32.466  30.581  1.00  0.00     0.134 A 
ATOM     79  F   UNL A   1      45.591  33.055  27.092  1.00  0.00    -0.206 F 
ATOM     80  C   UNL A   1      46.493  34.507  28.700  1.00  0.00     0.040 A 
ATOM     81  C   UNL A   1      46.879  33.728  30.946  1.00  0.00     0.040 A 
ATOM     82  F   UNL A   1      46.390  31.508  31.521  1.00  0.00    -0.206 F 
ATOM     83  C   UNL A   1      46.927  34.751  30.002  1.00  0.00     0.006 A 
ENDBRANCH  59  76
ENDBRANCH  33  34
ENDBRANCH  25  28
ENDBRANCH  23  24
ENDBRANCH  22  23
ENDBRANCH   1  22
TORSDOF 13
ENDMDL
MODEL 3
REMARK VINA RESULT:     -10.6      4.480      9.989
REMARK SMILES CC(C)N1C(=O)C[C@@H](Sc2csc(C(=O)NCCCNC(=O)c3ccc(-c4c5nc(c(-c6c(F)cccc6F)c6ccc([nH]6)c(-c6c(F)cccc6F)c6nc(c(-c7c(F)cccc7F)c7ccc4[nH]7)C=C6)C=C5)cc3)c2)C1=O
REMARK SMILES IDX 17 1 16 2 14 3 15 4 13 6 10 7 11 8 77 9 12 10 9 11 8 12 4 13
REMARK SMILES IDX 5 14 78 15 6 16 7 17 79 18 2 19 1 20 3 21 18 22 19 23 20 24
REMARK SMILES IDX 21 25 22 27 23 28 24 29 76 30 25 31 75 32 26 33 27 34 28 35
REMARK SMILES IDX 69 36 29 37 74 38 68 39 70 40 30 41 73 42 67 43 66 44 31 46
REMARK SMILES IDX 57 47 40 48 56 49 41 50 44 51 55 52 71 53 42 54 43 55 54 57
REMARK SMILES IDX 72 58 45 59 32 60 33 61 38 62 34 63 35 64 37 65 39 66 36 67
REMARK SMILES IDX 58 68 59 69 64 70 60 71 61 72 63 73 65 74 62 75 46 76 47 77
REMARK SMILES IDX 52 78 48 79 49 80 51 81 53 82 50 83
REMARK H PARENT 16 5 20 26 70 45 44 56
REMARK Flexibility Score: inf
ROOT
ATOM      1  C   UNL A   1      37.388  20.841  24.553  1.00  0.00     0.118 C 
ENDROOT
BRANCH   1   2
ATOM      2  N   UNL A   1      37.836  22.052  25.204  1.00  0.00    -0.351 N 
ATOM      3  C   UNL A   1      37.200  23.241  25.460  1.00  0.00     0.261 C 
ATOM      4  O   UNL A   1      37.878  24.068  26.076  1.00  0.00    -0.268 OA
ATOM      5  H   UNL A   1      38.767  22.018  25.523  1.00  0.00     0.163 HD
BRANCH   3   6
ATOM      6  C   UNL A   1      35.823  23.476  25.049  1.00  0.00     0.093 A 
ATOM      7  C   UNL A   1      33.807  23.805  23.867  1.00  0.00     0.020 A 
ATOM      8  C   UNL A   1      33.362  23.726  25.160  1.00  0.00     0.080 A 
ATOM      9  C   UNL A   1      35.234  23.747  23.824  1.00  0.00     0.040 A 
ATOM     10  S   UNL A   1      34.621  23.458  26.281  1.00  0.00    -0.137 S 
BRANCH   7  11
ATOM     11  S   UNL A   1      32.915  23.994  22.365  1.00  0.00    -0.111 SA
BRANCH  11  12
ATOM     12  C   UNL A   1      32.419  25.722  22.187  1.00  0.00     0.150 C 
ATOM     13  N   UNL A   1      32.007  27.323  23.838  1.00  0.00    -0.279 N 
ATOM     14  C   UNL A   1      33.248  27.617  23.344  1.00  0.00     0.231 C 
ATOM     15  C   UNL A   1      31.469  26.206  23.248  1.00  0.00     0.243 C 
ATOM     16  O   UNL A   1      34.032  28.455  23.770  1.00  0.00    -0.274 OA
ATOM     17  C   UNL A   1      33.569  26.708  22.198  1.00  0.00     0.125 C 
ATOM     18  O   UNL A   1      30.398  25.687  23.529  1.00  0.00    -0.273 OA
BRANCH  13  19
ATOM     19  C   UNL A   1      31.380  27.981  24.990  1.00  0.00     0.087 C 
ATOM     20  C   UNL A   1      32.104  27.630  26.292  1.00  0.00     0.031 C 
ATOM     21  C   UNL A   1      31.270  29.496  24.823  1.00  0.00     0.031 C 
ENDBRANCH  13  19
ENDBRANCH  11  12
ENDBRANCH   7  11
ENDBRANCH   3   6
ENDBRANCH   1   2
BRANCH   1  22
ATOM     22  C   UNL A   1      38.306  19.667  24.886  1.00  0.00     0.042 C 
BRANCH  22  23
ATOM     23  C   UNL A   1      39.289  19.989  26.009  1.00  0.00     0.118 C 
BRANCH  23  24
ATOM     24  N   UNL A   1      40.513  19.206  25.892  1.00  0.00    -0.352 N 
ATOM     25  C   UNL A   1      41.824  19.602  25.932  1.00  0.00     0.251 C 
ATOM     26  H   UNL A   1      40.377  18.240  25.765  1.00  0.00     0.163 HD
ATOM     27  O   UNL A   1      42.702  18.838  25.544  1.00  0.00    -0.269 OA
BRANCH  25  28
ATOM     28  C   UNL A   1      42.183  20.940  26.441  1.00  0.00     0.039 A 
ATOM     29  C   UNL A   1      42.535  21.939  25.528  1.00  0.00     0.014 A 
ATOM     30  C   UNL A   1      42.217  21.199  27.814  1.00  0.00     0.014 A 
ATOM     31  C   UNL A   1      42.865  23.213  25.991  1.00  0.00     0.010 A 
ATOM     32  C   UNL A   1      42.466  22.488  28.269  1.00  0.00     0.010 A 
ATOM     33  C   UNL A   1      42.797  23.506  27.363  1.00  0.00    -0.014 A 
BRANCH  33  34
ATOM     34  C   UNL A   1      43.062  24.874  27.869  1.00  0.00     0.031 A 
ATOM     35  C   UNL A   1      44.460  25.292  28.230  1.00  0.00     0.074 A 
ATOM     36  C   UNL A   1      42.029  25.713  28.069  1.00  0.00     0.049 A 
ATOM     37  N   UNL A   1      44.876  26.419  28.750  1.00  0.00    -0.248 NA
ATOM     38  C   UNL A   1      45.525  24.303  28.004  1.00  0.00     0.031 C 
ATOM     39  C   UNL A   1      40.624  25.403  27.797  1.00  0.00     0.029 A 
ATOM     40  N   UNL A   1      41.999  26.995  28.555  1.00  0.00    -0.354 N 
ATOM     41  C   UNL A   1      46.247  26.269  28.922  1.00  0.00     0.074 A 
ATOM     42  C   UNL A   1      46.580  24.923  28.511  1.00  0.00     0.031 C 
ATOM     43  C   UNL A   1      39.873  26.475  28.092  1.00  0.00     0.029 A 
ATOM     44  C   UNL A   1      40.735  27.528  28.617  1.00  0.00     0.049 A 
ATOM     45  H   UNL A   1      42.805  27.485  28.834  1.00  0.00     0.167 HD
ATOM     46  C   UNL A   1      47.147  27.181  29.362  1.00  0.00     0.037 A 
ATOM     47  C   UNL A   1      40.317  28.730  29.057  1.00  0.00     0.037 A 
ATOM     48  C   UNL A   1      46.807  28.521  29.764  1.00  0.00     0.049 A 
ATOM     49  C   UNL A   1      41.331  29.713  29.570  1.00  0.00     0.074 A 
ATOM     50  C   UNL A   1      47.649  29.539  30.173  1.00  0.00     0.029 A 
ATOM     51  N   UNL A   1      45.515  29.025  29.816  1.00  0.00    -0.354 N 
ATOM     52  N   UNL A   1      42.633  29.586  29.662  1.00  0.00    -0.248 NA
ATOM     53  C   UNL A   1      40.818  31.008  30.039  1.00  0.00     0.031 C 
ATOM     54  C   UNL A   1      46.862  30.640  30.529  1.00  0.00     0.029 A 
ATOM     55  C   UNL A   1      45.534  30.330  30.282  1.00  0.00     0.049 A 
ATOM     56  H   UNL A   1      44.705  28.529  29.560  1.00  0.00     0.167 HD
ATOM     57  C   UNL A   1      43.098  30.791  30.172  1.00  0.00     0.074 A 
ATOM     58  C   UNL A   1      41.938  31.641  30.355  1.00  0.00     0.031 C 
ATOM     59  C   UNL A   1      44.370  31.161  30.461  1.00  0.00     0.037 A 
BRANCH  46  60
ATOM     60  C   UNL A   1      48.585  26.746  29.441  1.00  0.00     0.057 A 
ATOM     61  C   UNL A   1      49.103  26.099  30.573  1.00  0.00     0.134 A 
ATOM     62  C   UNL A   1      49.460  26.966  28.371  1.00  0.00     0.134 A 
ATOM     63  F   UNL A   1      48.324  25.866  31.640  1.00  0.00    -0.206 F 
ATOM     64  C   UNL A   1      50.446  25.726  30.652  1.00  0.00     0.040 A 
ATOM     65  C   UNL A   1      50.797  26.567  28.425  1.00  0.00     0.040 A 
ATOM     66  F   UNL A   1      49.032  27.570  27.252  1.00  0.00    -0.206 F 
ATOM     67  C   UNL A   1      51.296  25.955  29.573  1.00  0.00     0.006 A 
ENDBRANCH  46  60
BRANCH  47  68
ATOM     68  C   UNL A   1      38.874  29.077  29.002  1.00  0.00     0.057 A 
ATOM     69  C   UNL A   1      38.288  29.533  27.815  1.00  0.00     0.134 A 
ATOM     70  C   UNL A   1      38.046  28.947  30.122  1.00  0.00     0.134 A 
ATOM     71  F   UNL A   1      39.035  29.692  26.712  1.00  0.00    -0.206 F 
ATOM     72  C   UNL A   1      36.935  29.863  27.748  1.00  0.00     0.040 A 
ATOM     73  C   UNL A   1      36.683  29.248  30.063  1.00  0.00     0.040 A 
ATOM     74  F   UNL A   1      38.543  28.505  31.286  1.00  0.00    -0.206 F 
ATOM     75  C   UNL A   1      36.126  29.714  28.874  1.00  0.00     0.006 A 
ENDBRANCH  47  68
BRANCH  59  76
ATOM     76  C   UNL A   1      44.578  32.557  30.976  1.00  0.00     0.057 A 
ATOM     77  C   UNL A   1      44.764  33.645  30.113  1.00  0.00     0.134 A 
ATOM     78  C   UNL A   1      44.553  32.821  32.351  1.00  0.00     0.134 A 
ATOM     79  F   UNL A   1      44.813  33.461  28.785  1.00  0.00    -0.206 F 
ATOM     80  C   UNL A   1      44.940  34.942  30.602  1.00  0.00     0.040 A 
ATOM     81  C   UNL A   1      44.696  34.115  32.850  1.00  0.00     0.040 A 
ATOM     82  F   UNL A   1      44.370  31.825  33.233  1.00  0.00    -0.206 F 
ATOM     83  C   UNL A   1      44.897  35.180  31.975  1.00  0.00     0.006 A 
ENDBRANCH  59  76
ENDBRANCH  33  34
ENDBRANCH  25  28
ENDBRANCH  23  24
ENDBRANCH  22  23
ENDBRANCH   1  22
TORSDOF 13
ENDMDL
