MODEL 1
REMARK VINA RESULT:     -14.4      0.000      0.000
REMARK SMILES Cc1ccc(-c2cc(C(=O)NCCCNC(=O)c3ccc(-c4c5nc(c(-c6c(F)cccc6F)c6ccc([nH]6)c(-c6c(F)cccc6F)c6nc(c(-c7c(F)cccc7F)c7ccc4[nH]7)C=C6)C=C5)cc3)c3c(-c4cccc([N+](=O)[O-])c4)[nH]nc3n2)cc1
REMARK SMILES IDX 13 1 12 2 11 3 9 4 10 5 8 7 6 8 7 9 86 10 85 11 72 12 84 13
REMARK SMILES IDX 73 14 83 15 5 17 1 18 2 19 3 20 88 21 4 22 87 23 74 24 75 25
REMARK SMILES IDX 82 26 76 27 78 28 77 29 79 30 80 31 81 32 14 33 15 34 16 35
REMARK SMILES IDX 17 37 18 38 19 39 71 40 20 41 70 42 21 43 22 44 23 45 64 46
REMARK SMILES IDX 24 47 69 48 63 49 65 50 25 51 68 52 62 53 61 54 26 56 52 57
REMARK SMILES IDX 35 58 51 59 36 60 39 61 50 62 66 63 37 64 38 65 49 67 67 68
REMARK SMILES IDX 40 69 27 70 28 71 33 72 29 73 30 74 32 75 34 76 31 77 53 78
REMARK SMILES IDX 54 79 59 80 55 81 56 82 58 83 60 84 57 85 41 86 42 87 47 88
REMARK SMILES IDX 43 89 44 90 46 91 48 92 45 93
REMARK H PARENT 11 6 83 16 15 36 65 55 39 66
REMARK Flexibility Score: inf
ROOT
ATOM      1  C   UNL A   1      33.720  28.929  27.498  1.00  0.00     0.042 C 
ENDROOT
BRANCH   1   2
ATOM      2  C   UNL A   1      33.236  28.225  26.227  1.00  0.00     0.118 C 
BRANCH   2   3
ATOM      3  N   UNL A   1      32.320  27.125  26.505  1.00  0.00    -0.352 N 
ATOM      4  C   UNL A   1      32.254  25.790  26.166  1.00  0.00     0.252 C 
ATOM      5  O   UNL A   1      31.374  25.173  26.760  1.00  0.00    -0.269 OA
ATOM      6  H   UNL A   1      31.565  27.402  27.073  1.00  0.00     0.163 HD
BRANCH   4   7
ATOM      7  C   UNL A   1      33.139  25.107  25.184  1.00  0.00     0.055 A 
ATOM      8  C   UNL A   1      35.223  23.821  24.662  1.00  0.00     0.074 A 
ATOM      9  C   UNL A   1      34.357  24.517  25.539  1.00  0.00     0.043 A 
ATOM     10  N   UNL A   1      35.019  23.648  23.339  1.00  0.00    -0.226 NA
ATOM     11  C   UNL A   1      33.856  24.208  22.915  1.00  0.00     0.182 A 
ATOM     12  C   UNL A   1      32.948  24.923  23.794  1.00  0.00     0.059 A 
ATOM     13  N   UNL A   1      33.412  24.165  21.662  1.00  0.00    -0.154 NA
ATOM     14  C   UNL A   1      31.934  25.349  22.947  1.00  0.00     0.076 A 
ATOM     15  N   UNL A   1      32.259  24.840  21.711  1.00  0.00    -0.275 N 
ATOM     16  H   UNL A   1      31.686  24.964  20.921  1.00  0.00     0.190 HD
BRANCH   8  17
ATOM     17  C   UNL A   1      36.441  23.238  25.251  1.00  0.00     0.000 A 
ATOM     18  C   UNL A   1      40.365  21.854  26.440  1.00  0.00     0.044 C 
ATOM     19  C   UNL A   1      38.990  22.322  26.066  1.00  0.00    -0.051 A 
ATOM     20  C   UNL A   1      38.131  21.492  25.334  1.00  0.00     0.004 A 
ATOM     21  C   UNL A   1      38.551  23.596  26.432  1.00  0.00     0.004 A 
ATOM     22  C   UNL A   1      36.867  21.943  24.933  1.00  0.00     0.010 A 
ATOM     23  C   UNL A   1      37.291  24.043  26.036  1.00  0.00     0.010 A 
ENDBRANCH   8  17
BRANCH  14  24
ATOM     24  C   UNL A   1      30.746  26.177  23.094  1.00  0.00     0.007 A 
ATOM     25  C   UNL A   1      29.613  25.682  23.755  1.00  0.00     0.011 A 
ATOM     26  C   UNL A   1      30.750  27.491  22.613  1.00  0.00     0.096 A 
ATOM     27  C   UNL A   1      28.509  26.508  23.981  1.00  0.00     0.008 A 
ATOM     28  C   UNL A   1      29.658  28.325  22.881  1.00  0.00     0.270 A 
ATOM     29  C   UNL A   1      28.533  27.838  23.559  1.00  0.00     0.085 A 
BRANCH  28  30
ATOM     30  N   UNL A   1      29.719  29.738  22.489  1.00  0.00     0.062 N 
ATOM     31  O   UNL A   1      29.651  30.590  23.388  1.00  0.00    -0.258 OA
ATOM     32  O   UNL A   1      29.820  30.001  21.282  1.00  0.00    -0.258 OA
ENDBRANCH  28  30
ENDBRANCH  14  24
ENDBRANCH   4   7
ENDBRANCH   2   3
ENDBRANCH   1   2
BRANCH   1  33
ATOM     33  C   UNL A   1      34.665  30.087  27.229  1.00  0.00     0.118 C 
BRANCH  33  34
ATOM     34  N   UNL A   1      35.029  30.848  28.421  1.00  0.00    -0.352 N 
ATOM     35  C   UNL A   1      36.117  30.650  29.259  1.00  0.00     0.251 C 
ATOM     36  H   UNL A   1      34.430  31.592  28.659  1.00  0.00     0.163 HD
ATOM     37  O   UNL A   1      36.314  31.375  30.218  1.00  0.00    -0.269 OA
BRANCH  35  38
ATOM     38  C   UNL A   1      37.100  29.610  28.878  1.00  0.00     0.039 A 
ATOM     39  C   UNL A   1      37.347  28.587  29.797  1.00  0.00     0.014 A 
ATOM     40  C   UNL A   1      37.948  29.819  27.795  1.00  0.00     0.014 A 
ATOM     41  C   UNL A   1      38.585  27.952  29.778  1.00  0.00     0.010 A 
ATOM     42  C   UNL A   1      39.210  29.255  27.830  1.00  0.00     0.010 A 
ATOM     43  C   UNL A   1      39.552  28.381  28.868  1.00  0.00    -0.014 A 
BRANCH  43  44
ATOM     44  C   UNL A   1      40.968  28.061  29.017  1.00  0.00     0.031 A 
ATOM     45  C   UNL A   1      41.538  26.845  28.407  1.00  0.00     0.074 A 
ATOM     46  C   UNL A   1      41.790  28.904  29.684  1.00  0.00     0.049 A 
ATOM     47  N   UNL A   1      42.597  26.247  28.840  1.00  0.00    -0.248 NA
ATOM     48  C   UNL A   1      40.928  26.187  27.261  1.00  0.00     0.031 C 
ATOM     49  C   UNL A   1      43.248  28.857  29.745  1.00  0.00     0.029 A 
ATOM     50  N   UNL A   1      41.434  29.855  30.651  1.00  0.00    -0.354 N 
ATOM     51  C   UNL A   1      42.971  25.326  27.891  1.00  0.00     0.074 A 
ATOM     52  C   UNL A   1      41.865  25.284  26.958  1.00  0.00     0.031 C 
ATOM     53  C   UNL A   1      43.649  29.456  30.875  1.00  0.00     0.029 A 
ATOM     54  C   UNL A   1      42.460  29.808  31.627  1.00  0.00     0.049 A 
ATOM     55  H   UNL A   1      40.638  30.434  30.651  1.00  0.00     0.167 HD
ATOM     56  C   UNL A   1      44.227  24.793  27.924  1.00  0.00     0.037 A 
ATOM     57  C   UNL A   1      42.186  29.433  32.909  1.00  0.00     0.037 A 
ATOM     58  C   UNL A   1      44.988  25.242  29.089  1.00  0.00     0.049 A 
ATOM     59  C   UNL A   1      42.887  28.169  33.363  1.00  0.00     0.074 A 
ATOM     60  C   UNL A   1      45.982  26.183  29.304  1.00  0.00     0.029 A 
ATOM     61  N   UNL A   1      44.546  24.873  30.348  1.00  0.00    -0.354 N 
ATOM     62  N   UNL A   1      43.727  27.485  32.635  1.00  0.00    -0.248 NA
ATOM     63  C   UNL A   1      42.610  27.521  34.646  1.00  0.00     0.031 C 
ATOM     64  C   UNL A   1      46.129  26.373  30.709  1.00  0.00     0.029 A 
ATOM     65  C   UNL A   1      45.218  25.552  31.346  1.00  0.00     0.049 A 
ATOM     66  H   UNL A   1      43.840  24.209  30.512  1.00  0.00     0.167 HD
ATOM     67  C   UNL A   1      44.036  26.316  33.281  1.00  0.00     0.074 A 
ATOM     68  C   UNL A   1      43.324  26.388  34.542  1.00  0.00     0.031 C 
ATOM     69  C   UNL A   1      44.811  25.340  32.724  1.00  0.00     0.037 A 
BRANCH  56  70
ATOM     70  C   UNL A   1      44.829  24.059  26.750  1.00  0.00     0.057 A 
ATOM     71  C   UNL A   1      44.525  22.707  26.503  1.00  0.00     0.134 A 
ATOM     72  C   UNL A   1      45.761  24.617  25.859  1.00  0.00     0.134 A 
ATOM     73  F   UNL A   1      43.568  22.062  27.181  1.00  0.00    -0.206 F 
ATOM     74  C   UNL A   1      45.196  21.940  25.542  1.00  0.00     0.040 A 
ATOM     75  C   UNL A   1      46.486  23.850  24.936  1.00  0.00     0.040 A 
ATOM     76  F   UNL A   1      45.974  25.939  25.811  1.00  0.00    -0.206 F 
ATOM     77  C   UNL A   1      46.216  22.497  24.787  1.00  0.00     0.006 A 
ENDBRANCH  56  70
BRANCH  57  78
ATOM     78  C   UNL A   1      40.841  29.885  33.352  1.00  0.00     0.057 A 
ATOM     79  C   UNL A   1      40.667  31.247  33.662  1.00  0.00     0.134 A 
ATOM     80  C   UNL A   1      39.691  29.135  33.101  1.00  0.00     0.134 A 
ATOM     81  F   UNL A   1      41.732  32.023  33.919  1.00  0.00    -0.206 F 
ATOM     82  C   UNL A   1      39.419  31.866  33.584  1.00  0.00     0.040 A 
ATOM     83  C   UNL A   1      38.433  29.741  33.044  1.00  0.00     0.040 A 
ATOM     84  F   UNL A   1      39.777  27.835  32.786  1.00  0.00    -0.206 F 
ATOM     85  C   UNL A   1      38.300  31.116  33.236  1.00  0.00     0.006 A 
ENDBRANCH  57  78
BRANCH  69  86
ATOM     86  C   UNL A   1      45.216  24.091  33.451  1.00  0.00     0.057 A 
ATOM     87  C   UNL A   1      44.348  23.000  33.607  1.00  0.00     0.134 A 
ATOM     88  C   UNL A   1      46.448  23.990  34.126  1.00  0.00     0.134 A 
ATOM     89  F   UNL A   1      43.119  23.013  33.071  1.00  0.00    -0.206 F 
ATOM     90  C   UNL A   1      44.702  21.862  34.342  1.00  0.00     0.040 A 
ATOM     91  C   UNL A   1      46.795  22.879  34.901  1.00  0.00     0.040 A 
ATOM     92  F   UNL A   1      47.375  24.954  34.047  1.00  0.00    -0.206 F 
ATOM     93  C   UNL A   1      45.925  21.803  35.001  1.00  0.00     0.006 A 
ENDBRANCH  69  86
ENDBRANCH  43  44
ENDBRANCH  35  38
ENDBRANCH  33  34
ENDBRANCH   1  33
TORSDOF 13
ENDMDL
MODEL 2
REMARK VINA RESULT:     -14.1      4.150      9.515
REMARK SMILES Cc1ccc(-c2cc(C(=O)NCCCNC(=O)c3ccc(-c4c5nc(c(-c6c(F)cccc6F)c6ccc([nH]6)c(-c6c(F)cccc6F)c6nc(c(-c7c(F)cccc7F)c7ccc4[nH]7)C=C6)C=C5)cc3)c3c(-c4cccc([N+](=O)[O-])c4)[nH]nc3n2)cc1
REMARK SMILES IDX 13 1 12 2 11 3 9 4 10 5 8 7 6 8 7 9 86 10 85 11 72 12 84 13
REMARK SMILES IDX 73 14 83 15 5 17 1 18 2 19 3 20 88 21 4 22 87 23 74 24 75 25
REMARK SMILES IDX 82 26 76 27 78 28 77 29 79 30 80 31 81 32 14 33 15 34 16 35
REMARK SMILES IDX 17 37 18 38 19 39 71 40 20 41 70 42 21 43 22 44 23 45 64 46
REMARK SMILES IDX 24 47 69 48 63 49 65 50 25 51 68 52 62 53 61 54 26 56 52 57
REMARK SMILES IDX 35 58 51 59 36 60 39 61 50 62 66 63 37 64 38 65 49 67 67 68
REMARK SMILES IDX 40 69 27 70 28 71 33 72 29 73 30 74 32 75 34 76 31 77 53 78
REMARK SMILES IDX 54 79 59 80 55 81 56 82 58 83 60 84 57 85 41 86 42 87 47 88
REMARK SMILES IDX 43 89 44 90 46 91 48 92 45 93
REMARK H PARENT 11 6 83 16 15 36 65 55 39 66
REMARK Flexibility Score: inf
ROOT
ATOM      1  C   UNL A   1      38.075  22.829  25.372  1.00  0.00     0.042 C 
ENDROOT
BRANCH   1   2
ATOM      2  C   UNL A   1      37.002  23.915  25.256  1.00  0.00     0.118 C 
BRANCH   2   3
ATOM      3  N   UNL A   1      36.107  23.705  24.123  1.00  0.00    -0.352 N 
ATOM      4  C   UNL A   1      34.780  23.969  23.854  1.00  0.00     0.252 C 
ATOM      5  O   UNL A   1      34.463  23.763  22.686  1.00  0.00    -0.269 OA
ATOM      6  H   UNL A   1      36.560  23.267  23.366  1.00  0.00     0.163 HD
BRANCH   4   7
ATOM      7  C   UNL A   1      33.784  24.461  24.844  1.00  0.00     0.055 A 
ATOM      8  C   UNL A   1      32.593  26.350  25.976  1.00  0.00     0.074 A 
ATOM      9  C   UNL A   1      33.551  25.820  25.079  1.00  0.00     0.043 A 
ATOM     10  N   UNL A   1      31.777  25.620  26.766  1.00  0.00    -0.226 NA
ATOM     11  C   UNL A   1      31.955  24.284  26.603  1.00  0.00     0.182 A 
ATOM     12  C   UNL A   1      32.926  23.714  25.687  1.00  0.00     0.059 A 
ATOM     13  N   UNL A   1      31.264  23.348  27.249  1.00  0.00    -0.154 NA
ATOM     14  C   UNL A   1      32.793  22.344  25.872  1.00  0.00     0.076 A 
ATOM     15  N   UNL A   1      31.775  22.202  26.786  1.00  0.00    -0.275 N 
ATOM     16  H   UNL A   1      31.445  21.321  27.077  1.00  0.00     0.190 HD
BRANCH   8  17
ATOM     17  C   UNL A   1      32.482  27.817  26.042  1.00  0.00     0.000 A 
ATOM     18  C   UNL A   1      31.583  32.005  26.658  1.00  0.00     0.044 C 
ATOM     19  C   UNL A   1      31.933  30.565  26.429  1.00  0.00    -0.051 A 
ATOM     20  C   UNL A   1      31.513  29.908  25.265  1.00  0.00     0.004 A 
ATOM     21  C   UNL A   1      32.671  29.855  27.379  1.00  0.00     0.004 A 
ATOM     22  C   UNL A   1      31.787  28.549  25.070  1.00  0.00     0.010 A 
ATOM     23  C   UNL A   1      32.947  28.502  27.182  1.00  0.00     0.010 A 
ENDBRANCH   8  17
BRANCH  14  24
ATOM     24  C   UNL A   1      33.480  21.163  25.371  1.00  0.00     0.007 A 
ATOM     25  C   UNL A   1      34.871  21.042  25.499  1.00  0.00     0.011 A 
ATOM     26  C   UNL A   1      32.743  20.121  24.797  1.00  0.00     0.096 A 
ATOM     27  C   UNL A   1      35.517  19.868  25.106  1.00  0.00     0.008 A 
ATOM     28  C   UNL A   1      33.392  18.931  24.446  1.00  0.00     0.270 A 
ATOM     29  C   UNL A   1      34.779  18.801  24.592  1.00  0.00     0.085 A 
BRANCH  28  30
ATOM     30  N   UNL A   1      32.598  17.794  23.966  1.00  0.00     0.062 N 
ATOM     31  O   UNL A   1      31.830  17.246  24.770  1.00  0.00    -0.258 OA
ATOM     32  O   UNL A   1      32.751  17.436  22.788  1.00  0.00    -0.258 OA
ENDBRANCH  28  30
ENDBRANCH  14  24
ENDBRANCH   4   7
ENDBRANCH   2   3
ENDBRANCH   1   2
BRANCH   1  33
ATOM     33  C   UNL A   1      38.832  22.862  26.687  1.00  0.00     0.118 C 
BRANCH  33  34
ATOM     34  N   UNL A   1      40.271  23.068  26.542  1.00  0.00    -0.352 N 
ATOM     35  C   UNL A   1      40.966  24.269  26.562  1.00  0.00     0.251 C 
ATOM     36  H   UNL A   1      40.814  22.257  26.413  1.00  0.00     0.163 HD
ATOM     37  O   UNL A   1      42.178  24.298  26.444  1.00  0.00    -0.269 OA
BRANCH  35  38
ATOM     38  C   UNL A   1      40.201  25.502  26.858  1.00  0.00     0.039 A 
ATOM     39  C   UNL A   1      40.601  26.679  26.222  1.00  0.00     0.014 A 
ATOM     40  C   UNL A   1      39.332  25.536  27.945  1.00  0.00     0.014 A 
ATOM     41  C   UNL A   1      40.343  27.899  26.839  1.00  0.00     0.010 A 
ATOM     42  C   UNL A   1      39.154  26.738  28.606  1.00  0.00     0.010 A 
ATOM     43  C   UNL A   1      39.727  27.906  28.092  1.00  0.00    -0.014 A 
BRANCH  43  44
ATOM     44  C   UNL A   1      39.760  29.066  28.977  1.00  0.00     0.031 A 
ATOM     45  C   UNL A   1      38.730  30.117  28.887  1.00  0.00     0.074 A 
ATOM     46  C   UNL A   1      40.718  29.169  29.928  1.00  0.00     0.049 A 
ATOM     47  N   UNL A   1      38.909  31.340  29.262  1.00  0.00    -0.248 NA
ATOM     48  C   UNL A   1      37.409  29.869  28.329  1.00  0.00     0.031 C 
ATOM     49  C   UNL A   1      40.777  30.132  31.025  1.00  0.00     0.029 A 
ATOM     50  N   UNL A   1      41.975  28.549  29.944  1.00  0.00    -0.354 N 
ATOM     51  C   UNL A   1      37.681  31.955  29.273  1.00  0.00     0.074 A 
ATOM     52  C   UNL A   1      36.790  31.016  28.624  1.00  0.00     0.031 C 
ATOM     53  C   UNL A   1      42.058  30.287  31.389  1.00  0.00     0.029 A 
ATOM     54  C   UNL A   1      42.869  29.514  30.469  1.00  0.00     0.049 A 
ATOM     55  H   UNL A   1      42.190  27.633  29.652  1.00  0.00     0.167 HD
ATOM     56  C   UNL A   1      37.521  33.134  29.941  1.00  0.00     0.037 A 
ATOM     57  C   UNL A   1      43.896  29.996  29.712  1.00  0.00     0.037 A 
ATOM     58  C   UNL A   1      38.780  33.632  30.492  1.00  0.00     0.049 A 
ATOM     59  C   UNL A   1      43.827  31.482  29.423  1.00  0.00     0.074 A 
ATOM     60  C   UNL A   1      39.363  33.638  31.749  1.00  0.00     0.029 A 
ATOM     61  N   UNL A   1      39.786  33.998  29.614  1.00  0.00    -0.354 N 
ATOM     62  N   UNL A   1      42.903  32.283  29.876  1.00  0.00    -0.248 NA
ATOM     63  C   UNL A   1      44.749  32.160  28.508  1.00  0.00     0.031 C 
ATOM     64  C   UNL A   1      40.731  34.012  31.612  1.00  0.00     0.029 A 
ATOM     65  C   UNL A   1      40.981  34.226  30.270  1.00  0.00     0.049 A 
ATOM     66  H   UNL A   1      39.665  34.085  28.642  1.00  0.00     0.167 HD
ATOM     67  C   UNL A   1      43.042  33.513  29.286  1.00  0.00     0.074 A 
ATOM     68  C   UNL A   1      44.218  33.392  28.448  1.00  0.00     0.031 C 
ATOM     69  C   UNL A   1      42.158  34.534  29.478  1.00  0.00     0.037 A 
BRANCH  56  70
ATOM     70  C   UNL A   1      36.162  33.690  30.294  1.00  0.00     0.057 A 
ATOM     71  C   UNL A   1      35.300  34.191  29.301  1.00  0.00     0.134 A 
ATOM     72  C   UNL A   1      35.670  33.809  31.604  1.00  0.00     0.134 A 
ATOM     73  F   UNL A   1      35.562  34.043  27.997  1.00  0.00    -0.206 F 
ATOM     74  C   UNL A   1      34.117  34.879  29.598  1.00  0.00     0.040 A 
ATOM     75  C   UNL A   1      34.522  34.548  31.923  1.00  0.00     0.040 A 
ATOM     76  F   UNL A   1      36.254  33.172  32.629  1.00  0.00    -0.206 F 
ATOM     77  C   UNL A   1      33.748  35.104  30.915  1.00  0.00     0.006 A 
ENDBRANCH  56  70
BRANCH  57  78
ATOM     78  C   UNL A   1      44.461  28.963  28.806  1.00  0.00     0.057 A 
ATOM     79  C   UNL A   1      45.281  27.965  29.366  1.00  0.00     0.134 A 
ATOM     80  C   UNL A   1      43.916  28.708  27.547  1.00  0.00     0.134 A 
ATOM     81  F   UNL A   1      45.841  28.149  30.572  1.00  0.00    -0.206 F 
ATOM     82  C   UNL A   1      45.435  26.715  28.764  1.00  0.00     0.040 A 
ATOM     83  C   UNL A   1      44.083  27.467  26.925  1.00  0.00     0.040 A 
ATOM     84  F   UNL A   1      43.114  29.604  26.954  1.00  0.00    -0.206 F 
ATOM     85  C   UNL A   1      44.801  26.451  27.554  1.00  0.00     0.006 A 
ENDBRANCH  57  78
BRANCH  69  86
ATOM     86  C   UNL A   1      42.341  35.906  28.895  1.00  0.00     0.057 A 
ATOM     87  C   UNL A   1      41.847  36.256  27.630  1.00  0.00     0.134 A 
ATOM     88  C   UNL A   1      43.128  36.886  29.533  1.00  0.00     0.134 A 
ATOM     89  F   UNL A   1      41.145  35.380  26.897  1.00  0.00    -0.206 F 
ATOM     90  C   UNL A   1      42.075  37.514  27.060  1.00  0.00     0.040 A 
ATOM     91  C   UNL A   1      43.402  38.127  28.954  1.00  0.00     0.040 A 
ATOM     92  F   UNL A   1      43.648  36.687  30.752  1.00  0.00    -0.206 F 
ATOM     93  C   UNL A   1      42.864  38.451  27.717  1.00  0.00     0.006 A 
ENDBRANCH  69  86
ENDBRANCH  43  44
ENDBRANCH  35  38
ENDBRANCH  33  34
ENDBRANCH   1  33
TORSDOF 13
ENDMDL
MODEL 3
REMARK VINA RESULT:     -14.1      1.374      2.177
REMARK SMILES Cc1ccc(-c2cc(C(=O)NCCCNC(=O)c3ccc(-c4c5nc(c(-c6c(F)cccc6F)c6ccc([nH]6)c(-c6c(F)cccc6F)c6nc(c(-c7c(F)cccc7F)c7ccc4[nH]7)C=C6)C=C5)cc3)c3c(-c4cccc([N+](=O)[O-])c4)[nH]nc3n2)cc1
REMARK SMILES IDX 13 1 12 2 11 3 9 4 10 5 8 7 6 8 7 9 86 10 85 11 72 12 84 13
REMARK SMILES IDX 73 14 83 15 5 17 1 18 2 19 3 20 88 21 4 22 87 23 74 24 75 25
REMARK SMILES IDX 82 26 76 27 78 28 77 29 79 30 80 31 81 32 14 33 15 34 16 35
REMARK SMILES IDX 17 37 18 38 19 39 71 40 20 41 70 42 21 43 22 44 23 45 64 46
REMARK SMILES IDX 24 47 69 48 63 49 65 50 25 51 68 52 62 53 61 54 26 56 52 57
REMARK SMILES IDX 35 58 51 59 36 60 39 61 50 62 66 63 37 64 38 65 49 67 67 68
REMARK SMILES IDX 40 69 27 70 28 71 33 72 29 73 30 74 32 75 34 76 31 77 53 78
REMARK SMILES IDX 54 79 59 80 55 81 56 82 58 83 60 84 57 85 41 86 42 87 47 88
REMARK SMILES IDX 43 89 44 90 46 91 48 92 45 93
REMARK H PARENT 11 6 83 16 15 36 65 55 39 66
REMARK Flexibility Score: inf
ROOT
ATOM      1  C   UNL A   1      33.373  29.705  27.635  1.00  0.00     0.042 C 
ENDROOT
BRANCH   1   2
ATOM      2  C   UNL A   1      33.628  28.295  27.093  1.00  0.00     0.118 C 
BRANCH   2   3
ATOM      3  N   UNL A   1      32.401  27.521  26.938  1.00  0.00    -0.352 N 
ATOM      4  C   UNL A   1      32.000  26.458  26.157  1.00  0.00     0.252 C 
ATOM      5  O   UNL A   1      30.901  26.005  26.465  1.00  0.00    -0.269 OA
ATOM      6  H   UNL A   1      31.684  27.834  27.536  1.00  0.00     0.163 HD
BRANCH   4   7
ATOM      7  C   UNL A   1      32.784  25.871  25.036  1.00  0.00     0.055 A 
ATOM      8  C   UNL A   1      34.417  24.179  24.176  1.00  0.00     0.074 A 
ATOM      9  C   UNL A   1      33.674  24.805  25.206  1.00  0.00     0.043 A 
ATOM     10  N   UNL A   1      34.402  24.537  22.875  1.00  0.00    -0.226 NA
ATOM     11  C   UNL A   1      33.566  25.579  22.633  1.00  0.00     0.182 A 
ATOM     12  C   UNL A   1      32.788  26.237  23.669  1.00  0.00     0.059 A 
ATOM     13  N   UNL A   1      33.355  26.113  21.432  1.00  0.00    -0.154 NA
ATOM     14  C   UNL A   1      32.122  27.249  22.991  1.00  0.00     0.076 A 
ATOM     15  N   UNL A   1      32.482  27.097  21.672  1.00  0.00    -0.275 N 
ATOM     16  H   UNL A   1      32.122  27.670  20.957  1.00  0.00     0.190 HD
BRANCH   8  17
ATOM     17  C   UNL A   1      35.270  23.042  24.567  1.00  0.00     0.000 A 
ATOM     18  C   UNL A   1      37.845  19.593  25.004  1.00  0.00     0.044 C 
ATOM     19  C   UNL A   1      36.959  20.798  24.893  1.00  0.00    -0.051 A 
ATOM     20  C   UNL A   1      35.569  20.672  25.015  1.00  0.00     0.004 A 
ATOM     21  C   UNL A   1      37.506  22.060  24.656  1.00  0.00     0.004 A 
ATOM     22  C   UNL A   1      34.731  21.783  24.856  1.00  0.00     0.010 A 
ATOM     23  C   UNL A   1      36.672  23.167  24.503  1.00  0.00     0.010 A 
ENDBRANCH   8  17
BRANCH  14  24
ATOM     24  C   UNL A   1      31.247  28.346  23.376  1.00  0.00     0.007 A 
ATOM     25  C   UNL A   1      31.669  29.296  24.317  1.00  0.00     0.011 A 
ATOM     26  C   UNL A   1      29.992  28.479  22.770  1.00  0.00     0.096 A 
ATOM     27  C   UNL A   1      30.868  30.401  24.614  1.00  0.00     0.008 A 
ATOM     28  C   UNL A   1      29.214  29.611  23.042  1.00  0.00     0.270 A 
ATOM     29  C   UNL A   1      29.644  30.572  23.966  1.00  0.00     0.085 A 
BRANCH  28  30
ATOM     30  N   UNL A   1      27.959  29.814  22.309  1.00  0.00     0.062 N 
ATOM     31  O   UNL A   1      26.897  29.697  22.939  1.00  0.00    -0.258 OA
ATOM     32  O   UNL A   1      28.030  30.076  21.099  1.00  0.00    -0.258 OA
ENDBRANCH  28  30
ENDBRANCH  14  24
ENDBRANCH   4   7
ENDBRANCH   2   3
ENDBRANCH   1   2
BRANCH   1  33
ATOM     33  C   UNL A   1      34.445  30.707  27.245  1.00  0.00     0.118 C 
BRANCH  33  34
ATOM     34  N   UNL A   1      35.003  31.452  28.371  1.00  0.00    -0.352 N 
ATOM     35  C   UNL A   1      36.045  31.078  29.207  1.00  0.00     0.251 C 
ATOM     36  H   UNL A   1      34.589  32.325  28.559  1.00  0.00     0.163 HD
ATOM     37  O   UNL A   1      36.425  31.808  30.106  1.00  0.00    -0.269 OA
BRANCH  35  38
ATOM     38  C   UNL A   1      36.763  29.822  28.893  1.00  0.00     0.039 A 
ATOM     39  C   UNL A   1      37.051  28.960  29.953  1.00  0.00     0.014 A 
ATOM     40  C   UNL A   1      37.383  29.666  27.656  1.00  0.00     0.014 A 
ATOM     41  C   UNL A   1      38.152  28.115  29.853  1.00  0.00     0.010 A 
ATOM     42  C   UNL A   1      38.528  28.896  27.588  1.00  0.00     0.010 A 
ATOM     43  C   UNL A   1      38.954  28.181  28.713  1.00  0.00    -0.014 A 
BRANCH  43  44
ATOM     44  C   UNL A   1      40.309  27.639  28.672  1.00  0.00     0.031 A 
ATOM     45  C   UNL A   1      40.544  26.211  28.388  1.00  0.00     0.074 A 
ATOM     46  C   UNL A   1      41.374  28.454  28.853  1.00  0.00     0.049 A 
ATOM     47  N   UNL A   1      41.592  25.560  28.771  1.00  0.00    -0.248 NA
ATOM     48  C   UNL A   1      39.585  25.391  27.663  1.00  0.00     0.031 C 
ATOM     49  C   UNL A   1      42.782  28.133  28.633  1.00  0.00     0.029 A 
ATOM     50  N   UNL A   1      41.399  29.692  29.510  1.00  0.00    -0.354 N 
ATOM     51  C   UNL A   1      41.592  24.352  28.118  1.00  0.00     0.074 A 
ATOM     52  C   UNL A   1      40.290  24.270  27.488  1.00  0.00     0.031 C 
ATOM     53  C   UNL A   1      43.528  28.936  29.405  1.00  0.00     0.029 A 
ATOM     54  C   UNL A   1      42.623  29.720  30.223  1.00  0.00     0.049 A 
ATOM     55  H   UNL A   1      40.711  30.395  29.481  1.00  0.00     0.167 HD
ATOM     56  C   UNL A   1      42.736  23.609  28.071  1.00  0.00     0.037 A 
ATOM     57  C   UNL A   1      42.635  29.788  31.585  1.00  0.00     0.037 A 
ATOM     58  C   UNL A   1      43.817  24.208  28.851  1.00  0.00     0.049 A 
ATOM     59  C   UNL A   1      43.258  28.591  32.274  1.00  0.00     0.074 A 
ATOM     60  C   UNL A   1      44.947  24.952  28.547  1.00  0.00     0.029 A 
ATOM     61  N   UNL A   1      43.663  24.310  30.223  1.00  0.00    -0.354 N 
ATOM     62  N   UNL A   1      43.791  27.574  31.656  1.00  0.00    -0.248 NA
ATOM     63  C   UNL A   1      43.232  28.405  33.727  1.00  0.00     0.031 C 
ATOM     64  C   UNL A   1      45.466  25.500  29.755  1.00  0.00     0.029 A 
ATOM     65  C   UNL A   1      44.647  25.095  30.793  1.00  0.00     0.049 A 
ATOM     66  H   UNL A   1      42.940  23.876  30.731  1.00  0.00     0.167 HD
ATOM     67  C   UNL A   1      44.099  26.600  32.570  1.00  0.00     0.074 A 
ATOM     68  C   UNL A   1      43.744  27.170  33.855  1.00  0.00     0.031 C 
ATOM     69  C   UNL A   1      44.575  25.371  32.216  1.00  0.00     0.037 A 
BRANCH  56  70
ATOM     70  C   UNL A   1      42.922  22.465  27.103  1.00  0.00     0.057 A 
ATOM     71  C   UNL A   1      42.224  21.254  27.263  1.00  0.00     0.134 A 
ATOM     72  C   UNL A   1      43.821  22.479  26.023  1.00  0.00     0.134 A 
ATOM     73  F   UNL A   1      41.244  21.117  28.164  1.00  0.00    -0.206 F 
ATOM     74  C   UNL A   1      42.500  20.111  26.502  1.00  0.00     0.040 A 
ATOM     75  C   UNL A   1      44.154  21.328  25.295  1.00  0.00     0.040 A 
ATOM     76  F   UNL A   1      44.379  23.619  25.595  1.00  0.00    -0.206 F 
ATOM     77  C   UNL A   1      43.504  20.129  25.547  1.00  0.00     0.006 A 
ENDBRANCH  56  70
BRANCH  57  78
ATOM     78  C   UNL A   1      41.515  30.608  32.117  1.00  0.00     0.057 A 
ATOM     79  C   UNL A   1      40.389  29.941  32.632  1.00  0.00     0.134 A 
ATOM     80  C   UNL A   1      41.689  31.944  32.484  1.00  0.00     0.134 A 
ATOM     81  F   UNL A   1      40.160  28.656  32.313  1.00  0.00    -0.206 F 
ATOM     82  C   UNL A   1      39.553  30.531  33.581  1.00  0.00     0.040 A 
ATOM     83  C   UNL A   1      40.844  32.552  33.417  1.00  0.00     0.040 A 
ATOM     84  F   UNL A   1      42.745  32.642  32.044  1.00  0.00    -0.206 F 
ATOM     85  C   UNL A   1      39.804  31.832  34.004  1.00  0.00     0.006 A 
ENDBRANCH  57  78
BRANCH  69  86
ATOM     86  C   UNL A   1      44.985  24.325  33.213  1.00  0.00     0.057 A 
ATOM     87  C   UNL A   1      46.206  24.382  33.900  1.00  0.00     0.134 A 
ATOM     88  C   UNL A   1      44.221  23.160  33.424  1.00  0.00     0.134 A 
ATOM     89  F   UNL A   1      47.051  25.409  33.723  1.00  0.00    -0.206 F 
ATOM     90  C   UNL A   1      46.617  23.373  34.779  1.00  0.00     0.040 A 
ATOM     91  C   UNL A   1      44.642  22.125  34.263  1.00  0.00     0.040 A 
ATOM     92  F   UNL A   1      43.027  22.986  32.842  1.00  0.00    -0.206 F 
ATOM     93  C   UNL A   1      45.839  22.234  34.955  1.00  0.00     0.006 A 
ENDBRANCH  69  86
ENDBRANCH  43  44
ENDBRANCH  35  38
ENDBRANCH  33  34
ENDBRANCH   1  33
TORSDOF 13
ENDMDL
