MODEL 1
REMARK VINA RESULT:     -11.7      0.000      0.000
REMARK SMILES O=C(NCCCNC(=O)c1c(F)cccc1NS(=O)(=O)C(F)(F)F)c1ccc(-c2c3nc(c(-c4c(F)cccc4F)c4ccc([nH]4)c(-c4c(F)cccc4F)c4nc(c(-c5c(F)cccc5F)c5ccc2[nH]5)C=C4)C=C3)cc1
REMARK SMILES IDX 5 1 4 2 3 3 1 4 2 5 25 7 26 8 78 9 27 10 77 11 28 12 29 13
REMARK SMILES IDX 30 14 71 15 31 16 76 17 70 18 72 19 32 20 75 21 69 22 68 23
REMARK SMILES IDX 33 25 59 26 42 27 58 28 43 29 46 30 57 31 73 32 44 33 45 34
REMARK SMILES IDX 56 36 74 37 47 38 34 39 35 40 40 41 36 42 37 43 39 44 41 45
REMARK SMILES IDX 38 46 60 47 61 48 66 49 62 50 63 51 65 52 67 53 64 54 48 55
REMARK SMILES IDX 49 56 54 57 50 58 51 59 53 60 55 61 52 62 6 63 7 64 8 65
REMARK SMILES IDX 9 67 10 68 11 69 16 70 12 71 13 72 15 73 14 74 17 75 18 77
REMARK SMILES IDX 19 78 20 79 21 80 22 81 23 82 24 83
REMARK H PARENT 3 6 72 24 46 35 7 66 17 76
REMARK Flexibility Score: inf
ROOT
ATOM      1  C   UNL A   1      37.986  19.976  24.637  1.00  0.00     0.042 C 
ENDROOT
BRANCH   1   2
ATOM      2  C   UNL A   1      38.838  20.030  25.898  1.00  0.00     0.118 C 
BRANCH   2   3
ATOM      3  N   UNL A   1      40.036  19.207  25.808  1.00  0.00    -0.352 N 
ATOM      4  O   UNL A   1      42.231  18.718  25.726  1.00  0.00    -0.269 OA
ATOM      5  C   UNL A   1      41.355  19.525  26.025  1.00  0.00     0.251 C 
ATOM      6  H   UNL A   1      39.875  18.269  25.551  1.00  0.00     0.163 HD
BRANCH   5   7
ATOM      7  C   UNL A   1      41.733  20.840  26.589  1.00  0.00     0.039 A 
ATOM      8  C   UNL A   1      41.745  21.057  27.968  1.00  0.00     0.014 A 
ATOM      9  C   UNL A   1      42.113  21.868  25.720  1.00  0.00     0.014 A 
ATOM     10  C   UNL A   1      41.974  22.335  28.466  1.00  0.00     0.010 A 
ATOM     11  C   UNL A   1      42.442  23.128  26.230  1.00  0.00     0.010 A 
ATOM     12  C   UNL A   1      42.340  23.381  27.605  1.00  0.00    -0.014 A 
BRANCH  12  13
ATOM     13  C   UNL A   1      42.668  24.711  28.179  1.00  0.00     0.031 A 
ATOM     14  C   UNL A   1      44.085  25.096  28.496  1.00  0.00     0.074 A 
ATOM     15  C   UNL A   1      41.670  25.595  28.374  1.00  0.00     0.049 A 
ATOM     16  N   UNL A   1      44.543  26.228  28.971  1.00  0.00    -0.248 NA
ATOM     17  C   UNL A   1      45.123  24.084  28.256  1.00  0.00     0.031 C 
ATOM     18  C   UNL A   1      40.253  25.334  28.107  1.00  0.00     0.029 A 
ATOM     19  N   UNL A   1      41.691  26.894  28.813  1.00  0.00    -0.354 N 
ATOM     20  C   UNL A   1      45.915  26.061  29.100  1.00  0.00     0.074 A 
ATOM     21  C   UNL A   1      46.215  24.707  28.681  1.00  0.00     0.031 C 
ATOM     22  C   UNL A   1      39.551  26.454  28.327  1.00  0.00     0.029 A 
ATOM     23  C   UNL A   1      40.455  27.490  28.812  1.00  0.00     0.049 A 
ATOM     24  H   UNL A   1      42.513  27.353  29.101  1.00  0.00     0.167 HD
ATOM     25  C   UNL A   1      46.840  26.958  29.520  1.00  0.00     0.037 A 
ATOM     26  C   UNL A   1      40.082  28.733  29.170  1.00  0.00     0.037 A 
ATOM     27  C   UNL A   1      46.537  28.307  29.922  1.00  0.00     0.049 A 
ATOM     28  C   UNL A   1      41.119  29.696  29.662  1.00  0.00     0.074 A 
ATOM     29  C   UNL A   1      47.411  29.297  30.340  1.00  0.00     0.029 A 
ATOM     30  N   UNL A   1      45.265  28.857  29.959  1.00  0.00    -0.354 N 
ATOM     31  N   UNL A   1      42.414  29.525  29.771  1.00  0.00    -0.248 NA
ATOM     32  C   UNL A   1      40.645  31.019  30.091  1.00  0.00     0.031 C 
ATOM     33  C   UNL A   1      46.663  30.431  30.671  1.00  0.00     0.029 A 
ATOM     34  C   UNL A   1      45.327  30.165  30.413  1.00  0.00     0.049 A 
ATOM     35  H   UNL A   1      44.438  28.388  29.701  1.00  0.00     0.167 HD
ATOM     36  C   UNL A   1      42.913  30.718  30.272  1.00  0.00     0.074 A 
ATOM     37  C   UNL A   1      41.783  31.612  30.430  1.00  0.00     0.031 C 
ATOM     38  C   UNL A   1      44.194  31.041  30.573  1.00  0.00     0.037 A 
BRANCH  25  39
ATOM     39  C   UNL A   1      48.271  26.508  29.578  1.00  0.00     0.057 A 
ATOM     40  C   UNL A   1      48.777  25.882  30.725  1.00  0.00     0.134 A 
ATOM     41  C   UNL A   1      49.163  26.743  28.524  1.00  0.00     0.134 A 
ATOM     42  F   UNL A   1      47.979  25.634  31.774  1.00  0.00    -0.206 F 
ATOM     43  C   UNL A   1      50.120  25.514  30.824  1.00  0.00     0.040 A 
ATOM     44  C   UNL A   1      50.503  26.359  28.603  1.00  0.00     0.040 A 
ATOM     45  F   UNL A   1      48.740  27.328  27.393  1.00  0.00    -0.206 F 
ATOM     46  C   UNL A   1      50.987  25.750  29.759  1.00  0.00     0.006 A 
ENDBRANCH  25  39
BRANCH  26  47
ATOM     47  C   UNL A   1      38.655  29.120  29.055  1.00  0.00     0.057 A 
ATOM     48  C   UNL A   1      38.123  29.593  27.849  1.00  0.00     0.134 A 
ATOM     49  C   UNL A   1      37.810  29.092  30.169  1.00  0.00     0.134 A 
ATOM     50  F   UNL A   1      38.888  29.651  26.748  1.00  0.00    -0.206 F 
ATOM     51  C   UNL A   1      36.809  30.054  27.762  1.00  0.00     0.040 A 
ATOM     52  C   UNL A   1      36.487  29.530  30.091  1.00  0.00     0.040 A 
ATOM     53  F   UNL A   1      38.262  28.637  31.347  1.00  0.00    -0.206 F 
ATOM     54  C   UNL A   1      35.987  30.023  28.887  1.00  0.00     0.006 A 
ENDBRANCH  26  47
BRANCH  38  55
ATOM     55  C   UNL A   1      44.451  32.422  31.098  1.00  0.00     0.057 A 
ATOM     56  C   UNL A   1      44.407  32.683  32.474  1.00  0.00     0.134 A 
ATOM     57  C   UNL A   1      44.677  33.503  30.238  1.00  0.00     0.134 A 
ATOM     58  F   UNL A   1      44.185  31.690  33.348  1.00  0.00    -0.206 F 
ATOM     59  C   UNL A   1      44.565  33.975  32.975  1.00  0.00     0.040 A 
ATOM     60  C   UNL A   1      44.859  34.797  30.730  1.00  0.00     0.040 A 
ATOM     61  F   UNL A   1      44.743  33.315  28.912  1.00  0.00    -0.206 F 
ATOM     62  C   UNL A   1      44.795  35.037  32.102  1.00  0.00     0.006 A 
ENDBRANCH  38  55
ENDBRANCH  12  13
ENDBRANCH   5   7
ENDBRANCH   2   3
ENDBRANCH   1   2
BRANCH   1  63
ATOM     63  C   UNL A   1      36.868  21.011  24.599  1.00  0.00     0.118 C 
BRANCH  63  64
ATOM     64  N   UNL A   1      35.955  20.856  25.723  1.00  0.00    -0.352 N 
ATOM     65  C   UNL A   1      34.602  21.062  25.785  1.00  0.00     0.256 C 
ATOM     66  H   UNL A   1      36.373  20.558  26.563  1.00  0.00     0.163 HD
ATOM     67  O   UNL A   1      34.060  21.177  26.882  1.00  0.00    -0.269 OA
BRANCH  65  68
ATOM     68  C   UNL A   1      33.801  21.237  24.564  1.00  0.00     0.099 A 
ATOM     69  C   UNL A   1      33.841  22.459  23.883  1.00  0.00     0.138 A 
ATOM     70  C   UNL A   1      33.002  20.189  24.072  1.00  0.00     0.065 A 
ATOM     71  F   UNL A   1      34.633  23.456  24.303  1.00  0.00    -0.206 F 
ATOM     72  C   UNL A   1      33.029  22.691  22.779  1.00  0.00     0.040 A 
ATOM     73  C   UNL A   1      32.166  20.445  22.978  1.00  0.00     0.028 A 
ATOM     74  C   UNL A   1      32.179  21.687  22.334  1.00  0.00     0.005 A 
BRANCH  70  75
ATOM     75  N   UNL A   1      32.919  18.910  24.741  1.00  0.00    -0.275 N 
ATOM     76  H   UNL A   1      32.365  18.798  25.548  1.00  0.00     0.180 HD
BRANCH  75  77
ATOM     77  S   UNL A   1      33.809  17.588  24.098  1.00  0.00     0.333 S 
ATOM     78  O   UNL A   1      33.287  17.328  22.769  1.00  0.00    -0.197 OA
ATOM     79  O   UNL A   1      35.193  18.009  24.251  1.00  0.00    -0.197 OA
BRANCH  77  80
ATOM     80  C   UNL A   1      33.487  16.139  25.224  1.00  0.00     0.516 C 
ATOM     81  F   UNL A   1      32.731  16.482  26.308  1.00  0.00    -0.155 F 
ATOM     82  F   UNL A   1      32.809  15.138  24.586  1.00  0.00    -0.155 F 
ATOM     83  F   UNL A   1      34.634  15.583  25.704  1.00  0.00    -0.155 F 
ENDBRANCH  77  80
ENDBRANCH  75  77
ENDBRANCH  70  75
ENDBRANCH  65  68
ENDBRANCH  63  64
ENDBRANCH   1  63
TORSDOF 13
ENDMDL
MODEL 2
REMARK VINA RESULT:     -11.7      1.382      2.058
REMARK SMILES O=C(NCCCNC(=O)c1c(F)cccc1NS(=O)(=O)C(F)(F)F)c1ccc(-c2c3nc(c(-c4c(F)cccc4F)c4ccc([nH]4)c(-c4c(F)cccc4F)c4nc(c(-c5c(F)cccc5F)c5ccc2[nH]5)C=C4)C=C3)cc1
REMARK SMILES IDX 5 1 4 2 3 3 1 4 2 5 25 7 26 8 78 9 27 10 77 11 28 12 29 13
REMARK SMILES IDX 30 14 71 15 31 16 76 17 70 18 72 19 32 20 75 21 69 22 68 23
REMARK SMILES IDX 33 25 59 26 42 27 58 28 43 29 46 30 57 31 73 32 44 33 45 34
REMARK SMILES IDX 56 36 74 37 47 38 34 39 35 40 40 41 36 42 37 43 39 44 41 45
REMARK SMILES IDX 38 46 60 47 61 48 66 49 62 50 63 51 65 52 67 53 64 54 48 55
REMARK SMILES IDX 49 56 54 57 50 58 51 59 53 60 55 61 52 62 6 63 7 64 8 65
REMARK SMILES IDX 9 67 10 68 11 69 16 70 12 71 13 72 15 73 14 74 17 75 18 77
REMARK SMILES IDX 19 78 20 79 21 80 22 81 23 82 24 83
REMARK H PARENT 3 6 72 24 46 35 7 66 17 76
REMARK Flexibility Score: inf
ROOT
ATOM      1  C   UNL A   1      37.840  19.833  24.774  1.00  0.00     0.042 C 
ENDROOT
BRANCH   1   2
ATOM      2  C   UNL A   1      38.876  20.143  25.846  1.00  0.00     0.118 C 
BRANCH   2   3
ATOM      3  N   UNL A   1      39.983  19.197  25.855  1.00  0.00    -0.352 N 
ATOM      4  O   UNL A   1      42.116  18.479  25.814  1.00  0.00    -0.269 OA
ATOM      5  C   UNL A   1      41.333  19.405  26.010  1.00  0.00     0.251 C 
ATOM      6  H   UNL A   1      39.723  18.255  25.730  1.00  0.00     0.163 HD
BRANCH   5   7
ATOM      7  C   UNL A   1      41.854  20.738  26.386  1.00  0.00     0.039 A 
ATOM      8  C   UNL A   1      42.098  21.068  27.719  1.00  0.00     0.014 A 
ATOM      9  C   UNL A   1      42.135  21.666  25.377  1.00  0.00     0.014 A 
ATOM     10  C   UNL A   1      42.460  22.367  28.056  1.00  0.00     0.010 A 
ATOM     11  C   UNL A   1      42.596  22.943  25.711  1.00  0.00     0.010 A 
ATOM     12  C   UNL A   1      42.728  23.316  27.057  1.00  0.00    -0.014 A 
BRANCH  12  13
ATOM     13  C   UNL A   1      43.203  24.668  27.447  1.00  0.00     0.031 A 
ATOM     14  C   UNL A   1      44.644  25.064  27.292  1.00  0.00     0.074 A 
ATOM     15  C   UNL A   1      42.305  25.559  27.910  1.00  0.00     0.049 A 
ATOM     16  N   UNL A   1      45.213  26.214  27.557  1.00  0.00    -0.248 NA
ATOM     17  C   UNL A   1      45.568  24.041  26.781  1.00  0.00     0.031 C 
ATOM     18  C   UNL A   1      40.878  25.289  28.107  1.00  0.00     0.029 A 
ATOM     19  N   UNL A   1      42.446  26.875  28.269  1.00  0.00    -0.354 N 
ATOM     20  C   UNL A   1      46.559  26.051  27.259  1.00  0.00     0.074 A 
ATOM     21  C   UNL A   1      46.730  24.681  26.820  1.00  0.00     0.031 C 
ATOM     22  C   UNL A   1      40.266  26.417  28.491  1.00  0.00     0.029 A 
ATOM     23  C   UNL A   1      41.264  27.472  28.630  1.00  0.00     0.049 A 
ATOM     24  H   UNL A   1      43.311  27.344  28.269  1.00  0.00     0.167 HD
ATOM     25  C   UNL A   1      47.558  26.963  27.335  1.00  0.00     0.037 A 
ATOM     26  C   UNL A   1      41.006  28.729  29.038  1.00  0.00     0.037 A 
ATOM     27  C   UNL A   1      47.379  28.328  27.758  1.00  0.00     0.049 A 
ATOM     28  C   UNL A   1      42.133  29.710  29.144  1.00  0.00     0.074 A 
ATOM     29  C   UNL A   1      48.328  29.333  27.844  1.00  0.00     0.029 A 
ATOM     30  N   UNL A   1      46.176  28.880  28.168  1.00  0.00    -0.354 N 
ATOM     31  N   UNL A   1      43.400  29.543  28.851  1.00  0.00    -0.248 NA
ATOM     32  C   UNL A   1      41.801  31.049  29.648  1.00  0.00     0.031 C 
ATOM     33  C   UNL A   1      47.707  30.480  28.347  1.00  0.00     0.029 A 
ATOM     34  C   UNL A   1      46.360  30.205  28.529  1.00  0.00     0.049 A 
ATOM     35  H   UNL A   1      45.315  28.402  28.199  1.00  0.00     0.167 HD
ATOM     36  C   UNL A   1      44.016  30.755  29.125  1.00  0.00     0.074 A 
ATOM     37  C   UNL A   1      42.981  31.655  29.592  1.00  0.00     0.031 C 
ATOM     38  C   UNL A   1      45.323  31.088  29.000  1.00  0.00     0.037 A 
BRANCH  25  39
ATOM     39  C   UNL A   1      48.941  26.515  26.961  1.00  0.00     0.057 A 
ATOM     40  C   UNL A   1      49.405  26.649  25.646  1.00  0.00     0.134 A 
ATOM     41  C   UNL A   1      49.794  25.899  27.886  1.00  0.00     0.134 A 
ATOM     42  F   UNL A   1      48.636  27.223  24.708  1.00  0.00    -0.206 F 
ATOM     43  C   UNL A   1      50.663  26.181  25.263  1.00  0.00     0.040 A 
ATOM     44  C   UNL A   1      51.064  25.447  27.520  1.00  0.00     0.040 A 
ATOM     45  F   UNL A   1      49.415  25.749  29.165  1.00  0.00    -0.206 F 
ATOM     46  C   UNL A   1      51.498  25.581  26.203  1.00  0.00     0.006 A 
ENDBRANCH  25  39
BRANCH  26  47
ATOM     47  C   UNL A   1      39.610  29.111  29.357  1.00  0.00     0.057 A 
ATOM     48  C   UNL A   1      39.096  28.982  30.654  1.00  0.00     0.134 A 
ATOM     49  C   UNL A   1      38.737  29.548  28.356  1.00  0.00     0.134 A 
ATOM     50  F   UNL A   1      39.883  28.558  31.654  1.00  0.00    -0.206 F 
ATOM     51  C   UNL A   1      37.755  29.244  30.937  1.00  0.00     0.040 A 
ATOM     52  C   UNL A   1      37.399  29.835  28.630  1.00  0.00     0.040 A 
ATOM     53  F   UNL A   1      39.177  29.704  27.098  1.00  0.00    -0.206 F 
ATOM     54  C   UNL A   1      36.902  29.671  29.922  1.00  0.00     0.006 A 
ENDBRANCH  26  47
BRANCH  38  55
ATOM     55  C   UNL A   1      45.714  32.489  29.365  1.00  0.00     0.057 A 
ATOM     56  C   UNL A   1      46.122  32.800  30.668  1.00  0.00     0.134 A 
ATOM     57  C   UNL A   1      45.624  33.539  28.443  1.00  0.00     0.134 A 
ATOM     58  F   UNL A   1      46.220  31.839  31.598  1.00  0.00    -0.206 F 
ATOM     59  C   UNL A   1      46.414  34.111  31.045  1.00  0.00     0.040 A 
ATOM     60  C   UNL A   1      45.936  34.851  28.804  1.00  0.00     0.040 A 
ATOM     61  F   UNL A   1      45.252  33.303  27.176  1.00  0.00    -0.206 F 
ATOM     62  C   UNL A   1      46.324  35.141  30.111  1.00  0.00     0.006 A 
ENDBRANCH  38  55
ENDBRANCH  12  13
ENDBRANCH   5   7
ENDBRANCH   2   3
ENDBRANCH   1   2
BRANCH   1  63
ATOM     63  C   UNL A   1      36.729  20.870  24.667  1.00  0.00     0.118 C 
BRANCH  63  64
ATOM     64  N   UNL A   1      35.766  20.737  25.751  1.00  0.00    -0.352 N 
ATOM     65  C   UNL A   1      34.412  20.950  25.750  1.00  0.00     0.256 C 
ATOM     66  H   UNL A   1      36.144  20.450  26.614  1.00  0.00     0.163 HD
ATOM     67  O   UNL A   1      33.823  21.085  26.819  1.00  0.00    -0.269 OA
BRANCH  65  68
ATOM     68  C   UNL A   1      33.667  21.109  24.491  1.00  0.00     0.099 A 
ATOM     69  C   UNL A   1      33.713  22.333  23.814  1.00  0.00     0.138 A 
ATOM     70  C   UNL A   1      32.917  20.045  23.960  1.00  0.00     0.065 A 
ATOM     71  F   UNL A   1      34.462  23.347  24.272  1.00  0.00    -0.206 F 
ATOM     72  C   UNL A   1      32.950  22.549  22.672  1.00  0.00     0.040 A 
ATOM     73  C   UNL A   1      32.129  20.285  22.827  1.00  0.00     0.028 A 
ATOM     74  C   UNL A   1      32.145  21.527  22.185  1.00  0.00     0.005 A 
BRANCH  70  75
ATOM     75  N   UNL A   1      32.829  18.763  24.624  1.00  0.00    -0.275 N 
ATOM     76  H   UNL A   1      32.233  18.636  25.397  1.00  0.00     0.180 HD
BRANCH  75  77
ATOM     77  S   UNL A   1      33.790  17.467  24.034  1.00  0.00     0.333 S 
ATOM     78  O   UNL A   1      33.340  17.182  22.684  1.00  0.00    -0.197 OA
ATOM     79  O   UNL A   1      35.152  17.933  24.249  1.00  0.00    -0.197 OA
BRANCH  77  80
ATOM     80  C   UNL A   1      33.461  16.015  25.155  1.00  0.00     0.516 C 
ATOM     81  F   UNL A   1      32.991  16.400  26.377  1.00  0.00    -0.155 F 
ATOM     82  F   UNL A   1      32.524  15.169  24.632  1.00  0.00    -0.155 F 
ATOM     83  F   UNL A   1      34.575  15.264  25.380  1.00  0.00    -0.155 F 
ENDBRANCH  77  80
ENDBRANCH  75  77
ENDBRANCH  70  75
ENDBRANCH  65  68
ENDBRANCH  63  64
ENDBRANCH   1  63
TORSDOF 13
ENDMDL
MODEL 3
REMARK VINA RESULT:     -11.6      6.149     10.474
REMARK SMILES O=C(NCCCNC(=O)c1c(F)cccc1NS(=O)(=O)C(F)(F)F)c1ccc(-c2c3nc(c(-c4c(F)cccc4F)c4ccc([nH]4)c(-c4c(F)cccc4F)c4nc(c(-c5c(F)cccc5F)c5ccc2[nH]5)C=C4)C=C3)cc1
REMARK SMILES IDX 5 1 4 2 3 3 1 4 2 5 25 7 26 8 78 9 27 10 77 11 28 12 29 13
REMARK SMILES IDX 30 14 71 15 31 16 76 17 70 18 72 19 32 20 75 21 69 22 68 23
REMARK SMILES IDX 33 25 59 26 42 27 58 28 43 29 46 30 57 31 73 32 44 33 45 34
REMARK SMILES IDX 56 36 74 37 47 38 34 39 35 40 40 41 36 42 37 43 39 44 41 45
REMARK SMILES IDX 38 46 60 47 61 48 66 49 62 50 63 51 65 52 67 53 64 54 48 55
REMARK SMILES IDX 49 56 54 57 50 58 51 59 53 60 55 61 52 62 6 63 7 64 8 65
REMARK SMILES IDX 9 67 10 68 11 69 16 70 12 71 13 72 15 73 14 74 17 75 18 77
REMARK SMILES IDX 19 78 20 79 21 80 22 81 23 82 24 83
REMARK H PARENT 3 6 72 24 46 35 7 66 17 76
REMARK Flexibility Score: inf
ROOT
ATOM      1  C   UNL A   1      31.436  31.940  26.842  1.00  0.00     0.042 C 
ENDROOT
BRANCH   1   2
ATOM      2  C   UNL A   1      32.738  32.719  26.971  1.00  0.00     0.118 C 
BRANCH   2   3
ATOM      3  N   UNL A   1      32.553  34.040  27.555  1.00  0.00    -0.352 N 
ATOM      4  O   UNL A   1      32.755  35.704  29.056  1.00  0.00    -0.269 OA
ATOM      5  C   UNL A   1      33.185  34.640  28.618  1.00  0.00     0.251 C 
ATOM      6  H   UNL A   1      31.865  34.592  27.118  1.00  0.00     0.163 HD
BRANCH   5   7
ATOM      7  C   UNL A   1      34.360  34.007  29.256  1.00  0.00     0.039 A 
ATOM      8  C   UNL A   1      35.659  34.380  28.908  1.00  0.00     0.014 A 
ATOM      9  C   UNL A   1      34.156  33.041  30.247  1.00  0.00     0.014 A 
ATOM     10  C   UNL A   1      36.743  33.678  29.424  1.00  0.00     0.010 A 
ATOM     11  C   UNL A   1      35.251  32.405  30.839  1.00  0.00     0.010 A 
ATOM     12  C   UNL A   1      36.553  32.694  30.407  1.00  0.00    -0.014 A 
BRANCH  12  13
ATOM     13  C   UNL A   1      37.738  32.028  31.004  1.00  0.00     0.031 A 
ATOM     14  C   UNL A   1      38.184  32.338  32.405  1.00  0.00     0.074 A 
ATOM     15  C   UNL A   1      38.392  31.099  30.280  1.00  0.00     0.049 A 
ATOM     16  N   UNL A   1      39.178  31.822  33.085  1.00  0.00    -0.248 NA
ATOM     17  C   UNL A   1      37.424  33.361  33.138  1.00  0.00     0.031 C 
ATOM     18  C   UNL A   1      38.054  30.715  28.907  1.00  0.00     0.029 A 
ATOM     19  N   UNL A   1      39.453  30.291  30.599  1.00  0.00    -0.354 N 
ATOM     20  C   UNL A   1      39.172  32.464  34.316  1.00  0.00     0.074 A 
ATOM     21  C   UNL A   1      38.094  33.430  34.282  1.00  0.00     0.031 C 
ATOM     22  C   UNL A   1      38.849  29.706  28.525  1.00  0.00     0.029 A 
ATOM     23  C   UNL A   1      39.793  29.415  29.598  1.00  0.00     0.049 A 
ATOM     24  H   UNL A   1      39.924  30.335  31.462  1.00  0.00     0.167 HD
ATOM     25  C   UNL A   1      39.986  32.259  35.380  1.00  0.00     0.037 A 
ATOM     26  C   UNL A   1      40.762  28.484  29.541  1.00  0.00     0.037 A 
ATOM     27  C   UNL A   1      41.049  31.287  35.413  1.00  0.00     0.049 A 
ATOM     28  C   UNL A   1      41.670  28.298  30.719  1.00  0.00     0.074 A 
ATOM     29  C   UNL A   1      41.911  30.991  36.455  1.00  0.00     0.029 A 
ATOM     30  N   UNL A   1      41.396  30.457  34.359  1.00  0.00    -0.354 N 
ATOM     31  N   UNL A   1      41.646  28.907  31.879  1.00  0.00    -0.248 NA
ATOM     32  C   UNL A   1      42.744  27.306  30.579  1.00  0.00     0.031 C 
ATOM     33  C   UNL A   1      42.807  30.011  36.016  1.00  0.00     0.029 A 
ATOM     34  C   UNL A   1      42.474  29.662  34.717  1.00  0.00     0.049 A 
ATOM     35  H   UNL A   1      40.945  30.434  33.484  1.00  0.00     0.167 HD
ATOM     36  C   UNL A   1      42.694  28.369  32.611  1.00  0.00     0.074 A 
ATOM     37  C   UNL A   1      43.324  27.371  31.771  1.00  0.00     0.031 C 
ATOM     38  C   UNL A   1      43.096  28.678  33.868  1.00  0.00     0.037 A 
BRANCH  25  39
ATOM     39  C   UNL A   1      39.769  33.109  36.598  1.00  0.00     0.057 A 
ATOM     40  C   UNL A   1      38.843  32.729  37.578  1.00  0.00     0.134 A 
ATOM     41  C   UNL A   1      40.431  34.331  36.775  1.00  0.00     0.134 A 
ATOM     42  F   UNL A   1      38.168  31.575  37.467  1.00  0.00    -0.206 F 
ATOM     43  C   UNL A   1      38.579  33.536  38.687  1.00  0.00     0.040 A 
ATOM     44  C   UNL A   1      40.192  35.136  37.891  1.00  0.00     0.040 A 
ATOM     45  F   UNL A   1      41.338  34.749  35.879  1.00  0.00    -0.206 F 
ATOM     46  C   UNL A   1      39.257  34.742  38.847  1.00  0.00     0.006 A 
ENDBRANCH  25  39
BRANCH  26  47
ATOM     47  C   UNL A   1      40.897  27.656  28.319  1.00  0.00     0.057 A 
ATOM     48  C   UNL A   1      41.665  28.084  27.228  1.00  0.00     0.134 A 
ATOM     49  C   UNL A   1      40.202  26.450  28.187  1.00  0.00     0.134 A 
ATOM     50  F   UNL A   1      42.347  29.238  27.293  1.00  0.00    -0.206 F 
ATOM     51  C   UNL A   1      41.712  27.358  26.038  1.00  0.00     0.040 A 
ATOM     52  C   UNL A   1      40.257  25.702  27.010  1.00  0.00     0.040 A 
ATOM     53  F   UNL A   1      39.461  25.983  29.203  1.00  0.00    -0.206 F 
ATOM     54  C   UNL A   1      41.005  26.163  25.927  1.00  0.00     0.006 A 
ENDBRANCH  26  47
BRANCH  38  55
ATOM     55  C   UNL A   1      44.268  27.924  34.420  1.00  0.00     0.057 A 
ATOM     56  C   UNL A   1      45.573  28.402  34.244  1.00  0.00     0.134 A 
ATOM     57  C   UNL A   1      44.109  26.693  35.070  1.00  0.00     0.134 A 
ATOM     58  F   UNL A   1      45.791  29.571  33.622  1.00  0.00    -0.206 F 
ATOM     59  C   UNL A   1      46.680  27.675  34.682  1.00  0.00     0.040 A 
ATOM     60  C   UNL A   1      45.209  25.968  35.532  1.00  0.00     0.040 A 
ATOM     61  F   UNL A   1      42.885  26.188  35.280  1.00  0.00    -0.206 F 
ATOM     62  C   UNL A   1      46.499  26.455  35.330  1.00  0.00     0.006 A 
ENDBRANCH  38  55
ENDBRANCH  12  13
ENDBRANCH   5   7
ENDBRANCH   2   3
ENDBRANCH   1   2
BRANCH   1  63
ATOM     63  C   UNL A   1      31.625  30.461  26.527  1.00  0.00     0.118 C 
BRANCH  63  64
ATOM     64  N   UNL A   1      32.307  30.268  25.254  1.00  0.00    -0.352 N 
ATOM     65  C   UNL A   1      32.267  29.202  24.394  1.00  0.00     0.256 C 
ATOM     66  H   UNL A   1      32.883  31.014  24.970  1.00  0.00     0.163 HD
ATOM     67  O   UNL A   1      33.136  29.089  23.533  1.00  0.00    -0.269 OA
BRANCH  65  68
ATOM     68  C   UNL A   1      31.254  28.145  24.538  1.00  0.00     0.099 A 
ATOM     69  C   UNL A   1      31.393  27.191  25.552  1.00  0.00     0.138 A 
ATOM     70  C   UNL A   1      30.147  28.087  23.672  1.00  0.00     0.065 A 
ATOM     71  F   UNL A   1      32.412  27.253  26.422  1.00  0.00    -0.206 F 
ATOM     72  C   UNL A   1      30.507  26.126  25.661  1.00  0.00     0.040 A 
ATOM     73  C   UNL A   1      29.279  26.993  23.773  1.00  0.00     0.028 A 
ATOM     74  C   UNL A   1      29.455  26.019  24.760  1.00  0.00     0.005 A 
BRANCH  70  75
ATOM     75  N   UNL A   1      29.960  29.042  22.603  1.00  0.00    -0.275 N 
ATOM     76  H   UNL A   1      30.708  29.291  22.013  1.00  0.00     0.180 HD
BRANCH  75  77
ATOM     77  S   UNL A   1      28.403  29.736  22.387  1.00  0.00     0.333 S 
ATOM     78  O   UNL A   1      28.281  30.082  20.983  1.00  0.00    -0.197 OA
ATOM     79  O   UNL A   1      27.509  28.739  22.956  1.00  0.00    -0.197 OA
BRANCH  77  80
ATOM     80  C   UNL A   1      28.357  31.268  23.447  1.00  0.00     0.516 C 
ATOM     81  F   UNL A   1      28.287  32.411  22.703  1.00  0.00    -0.155 F 
ATOM     82  F   UNL A   1      27.271  31.282  24.275  1.00  0.00    -0.155 F 
ATOM     83  F   UNL A   1      29.454  31.386  24.246  1.00  0.00    -0.155 F 
ENDBRANCH  77  80
ENDBRANCH  75  77
ENDBRANCH  70  75
ENDBRANCH  65  68
ENDBRANCH  63  64
ENDBRANCH   1  63
TORSDOF 13
ENDMDL
