MODEL 1
REMARK VINA RESULT:     -12.0      0.000      0.000
REMARK SMILES O=C(C[C@@H](C(=O)N(c1ccccc1)c1ccccc1)[NH+]1CCOCC1)NCCCNC(=O)c1ccc(-c2c3nc(c(-c4c(F)cccc4F)c4ccc([nH]4)c(-c4c(F)cccc4F)c4nc(c(-c5c(F)cccc5F)c5ccc2[nH]5)C=C4)C=C3)cc1
REMARK SMILES IDX 27 1 26 2 1 3 2 4 3 6 4 7 5 8 6 9 7 10 8 11 9 12 13 13 10 14
REMARK SMILES IDX 12 15 11 16 14 17 15 18 19 19 16 20 18 21 17 22 20 23 21 24
REMARK SMILES IDX 25 25 22 27 24 28 23 29 28 30 29 31 30 32 31 33 32 35 33 36
REMARK SMILES IDX 34 37 86 38 35 39 85 40 36 41 37 42 38 43 79 44 39 45 84 46
REMARK SMILES IDX 78 47 80 48 40 49 83 50 77 51 76 52 41 54 67 55 50 56 66 57
REMARK SMILES IDX 51 58 54 59 65 60 81 61 52 62 53 63 64 65 82 66 55 67 42 68
REMARK SMILES IDX 43 69 48 70 44 71 45 72 47 73 49 74 46 75 68 76 69 77 74 78
REMARK SMILES IDX 70 79 71 80 73 81 75 82 72 83 56 84 57 85 62 86 58 87 59 88
REMARK SMILES IDX 61 89 63 90 60 91
REMARK H PARENT 26 5 20 26 30 34 80 53 54 64
REMARK Flexibility Score: inf
ROOT
ATOM      1  C   UNL A   1      31.705  28.176  27.435  1.00  0.00     0.117 C 
ENDROOT
BRANCH   1   2
ATOM      2  N   UNL A   1      31.404  27.479  26.193  1.00  0.00    -0.356 N 
ATOM      3  O   UNL A   1      31.446  25.377  27.127  1.00  0.00    -0.275 OA
ATOM      4  C   UNL A   1      31.216  26.114  26.170  1.00  0.00     0.226 C 
ATOM      5  H   UNL A   1      31.334  27.991  25.356  1.00  0.00     0.163 HD
BRANCH   4   6
ATOM      6  C   UNL A   1      30.621  25.561  24.895  1.00  0.00     0.175 C 
BRANCH   6   7
ATOM      7  C   UNL A   1      31.738  25.342  23.842  1.00  0.00     0.284 C 
BRANCH   7   8
ATOM      8  C   UNL A   1      31.814  23.796  23.658  1.00  0.00     0.290 C 
ATOM      9  O   UNL A   1      30.733  23.238  23.376  1.00  0.00    -0.267 OA
ATOM     10  N   UNL A   1      32.954  23.005  23.892  1.00  0.00    -0.276 N 
BRANCH  10  11
ATOM     11  C   UNL A   1      34.333  23.318  24.266  1.00  0.00     0.049 A 
ATOM     12  C   UNL A   1      35.409  22.954  23.413  1.00  0.00     0.027 A 
ATOM     13  C   UNL A   1      34.731  23.951  25.449  1.00  0.00     0.027 A 
ATOM     14  C   UNL A   1      36.760  23.084  23.775  1.00  0.00     0.002 A 
ATOM     15  C   UNL A   1      36.083  24.079  25.826  1.00  0.00     0.002 A 
ATOM     16  C   UNL A   1      37.097  23.627  25.001  1.00  0.00     0.000 A 
ENDBRANCH  10  11
BRANCH  10  17
ATOM     17  C   UNL A   1      32.649  21.594  23.881  1.00  0.00     0.049 A 
ATOM     18  C   UNL A   1      32.377  20.954  22.664  1.00  0.00     0.027 A 
ATOM     19  C   UNL A   1      32.741  20.832  25.051  1.00  0.00     0.027 A 
ATOM     20  C   UNL A   1      32.153  19.579  22.621  1.00  0.00     0.002 A 
ATOM     21  C   UNL A   1      32.524  19.452  25.002  1.00  0.00     0.002 A 
ATOM     22  C   UNL A   1      32.226  18.829  23.790  1.00  0.00     0.000 A 
ENDBRANCH  10  17
ENDBRANCH   7   8
BRANCH   7  23
ATOM     23  N   UNL A   1      31.441  25.952  22.493  1.00  0.00    -0.320 N 
ATOM     24  C   UNL A   1      32.655  25.995  21.632  1.00  0.00     0.291 C 
ATOM     25  C   UNL A   1      30.883  27.319  22.513  1.00  0.00     0.291 C 
ATOM     26  H   UNL A   1      30.723  25.329  22.122  1.00  0.00     0.348 HD
ATOM     27  C   UNL A   1      33.653  27.111  22.004  1.00  0.00     0.221 C 
ATOM     28  C   UNL A   1      31.897  28.394  22.929  1.00  0.00     0.221 C 
ATOM     29  O   UNL A   1      33.025  28.399  22.046  1.00  0.00    -0.370 OA
ENDBRANCH   7  23
ENDBRANCH   6   7
ENDBRANCH   4   6
ENDBRANCH   1   2
BRANCH   1  30
ATOM     30  C   UNL A   1      33.172  28.539  27.627  1.00  0.00     0.042 C 
BRANCH  30  31
ATOM     31  C   UNL A   1      33.584  29.880  27.032  1.00  0.00     0.118 C 
BRANCH  31  32
ATOM     32  N   UNL A   1      33.802  30.946  28.001  1.00  0.00    -0.352 N 
ATOM     33  C   UNL A   1      34.915  31.203  28.777  1.00  0.00     0.251 C 
ATOM     34  H   UNL A   1      33.050  31.569  28.120  1.00  0.00     0.163 HD
ATOM     35  O   UNL A   1      34.914  32.157  29.546  1.00  0.00    -0.269 OA
BRANCH  33  36
ATOM     36  C   UNL A   1      36.079  30.282  28.746  1.00  0.00     0.039 A 
ATOM     37  C   UNL A   1      36.880  30.281  27.599  1.00  0.00     0.014 A 
ATOM     38  C   UNL A   1      36.447  29.507  29.846  1.00  0.00     0.014 A 
ATOM     39  C   UNL A   1      38.123  29.648  27.624  1.00  0.00     0.010 A 
ATOM     40  C   UNL A   1      37.722  28.953  29.906  1.00  0.00     0.010 A 
ATOM     41  C   UNL A   1      38.592  29.069  28.814  1.00  0.00    -0.014 A 
BRANCH  41  42
ATOM     42  C   UNL A   1      40.029  28.739  28.976  1.00  0.00     0.031 A 
ATOM     43  C   UNL A   1      41.008  29.729  29.530  1.00  0.00     0.074 A 
ATOM     44  C   UNL A   1      40.462  27.546  28.516  1.00  0.00     0.049 A 
ATOM     45  N   UNL A   1      42.294  29.590  29.728  1.00  0.00    -0.248 NA
ATOM     46  C   UNL A   1      40.486  31.058  29.877  1.00  0.00     0.031 C 
ATOM     47  C   UNL A   1      39.624  26.539  27.855  1.00  0.00     0.029 A 
ATOM     48  N   UNL A   1      41.710  26.976  28.528  1.00  0.00    -0.354 N 
ATOM     49  C   UNL A   1      42.737  30.810  30.216  1.00  0.00     0.074 A 
ATOM     50  C   UNL A   1      41.592  31.696  30.237  1.00  0.00     0.031 C 
ATOM     51  C   UNL A   1      40.369  25.462  27.567  1.00  0.00     0.029 A 
ATOM     52  C   UNL A   1      41.740  25.710  27.995  1.00  0.00     0.049 A 
ATOM     53  H   UNL A   1      42.507  27.431  28.883  1.00  0.00     0.167 HD
ATOM     54  C   UNL A   1      43.981  31.153  30.630  1.00  0.00     0.037 A 
ATOM     55  C   UNL A   1      42.758  24.837  27.874  1.00  0.00     0.037 A 
ATOM     56  C   UNL A   1      45.113  30.263  30.620  1.00  0.00     0.049 A 
ATOM     57  C   UNL A   1      44.111  25.221  28.391  1.00  0.00     0.074 A 
ATOM     58  C   UNL A   1      46.397  30.493  31.082  1.00  0.00     0.029 A 
ATOM     59  N   UNL A   1      45.095  28.970  30.120  1.00  0.00    -0.354 N 
ATOM     60  N   UNL A   1      44.493  26.347  28.945  1.00  0.00    -0.248 NA
ATOM     61  C   UNL A   1      45.173  24.212  28.279  1.00  0.00     0.031 C 
ATOM     62  C   UNL A   1      47.164  29.348  30.835  1.00  0.00     0.029 A 
ATOM     63  C   UNL A   1      46.349  28.394  30.250  1.00  0.00     0.049 A 
ATOM     64  H   UNL A   1      44.307  28.526  29.729  1.00  0.00     0.167 HD
ATOM     65  C   UNL A   1      45.832  26.177  29.266  1.00  0.00     0.074 A 
ATOM     66  C   UNL A   1      46.191  24.832  28.861  1.00  0.00     0.031 C 
ATOM     67  C   UNL A   1      46.686  27.055  29.842  1.00  0.00     0.037 A 
BRANCH  54  68
ATOM     68  C   UNL A   1      44.173  32.550  31.143  1.00  0.00     0.057 A 
ATOM     69  C   UNL A   1      44.048  32.854  32.504  1.00  0.00     0.134 A 
ATOM     70  C   UNL A   1      44.513  33.595  30.275  1.00  0.00     0.134 A 
ATOM     71  F   UNL A   1      43.713  31.900  33.386  1.00  0.00    -0.206 F 
ATOM     72  C   UNL A   1      44.228  34.153  32.982  1.00  0.00     0.040 A 
ATOM     73  C   UNL A   1      44.718  34.894  30.744  1.00  0.00     0.040 A 
ATOM     74  F   UNL A   1      44.654  33.371  28.960  1.00  0.00    -0.206 F 
ATOM     75  C   UNL A   1      44.570  35.177  32.100  1.00  0.00     0.006 A 
ENDBRANCH  54  68
BRANCH  55  76
ATOM     76  C   UNL A   1      42.515  23.495  27.292  1.00  0.00     0.057 A 
ATOM     77  C   UNL A   1      42.122  22.423  28.103  1.00  0.00     0.134 A 
ATOM     78  C   UNL A   1      42.654  23.251  25.922  1.00  0.00     0.134 A 
ATOM     79  F   UNL A   1      41.984  22.594  29.426  1.00  0.00    -0.206 F 
ATOM     80  C   UNL A   1      41.891  21.153  27.574  1.00  0.00     0.040 A 
ATOM     81  C   UNL A   1      42.406  21.991  25.376  1.00  0.00     0.040 A 
ATOM     82  F   UNL A   1      43.015  24.242  25.092  1.00  0.00    -0.206 F 
ATOM     83  C   UNL A   1      42.030  20.936  26.206  1.00  0.00     0.006 A 
ENDBRANCH  55  76
BRANCH  67  84
ATOM     84  C   UNL A   1      48.085  26.575  30.086  1.00  0.00     0.057 A 
ATOM     85  C   UNL A   1      49.102  26.762  29.142  1.00  0.00     0.134 A 
ATOM     86  C   UNL A   1      48.420  25.935  31.285  1.00  0.00     0.134 A 
ATOM     87  F   UNL A   1      48.839  27.354  27.968  1.00  0.00    -0.206 F 
ATOM     88  C   UNL A   1      50.401  26.309  29.373  1.00  0.00     0.040 A 
ATOM     89  C   UNL A   1      49.720  25.496  31.537  1.00  0.00     0.040 A 
ATOM     90  F   UNL A   1      47.491  25.729  32.231  1.00  0.00    -0.206 F 
ATOM     91  C   UNL A   1      50.714  25.678  30.577  1.00  0.00     0.006 A 
ENDBRANCH  67  84
ENDBRANCH  41  42
ENDBRANCH  33  36
ENDBRANCH  31  32
ENDBRANCH  30  31
ENDBRANCH   1  30
TORSDOF 15
ENDMDL
MODEL 2
REMARK VINA RESULT:     -11.9      2.676      4.014
REMARK SMILES O=C(C[C@@H](C(=O)N(c1ccccc1)c1ccccc1)[NH+]1CCOCC1)NCCCNC(=O)c1ccc(-c2c3nc(c(-c4c(F)cccc4F)c4ccc([nH]4)c(-c4c(F)cccc4F)c4nc(c(-c5c(F)cccc5F)c5ccc2[nH]5)C=C4)C=C3)cc1
REMARK SMILES IDX 27 1 26 2 1 3 2 4 3 6 4 7 5 8 6 9 7 10 8 11 9 12 13 13 10 14
REMARK SMILES IDX 12 15 11 16 14 17 15 18 19 19 16 20 18 21 17 22 20 23 21 24
REMARK SMILES IDX 25 25 22 27 24 28 23 29 28 30 29 31 30 32 31 33 32 35 33 36
REMARK SMILES IDX 34 37 86 38 35 39 85 40 36 41 37 42 38 43 79 44 39 45 84 46
REMARK SMILES IDX 78 47 80 48 40 49 83 50 77 51 76 52 41 54 67 55 50 56 66 57
REMARK SMILES IDX 51 58 54 59 65 60 81 61 52 62 53 63 64 65 82 66 55 67 42 68
REMARK SMILES IDX 43 69 48 70 44 71 45 72 47 73 49 74 46 75 68 76 69 77 74 78
REMARK SMILES IDX 70 79 71 80 73 81 75 82 72 83 56 84 57 85 62 86 58 87 59 88
REMARK SMILES IDX 61 89 63 90 60 91
REMARK H PARENT 26 5 20 26 30 34 80 53 54 64
REMARK Flexibility Score: inf
ROOT
ATOM      1  C   UNL A   1      32.890  28.169  26.975  1.00  0.00     0.117 C 
ENDROOT
BRANCH   1   2
ATOM      2  N   UNL A   1      32.455  27.302  25.889  1.00  0.00    -0.356 N 
ATOM      3  O   UNL A   1      30.625  26.476  27.011  1.00  0.00    -0.275 OA
ATOM      4  C   UNL A   1      31.286  26.579  25.980  1.00  0.00     0.226 C 
ATOM      5  H   UNL A   1      33.006  27.231  25.077  1.00  0.00     0.163 HD
BRANCH   4   6
ATOM      6  C   UNL A   1      30.801  25.963  24.687  1.00  0.00     0.175 C 
BRANCH   6   7
ATOM      7  C   UNL A   1      32.005  25.675  23.754  1.00  0.00     0.284 C 
BRANCH   7   8
ATOM      8  C   UNL A   1      31.977  24.133  23.532  1.00  0.00     0.290 C 
ATOM      9  O   UNL A   1      30.862  23.655  23.237  1.00  0.00    -0.267 OA
ATOM     10  N   UNL A   1      33.062  23.261  23.746  1.00  0.00    -0.276 N 
BRANCH  10  11
ATOM     11  C   UNL A   1      34.458  23.472  24.127  1.00  0.00     0.049 A 
ATOM     12  C   UNL A   1      35.508  23.049  23.269  1.00  0.00     0.027 A 
ATOM     13  C   UNL A   1      34.896  24.056  25.321  1.00  0.00     0.027 A 
ATOM     14  C   UNL A   1      36.864  23.079  23.635  1.00  0.00     0.002 A 
ATOM     15  C   UNL A   1      36.253  24.084  25.702  1.00  0.00     0.002 A 
ATOM     16  C   UNL A   1      37.235  23.576  24.870  1.00  0.00     0.000 A 
ENDBRANCH  10  11
BRANCH  10  17
ATOM     17  C   UNL A   1      32.663  21.874  23.701  1.00  0.00     0.049 A 
ATOM     18  C   UNL A   1      32.360  21.281  22.467  1.00  0.00     0.027 A 
ATOM     19  C   UNL A   1      32.693  21.082  24.854  1.00  0.00     0.027 A 
ATOM     20  C   UNL A   1      32.045  19.926  22.391  1.00  0.00     0.002 A 
ATOM     21  C   UNL A   1      32.384  19.722  24.772  1.00  0.00     0.002 A 
ATOM     22  C   UNL A   1      32.056  19.146  23.544  1.00  0.00     0.000 A 
ENDBRANCH  10  17
ENDBRANCH   7   8
BRANCH   7  23
ATOM     23  N   UNL A   1      31.907  26.336  22.401  1.00  0.00    -0.320 N 
ATOM     24  C   UNL A   1      33.243  26.770  21.904  1.00  0.00     0.291 C 
ATOM     25  C   UNL A   1      31.020  27.515  22.321  1.00  0.00     0.291 C 
ATOM     26  H   UNL A   1      31.498  25.601  21.824  1.00  0.00     0.348 HD
ATOM     27  C   UNL A   1      33.781  28.050  22.577  1.00  0.00     0.221 C 
ATOM     28  C   UNL A   1      31.573  28.753  23.039  1.00  0.00     0.221 C 
ATOM     29  O   UNL A   1      32.844  29.131  22.497  1.00  0.00    -0.370 OA
ENDBRANCH   7  23
ENDBRANCH   6   7
ENDBRANCH   4   6
ENDBRANCH   1   2
BRANCH   1  30
ATOM     30  C   UNL A   1      32.197  29.524  27.029  1.00  0.00     0.042 C 
BRANCH  30  31
ATOM     31  C   UNL A   1      33.133  30.719  27.161  1.00  0.00     0.118 C 
BRANCH  31  32
ATOM     32  N   UNL A   1      32.475  32.018  27.207  1.00  0.00    -0.352 N 
ATOM     33  C   UNL A   1      32.921  33.201  27.764  1.00  0.00     0.251 C 
ATOM     34  H   UNL A   1      31.588  32.058  26.783  1.00  0.00     0.163 HD
ATOM     35  O   UNL A   1      32.219  34.203  27.705  1.00  0.00    -0.269 OA
BRANCH  33  36
ATOM     36  C   UNL A   1      34.207  33.242  28.505  1.00  0.00     0.039 A 
ATOM     37  C   UNL A   1      34.217  32.767  29.819  1.00  0.00     0.014 A 
ATOM     38  C   UNL A   1      35.402  33.641  27.904  1.00  0.00     0.014 A 
ATOM     39  C   UNL A   1      35.434  32.530  30.460  1.00  0.00     0.010 A 
ATOM     40  C   UNL A   1      36.616  33.322  28.503  1.00  0.00     0.010 A 
ATOM     41  C   UNL A   1      36.640  32.710  29.763  1.00  0.00    -0.014 A 
BRANCH  41  42
ATOM     42  C   UNL A   1      37.900  32.114  30.272  1.00  0.00     0.031 A 
ATOM     43  C   UNL A   1      38.698  32.766  31.361  1.00  0.00     0.074 A 
ATOM     44  C   UNL A   1      38.372  31.010  29.657  1.00  0.00     0.049 A 
ATOM     45  N   UNL A   1      39.819  32.368  31.907  1.00  0.00    -0.248 NA
ATOM     46  C   UNL A   1      38.192  34.043  31.883  1.00  0.00     0.031 C 
ATOM     47  C   UNL A   1      37.742  30.344  28.511  1.00  0.00     0.029 A 
ATOM     48  N   UNL A   1      39.489  30.251  29.902  1.00  0.00    -0.354 N 
ATOM     49  C   UNL A   1      40.156  33.346  32.831  1.00  0.00     0.074 A 
ATOM     50  C   UNL A   1      39.149  34.381  32.737  1.00  0.00     0.031 C 
ATOM     51  C   UNL A   1      38.455  29.256  28.184  1.00  0.00     0.029 A 
ATOM     52  C   UNL A   1      39.605  29.161  29.073  1.00  0.00     0.049 A 
ATOM     53  H   UNL A   1      40.145  30.468  30.603  1.00  0.00     0.167 HD
ATOM     54  C   UNL A   1      41.200  33.367  33.695  1.00  0.00     0.037 A 
ATOM     55  C   UNL A   1      40.530  28.183  29.040  1.00  0.00     0.037 A 
ATOM     56  C   UNL A   1      42.191  32.327  33.795  1.00  0.00     0.049 A 
ATOM     57  C   UNL A   1      41.643  28.200  30.045  1.00  0.00     0.074 A 
ATOM     58  C   UNL A   1      43.247  32.221  34.683  1.00  0.00     0.029 A 
ATOM     59  N   UNL A   1      42.249  31.211  32.973  1.00  0.00    -0.354 N 
ATOM     60  N   UNL A   1      41.893  29.081  30.982  1.00  0.00    -0.248 NA
ATOM     61  C   UNL A   1      42.595  27.082  29.996  1.00  0.00     0.031 C 
ATOM     62  C   UNL A   1      43.961  31.055  34.381  1.00  0.00     0.029 A 
ATOM     63  C   UNL A   1      43.329  30.418  33.325  1.00  0.00     0.049 A 
ATOM     64  H   UNL A   1      41.615  31.012  32.246  1.00  0.00     0.167 HD
ATOM     65  C   UNL A   1      43.018  28.617  31.648  1.00  0.00     0.074 A 
ATOM     66  C   UNL A   1      43.390  27.366  31.018  1.00  0.00     0.031 C 
ATOM     67  C   UNL A   1      43.683  29.177  32.687  1.00  0.00     0.037 A 
BRANCH  54  68
ATOM     68  C   UNL A   1      41.309  34.549  34.612  1.00  0.00     0.057 A 
ATOM     69  C   UNL A   1      41.998  35.708  34.235  1.00  0.00     0.134 A 
ATOM     70  C   UNL A   1      40.698  34.540  35.872  1.00  0.00     0.134 A 
ATOM     71  F   UNL A   1      42.615  35.775  33.046  1.00  0.00    -0.206 F 
ATOM     72  C   UNL A   1      42.098  36.809  35.087  1.00  0.00     0.040 A 
ATOM     73  C   UNL A   1      40.772  35.644  36.725  1.00  0.00     0.040 A 
ATOM     74  F   UNL A   1      40.018  33.464  36.294  1.00  0.00    -0.206 F 
ATOM     75  C   UNL A   1      41.478  36.780  36.336  1.00  0.00     0.006 A 
ENDBRANCH  54  68
BRANCH  55  76
ATOM     76  C   UNL A   1      40.402  27.078  28.060  1.00  0.00     0.057 A 
ATOM     77  C   UNL A   1      41.034  27.148  26.813  1.00  0.00     0.134 A 
ATOM     78  C   UNL A   1      39.661  25.926  28.345  1.00  0.00     0.134 A 
ATOM     79  F   UNL A   1      41.747  28.234  26.479  1.00  0.00    -0.206 F 
ATOM     80  C   UNL A   1      40.923  26.119  25.878  1.00  0.00     0.040 A 
ATOM     81  C   UNL A   1      39.559  24.879  27.428  1.00  0.00     0.040 A 
ATOM     82  F   UNL A   1      39.043  25.794  29.529  1.00  0.00    -0.206 F 
ATOM     83  C   UNL A   1      40.186  24.979  26.186  1.00  0.00     0.006 A 
ENDBRANCH  55  76
BRANCH  67  84
ATOM     84  C   UNL A   1      44.866  28.424  33.215  1.00  0.00     0.057 A 
ATOM     85  C   UNL A   1      44.732  27.445  34.208  1.00  0.00     0.134 A 
ATOM     86  C   UNL A   1      46.150  28.670  32.713  1.00  0.00     0.134 A 
ATOM     87  F   UNL A   1      43.531  27.177  34.739  1.00  0.00    -0.206 F 
ATOM     88  C   UNL A   1      45.839  26.751  34.699  1.00  0.00     0.040 A 
ATOM     89  C   UNL A   1      47.260  27.968  33.181  1.00  0.00     0.040 A 
ATOM     90  F   UNL A   1      46.343  29.593  31.759  1.00  0.00    -0.206 F 
ATOM     91  C   UNL A   1      47.107  27.009  34.181  1.00  0.00     0.006 A 
ENDBRANCH  67  84
ENDBRANCH  41  42
ENDBRANCH  33  36
ENDBRANCH  31  32
ENDBRANCH  30  31
ENDBRANCH   1  30
TORSDOF 15
ENDMDL
MODEL 3
REMARK VINA RESULT:     -11.8      2.725      6.938
REMARK SMILES O=C(C[C@@H](C(=O)N(c1ccccc1)c1ccccc1)[NH+]1CCOCC1)NCCCNC(=O)c1ccc(-c2c3nc(c(-c4c(F)cccc4F)c4ccc([nH]4)c(-c4c(F)cccc4F)c4nc(c(-c5c(F)cccc5F)c5ccc2[nH]5)C=C4)C=C3)cc1
REMARK SMILES IDX 27 1 26 2 1 3 2 4 3 6 4 7 5 8 6 9 7 10 8 11 9 12 13 13 10 14
REMARK SMILES IDX 12 15 11 16 14 17 15 18 19 19 16 20 18 21 17 22 20 23 21 24
REMARK SMILES IDX 25 25 22 27 24 28 23 29 28 30 29 31 30 32 31 33 32 35 33 36
REMARK SMILES IDX 34 37 86 38 35 39 85 40 36 41 37 42 38 43 79 44 39 45 84 46
REMARK SMILES IDX 78 47 80 48 40 49 83 50 77 51 76 52 41 54 67 55 50 56 66 57
REMARK SMILES IDX 51 58 54 59 65 60 81 61 52 62 53 63 64 65 82 66 55 67 42 68
REMARK SMILES IDX 43 69 48 70 44 71 45 72 47 73 49 74 46 75 68 76 69 77 74 78
REMARK SMILES IDX 70 79 71 80 73 81 75 82 72 83 56 84 57 85 62 86 58 87 59 88
REMARK SMILES IDX 61 89 63 90 60 91
REMARK H PARENT 26 5 20 26 30 34 80 53 54 64
REMARK Flexibility Score: inf
ROOT
ATOM      1  C   UNL A   1      32.978  28.197  26.770  1.00  0.00     0.117 C 
ENDROOT
BRANCH   1   2
ATOM      2  N   UNL A   1      32.498  27.221  25.803  1.00  0.00    -0.356 N 
ATOM      3  O   UNL A   1      30.636  26.633  27.019  1.00  0.00    -0.275 OA
ATOM      4  C   UNL A   1      31.296  26.571  25.984  1.00  0.00     0.226 C 
ATOM      5  H   UNL A   1      33.041  27.021  25.008  1.00  0.00     0.163 HD
BRANCH   4   6
ATOM      6  C   UNL A   1      30.777  25.819  24.779  1.00  0.00     0.175 C 
BRANCH   6   7
ATOM      7  C   UNL A   1      31.933  25.553  23.783  1.00  0.00     0.284 C 
BRANCH   7   8
ATOM      8  C   UNL A   1      31.935  24.008  23.577  1.00  0.00     0.290 C 
ATOM      9  O   UNL A   1      30.827  23.506  23.296  1.00  0.00    -0.267 OA
ATOM     10  N   UNL A   1      33.038  23.161  23.792  1.00  0.00    -0.276 N 
BRANCH  10  11
ATOM     11  C   UNL A   1      34.432  23.403  24.160  1.00  0.00     0.049 A 
ATOM     12  C   UNL A   1      35.484  23.005  23.292  1.00  0.00     0.027 A 
ATOM     13  C   UNL A   1      34.868  23.995  25.351  1.00  0.00     0.027 A 
ATOM     14  C   UNL A   1      36.842  23.066  23.646  1.00  0.00     0.002 A 
ATOM     15  C   UNL A   1      36.228  24.055  25.719  1.00  0.00     0.002 A 
ATOM     16  C   UNL A   1      37.214  23.570  24.878  1.00  0.00     0.000 A 
ENDBRANCH  10  11
BRANCH  10  17
ATOM     17  C   UNL A   1      32.667  21.766  23.764  1.00  0.00     0.049 A 
ATOM     18  C   UNL A   1      32.359  21.156  22.540  1.00  0.00     0.027 A 
ATOM     19  C   UNL A   1      32.727  20.985  24.924  1.00  0.00     0.027 A 
ATOM     20  C   UNL A   1      32.070  19.793  22.480  1.00  0.00     0.002 A 
ATOM     21  C   UNL A   1      32.445  19.618  24.858  1.00  0.00     0.002 A 
ATOM     22  C   UNL A   1      32.112  19.025  23.639  1.00  0.00     0.000 A 
ENDBRANCH  10  17
ENDBRANCH   7   8
BRANCH   7  23
ATOM     23  N   UNL A   1      31.742  26.197  22.431  1.00  0.00    -0.320 N 
ATOM     24  C   UNL A   1      33.045  26.569  21.812  1.00  0.00     0.291 C 
ATOM     25  C   UNL A   1      30.897  27.408  22.407  1.00  0.00     0.291 C 
ATOM     26  H   UNL A   1      31.257  25.469  21.906  1.00  0.00     0.348 HD
ATOM     27  C   UNL A   1      33.688  27.837  22.412  1.00  0.00     0.221 C 
ATOM     28  C   UNL A   1      31.557  28.635  23.051  1.00  0.00     0.221 C 
ATOM     29  O   UNL A   1      32.790  28.954  22.393  1.00  0.00    -0.370 OA
ENDBRANCH   7  23
ENDBRANCH   6   7
ENDBRANCH   4   6
ENDBRANCH   1   2
BRANCH   1  30
ATOM     30  C   UNL A   1      32.321  29.568  26.676  1.00  0.00     0.042 C 
BRANCH  30  31
ATOM     31  C   UNL A   1      33.199  30.733  27.118  1.00  0.00     0.118 C 
BRANCH  31  32
ATOM     32  N   UNL A   1      32.528  32.024  27.181  1.00  0.00    -0.352 N 
ATOM     33  C   UNL A   1      32.959  33.202  27.758  1.00  0.00     0.251 C 
ATOM     34  H   UNL A   1      31.643  32.062  26.752  1.00  0.00     0.163 HD
ATOM     35  O   UNL A   1      32.247  34.199  27.711  1.00  0.00    -0.269 OA
BRANCH  33  36
ATOM     36  C   UNL A   1      34.240  33.245  28.508  1.00  0.00     0.039 A 
ATOM     37  C   UNL A   1      34.238  32.787  29.829  1.00  0.00     0.014 A 
ATOM     38  C   UNL A   1      35.442  33.627  27.910  1.00  0.00     0.014 A 
ATOM     39  C   UNL A   1      35.448  32.550  30.481  1.00  0.00     0.010 A 
ATOM     40  C   UNL A   1      36.649  33.307  28.522  1.00  0.00     0.010 A 
ATOM     41  C   UNL A   1      36.661  32.712  29.791  1.00  0.00    -0.014 A 
BRANCH  41  42
ATOM     42  C   UNL A   1      37.913  32.114  30.316  1.00  0.00     0.031 A 
ATOM     43  C   UNL A   1      38.475  30.844  29.755  1.00  0.00     0.074 A 
ATOM     44  C   UNL A   1      38.490  32.693  31.390  1.00  0.00     0.049 A 
ATOM     45  N   UNL A   1      39.556  30.197  30.111  1.00  0.00    -0.248 NA
ATOM     46  C   UNL A   1      37.712  30.196  28.680  1.00  0.00     0.031 C 
ATOM     47  C   UNL A   1      37.975  33.872  32.095  1.00  0.00     0.029 A 
ATOM     48  N   UNL A   1      39.631  32.371  32.081  1.00  0.00    -0.354 N 
ATOM     49  C   UNL A   1      39.601  29.066  29.310  1.00  0.00     0.074 A 
ATOM     50  C   UNL A   1      38.413  29.087  28.484  1.00  0.00     0.031 C 
ATOM     51  C   UNL A   1      38.818  34.199  33.086  1.00  0.00     0.029 A 
ATOM     52  C   UNL A   1      39.915  33.241  33.106  1.00  0.00     0.049 A 
ATOM     53  H   UNL A   1      40.191  31.592  31.863  1.00  0.00     0.167 HD
ATOM     54  C   UNL A   1      40.559  28.109  29.253  1.00  0.00     0.037 A 
ATOM     55  C   UNL A   1      40.953  33.271  33.963  1.00  0.00     0.037 A 
ATOM     56  C   UNL A   1      41.747  28.102  30.067  1.00  0.00     0.049 A 
ATOM     57  C   UNL A   1      42.028  32.233  33.841  1.00  0.00     0.074 A 
ATOM     58  C   UNL A   1      42.810  27.215  30.037  1.00  0.00     0.029 A 
ATOM     59  N   UNL A   1      42.028  29.027  31.061  1.00  0.00    -0.354 N 
ATOM     60  N   UNL A   1      42.108  31.224  33.009  1.00  0.00    -0.248 NA
ATOM     61  C   UNL A   1      43.162  32.343  34.769  1.00  0.00     0.031 C 
ATOM     62  C   UNL A   1      43.721  27.588  31.034  1.00  0.00     0.029 A 
ATOM     63  C   UNL A   1      43.241  28.726  31.660  1.00  0.00     0.049 A 
ATOM     64  H   UNL A   1      41.450  29.786  31.306  1.00  0.00     0.167 HD
ATOM     65  C   UNL A   1      43.308  30.589  33.297  1.00  0.00     0.074 A 
ATOM     66  C   UNL A   1      43.931  31.339  34.369  1.00  0.00     0.031 C 
ATOM     67  C   UNL A   1      43.844  29.485  32.725  1.00  0.00     0.037 A 
BRANCH  54  68
ATOM     68  C   UNL A   1      40.364  26.999  28.263  1.00  0.00     0.057 A 
ATOM     69  C   UNL A   1      39.541  25.901  28.546  1.00  0.00     0.134 A 
ATOM     70  C   UNL A   1      40.979  27.040  27.006  1.00  0.00     0.134 A 
ATOM     71  F   UNL A   1      38.932  25.797  29.737  1.00  0.00    -0.206 F 
ATOM     72  C   UNL A   1      39.357  24.869  27.624  1.00  0.00     0.040 A 
ATOM     73  C   UNL A   1      40.785  26.025  26.066  1.00  0.00     0.040 A 
ATOM     74  F   UNL A   1      41.775  28.065  26.668  1.00  0.00    -0.206 F 
ATOM     75  C   UNL A   1      39.977  24.933  26.376  1.00  0.00     0.006 A 
ENDBRANCH  54  68
BRANCH  55  76
ATOM     76  C   UNL A   1      41.051  34.359  34.966  1.00  0.00     0.057 A 
ATOM     77  C   UNL A   1      41.730  35.547  34.671  1.00  0.00     0.134 A 
ATOM     78  C   UNL A   1      40.464  34.247  36.231  1.00  0.00     0.134 A 
ATOM     79  F   UNL A   1      42.323  35.707  33.479  1.00  0.00    -0.206 F 
ATOM     80  C   UNL A   1      41.834  36.580  35.603  1.00  0.00     0.040 A 
ATOM     81  C   UNL A   1      40.543  35.280  37.166  1.00  0.00     0.040 A 
ATOM     82  F   UNL A   1      39.789  33.137  36.568  1.00  0.00    -0.206 F 
ATOM     83  C   UNL A   1      41.236  36.449  36.854  1.00  0.00     0.006 A 
ENDBRANCH  55  76
BRANCH  67  84
ATOM     84  C   UNL A   1      45.180  29.040  33.238  1.00  0.00     0.057 A 
ATOM     85  C   UNL A   1      46.376  29.522  32.691  1.00  0.00     0.134 A 
ATOM     86  C   UNL A   1      45.270  28.133  34.301  1.00  0.00     0.134 A 
ATOM     87  F   UNL A   1      46.354  30.380  31.661  1.00  0.00    -0.206 F 
ATOM     88  C   UNL A   1      47.616  29.101  33.170  1.00  0.00     0.040 A 
ATOM     89  C   UNL A   1      46.504  27.721  34.803  1.00  0.00     0.040 A 
ATOM     90  F   UNL A   1      44.160  27.638  34.870  1.00  0.00    -0.206 F 
ATOM     91  C   UNL A   1      47.682  28.201  34.234  1.00  0.00     0.006 A 
ENDBRANCH  67  84
ENDBRANCH  41  42
ENDBRANCH  33  36
ENDBRANCH  31  32
ENDBRANCH  30  31
ENDBRANCH   1  30
TORSDOF 15
ENDMDL
