MODEL 1
REMARK VINA RESULT:     -10.8      0.000      0.000
REMARK SMILES CC[C@H]1CN(C(=O)N(CC(=O)NCCCNC(=O)c2ccc(-c3c4nc(c(-c5c(F)cccc5F)c5ccc([nH]5)c(-c5c(F)cccc5F)c5nc(c(-c6c(F)cccc6F)c6ccc3[nH]6)C=C5)C=C4)cc2)C(C)(C)C)CC[N@@H+]1C
REMARK SMILES IDX 13 1 12 2 10 3 11 4 9 6 8 7 6 8 7 9 5 10 3 11 4 12 79 13
REMARK SMILES IDX 78 14 80 15 77 17 2 18 1 19 73 20 74 21 75 22 76 23 14 24
REMARK SMILES IDX 15 25 16 26 17 27 18 29 19 30 20 31 72 32 21 33 71 34 22 35
REMARK SMILES IDX 23 36 24 37 65 38 25 39 70 40 64 41 66 42 26 43 69 44 63 45
REMARK SMILES IDX 62 46 27 48 53 49 36 50 52 51 37 52 40 53 51 54 67 55 38 56
REMARK SMILES IDX 39 57 50 59 68 60 41 61 28 62 29 63 34 64 30 65 31 66 33 67
REMARK SMILES IDX 35 68 32 69 54 70 55 71 60 72 56 73 57 74 59 75 61 76 58 77
REMARK SMILES IDX 42 78 43 79 48 80 44 81 45 82 47 83 49 84 46 85
REMARK H PARENT 12 5 79 16 16 28 66 47 40 58
REMARK Flexibility Score: inf
ROOT
ATOM      1  C   UNL A   1      36.714  20.489  24.998  1.00  0.00     0.117 C 
ENDROOT
BRANCH   1   2
ATOM      2  N   UNL A   1      37.039  21.858  25.333  1.00  0.00    -0.354 N 
ATOM      3  C   UNL A   1      36.197  22.855  25.728  1.00  0.00     0.239 C 
ATOM      4  O   UNL A   1      36.695  23.909  26.127  1.00  0.00    -0.273 OA
ATOM      5  H   UNL A   1      37.991  22.102  25.268  1.00  0.00     0.163 HD
BRANCH   3   6
ATOM      6  C   UNL A   1      34.685  22.606  25.779  1.00  0.00     0.221 C 
BRANCH   6   7
ATOM      7  N   UNL A   1      33.908  22.714  24.529  1.00  0.00    -0.311 N 
BRANCH   7   8
ATOM      8  C   UNL A   1      34.100  23.734  23.601  1.00  0.00     0.321 C 
ATOM      9  O   UNL A   1      34.942  23.624  22.705  1.00  0.00    -0.248 OA
BRANCH   8  10
ATOM     10  N   UNL A   1      33.355  24.906  23.667  1.00  0.00    -0.313 N 
ATOM     11  C   UNL A   1      31.687  26.511  24.667  1.00  0.00     0.203 C 
ATOM     12  C   UNL A   1      32.898  25.561  24.893  1.00  0.00     0.186 C 
ATOM     13  N   UNL A   1      31.909  27.523  23.605  1.00  0.00    -0.332 N 
ATOM     14  C   UNL A   1      32.498  26.927  22.385  1.00  0.00     0.284 C 
ATOM     15  C   UNL A   1      32.756  28.619  24.088  1.00  0.00     0.333 C 
ATOM     16  H   UNL A   1      30.993  27.900  23.360  1.00  0.00     0.348 HD
ATOM     17  C   UNL A   1      33.598  25.867  22.580  1.00  0.00     0.183 C 
BRANCH  11  18
ATOM     18  C   UNL A   1      30.319  25.782  24.541  1.00  0.00     0.063 C 
ATOM     19  C   UNL A   1      29.145  26.521  23.912  1.00  0.00     0.010 C 
ENDBRANCH  11  18
ENDBRANCH   8  10
ENDBRANCH   7   8
BRANCH   7  20
ATOM     20  C   UNL A   1      32.730  21.773  24.322  1.00  0.00     0.037 C 
ATOM     21  C   UNL A   1      33.102  20.299  24.603  1.00  0.00     0.034 C 
ATOM     22  C   UNL A   1      31.557  22.195  25.240  1.00  0.00     0.034 C 
ATOM     23  C   UNL A   1      32.145  21.792  22.886  1.00  0.00     0.034 C 
ENDBRANCH   7  20
ENDBRANCH   6   7
ENDBRANCH   3   6
ENDBRANCH   1   2
BRANCH   1  24
ATOM     24  C   UNL A   1      37.937  19.594  24.910  1.00  0.00     0.042 C 
BRANCH  24  25
ATOM     25  C   UNL A   1      39.097  20.073  25.767  1.00  0.00     0.118 C 
BRANCH  25  26
ATOM     26  N   UNL A   1      40.139  19.064  25.896  1.00  0.00    -0.352 N 
ATOM     27  C   UNL A   1      41.482  19.225  26.105  1.00  0.00     0.251 C 
ATOM     28  H   UNL A   1      39.833  18.131  25.822  1.00  0.00     0.163 HD
ATOM     29  O   UNL A   1      42.246  18.269  25.971  1.00  0.00    -0.269 OA
BRANCH  27  30
ATOM     30  C   UNL A   1      42.019  20.549  26.479  1.00  0.00     0.039 A 
ATOM     31  C   UNL A   1      42.399  21.436  25.469  1.00  0.00     0.014 A 
ATOM     32  C   UNL A   1      42.160  20.910  27.822  1.00  0.00     0.014 A 
ATOM     33  C   UNL A   1      42.870  22.705  25.805  1.00  0.00     0.010 A 
ATOM     34  C   UNL A   1      42.557  22.200  28.155  1.00  0.00     0.010 A 
ATOM     35  C   UNL A   1      42.924  23.108  27.150  1.00  0.00    -0.014 A 
BRANCH  35  36
ATOM     36  C   UNL A   1      43.371  24.472  27.525  1.00  0.00     0.031 A 
ATOM     37  C   UNL A   1      42.362  25.510  27.930  1.00  0.00     0.074 A 
ATOM     38  C   UNL A   1      44.676  24.791  27.441  1.00  0.00     0.049 A 
ATOM     39  N   UNL A   1      42.549  26.770  28.231  1.00  0.00    -0.248 NA
ATOM     40  C   UNL A   1      40.955  25.082  27.982  1.00  0.00     0.031 C 
ATOM     41  C   UNL A   1      45.745  23.885  27.014  1.00  0.00     0.029 A 
ATOM     42  N   UNL A   1      45.325  25.972  27.702  1.00  0.00    -0.354 N 
ATOM     43  C   UNL A   1      41.287  27.287  28.491  1.00  0.00     0.074 A 
ATOM     44  C   UNL A   1      40.337  26.221  28.264  1.00  0.00     0.031 C 
ATOM     45  C   UNL A   1      46.917  24.537  27.064  1.00  0.00     0.029 A 
ATOM     46  C   UNL A   1      46.681  25.913  27.488  1.00  0.00     0.049 A 
ATOM     47  H   UNL A   1      44.862  26.784  28.014  1.00  0.00     0.167 HD
ATOM     48  C   UNL A   1      40.952  28.533  28.904  1.00  0.00     0.037 A 
ATOM     49  C   UNL A   1      47.624  26.864  27.614  1.00  0.00     0.037 A 
ATOM     50  C   UNL A   1      41.901  29.584  29.154  1.00  0.00     0.049 A 
ATOM     51  C   UNL A   1      47.225  28.240  28.067  1.00  0.00     0.074 A 
ATOM     52  C   UNL A   1      41.666  30.860  29.637  1.00  0.00     0.029 A 
ATOM     53  N   UNL A   1      43.267  29.482  28.939  1.00  0.00    -0.354 N 
ATOM     54  N   UNL A   1      46.036  28.696  28.378  1.00  0.00    -0.248 NA
ATOM     55  C   UNL A   1      48.301  29.235  28.191  1.00  0.00     0.031 C 
ATOM     56  C   UNL A   1      42.886  31.544  29.676  1.00  0.00     0.029 A 
ATOM     57  C   UNL A   1      43.886  30.680  29.258  1.00  0.00     0.049 A 
ATOM     58  H   UNL A   1      43.729  28.678  28.610  1.00  0.00     0.167 HD
ATOM     59  C   UNL A   1      46.222  30.019  28.756  1.00  0.00     0.074 A 
ATOM     60  C   UNL A   1      47.641  30.289  28.651  1.00  0.00     0.031 C 
ATOM     61  C   UNL A   1      45.300  30.930  29.153  1.00  0.00     0.037 A 
BRANCH  48  62
ATOM     62  C   UNL A   1      39.495  28.822  29.117  1.00  0.00     0.057 A 
ATOM     63  C   UNL A   1      38.885  28.655  30.367  1.00  0.00     0.134 A 
ATOM     64  C   UNL A   1      38.701  29.309  28.071  1.00  0.00     0.134 A 
ATOM     65  F   UNL A   1      39.586  28.181  31.408  1.00  0.00    -0.206 F 
ATOM     66  C   UNL A   1      37.532  28.938  30.563  1.00  0.00     0.040 A 
ATOM     67  C   UNL A   1      37.354  29.619  28.262  1.00  0.00     0.040 A 
ATOM     68  F   UNL A   1      39.223  29.498  26.850  1.00  0.00    -0.206 F 
ATOM     69  C   UNL A   1      36.764  29.428  29.509  1.00  0.00     0.006 A 
ENDBRANCH  48  62
BRANCH  49  70
ATOM     70  C   UNL A   1      49.044  26.545  27.323  1.00  0.00     0.057 A 
ATOM     71  C   UNL A   1      49.567  26.695  26.034  1.00  0.00     0.134 A 
ATOM     72  C   UNL A   1      49.908  26.077  28.320  1.00  0.00     0.134 A 
ATOM     73  F   UNL A   1      48.783  27.122  25.034  1.00  0.00    -0.206 F 
ATOM     74  C   UNL A   1      50.893  26.373  25.741  1.00  0.00     0.040 A 
ATOM     75  C   UNL A   1      51.243  25.775  28.046  1.00  0.00     0.040 A 
ATOM     76  F   UNL A   1      49.469  25.917  29.577  1.00  0.00    -0.206 F 
ATOM     77  C   UNL A   1      51.737  25.916  26.751  1.00  0.00     0.006 A 
ENDBRANCH  49  70
BRANCH  61  78
ATOM     78  C   UNL A   1      45.801  32.292  29.531  1.00  0.00     0.057 A 
ATOM     79  C   UNL A   1      45.861  33.339  28.603  1.00  0.00     0.134 A 
ATOM     80  C   UNL A   1      46.186  32.570  30.849  1.00  0.00     0.134 A 
ATOM     81  F   UNL A   1      45.520  33.133  27.322  1.00  0.00    -0.206 F 
ATOM     82  C   UNL A   1      46.306  34.610  28.968  1.00  0.00     0.040 A 
ATOM     83  C   UNL A   1      46.610  33.843  31.231  1.00  0.00     0.040 A 
ATOM     84  F   UNL A   1      46.144  31.613  31.788  1.00  0.00    -0.206 F 
ATOM     85  C   UNL A   1      46.675  34.867  30.288  1.00  0.00     0.006 A 
ENDBRANCH  61  78
ENDBRANCH  35  36
ENDBRANCH  27  30
ENDBRANCH  25  26
ENDBRANCH  24  25
ENDBRANCH   1  24
TORSDOF 15
ENDMDL
MODEL 2
REMARK VINA RESULT:     -10.8      1.659      6.407
REMARK SMILES CC[C@H]1CN(C(=O)N(CC(=O)NCCCNC(=O)c2ccc(-c3c4nc(c(-c5c(F)cccc5F)c5ccc([nH]5)c(-c5c(F)cccc5F)c5nc(c(-c6c(F)cccc6F)c6ccc3[nH]6)C=C5)C=C4)cc2)C(C)(C)C)CC[N@@H+]1C
REMARK SMILES IDX 13 1 12 2 10 3 11 4 9 6 8 7 6 8 7 9 5 10 3 11 4 12 79 13
REMARK SMILES IDX 78 14 80 15 77 17 2 18 1 19 73 20 74 21 75 22 76 23 14 24
REMARK SMILES IDX 15 25 16 26 17 27 18 29 19 30 20 31 72 32 21 33 71 34 22 35
REMARK SMILES IDX 23 36 24 37 65 38 25 39 70 40 64 41 66 42 26 43 69 44 63 45
REMARK SMILES IDX 62 46 27 48 53 49 36 50 52 51 37 52 40 53 51 54 67 55 38 56
REMARK SMILES IDX 39 57 50 59 68 60 41 61 28 62 29 63 34 64 30 65 31 66 33 67
REMARK SMILES IDX 35 68 32 69 54 70 55 71 60 72 56 73 57 74 59 75 61 76 58 77
REMARK SMILES IDX 42 78 43 79 48 80 44 81 45 82 47 83 49 84 46 85
REMARK H PARENT 12 5 79 16 16 28 66 47 40 58
REMARK Flexibility Score: inf
ROOT
ATOM      1  C   UNL A   1      36.245  20.519  25.063  1.00  0.00     0.117 C 
ENDROOT
BRANCH   1   2
ATOM      2  N   UNL A   1      36.518  21.936  25.163  1.00  0.00    -0.354 N 
ATOM      3  C   UNL A   1      35.726  22.915  25.686  1.00  0.00     0.239 C 
ATOM      4  O   UNL A   1      36.213  24.038  25.828  1.00  0.00    -0.273 OA
ATOM      5  H   UNL A   1      37.388  22.231  24.810  1.00  0.00     0.163 HD
BRANCH   3   6
ATOM      6  C   UNL A   1      34.317  22.577  26.186  1.00  0.00     0.221 C 
BRANCH   6   7
ATOM      7  N   UNL A   1      33.168  23.293  25.600  1.00  0.00    -0.311 N 
BRANCH   7   8
ATOM      8  C   UNL A   1      32.417  24.231  26.306  1.00  0.00     0.321 C 
ATOM      9  O   UNL A   1      31.788  23.906  27.317  1.00  0.00    -0.248 OA
BRANCH   8  10
ATOM     10  N   UNL A   1      32.350  25.553  25.882  1.00  0.00    -0.313 N 
ATOM     11  C   UNL A   1      31.197  27.673  25.151  1.00  0.00     0.203 C 
ATOM     12  C   UNL A   1      31.255  26.484  26.153  1.00  0.00     0.186 C 
ATOM     13  N   UNL A   1      32.475  28.417  25.029  1.00  0.00    -0.332 N 
ATOM     14  C   UNL A   1      33.634  27.508  24.886  1.00  0.00     0.284 C 
ATOM     15  C   UNL A   1      32.676  29.312  26.173  1.00  0.00     0.333 C 
ATOM     16  H   UNL A   1      32.409  28.979  24.180  1.00  0.00     0.348 HD
ATOM     17  C   UNL A   1      33.646  26.239  25.759  1.00  0.00     0.183 C 
BRANCH  11  18
ATOM     18  C   UNL A   1      30.562  27.319  23.776  1.00  0.00     0.063 C 
ATOM     19  C   UNL A   1      29.521  28.257  23.180  1.00  0.00     0.010 C 
ENDBRANCH  11  18
ENDBRANCH   8  10
ENDBRANCH   7   8
BRANCH   7  20
ATOM     20  C   UNL A   1      32.671  22.871  24.225  1.00  0.00     0.037 C 
ATOM     21  C   UNL A   1      33.484  23.523  23.084  1.00  0.00     0.034 C 
ATOM     22  C   UNL A   1      32.741  21.329  24.096  1.00  0.00     0.034 C 
ATOM     23  C   UNL A   1      31.189  23.231  23.945  1.00  0.00     0.034 C 
ENDBRANCH   7  20
ENDBRANCH   6   7
ENDBRANCH   3   6
ENDBRANCH   1   2
BRANCH   1  24
ATOM     24  C   UNL A   1      37.501  19.682  24.909  1.00  0.00     0.042 C 
BRANCH  24  25
ATOM     25  C   UNL A   1      38.724  20.306  25.564  1.00  0.00     0.118 C 
BRANCH  25  26
ATOM     26  N   UNL A   1      39.813  19.351  25.714  1.00  0.00    -0.352 N 
ATOM     27  C   UNL A   1      41.117  19.573  26.070  1.00  0.00     0.251 C 
ATOM     28  H   UNL A   1      39.580  18.412  25.534  1.00  0.00     0.163 HD
ATOM     29  O   UNL A   1      41.952  18.678  25.936  1.00  0.00    -0.269 OA
BRANCH  27  30
ATOM     30  C   UNL A   1      41.526  20.888  26.602  1.00  0.00     0.039 A 
ATOM     31  C   UNL A   1      42.025  21.850  25.721  1.00  0.00     0.014 A 
ATOM     32  C   UNL A   1      41.430  21.166  27.969  1.00  0.00     0.014 A 
ATOM     33  C   UNL A   1      42.377  23.111  26.204  1.00  0.00     0.010 A 
ATOM     34  C   UNL A   1      41.710  22.446  28.436  1.00  0.00     0.010 A 
ATOM     35  C   UNL A   1      42.194  23.428  27.559  1.00  0.00    -0.014 A 
BRANCH  35  36
ATOM     36  C   UNL A   1      42.512  24.780  28.081  1.00  0.00     0.031 A 
ATOM     37  C   UNL A   1      43.917  25.117  28.496  1.00  0.00     0.074 A 
ATOM     38  C   UNL A   1      41.525  25.682  28.237  1.00  0.00     0.049 A 
ATOM     39  N   UNL A   1      44.378  26.218  29.032  1.00  0.00    -0.248 NA
ATOM     40  C   UNL A   1      44.933  24.069  28.306  1.00  0.00     0.031 C 
ATOM     41  C   UNL A   1      40.114  25.458  27.916  1.00  0.00     0.029 A 
ATOM     42  N   UNL A   1      41.558  26.967  28.716  1.00  0.00    -0.354 N 
ATOM     43  C   UNL A   1      45.730  25.990  29.257  1.00  0.00     0.074 A 
ATOM     44  C   UNL A   1      46.006  24.631  28.847  1.00  0.00     0.031 C 
ATOM     45  C   UNL A   1      39.420  26.575  28.187  1.00  0.00     0.029 A 
ATOM     46  C   UNL A   1      40.327  27.579  28.734  1.00  0.00     0.049 A 
ATOM     47  H   UNL A   1      42.384  27.409  29.018  1.00  0.00     0.167 HD
ATOM     48  C   UNL A   1      46.663  26.846  29.740  1.00  0.00     0.037 A 
ATOM     49  C   UNL A   1      39.971  28.808  29.151  1.00  0.00     0.037 A 
ATOM     50  C   UNL A   1      46.392  28.206  30.122  1.00  0.00     0.049 A 
ATOM     51  C   UNL A   1      41.024  29.735  29.690  1.00  0.00     0.074 A 
ATOM     52  C   UNL A   1      47.281  29.171  30.562  1.00  0.00     0.029 A 
ATOM     53  N   UNL A   1      45.136  28.793  30.113  1.00  0.00    -0.354 N 
ATOM     54  N   UNL A   1      42.312  29.531  29.830  1.00  0.00    -0.248 NA
ATOM     55  C   UNL A   1      40.576  31.066  30.124  1.00  0.00     0.031 C 
ATOM     56  C   UNL A   1      46.558  30.330  30.857  1.00  0.00     0.029 A 
ATOM     57  C   UNL A   1      45.223  30.101  30.560  1.00  0.00     0.049 A 
ATOM     58  H   UNL A   1      44.305  28.347  29.830  1.00  0.00     0.167 HD
ATOM     59  C   UNL A   1      42.830  30.712  30.345  1.00  0.00     0.074 A 
ATOM     60  C   UNL A   1      41.721  31.633  30.478  1.00  0.00     0.031 C 
ATOM     61  C   UNL A   1      44.110  31.006  30.681  1.00  0.00     0.037 A 
BRANCH  48  62
ATOM     62  C   UNL A   1      48.066  26.333  29.876  1.00  0.00     0.057 A 
ATOM     63  C   UNL A   1      48.991  26.429  28.827  1.00  0.00     0.134 A 
ATOM     64  C   UNL A   1      48.511  25.772  31.078  1.00  0.00     0.134 A 
ATOM     65  F   UNL A   1      48.626  26.946  27.644  1.00  0.00    -0.206 F 
ATOM     66  C   UNL A   1      50.299  25.962  28.962  1.00  0.00     0.040 A 
ATOM     67  C   UNL A   1      49.824  25.325  31.234  1.00  0.00     0.040 A 
ATOM     68  F   UNL A   1      47.680  25.655  32.124  1.00  0.00    -0.206 F 
ATOM     69  C   UNL A   1      50.721  25.414  30.171  1.00  0.00     0.006 A 
ENDBRANCH  48  62
BRANCH  49  70
ATOM     70  C   UNL A   1      38.555  29.242  29.060  1.00  0.00     0.057 A 
ATOM     71  C   UNL A   1      38.020  29.706  27.854  1.00  0.00     0.134 A 
ATOM     72  C   UNL A   1      37.707  29.211  30.173  1.00  0.00     0.134 A 
ATOM     73  F   UNL A   1      38.789  29.776  26.757  1.00  0.00    -0.206 F 
ATOM     74  C   UNL A   1      36.698  30.142  27.760  1.00  0.00     0.040 A 
ATOM     75  C   UNL A   1      36.375  29.621  30.088  1.00  0.00     0.040 A 
ATOM     76  F   UNL A   1      38.158  28.771  31.357  1.00  0.00    -0.206 F 
ATOM     77  C   UNL A   1      35.869  30.096  28.880  1.00  0.00     0.006 A 
ENDBRANCH  49  70
BRANCH  61  78
ATOM     78  C   UNL A   1      44.383  32.389  31.194  1.00  0.00     0.057 A 
ATOM     79  C   UNL A   1      44.668  33.454  30.331  1.00  0.00     0.134 A 
ATOM     80  C   UNL A   1      44.316  32.666  32.566  1.00  0.00     0.134 A 
ATOM     81  F   UNL A   1      44.761  33.250  29.008  1.00  0.00    -0.206 F 
ATOM     82  C   UNL A   1      44.898  34.742  30.815  1.00  0.00     0.040 A 
ATOM     83  C   UNL A   1      44.519  33.955  33.060  1.00  0.00     0.040 A 
ATOM     84  F   UNL A   1      44.038  31.692  33.445  1.00  0.00    -0.206 F 
ATOM     85  C   UNL A   1      44.815  34.997  32.183  1.00  0.00     0.006 A 
ENDBRANCH  61  78
ENDBRANCH  35  36
ENDBRANCH  27  30
ENDBRANCH  25  26
ENDBRANCH  24  25
ENDBRANCH   1  24
TORSDOF 15
ENDMDL
MODEL 3
REMARK VINA RESULT:     -10.8      5.190     10.265
REMARK SMILES CC[C@H]1CN(C(=O)N(CC(=O)NCCCNC(=O)c2ccc(-c3c4nc(c(-c5c(F)cccc5F)c5ccc([nH]5)c(-c5c(F)cccc5F)c5nc(c(-c6c(F)cccc6F)c6ccc3[nH]6)C=C5)C=C4)cc2)C(C)(C)C)CC[N@@H+]1C
REMARK SMILES IDX 13 1 12 2 10 3 11 4 9 6 8 7 6 8 7 9 5 10 3 11 4 12 79 13
REMARK SMILES IDX 78 14 80 15 77 17 2 18 1 19 73 20 74 21 75 22 76 23 14 24
REMARK SMILES IDX 15 25 16 26 17 27 18 29 19 30 20 31 72 32 21 33 71 34 22 35
REMARK SMILES IDX 23 36 24 37 65 38 25 39 70 40 64 41 66 42 26 43 69 44 63 45
REMARK SMILES IDX 62 46 27 48 53 49 36 50 52 51 37 52 40 53 51 54 67 55 38 56
REMARK SMILES IDX 39 57 50 59 68 60 41 61 28 62 29 63 34 64 30 65 31 66 33 67
REMARK SMILES IDX 35 68 32 69 54 70 55 71 60 72 56 73 57 74 59 75 61 76 58 77
REMARK SMILES IDX 42 78 43 79 48 80 44 81 45 82 47 83 49 84 46 85
REMARK H PARENT 12 5 79 16 16 28 66 47 40 58
REMARK Flexibility Score: inf
ROOT
ATOM      1  C   UNL A   1      31.416  30.752  26.348  1.00  0.00     0.117 C 
ENDROOT
BRANCH   1   2
ATOM      2  N   UNL A   1      32.681  30.167  26.735  1.00  0.00    -0.354 N 
ATOM      3  C   UNL A   1      33.397  29.200  26.094  1.00  0.00     0.239 C 
ATOM      4  O   UNL A   1      34.534  28.957  26.501  1.00  0.00    -0.273 OA
ATOM      5  H   UNL A   1      33.077  30.513  27.567  1.00  0.00     0.163 HD
BRANCH   3   6
ATOM      6  C   UNL A   1      32.830  28.534  24.836  1.00  0.00     0.221 C 
BRANCH   6   7
ATOM      7  N   UNL A   1      31.729  27.563  24.984  1.00  0.00    -0.311 N 
BRANCH   7   8
ATOM      8  C   UNL A   1      31.634  26.680  26.057  1.00  0.00     0.321 C 
ATOM      9  O   UNL A   1      31.028  26.996  27.085  1.00  0.00    -0.248 OA
BRANCH   8  10
ATOM     10  N   UNL A   1      32.228  25.424  26.000  1.00  0.00    -0.313 N 
ATOM     11  C   UNL A   1      34.078  23.782  25.514  1.00  0.00     0.203 C 
ATOM     12  C   UNL A   1      33.659  25.150  26.126  1.00  0.00     0.186 C 
ATOM     13  N   UNL A   1      33.294  22.630  26.026  1.00  0.00    -0.332 N 
ATOM     14  C   UNL A   1      31.842  22.912  26.043  1.00  0.00     0.284 C 
ATOM     15  C   UNL A   1      33.746  22.238  27.364  1.00  0.00     0.333 C 
ATOM     16  H   UNL A   1      33.457  21.854  25.384  1.00  0.00     0.348 HD
ATOM     17  C   UNL A   1      31.402  24.315  26.501  1.00  0.00     0.183 C 
BRANCH  11  18
ATOM     18  C   UNL A   1      34.211  23.790  23.964  1.00  0.00     0.063 C 
ATOM     19  C   UNL A   1      35.317  22.970  23.314  1.00  0.00     0.010 C 
ENDBRANCH  11  18
ENDBRANCH   8  10
ENDBRANCH   7   8
BRANCH   7  20
ATOM     20  C   UNL A   1      30.745  27.397  23.835  1.00  0.00     0.037 C 
ATOM     21  C   UNL A   1      30.179  28.751  23.349  1.00  0.00     0.034 C 
ATOM     22  C   UNL A   1      31.439  26.673  22.654  1.00  0.00     0.034 C 
ATOM     23  C   UNL A   1      29.510  26.523  24.174  1.00  0.00     0.034 C 
ENDBRANCH   7  20
ENDBRANCH   6   7
ENDBRANCH   3   6
ENDBRANCH   1   2
BRANCH   1  24
ATOM     24  C   UNL A   1      31.396  32.264  26.483  1.00  0.00     0.042 C 
BRANCH  24  25
ATOM     25  C   UNL A   1      32.581  32.815  27.259  1.00  0.00     0.118 C 
BRANCH  25  26
ATOM     26  N   UNL A   1      32.396  34.212  27.626  1.00  0.00    -0.352 N 
ATOM     27  C   UNL A   1      33.002  34.936  28.618  1.00  0.00     0.251 C 
ATOM     28  H   UNL A   1      31.741  34.708  27.083  1.00  0.00     0.163 HD
ATOM     29  O   UNL A   1      32.565  36.046  28.925  1.00  0.00    -0.269 OA
BRANCH  27  30
ATOM     30  C   UNL A   1      34.171  34.382  29.329  1.00  0.00     0.039 A 
ATOM     31  C   UNL A   1      33.976  33.734  30.551  1.00  0.00     0.014 A 
ATOM     32  C   UNL A   1      35.458  34.514  28.799  1.00  0.00     0.014 A 
ATOM     33  C   UNL A   1      35.066  33.170  31.215  1.00  0.00     0.010 A 
ATOM     34  C   UNL A   1      36.532  33.887  29.423  1.00  0.00     0.010 A 
ATOM     35  C   UNL A   1      36.347  33.216  30.641  1.00  0.00    -0.014 A 
BRANCH  35  36
ATOM     36  C   UNL A   1      37.509  32.576  31.305  1.00  0.00     0.031 A 
ATOM     37  C   UNL A   1      38.199  31.409  30.656  1.00  0.00     0.074 A 
ATOM     38  C   UNL A   1      37.902  33.006  32.519  1.00  0.00     0.049 A 
ATOM     39  N   UNL A   1      39.187  30.679  31.107  1.00  0.00    -0.248 NA
ATOM     40  C   UNL A   1      37.698  30.993  29.336  1.00  0.00     0.031 C 
ATOM     41  C   UNL A   1      37.282  34.097  33.273  1.00  0.00     0.029 A 
ATOM     42  N   UNL A   1      38.913  32.568  33.337  1.00  0.00    -0.354 N 
ATOM     43  C   UNL A   1      39.414  29.711  30.137  1.00  0.00     0.074 A 
ATOM     44  C   UNL A   1      38.430  29.914  29.097  1.00  0.00     0.031 C 
ATOM     45  C   UNL A   1      37.939  34.257  34.433  1.00  0.00     0.029 A 
ATOM     46  C   UNL A   1      39.000  33.259  34.521  1.00  0.00     0.049 A 
ATOM     47  H   UNL A   1      39.518  31.829  33.098  1.00  0.00     0.167 HD
ATOM     48  C   UNL A   1      40.372  28.754  30.105  1.00  0.00     0.037 A 
ATOM     49  C   UNL A   1      39.837  33.101  35.563  1.00  0.00     0.037 A 
ATOM     50  C   UNL A   1      41.366  28.570  31.129  1.00  0.00     0.049 A 
ATOM     51  C   UNL A   1      40.887  32.026  35.506  1.00  0.00     0.074 A 
ATOM     52  C   UNL A   1      42.418  27.671  31.157  1.00  0.00     0.029 A 
ATOM     53  N   UNL A   1      41.431  29.299  32.306  1.00  0.00    -0.354 N 
ATOM     54  N   UNL A   1      41.136  31.164  34.550  1.00  0.00    -0.248 NA
ATOM     55  C   UNL A   1      41.775  31.906  36.670  1.00  0.00     0.031 C 
ATOM     56  C   UNL A   1      43.095  27.828  32.370  1.00  0.00     0.029 A 
ATOM     57  C   UNL A   1      42.491  28.855  33.079  1.00  0.00     0.049 A 
ATOM     58  H   UNL A   1      40.815  30.025  32.556  1.00  0.00     0.167 HD
ATOM     59  C   UNL A   1      42.221  30.415  34.987  1.00  0.00     0.074 A 
ATOM     60  C   UNL A   1      42.593  30.936  36.285  1.00  0.00     0.031 C 
ATOM     61  C   UNL A   1      42.851  29.388  34.367  1.00  0.00     0.037 A 
BRANCH  48  62
ATOM     62  C   UNL A   1      40.392  27.834  28.920  1.00  0.00     0.057 A 
ATOM     63  C   UNL A   1      41.165  28.111  27.784  1.00  0.00     0.134 A 
ATOM     64  C   UNL A   1      39.659  26.641  28.927  1.00  0.00     0.134 A 
ATOM     65  F   UNL A   1      41.880  29.244  27.709  1.00  0.00    -0.206 F 
ATOM     66  C   UNL A   1      41.189  27.247  26.689  1.00  0.00     0.040 A 
ATOM     67  C   UNL A   1      39.697  25.756  27.848  1.00  0.00     0.040 A 
ATOM     68  F   UNL A   1      38.903  26.311  29.984  1.00  0.00    -0.206 F 
ATOM     69  C   UNL A   1      40.458  26.061  26.722  1.00  0.00     0.006 A 
ENDBRANCH  48  62
BRANCH  49  70
ATOM     70  C   UNL A   1      39.731  33.993  36.744  1.00  0.00     0.057 A 
ATOM     71  C   UNL A   1      40.368  35.240  36.765  1.00  0.00     0.134 A 
ATOM     72  C   UNL A   1      39.001  33.622  37.879  1.00  0.00     0.134 A 
ATOM     73  F   UNL A   1      41.097  35.642  35.713  1.00  0.00    -0.206 F 
ATOM     74  C   UNL A   1      40.298  36.077  37.879  1.00  0.00     0.040 A 
ATOM     75  C   UNL A   1      38.903  34.461  38.990  1.00  0.00     0.040 A 
ATOM     76  F   UNL A   1      38.364  32.443  37.919  1.00  0.00    -0.206 F 
ATOM     77  C   UNL A   1      39.560  35.690  38.995  1.00  0.00     0.006 A 
ENDBRANCH  49  70
BRANCH  61  78
ATOM     78  C   UNL A   1      44.026  28.779  35.074  1.00  0.00     0.057 A 
ATOM     79  C   UNL A   1      45.327  29.265  34.895  1.00  0.00     0.134 A 
ATOM     80  C   UNL A   1      43.846  27.724  35.977  1.00  0.00     0.134 A 
ATOM     81  F   UNL A   1      45.567  30.265  34.033  1.00  0.00    -0.206 F 
ATOM     82  C   UNL A   1      46.412  28.709  35.574  1.00  0.00     0.040 A 
ATOM     83  C   UNL A   1      44.920  27.176  36.681  1.00  0.00     0.040 A 
ATOM     84  F   UNL A   1      42.624  27.219  36.200  1.00  0.00    -0.206 F 
ATOM     85  C   UNL A   1      46.208  27.666  36.476  1.00  0.00     0.006 A 
ENDBRANCH  61  78
ENDBRANCH  35  36
ENDBRANCH  27  30
ENDBRANCH  25  26
ENDBRANCH  24  25
ENDBRANCH   1  24
TORSDOF 15
ENDMDL
