MODEL 1
REMARK VINA RESULT:     -11.5      0.000      0.000
REMARK SMILES Nc1cc(C(=O)NCCCNC(=O)c2ccc(-c3c4nc(c(-c5c(F)cccc5F)c5ccc([nH]5)c(-c5c(F)cccc5F)c5nc(c(-c6c(F)cccc6F)c6ccc3[nH]6)C=C5)C=C4)cc2)nc2ccccc12
REMARK SMILES IDX 9 1 8 2 7 3 5 4 6 5 4 7 2 8 3 9 74 10 69 11 73 12 68 13
REMARK SMILES IDX 70 14 72 15 71 16 1 17 10 20 11 21 12 22 13 24 14 25 15 26
REMARK SMILES IDX 67 27 16 28 66 29 17 30 18 31 19 32 60 33 20 34 65 35 59 36
REMARK SMILES IDX 61 37 21 38 64 39 58 40 57 41 22 43 48 44 31 45 47 46 32 47
REMARK SMILES IDX 35 48 46 49 62 50 33 51 34 52 45 54 63 55 36 56 23 57 24 58
REMARK SMILES IDX 29 59 25 60 26 61 28 62 30 63 27 64 49 65 50 66 55 67 51 68
REMARK SMILES IDX 52 69 54 70 56 71 53 72 37 73 38 74 43 75 39 76 40 77 42 78
REMARK SMILES IDX 44 79 41 80
REMARK H PARENT 7 6 1 18 1 19 11 23 61 42 35 53
REMARK Flexibility Score: inf
ROOT
ATOM      1  C   UNL A   1      33.897  28.256  25.873  1.00  0.00     0.042 C 
ENDROOT
BRANCH   1   2
ATOM      2  C   UNL A   1      33.752  26.792  25.465  1.00  0.00     0.118 C 
BRANCH   2   3
ATOM      3  N   UNL A   1      33.926  26.633  24.035  1.00  0.00    -0.351 N 
ATOM      4  C   UNL A   1      33.080  26.774  22.957  1.00  0.00     0.269 C 
ATOM      5  O   UNL A   1      33.593  26.565  21.855  1.00  0.00    -0.268 OA
ATOM      6  H   UNL A   1      34.838  26.369  23.781  1.00  0.00     0.163 HD
BRANCH   4   7
ATOM      7  C   UNL A   1      31.629  27.181  23.048  1.00  0.00     0.130 A 
ATOM      8  C   UNL A   1      29.325  26.917  23.690  1.00  0.00     0.043 A 
ATOM      9  C   UNL A   1      30.623  26.406  23.594  1.00  0.00     0.060 A 
ATOM     10  C   UNL A   1      29.038  28.167  23.096  1.00  0.00     0.023 A 
ATOM     11  C   UNL A   1      30.114  28.859  22.502  1.00  0.00     0.073 A 
ATOM     12  C   UNL A   1      27.751  28.755  23.059  1.00  0.00     0.012 A 
ATOM     13  N   UNL A   1      31.370  28.395  22.505  1.00  0.00    -0.242 NA
ATOM     14  C   UNL A   1      29.871  30.073  21.874  1.00  0.00     0.029 A 
ATOM     15  C   UNL A   1      27.533  29.979  22.428  1.00  0.00     0.001 A 
ATOM     16  C   UNL A   1      28.595  30.636  21.825  1.00  0.00     0.002 A 
BRANCH   8  17
ATOM     17  N   UNL A   1      28.341  26.098  24.248  1.00  0.00    -0.398 N 
ATOM     18  H   UNL A   1      28.378  25.866  25.205  1.00  0.00     0.156 HD
ATOM     19  H   UNL A   1      27.610  25.755  23.686  1.00  0.00     0.156 HD
ENDBRANCH   8  17
ENDBRANCH   4   7
ENDBRANCH   2   3
ENDBRANCH   1   2
BRANCH   1  20
ATOM     20  C   UNL A   1      33.544  28.499  27.339  1.00  0.00     0.118 C 
BRANCH  20  21
ATOM     21  N   UNL A   1      33.581  29.916  27.681  1.00  0.00    -0.352 N 
ATOM     22  C   UNL A   1      34.577  30.664  28.262  1.00  0.00     0.251 C 
ATOM     23  H   UNL A   1      32.763  30.416  27.463  1.00  0.00     0.163 HD
ATOM     24  O   UNL A   1      34.330  31.788  28.681  1.00  0.00    -0.269 OA
BRANCH  22  25
ATOM     25  C   UNL A   1      35.940  30.108  28.400  1.00  0.00     0.039 A 
ATOM     26  C   UNL A   1      36.343  29.496  29.587  1.00  0.00     0.014 A 
ATOM     27  C   UNL A   1      36.824  30.191  27.319  1.00  0.00     0.014 A 
ATOM     28  C   UNL A   1      37.673  29.134  29.759  1.00  0.00     0.010 A 
ATOM     29  C   UNL A   1      38.138  29.736  27.462  1.00  0.00     0.010 A 
ATOM     30  C   UNL A   1      38.587  29.252  28.701  1.00  0.00    -0.014 A 
BRANCH  30  31
ATOM     31  C   UNL A   1      40.008  28.881  28.922  1.00  0.00     0.031 A 
ATOM     32  C   UNL A   1      40.940  29.817  29.647  1.00  0.00     0.074 A 
ATOM     33  C   UNL A   1      40.444  27.671  28.523  1.00  0.00     0.049 A 
ATOM     34  N   UNL A   1      42.206  29.659  29.941  1.00  0.00    -0.248 NA
ATOM     35  C   UNL A   1      40.377  31.100  30.095  1.00  0.00     0.031 C 
ATOM     36  C   UNL A   1      39.634  26.669  27.827  1.00  0.00     0.029 A 
ATOM     37  N   UNL A   1      41.668  27.067  28.664  1.00  0.00    -0.354 N 
ATOM     38  C   UNL A   1      42.593  30.823  30.594  1.00  0.00     0.074 A 
ATOM     39  C   UNL A   1      41.439  31.696  30.616  1.00  0.00     0.031 C 
ATOM     40  C   UNL A   1      40.365  25.559  27.648  1.00  0.00     0.029 A 
ATOM     41  C   UNL A   1      41.713  25.794  28.150  1.00  0.00     0.049 A 
ATOM     42  H   UNL A   1      42.439  27.504  29.093  1.00  0.00     0.167 HD
ATOM     43  C   UNL A   1      43.796  31.133  31.135  1.00  0.00     0.037 A 
ATOM     44  C   UNL A   1      42.734  24.922  28.071  1.00  0.00     0.037 A 
ATOM     45  C   UNL A   1      44.940  30.258  31.117  1.00  0.00     0.049 A 
ATOM     46  C   UNL A   1      44.076  25.319  28.616  1.00  0.00     0.074 A 
ATOM     47  C   UNL A   1      46.201  30.472  31.648  1.00  0.00     0.029 A 
ATOM     48  N   UNL A   1      44.963  29.000  30.532  1.00  0.00    -0.354 N 
ATOM     49  N   UNL A   1      44.424  26.419  29.239  1.00  0.00    -0.248 NA
ATOM     50  C   UNL A   1      45.169  24.356  28.439  1.00  0.00     0.031 C 
ATOM     51  C   UNL A   1      47.001  29.366  31.339  1.00  0.00     0.029 A 
ATOM     52  C   UNL A   1      46.223  28.437  30.666  1.00  0.00     0.049 A 
ATOM     53  H   UNL A   1      44.198  28.570  30.087  1.00  0.00     0.167 HD
ATOM     54  C   UNL A   1      45.768  26.269  29.550  1.00  0.00     0.074 A 
ATOM     55  C   UNL A   1      46.166  24.964  29.065  1.00  0.00     0.031 C 
ATOM     56  C   UNL A   1      46.602  27.135  30.178  1.00  0.00     0.037 A 
BRANCH  43  57
ATOM     57  C   UNL A   1      43.941  32.487  31.772  1.00  0.00     0.057 A 
ATOM     58  C   UNL A   1      44.357  33.590  31.017  1.00  0.00     0.134 A 
ATOM     59  C   UNL A   1      43.686  32.700  33.135  1.00  0.00     0.134 A 
ATOM     60  F   UNL A   1      44.624  33.459  29.709  1.00  0.00    -0.206 F 
ATOM     61  C   UNL A   1      44.512  34.854  31.590  1.00  0.00     0.040 A 
ATOM     62  C   UNL A   1      43.811  33.965  33.713  1.00  0.00     0.040 A 
ATOM     63  F   UNL A   1      43.272  31.690  33.915  1.00  0.00    -0.206 F 
ATOM     64  C   UNL A   1      44.231  35.045  32.941  1.00  0.00     0.006 A 
ENDBRANCH  43  57
BRANCH  44  65
ATOM     65  C   UNL A   1      42.537  23.595  27.433  1.00  0.00     0.057 A 
ATOM     66  C   UNL A   1      42.650  23.428  26.048  1.00  0.00     0.134 A 
ATOM     67  C   UNL A   1      42.256  22.458  28.198  1.00  0.00     0.134 A 
ATOM     68  F   UNL A   1      42.912  24.478  25.257  1.00  0.00    -0.206 F 
ATOM     69  C   UNL A   1      42.485  22.180  25.445  1.00  0.00     0.040 A 
ATOM     70  C   UNL A   1      42.119  21.198  27.613  1.00  0.00     0.040 A 
ATOM     71  F   UNL A   1      42.153  22.549  29.533  1.00  0.00    -0.206 F 
ATOM     72  C   UNL A   1      42.231  21.059  26.230  1.00  0.00     0.006 A 
ENDBRANCH  44  65
BRANCH  56  73
ATOM     73  C   UNL A   1      48.011  26.674  30.410  1.00  0.00     0.057 A 
ATOM     74  C   UNL A   1      49.016  26.965  29.479  1.00  0.00     0.134 A 
ATOM     75  C   UNL A   1      48.374  25.935  31.544  1.00  0.00     0.134 A 
ATOM     76  F   UNL A   1      48.735  27.661  28.367  1.00  0.00    -0.206 F 
ATOM     77  C   UNL A   1      50.331  26.539  29.668  1.00  0.00     0.040 A 
ATOM     78  C   UNL A   1      49.693  25.531  31.759  1.00  0.00     0.040 A 
ATOM     79  F   UNL A   1      47.461  25.638  32.482  1.00  0.00    -0.206 F 
ATOM     80  C   UNL A   1      50.674  25.828  30.816  1.00  0.00     0.006 A 
ENDBRANCH  56  73
ENDBRANCH  30  31
ENDBRANCH  22  25
ENDBRANCH  20  21
ENDBRANCH   1  20
TORSDOF 11
ENDMDL
MODEL 2
REMARK VINA RESULT:     -11.4      3.394      5.285
REMARK SMILES Nc1cc(C(=O)NCCCNC(=O)c2ccc(-c3c4nc(c(-c5c(F)cccc5F)c5ccc([nH]5)c(-c5c(F)cccc5F)c5nc(c(-c6c(F)cccc6F)c6ccc3[nH]6)C=C5)C=C4)cc2)nc2ccccc12
REMARK SMILES IDX 9 1 8 2 7 3 5 4 6 5 4 7 2 8 3 9 74 10 69 11 73 12 68 13
REMARK SMILES IDX 70 14 72 15 71 16 1 17 10 20 11 21 12 22 13 24 14 25 15 26
REMARK SMILES IDX 67 27 16 28 66 29 17 30 18 31 19 32 60 33 20 34 65 35 59 36
REMARK SMILES IDX 61 37 21 38 64 39 58 40 57 41 22 43 48 44 31 45 47 46 32 47
REMARK SMILES IDX 35 48 46 49 62 50 33 51 34 52 45 54 63 55 36 56 23 57 24 58
REMARK SMILES IDX 29 59 25 60 26 61 28 62 30 63 27 64 49 65 50 66 55 67 51 68
REMARK SMILES IDX 52 69 54 70 56 71 53 72 37 73 38 74 43 75 39 76 40 77 42 78
REMARK SMILES IDX 44 79 41 80
REMARK H PARENT 7 6 1 18 1 19 11 23 61 42 35 53
REMARK Flexibility Score: inf
ROOT
ATOM      1  C   UNL A   1      31.406  31.909  26.499  1.00  0.00     0.042 C 
ENDROOT
BRANCH   1   2
ATOM      2  C   UNL A   1      31.530  30.404  26.268  1.00  0.00     0.118 C 
BRANCH   2   3
ATOM      3  N   UNL A   1      31.306  30.074  24.875  1.00  0.00    -0.351 N 
ATOM      4  C   UNL A   1      31.254  28.887  24.179  1.00  0.00     0.269 C 
ATOM      5  O   UNL A   1      31.024  28.994  22.972  1.00  0.00    -0.268 OA
ATOM      6  H   UNL A   1      31.162  30.864  24.307  1.00  0.00     0.163 HD
BRANCH   4   7
ATOM      7  C   UNL A   1      31.430  27.520  24.794  1.00  0.00     0.130 A 
ATOM      8  C   UNL A   1      30.691  25.509  25.890  1.00  0.00     0.043 A 
ATOM      9  C   UNL A   1      30.430  26.799  25.420  1.00  0.00     0.060 A 
ATOM     10  C   UNL A   1      32.016  25.020  25.840  1.00  0.00     0.023 A 
ATOM     11  C   UNL A   1      32.987  25.851  25.244  1.00  0.00     0.073 A 
ATOM     12  C   UNL A   1      32.422  23.764  26.353  1.00  0.00     0.012 A 
ATOM     13  N   UNL A   1      32.697  27.045  24.713  1.00  0.00    -0.242 NA
ATOM     14  C   UNL A   1      34.308  25.427  25.207  1.00  0.00     0.029 A 
ATOM     15  C   UNL A   1      33.755  23.357  26.299  1.00  0.00     0.001 A 
ATOM     16  C   UNL A   1      34.703  24.196  25.732  1.00  0.00     0.002 A 
BRANCH   8  17
ATOM     17  N   UNL A   1      29.651  24.819  26.516  1.00  0.00    -0.398 N 
ATOM     18  H   UNL A   1      29.348  25.091  27.414  1.00  0.00     0.156 HD
ATOM     19  H   UNL A   1      29.219  24.061  26.060  1.00  0.00     0.156 HD
ENDBRANCH   8  17
ENDBRANCH   4   7
ENDBRANCH   2   3
ENDBRANCH   1   2
BRANCH   1  20
ATOM     20  C   UNL A   1      32.630  32.504  27.191  1.00  0.00     0.118 C 
BRANCH  20  21
ATOM     21  N   UNL A   1      32.424  33.900  27.559  1.00  0.00    -0.352 N 
ATOM     22  C   UNL A   1      33.053  34.671  28.507  1.00  0.00     0.251 C 
ATOM     23  H   UNL A   1      31.722  34.363  27.048  1.00  0.00     0.163 HD
ATOM     24  O   UNL A   1      32.578  35.755  28.824  1.00  0.00    -0.269 OA
BRANCH  22  25
ATOM     25  C   UNL A   1      34.289  34.188  29.157  1.00  0.00     0.039 A 
ATOM     26  C   UNL A   1      35.540  34.467  28.606  1.00  0.00     0.014 A 
ATOM     27  C   UNL A   1      34.195  33.453  30.343  1.00  0.00     0.014 A 
ATOM     28  C   UNL A   1      36.676  33.864  29.132  1.00  0.00     0.010 A 
ATOM     29  C   UNL A   1      35.351  32.927  30.927  1.00  0.00     0.010 A 
ATOM     30  C   UNL A   1      36.595  33.084  30.296  1.00  0.00    -0.014 A 
BRANCH  30  31
ATOM     31  C   UNL A   1      37.822  32.432  30.820  1.00  0.00     0.031 A 
ATOM     32  C   UNL A   1      38.469  32.924  32.089  1.00  0.00     0.074 A 
ATOM     33  C   UNL A   1      38.320  31.354  30.184  1.00  0.00     0.049 A 
ATOM     34  N   UNL A   1      39.535  32.474  32.702  1.00  0.00    -0.248 NA
ATOM     35  C   UNL A   1      37.839  34.077  32.752  1.00  0.00     0.031 C 
ATOM     36  C   UNL A   1      37.772  30.770  28.957  1.00  0.00     0.029 A 
ATOM     37  N   UNL A   1      39.382  30.542  30.492  1.00  0.00    -0.354 N 
ATOM     38  C   UNL A   1      39.710  33.293  33.811  1.00  0.00     0.074 A 
ATOM     39  C   UNL A   1      38.666  34.294  33.764  1.00  0.00     0.031 C 
ATOM     40  C   UNL A   1      38.469  29.668  28.646  1.00  0.00     0.029 A 
ATOM     41  C   UNL A   1      39.554  29.506  29.607  1.00  0.00     0.049 A 
ATOM     42  H   UNL A   1      39.964  30.688  31.273  1.00  0.00     0.167 HD
ATOM     43  C   UNL A   1      40.648  33.213  34.785  1.00  0.00     0.037 A 
ATOM     44  C   UNL A   1      40.495  28.546  29.561  1.00  0.00     0.037 A 
ATOM     45  C   UNL A   1      41.682  32.210  34.832  1.00  0.00     0.049 A 
ATOM     46  C   UNL A   1      41.565  28.523  30.615  1.00  0.00     0.074 A 
ATOM     47  C   UNL A   1      42.674  32.034  35.782  1.00  0.00     0.029 A 
ATOM     48  N   UNL A   1      41.860  31.215  33.882  1.00  0.00    -0.354 N 
ATOM     49  N   UNL A   1      41.712  29.298  31.662  1.00  0.00    -0.248 NA
ATOM     50  C   UNL A   1      42.605  27.497  30.473  1.00  0.00     0.031 C 
ATOM     51  C   UNL A   1      43.482  30.965  35.380  1.00  0.00     0.029 A 
ATOM     52  C   UNL A   1      42.960  30.438  34.209  1.00  0.00     0.049 A 
ATOM     53  H   UNL A   1      41.289  31.080  33.092  1.00  0.00     0.167 HD
ATOM     54  C   UNL A   1      42.845  28.837  32.318  1.00  0.00     0.074 A 
ATOM     55  C   UNL A   1      43.333  27.703  31.561  1.00  0.00     0.031 C 
ATOM     56  C   UNL A   1      43.432  29.311  33.445  1.00  0.00     0.037 A 
BRANCH  43  57
ATOM     57  C   UNL A   1      40.612  34.254  35.869  1.00  0.00     0.057 A 
ATOM     58  C   UNL A   1      39.856  34.050  37.030  1.00  0.00     0.134 A 
ATOM     59  C   UNL A   1      41.310  35.466  35.760  1.00  0.00     0.134 A 
ATOM     60  F   UNL A   1      39.158  32.917  37.198  1.00  0.00    -0.206 F 
ATOM     61  C   UNL A   1      39.796  35.009  38.043  1.00  0.00     0.040 A 
ATOM     62  C   UNL A   1      41.281  36.420  36.779  1.00  0.00     0.040 A 
ATOM     63  F   UNL A   1      42.065  35.721  34.681  1.00  0.00    -0.206 F 
ATOM     64  C   UNL A   1      40.516  36.195  37.922  1.00  0.00     0.006 A 
ENDBRANCH  43  57
BRANCH  44  65
ATOM     65  C   UNL A   1      40.483  27.538  28.469  1.00  0.00     0.057 A 
ATOM     66  C   UNL A   1      39.724  26.366  28.567  1.00  0.00     0.134 A 
ATOM     67  C   UNL A   1      41.210  27.738  27.291  1.00  0.00     0.134 A 
ATOM     68  F   UNL A   1      39.009  26.112  29.673  1.00  0.00    -0.206 F 
ATOM     69  C   UNL A   1      39.693  25.426  27.537  1.00  0.00     0.040 A 
ATOM     70  C   UNL A   1      41.164  26.822  26.239  1.00  0.00     0.040 A 
ATOM     71  F   UNL A   1      41.942  28.851  27.129  1.00  0.00    -0.206 F 
ATOM     72  C   UNL A   1      40.406  25.659  26.364  1.00  0.00     0.006 A 
ENDBRANCH  44  65
BRANCH  56  73
ATOM     73  C   UNL A   1      44.640  28.573  33.943  1.00  0.00     0.057 A 
ATOM     74  C   UNL A   1      45.925  28.961  33.541  1.00  0.00     0.134 A 
ATOM     75  C   UNL A   1      44.536  27.476  34.808  1.00  0.00     0.134 A 
ATOM     76  F   UNL A   1      46.095  29.997  32.707  1.00  0.00    -0.206 F 
ATOM     77  C   UNL A   1      47.063  28.284  33.984  1.00  0.00     0.040 A 
ATOM     78  C   UNL A   1      45.669  26.811  35.281  1.00  0.00     0.040 A 
ATOM     79  F   UNL A   1      43.335  27.064  35.243  1.00  0.00    -0.206 F 
ATOM     80  C   UNL A   1      46.937  27.212  34.864  1.00  0.00     0.006 A 
ENDBRANCH  56  73
ENDBRANCH  30  31
ENDBRANCH  22  25
ENDBRANCH  20  21
ENDBRANCH   1  20
TORSDOF 11
ENDMDL
MODEL 3
REMARK VINA RESULT:     -11.4      3.363      7.957
REMARK SMILES Nc1cc(C(=O)NCCCNC(=O)c2ccc(-c3c4nc(c(-c5c(F)cccc5F)c5ccc([nH]5)c(-c5c(F)cccc5F)c5nc(c(-c6c(F)cccc6F)c6ccc3[nH]6)C=C5)C=C4)cc2)nc2ccccc12
REMARK SMILES IDX 9 1 8 2 7 3 5 4 6 5 4 7 2 8 3 9 74 10 69 11 73 12 68 13
REMARK SMILES IDX 70 14 72 15 71 16 1 17 10 20 11 21 12 22 13 24 14 25 15 26
REMARK SMILES IDX 67 27 16 28 66 29 17 30 18 31 19 32 60 33 20 34 65 35 59 36
REMARK SMILES IDX 61 37 21 38 64 39 58 40 57 41 22 43 48 44 31 45 47 46 32 47
REMARK SMILES IDX 35 48 46 49 62 50 33 51 34 52 45 54 63 55 36 56 23 57 24 58
REMARK SMILES IDX 29 59 25 60 26 61 28 62 30 63 27 64 49 65 50 66 55 67 51 68
REMARK SMILES IDX 52 69 54 70 56 71 53 72 37 73 38 74 43 75 39 76 40 77 42 78
REMARK SMILES IDX 44 79 41 80
REMARK H PARENT 7 6 1 18 1 19 11 23 61 42 35 53
REMARK Flexibility Score: inf
ROOT
ATOM      1  C   UNL A   1      37.815  19.611  25.001  1.00  0.00     0.042 C 
ENDROOT
BRANCH   1   2
ATOM      2  C   UNL A   1      36.769  20.699  24.766  1.00  0.00     0.118 C 
BRANCH   2   3
ATOM      3  N   UNL A   1      35.459  20.259  25.201  1.00  0.00    -0.351 N 
ATOM      4  C   UNL A   1      34.199  20.810  25.119  1.00  0.00     0.269 C 
ATOM      5  O   UNL A   1      33.293  20.126  25.600  1.00  0.00    -0.268 OA
ATOM      6  H   UNL A   1      35.472  19.384  25.649  1.00  0.00     0.163 HD
BRANCH   4   7
ATOM      7  C   UNL A   1      33.880  22.137  24.474  1.00  0.00     0.130 A 
ATOM      8  C   UNL A   1      33.215  23.583  22.670  1.00  0.00     0.043 A 
ATOM      9  C   UNL A   1      33.564  22.314  23.140  1.00  0.00     0.060 A 
ATOM     10  C   UNL A   1      33.328  24.689  23.542  1.00  0.00     0.023 A 
ATOM     11  C   UNL A   1      33.723  24.424  24.870  1.00  0.00     0.073 A 
ATOM     12  C   UNL A   1      33.079  26.030  23.164  1.00  0.00     0.012 A 
ATOM     13  N   UNL A   1      33.960  23.189  25.326  1.00  0.00    -0.242 NA
ATOM     14  C   UNL A   1      33.883  25.485  25.751  1.00  0.00     0.029 A 
ATOM     15  C   UNL A   1      33.241  27.079  24.069  1.00  0.00     0.001 A 
ATOM     16  C   UNL A   1      33.654  26.806  25.364  1.00  0.00     0.002 A 
BRANCH   8  17
ATOM     17  N   UNL A   1      32.904  23.714  21.314  1.00  0.00    -0.398 N 
ATOM     18  H   UNL A   1      32.109  23.263  20.945  1.00  0.00     0.156 HD
ATOM     19  H   UNL A   1      33.478  24.257  20.728  1.00  0.00     0.156 HD
ENDBRANCH   8  17
ENDBRANCH   4   7
ENDBRANCH   2   3
ENDBRANCH   1   2
BRANCH   1  20
ATOM     20  C   UNL A   1      39.044  20.125  25.747  1.00  0.00     0.118 C 
BRANCH  20  21
ATOM     21  N   UNL A   1      40.085  19.108  25.849  1.00  0.00    -0.352 N 
ATOM     22  C   UNL A   1      41.443  19.240  26.017  1.00  0.00     0.251 C 
ATOM     23  H   UNL A   1      39.765  18.180  25.787  1.00  0.00     0.163 HD
ATOM     24  O   UNL A   1      42.175  18.273  25.845  1.00  0.00    -0.269 OA
BRANCH  22  25
ATOM     25  C   UNL A   1      42.023  20.549  26.385  1.00  0.00     0.039 A 
ATOM     26  C   UNL A   1      42.223  20.889  27.723  1.00  0.00     0.014 A 
ATOM     27  C   UNL A   1      42.381  21.446  25.373  1.00  0.00     0.014 A 
ATOM     28  C   UNL A   1      42.606  22.181  28.056  1.00  0.00     0.010 A 
ATOM     29  C   UNL A   1      42.860  22.715  25.710  1.00  0.00     0.010 A 
ATOM     30  C   UNL A   1      42.926  23.112  27.055  1.00  0.00    -0.014 A 
BRANCH  30  31
ATOM     31  C   UNL A   1      43.308  24.494  27.442  1.00  0.00     0.031 A 
ATOM     32  C   UNL A   1      44.743  24.944  27.355  1.00  0.00     0.074 A 
ATOM     33  C   UNL A   1      42.350  25.364  27.814  1.00  0.00     0.049 A 
ATOM     34  N   UNL A   1      45.262  26.112  27.639  1.00  0.00    -0.248 NA
ATOM     35  C   UNL A   1      45.725  23.949  26.895  1.00  0.00     0.031 C 
ATOM     36  C   UNL A   1      40.923  25.053  27.919  1.00  0.00     0.029 A 
ATOM     37  N   UNL A   1      42.426  26.691  28.149  1.00  0.00    -0.354 N 
ATOM     38  C   UNL A   1      46.627  25.989  27.406  1.00  0.00     0.074 A 
ATOM     39  C   UNL A   1      46.862  24.622  26.996  1.00  0.00     0.031 C 
ATOM     40  C   UNL A   1      40.253  26.169  28.243  1.00  0.00     0.029 A 
ATOM     41  C   UNL A   1      41.207  27.254  28.439  1.00  0.00     0.049 A 
ATOM     42  H   UNL A   1      43.273  27.193  28.179  1.00  0.00     0.167 HD
ATOM     43  C   UNL A   1      47.594  26.933  27.511  1.00  0.00     0.037 A 
ATOM     44  C   UNL A   1      40.894  28.500  28.839  1.00  0.00     0.037 A 
ATOM     45  C   UNL A   1      47.354  28.296  27.913  1.00  0.00     0.049 A 
ATOM     46  C   UNL A   1      41.996  29.506  29.015  1.00  0.00     0.074 A 
ATOM     47  C   UNL A   1      48.262  29.332  28.039  1.00  0.00     0.029 A 
ATOM     48  N   UNL A   1      46.112  28.810  28.257  1.00  0.00    -0.354 N 
ATOM     49  N   UNL A   1      43.279  29.378  28.781  1.00  0.00    -0.248 NA
ATOM     50  C   UNL A   1      41.603  30.827  29.522  1.00  0.00     0.031 C 
ATOM     51  C   UNL A   1      47.579  30.459  28.510  1.00  0.00     0.029 A 
ATOM     52  C   UNL A   1      46.235  30.142  28.621  1.00  0.00     0.049 A 
ATOM     53  H   UNL A   1      45.268  28.305  28.244  1.00  0.00     0.167 HD
ATOM     54  C   UNL A   1      43.844  30.609  29.087  1.00  0.00     0.074 A 
ATOM     55  C   UNL A   1      42.760  31.474  29.504  1.00  0.00     0.031 C 
ATOM     56  C   UNL A   1      45.145  30.990  29.031  1.00  0.00     0.037 A 
BRANCH  43  57
ATOM     57  C   UNL A   1      49.006  26.514  27.211  1.00  0.00     0.057 A 
ATOM     58  C   UNL A   1      49.501  26.563  25.901  1.00  0.00     0.134 A 
ATOM     59  C   UNL A   1      49.872  26.046  28.209  1.00  0.00     0.134 A 
ATOM     60  F   UNL A   1      48.726  26.993  24.895  1.00  0.00    -0.206 F 
ATOM     61  C   UNL A   1      50.805  26.165  25.596  1.00  0.00     0.040 A 
ATOM     62  C   UNL A   1      51.187  25.672  27.921  1.00  0.00     0.040 A 
ATOM     63  F   UNL A   1      49.468  25.986  29.487  1.00  0.00    -0.206 F 
ATOM     64  C   UNL A   1      51.653  25.726  26.609  1.00  0.00     0.006 A 
ENDBRANCH  43  57
BRANCH  44  65
ATOM     65  C   UNL A   1      39.482  28.863  29.120  1.00  0.00     0.057 A 
ATOM     66  C   UNL A   1      38.653  29.393  28.123  1.00  0.00     0.134 A 
ATOM     67  C   UNL A   1      38.920  28.663  30.386  1.00  0.00     0.134 A 
ATOM     68  F   UNL A   1      39.132  29.615  26.891  1.00  0.00    -0.206 F 
ATOM     69  C   UNL A   1      37.320  29.717  28.377  1.00  0.00     0.040 A 
ATOM     70  C   UNL A   1      37.580  28.953  30.645  1.00  0.00     0.040 A 
ATOM     71  F   UNL A   1      39.658  28.140  31.377  1.00  0.00    -0.206 F 
ATOM     72  C   UNL A   1      36.777  29.486  29.638  1.00  0.00     0.006 A 
ENDBRANCH  44  65
BRANCH  56  73
ATOM     73  C   UNL A   1      45.451  32.414  29.391  1.00  0.00     0.057 A 
ATOM     74  C   UNL A   1      45.792  32.758  30.705  1.00  0.00     0.134 A 
ATOM     75  C   UNL A   1      45.399  33.447  28.444  1.00  0.00     0.134 A 
ATOM     76  F   UNL A   1      45.852  31.820  31.662  1.00  0.00    -0.206 F 
ATOM     77  C   UNL A   1      46.072  34.077  31.065  1.00  0.00     0.040 A 
ATOM     78  C   UNL A   1      45.707  34.765  28.787  1.00  0.00     0.040 A 
ATOM     79  F   UNL A   1      45.094  33.182  27.165  1.00  0.00    -0.206 F 
ATOM     80  C   UNL A   1      46.040  35.083  30.102  1.00  0.00     0.006 A 
ENDBRANCH  56  73
ENDBRANCH  30  31
ENDBRANCH  22  25
ENDBRANCH  20  21
ENDBRANCH   1  20
TORSDOF 11
ENDMDL
