MODEL 1
REMARK VINA RESULT:     -13.5      0.000      0.000
REMARK SMILES Cc1c(CC(=O)NCCCNC(=O)c2ccc(-c3c4nc(c(-c5c(F)cccc5F)c5ccc([nH]5)c(-c5c(F)cccc5F)c5nc(c(-c6c(F)cccc6F)c6ccc3[nH]6)C=C5)C=C4)cc2)cc(-c2ccccc2)cc1-c1ccccc1
REMARK SMILES IDX 9 1 8 2 7 3 5 4 6 5 4 7 3 8 1 9 2 10 77 11 68 12 76 13 69 14
REMARK SMILES IDX 78 15 79 16 83 17 80 18 82 19 81 20 70 21 71 22 75 23 72 24
REMARK SMILES IDX 74 25 73 26 10 27 11 28 12 29 13 31 14 32 15 33 67 34 16 35
REMARK SMILES IDX 66 36 17 37 18 38 19 39 60 40 20 41 65 42 59 43 61 44 21 45
REMARK SMILES IDX 64 46 58 47 57 48 22 50 48 51 31 52 47 53 32 54 35 55 46 56
REMARK SMILES IDX 62 57 33 58 34 59 45 61 63 62 36 63 23 64 24 65 29 66 25 67
REMARK SMILES IDX 26 68 28 69 30 70 27 71 49 72 50 73 55 74 51 75 52 76 54 77
REMARK SMILES IDX 56 78 53 79 37 80 38 81 43 82 39 83 40 84 42 85 44 86 41 87
REMARK H PARENT 7 6 11 30 61 49 35 60
REMARK Flexibility Score: inf
ROOT
ATOM      1  C   UNL A   1      41.166  22.119  26.124  1.00  0.00     0.042 C 
ENDROOT
BRANCH   1   2
ATOM      2  C   UNL A   1      39.718  21.638  26.198  1.00  0.00     0.117 C 
BRANCH   2   3
ATOM      3  N   UNL A   1      38.782  22.712  26.488  1.00  0.00    -0.356 N 
ATOM      4  C   UNL A   1      37.658  23.091  25.805  1.00  0.00     0.224 C 
ATOM      5  O   UNL A   1      37.007  24.043  26.244  1.00  0.00    -0.275 OA
ATOM      6  H   UNL A   1      38.987  23.243  27.291  1.00  0.00     0.163 HD
BRANCH   4   7
ATOM      7  C   UNL A   1      37.221  22.354  24.542  1.00  0.00     0.135 C 
BRANCH   7   8
ATOM      8  C   UNL A   1      35.808  21.800  24.624  1.00  0.00    -0.035 A 
ATOM      9  C   UNL A   1      36.599  19.404  24.995  1.00  0.00     0.045 C 
ATOM     10  C   UNL A   1      35.506  20.419  24.754  1.00  0.00    -0.040 A 
ATOM     11  C   UNL A   1      34.148  19.999  24.685  1.00  0.00    -0.015 A 
ATOM     12  C   UNL A   1      34.753  22.732  24.513  1.00  0.00     0.013 A 
ATOM     13  C   UNL A   1      33.134  20.969  24.546  1.00  0.00     0.017 A 
ATOM     14  C   UNL A   1      33.411  22.339  24.476  1.00  0.00    -0.017 A 
BRANCH  11  15
ATOM     15  C   UNL A   1      33.745  18.579  24.694  1.00  0.00    -0.018 A 
ATOM     16  C   UNL A   1      34.108  17.732  23.630  1.00  0.00     0.009 A 
ATOM     17  C   UNL A   1      33.001  18.033  25.750  1.00  0.00     0.009 A 
ATOM     18  C   UNL A   1      33.749  16.382  23.630  1.00  0.00     0.001 A 
ATOM     19  C   UNL A   1      32.654  16.679  25.757  1.00  0.00     0.001 A 
ATOM     20  C   UNL A   1      33.029  15.855  24.698  1.00  0.00     0.000 A 
ENDBRANCH  11  15
BRANCH  14  21
ATOM     21  C   UNL A   1      32.329  23.332  24.367  1.00  0.00    -0.018 A 
ATOM     22  C   UNL A   1      31.573  23.716  25.487  1.00  0.00     0.009 A 
ATOM     23  C   UNL A   1      32.011  23.909  23.127  1.00  0.00     0.009 A 
ATOM     24  C   UNL A   1      30.533  24.642  25.368  1.00  0.00     0.001 A 
ATOM     25  C   UNL A   1      30.969  24.831  23.006  1.00  0.00     0.001 A 
ATOM     26  C   UNL A   1      30.230  25.197  24.128  1.00  0.00     0.000 A 
ENDBRANCH  14  21
ENDBRANCH   7   8
ENDBRANCH   4   7
ENDBRANCH   2   3
ENDBRANCH   1   2
BRANCH   1  27
ATOM     27  C   UNL A   1      42.182  21.099  26.607  1.00  0.00     0.118 C 
BRANCH  27  28
ATOM     28  N   UNL A   1      42.977  20.492  25.547  1.00  0.00    -0.352 N 
ATOM     29  C   UNL A   1      44.046  21.026  24.844  1.00  0.00     0.251 C 
ATOM     30  H   UNL A   1      42.719  19.577  25.295  1.00  0.00     0.163 HD
ATOM     31  O   UNL A   1      44.590  20.378  23.964  1.00  0.00    -0.269 OA
BRANCH  29  32
ATOM     32  C   UNL A   1      44.611  22.331  25.268  1.00  0.00     0.039 A 
ATOM     33  C   UNL A   1      45.323  22.371  26.472  1.00  0.00     0.014 A 
ATOM     34  C   UNL A   1      44.250  23.512  24.627  1.00  0.00     0.014 A 
ATOM     35  C   UNL A   1      45.428  23.577  27.159  1.00  0.00     0.010 A 
ATOM     36  C   UNL A   1      44.254  24.686  25.352  1.00  0.00     0.010 A 
ATOM     37  C   UNL A   1      44.778  24.701  26.648  1.00  0.00    -0.014 A 
BRANCH  37  38
ATOM     38  C   UNL A   1      44.459  25.868  27.460  1.00  0.00     0.031 A 
ATOM     39  C   UNL A   1      43.088  26.418  27.500  1.00  0.00     0.074 A 
ATOM     40  C   UNL A   1      45.416  26.392  28.258  1.00  0.00     0.049 A 
ATOM     41  N   UNL A   1      42.808  27.638  27.812  1.00  0.00    -0.248 NA
ATOM     42  C   UNL A   1      41.913  25.627  27.155  1.00  0.00     0.031 C 
ATOM     43  C   UNL A   1      45.237  27.352  29.345  1.00  0.00     0.029 A 
ATOM     44  N   UNL A   1      46.807  26.294  28.106  1.00  0.00    -0.354 N 
ATOM     45  C   UNL A   1      41.443  27.726  27.976  1.00  0.00     0.074 A 
ATOM     46  C   UNL A   1      40.928  26.462  27.500  1.00  0.00     0.031 C 
ATOM     47  C   UNL A   1      46.408  27.965  29.577  1.00  0.00     0.029 A 
ATOM     48  C   UNL A   1      47.337  27.523  28.552  1.00  0.00     0.049 A 
ATOM     49  H   UNL A   1      47.311  25.523  27.757  1.00  0.00     0.167 HD
ATOM     50  C   UNL A   1      40.909  28.804  28.619  1.00  0.00     0.037 A 
ATOM     51  C   UNL A   1      48.022  28.351  27.712  1.00  0.00     0.037 A 
ATOM     52  C   UNL A   1      41.944  29.758  29.007  1.00  0.00     0.049 A 
ATOM     53  C   UNL A   1      47.405  29.720  27.555  1.00  0.00     0.074 A 
ATOM     54  C   UNL A   1      42.630  29.957  30.194  1.00  0.00     0.029 A 
ATOM     55  N   UNL A   1      42.632  30.468  28.031  1.00  0.00    -0.354 N 
ATOM     56  N   UNL A   1      46.173  30.001  27.881  1.00  0.00    -0.248 NA
ATOM     57  C   UNL A   1      48.107  30.870  26.991  1.00  0.00     0.031 C 
ATOM     58  C   UNL A   1      43.767  30.752  29.919  1.00  0.00     0.029 A 
ATOM     59  C   UNL A   1      43.762  31.052  28.569  1.00  0.00     0.049 A 
ATOM     60  H   UNL A   1      42.353  30.545  27.090  1.00  0.00     0.167 HD
ATOM     61  C   UNL A   1      45.900  31.304  27.557  1.00  0.00     0.074 A 
ATOM     62  C   UNL A   1      47.150  31.813  27.026  1.00  0.00     0.031 C 
ATOM     63  C   UNL A   1      44.659  31.843  27.741  1.00  0.00     0.037 A 
BRANCH  50  64
ATOM     64  C   UNL A   1      39.500  28.828  29.163  1.00  0.00     0.057 A 
ATOM     65  C   UNL A   1      38.429  29.327  28.394  1.00  0.00     0.134 A 
ATOM     66  C   UNL A   1      39.139  28.422  30.459  1.00  0.00     0.134 A 
ATOM     67  F   UNL A   1      38.574  29.642  27.101  1.00  0.00    -0.206 F 
ATOM     68  C   UNL A   1      37.145  29.534  28.916  1.00  0.00     0.040 A 
ATOM     69  C   UNL A   1      37.875  28.674  31.013  1.00  0.00     0.040 A 
ATOM     70  F   UNL A   1      39.983  27.722  31.229  1.00  0.00    -0.206 F 
ATOM     71  C   UNL A   1      36.875  29.250  30.245  1.00  0.00     0.006 A 
ENDBRANCH  50  64
BRANCH  51  72
ATOM     72  C   UNL A   1      48.777  27.629  26.656  1.00  0.00     0.057 A 
ATOM     73  C   UNL A   1      48.190  27.489  25.386  1.00  0.00     0.134 A 
ATOM     74  C   UNL A   1      50.156  27.424  26.747  1.00  0.00     0.134 A 
ATOM     75  F   UNL A   1      46.869  27.675  25.231  1.00  0.00    -0.206 F 
ATOM     76  C   UNL A   1      48.955  27.266  24.240  1.00  0.00     0.040 A 
ATOM     77  C   UNL A   1      50.932  27.193  25.604  1.00  0.00     0.040 A 
ATOM     78  F   UNL A   1      50.791  27.565  27.919  1.00  0.00    -0.206 F 
ATOM     79  C   UNL A   1      50.337  27.151  24.343  1.00  0.00     0.006 A 
ENDBRANCH  51  72
BRANCH  63  80
ATOM     80  C   UNL A   1      44.185  33.184  27.238  1.00  0.00     0.057 A 
ATOM     81  C   UNL A   1      43.910  33.470  25.895  1.00  0.00     0.134 A 
ATOM     82  C   UNL A   1      43.836  34.204  28.154  1.00  0.00     0.134 A 
ATOM     83  F   UNL A   1      44.095  32.557  24.932  1.00  0.00    -0.206 F 
ATOM     84  C   UNL A   1      43.371  34.697  25.484  1.00  0.00     0.040 A 
ATOM     85  C   UNL A   1      43.250  35.411  27.761  1.00  0.00     0.040 A 
ATOM     86  F   UNL A   1      44.027  34.063  29.474  1.00  0.00    -0.206 F 
ATOM     87  C   UNL A   1      43.027  35.666  26.418  1.00  0.00     0.006 A 
ENDBRANCH  63  80
ENDBRANCH  37  38
ENDBRANCH  29  32
ENDBRANCH  27  28
ENDBRANCH   1  27
TORSDOF 13
ENDMDL
MODEL 2
REMARK VINA RESULT:     -13.5      5.249     10.432
REMARK SMILES Cc1c(CC(=O)NCCCNC(=O)c2ccc(-c3c4nc(c(-c5c(F)cccc5F)c5ccc([nH]5)c(-c5c(F)cccc5F)c5nc(c(-c6c(F)cccc6F)c6ccc3[nH]6)C=C5)C=C4)cc2)cc(-c2ccccc2)cc1-c1ccccc1
REMARK SMILES IDX 9 1 8 2 7 3 5 4 6 5 4 7 3 8 1 9 2 10 77 11 68 12 76 13 69 14
REMARK SMILES IDX 78 15 79 16 83 17 80 18 82 19 81 20 70 21 71 22 75 23 72 24
REMARK SMILES IDX 74 25 73 26 10 27 11 28 12 29 13 31 14 32 15 33 67 34 16 35
REMARK SMILES IDX 66 36 17 37 18 38 19 39 60 40 20 41 65 42 59 43 61 44 21 45
REMARK SMILES IDX 64 46 58 47 57 48 22 50 48 51 31 52 47 53 32 54 35 55 46 56
REMARK SMILES IDX 62 57 33 58 34 59 45 61 63 62 36 63 23 64 24 65 29 66 25 67
REMARK SMILES IDX 26 68 28 69 30 70 27 71 49 72 50 73 55 74 51 75 52 76 54 77
REMARK SMILES IDX 56 78 53 79 37 80 38 81 43 82 39 83 40 84 42 85 44 86 41 87
REMARK H PARENT 7 6 11 30 61 49 35 60
REMARK Flexibility Score: inf
ROOT
ATOM      1  C   UNL A   1      34.764  32.387  29.263  1.00  0.00     0.042 C 
ENDROOT
BRANCH   1   2
ATOM      2  C   UNL A   1      33.989  31.998  28.006  1.00  0.00     0.117 C 
BRANCH   2   3
ATOM      3  N   UNL A   1      34.623  30.919  27.265  1.00  0.00    -0.356 N 
ATOM      4  C   UNL A   1      34.098  29.724  26.854  1.00  0.00     0.224 C 
ATOM      5  O   UNL A   1      34.831  28.954  26.228  1.00  0.00    -0.275 OA
ATOM      6  H   UNL A   1      35.566  31.071  27.025  1.00  0.00     0.163 HD
BRANCH   4   7
ATOM      7  C   UNL A   1      32.647  29.358  27.157  1.00  0.00     0.135 C 
BRANCH   7   8
ATOM      8  C   UNL A   1      31.915  28.759  25.968  1.00  0.00    -0.035 A 
ATOM      9  C   UNL A   1      32.804  26.408  26.403  1.00  0.00     0.045 C 
ATOM     10  C   UNL A   1      32.044  27.405  25.560  1.00  0.00    -0.040 A 
ATOM     11  C   UNL A   1      31.418  26.984  24.353  1.00  0.00    -0.015 A 
ATOM     12  C   UNL A   1      31.103  29.634  25.214  1.00  0.00     0.013 A 
ATOM     13  C   UNL A   1      30.641  27.907  23.623  1.00  0.00     0.017 A 
ATOM     14  C   UNL A   1      30.455  29.228  24.043  1.00  0.00    -0.017 A 
BRANCH  11  15
ATOM     15  C   UNL A   1      31.590  25.630  23.788  1.00  0.00    -0.018 A 
ATOM     16  C   UNL A   1      32.715  25.330  22.999  1.00  0.00     0.009 A 
ATOM     17  C   UNL A   1      30.653  24.613  24.020  1.00  0.00     0.009 A 
ATOM     18  C   UNL A   1      32.903  24.050  22.471  1.00  0.00     0.001 A 
ATOM     19  C   UNL A   1      30.847  23.329  23.504  1.00  0.00     0.001 A 
ATOM     20  C   UNL A   1      31.972  23.048  22.730  1.00  0.00     0.000 A 
ENDBRANCH  11  15
BRANCH  14  21
ATOM     21  C   UNL A   1      29.608  30.160  23.279  1.00  0.00    -0.018 A 
ATOM     22  C   UNL A   1      29.225  29.882  21.956  1.00  0.00     0.009 A 
ATOM     23  C   UNL A   1      29.176  31.367  23.852  1.00  0.00     0.009 A 
ATOM     24  C   UNL A   1      28.440  30.784  21.231  1.00  0.00     0.001 A 
ATOM     25  C   UNL A   1      28.396  32.271  23.127  1.00  0.00     0.001 A 
ATOM     26  C   UNL A   1      28.028  31.979  21.816  1.00  0.00     0.000 A 
ENDBRANCH  14  21
ENDBRANCH   7   8
ENDBRANCH   4   7
ENDBRANCH   2   3
ENDBRANCH   1   2
BRANCH   1  27
ATOM     27  C   UNL A   1      34.755  33.876  29.559  1.00  0.00     0.118 C 
BRANCH  27  28
ATOM     28  N   UNL A   1      33.839  34.273  30.623  1.00  0.00    -0.352 N 
ATOM     29  C   UNL A   1      34.029  34.233  31.996  1.00  0.00     0.251 C 
ATOM     30  H   UNL A   1      32.967  34.615  30.326  1.00  0.00     0.163 HD
ATOM     31  O   UNL A   1      33.139  34.588  32.751  1.00  0.00    -0.269 OA
BRANCH  29  32
ATOM     32  C   UNL A   1      35.370  33.890  32.531  1.00  0.00     0.039 A 
ATOM     33  C   UNL A   1      36.454  34.675  32.120  1.00  0.00     0.014 A 
ATOM     34  C   UNL A   1      35.586  32.700  33.219  1.00  0.00     0.014 A 
ATOM     35  C   UNL A   1      37.736  34.134  32.158  1.00  0.00     0.010 A 
ATOM     36  C   UNL A   1      36.836  32.119  33.158  1.00  0.00     0.010 A 
ATOM     37  C   UNL A   1      37.895  32.808  32.560  1.00  0.00    -0.014 A 
BRANCH  37  38
ATOM     38  C   UNL A   1      39.080  32.021  32.241  1.00  0.00     0.031 A 
ATOM     39  C   UNL A   1      38.999  30.850  31.345  1.00  0.00     0.074 A 
ATOM     40  C   UNL A   1      40.283  32.433  32.702  1.00  0.00     0.049 A 
ATOM     41  N   UNL A   1      39.845  29.876  31.350  1.00  0.00    -0.248 NA
ATOM     42  C   UNL A   1      37.921  30.671  30.380  1.00  0.00     0.031 C 
ATOM     43  C   UNL A   1      41.601  31.974  32.272  1.00  0.00     0.029 A 
ATOM     44  N   UNL A   1      40.542  33.237  33.822  1.00  0.00    -0.354 N 
ATOM     45  C   UNL A   1      39.597  29.099  30.242  1.00  0.00     0.074 A 
ATOM     46  C   UNL A   1      38.354  29.603  29.703  1.00  0.00     0.031 C 
ATOM     47  C   UNL A   1      42.490  32.247  33.239  1.00  0.00     0.029 A 
ATOM     48  C   UNL A   1      41.746  32.757  34.378  1.00  0.00     0.049 A 
ATOM     49  H   UNL A   1      39.993  33.984  34.153  1.00  0.00     0.167 HD
ATOM     50  C   UNL A   1      40.536  28.201  29.823  1.00  0.00     0.037 A 
ATOM     51  C   UNL A   1      41.792  32.232  35.636  1.00  0.00     0.037 A 
ATOM     52  C   UNL A   1      41.696  28.192  30.708  1.00  0.00     0.049 A 
ATOM     53  C   UNL A   1      42.262  30.799  35.691  1.00  0.00     0.074 A 
ATOM     54  C   UNL A   1      42.925  28.828  30.641  1.00  0.00     0.029 A 
ATOM     55  N   UNL A   1      41.572  27.713  32.007  1.00  0.00    -0.354 N 
ATOM     56  N   UNL A   1      42.289  30.004  34.656  1.00  0.00    -0.248 NA
ATOM     57  C   UNL A   1      42.707  30.134  36.914  1.00  0.00     0.031 C 
ATOM     58  C   UNL A   1      43.522  28.773  31.922  1.00  0.00     0.029 A 
ATOM     59  C   UNL A   1      42.664  28.088  32.764  1.00  0.00     0.049 A 
ATOM     60  H   UNL A   1      40.813  27.181  32.340  1.00  0.00     0.167 HD
ATOM     61  C   UNL A   1      42.701  28.757  35.046  1.00  0.00     0.074 A 
ATOM     62  C   UNL A   1      42.975  28.895  36.464  1.00  0.00     0.031 C 
ATOM     63  C   UNL A   1      42.764  27.716  34.166  1.00  0.00     0.037 A 
BRANCH  50  64
ATOM     64  C   UNL A   1      40.526  27.575  28.447  1.00  0.00     0.057 A 
ATOM     65  C   UNL A   1      39.905  26.331  28.216  1.00  0.00     0.134 A 
ATOM     66  C   UNL A   1      41.157  28.123  27.319  1.00  0.00     0.134 A 
ATOM     67  F   UNL A   1      39.157  25.730  29.150  1.00  0.00    -0.206 F 
ATOM     68  C   UNL A   1      40.024  25.630  27.009  1.00  0.00     0.040 A 
ATOM     69  C   UNL A   1      41.332  27.412  26.122  1.00  0.00     0.040 A 
ATOM     70  F   UNL A   1      41.592  29.390  27.311  1.00  0.00    -0.206 F 
ATOM     71  C   UNL A   1      40.779  26.150  25.970  1.00  0.00     0.006 A 
ENDBRANCH  50  64
BRANCH  51  72
ATOM     72  C   UNL A   1      40.811  32.845  36.567  1.00  0.00     0.057 A 
ATOM     73  C   UNL A   1      41.136  34.072  37.174  1.00  0.00     0.134 A 
ATOM     74  C   UNL A   1      39.466  32.468  36.571  1.00  0.00     0.134 A 
ATOM     75  F   UNL A   1      42.410  34.492  37.201  1.00  0.00    -0.206 F 
ATOM     76  C   UNL A   1      40.154  34.936  37.663  1.00  0.00     0.040 A 
ATOM     77  C   UNL A   1      38.474  33.324  37.066  1.00  0.00     0.040 A 
ATOM     78  F   UNL A   1      39.076  31.325  35.990  1.00  0.00    -0.206 F 
ATOM     79  C   UNL A   1      38.814  34.576  37.579  1.00  0.00     0.006 A 
ENDBRANCH  51  72
BRANCH  63  80
ATOM     80  C   UNL A   1      42.999  26.267  34.514  1.00  0.00     0.057 A 
ATOM     81  C   UNL A   1      42.062  25.448  35.156  1.00  0.00     0.134 A 
ATOM     82  C   UNL A   1      44.160  25.604  34.052  1.00  0.00     0.134 A 
ATOM     83  F   UNL A   1      40.874  25.921  35.554  1.00  0.00    -0.206 F 
ATOM     84  C   UNL A   1      42.281  24.079  35.367  1.00  0.00     0.040 A 
ATOM     85  C   UNL A   1      44.366  24.231  34.210  1.00  0.00     0.040 A 
ATOM     86  F   UNL A   1      45.136  26.259  33.405  1.00  0.00    -0.206 F 
ATOM     87  C   UNL A   1      43.428  23.463  34.882  1.00  0.00     0.006 A 
ENDBRANCH  63  80
ENDBRANCH  37  38
ENDBRANCH  29  32
ENDBRANCH  27  28
ENDBRANCH   1  27
TORSDOF 13
ENDMDL
MODEL 3
REMARK VINA RESULT:     -13.5      0.437      3.047
REMARK SMILES Cc1c(CC(=O)NCCCNC(=O)c2ccc(-c3c4nc(c(-c5c(F)cccc5F)c5ccc([nH]5)c(-c5c(F)cccc5F)c5nc(c(-c6c(F)cccc6F)c6ccc3[nH]6)C=C5)C=C4)cc2)cc(-c2ccccc2)cc1-c1ccccc1
REMARK SMILES IDX 9 1 8 2 7 3 5 4 6 5 4 7 3 8 1 9 2 10 77 11 68 12 76 13 69 14
REMARK SMILES IDX 78 15 79 16 83 17 80 18 82 19 81 20 70 21 71 22 75 23 72 24
REMARK SMILES IDX 74 25 73 26 10 27 11 28 12 29 13 31 14 32 15 33 67 34 16 35
REMARK SMILES IDX 66 36 17 37 18 38 19 39 60 40 20 41 65 42 59 43 61 44 21 45
REMARK SMILES IDX 64 46 58 47 57 48 22 50 48 51 31 52 47 53 32 54 35 55 46 56
REMARK SMILES IDX 62 57 33 58 34 59 45 61 63 62 36 63 23 64 24 65 29 66 25 67
REMARK SMILES IDX 26 68 28 69 30 70 27 71 49 72 50 73 55 74 51 75 52 76 54 77
REMARK SMILES IDX 56 78 53 79 37 80 38 81 43 82 39 83 40 84 42 85 44 86 41 87
REMARK H PARENT 7 6 11 30 61 49 35 60
REMARK Flexibility Score: inf
ROOT
ATOM      1  C   UNL A   1      40.701  20.757  26.733  1.00  0.00     0.042 C 
ENDROOT
BRANCH   1   2
ATOM      2  C   UNL A   1      39.354  20.979  26.050  1.00  0.00     0.117 C 
BRANCH   2   3
ATOM      3  N   UNL A   1      38.701  22.206  26.478  1.00  0.00    -0.356 N 
ATOM      4  C   UNL A   1      37.763  22.961  25.827  1.00  0.00     0.224 C 
ATOM      5  O   UNL A   1      37.343  23.974  26.391  1.00  0.00    -0.275 OA
ATOM      6  H   UNL A   1      38.974  22.541  27.362  1.00  0.00     0.163 HD
BRANCH   4   7
ATOM      7  C   UNL A   1      37.248  22.556  24.448  1.00  0.00     0.135 C 
BRANCH   7   8
ATOM      8  C   UNL A   1      35.780  22.164  24.442  1.00  0.00    -0.035 A 
ATOM      9  C   UNL A   1      34.979  24.555  24.058  1.00  0.00     0.045 C 
ATOM     10  C   UNL A   1      34.713  23.094  24.342  1.00  0.00    -0.040 A 
ATOM     11  C   UNL A   1      33.375  22.630  24.483  1.00  0.00    -0.015 A 
ATOM     12  C   UNL A   1      35.489  20.790  24.596  1.00  0.00     0.013 A 
ATOM     13  C   UNL A   1      33.141  21.251  24.663  1.00  0.00     0.017 A 
ATOM     14  C   UNL A   1      34.178  20.314  24.704  1.00  0.00    -0.017 A 
BRANCH  11  15
ATOM     15  C   UNL A   1      32.208  23.535  24.510  1.00  0.00    -0.018 A 
ATOM     16  C   UNL A   1      31.493  23.806  23.329  1.00  0.00     0.009 A 
ATOM     17  C   UNL A   1      31.778  24.144  25.698  1.00  0.00     0.009 A 
ATOM     18  C   UNL A   1      30.377  24.646  23.339  1.00  0.00     0.001 A 
ATOM     19  C   UNL A   1      30.654  24.974  25.712  1.00  0.00     0.001 A 
ATOM     20  C   UNL A   1      29.954  25.224  24.534  1.00  0.00     0.000 A 
ENDBRANCH  11  15
BRANCH  14  21
ATOM     21  C   UNL A   1      33.901  18.875  24.857  1.00  0.00    -0.018 A 
ATOM     22  C   UNL A   1      34.736  17.905  24.277  1.00  0.00     0.009 A 
ATOM     23  C   UNL A   1      32.777  18.436  25.573  1.00  0.00     0.009 A 
ATOM     24  C   UNL A   1      34.452  16.542  24.409  1.00  0.00     0.001 A 
ATOM     25  C   UNL A   1      32.489  17.075  25.702  1.00  0.00     0.001 A 
ATOM     26  C   UNL A   1      33.327  16.128  25.119  1.00  0.00     0.000 A 
ENDBRANCH  14  21
ENDBRANCH   7   8
ENDBRANCH   4   7
ENDBRANCH   2   3
ENDBRANCH   1   2
BRANCH   1  27
ATOM     27  C   UNL A   1      41.828  21.604  26.168  1.00  0.00     0.118 C 
BRANCH  27  28
ATOM     28  N   UNL A   1      42.771  20.871  25.331  1.00  0.00    -0.352 N 
ATOM     29  C   UNL A   1      44.030  21.253  24.896  1.00  0.00     0.251 C 
ATOM     30  H   UNL A   1      42.472  19.982  25.035  1.00  0.00     0.163 HD
ATOM     31  O   UNL A   1      44.683  20.515  24.175  1.00  0.00    -0.269 OA
BRANCH  29  32
ATOM     32  C   UNL A   1      44.632  22.500  25.428  1.00  0.00     0.039 A 
ATOM     33  C   UNL A   1      45.172  22.463  26.718  1.00  0.00     0.014 A 
ATOM     34  C   UNL A   1      44.456  23.718  24.776  1.00  0.00     0.014 A 
ATOM     35  C   UNL A   1      45.275  23.645  27.446  1.00  0.00     0.010 A 
ATOM     36  C   UNL A   1      44.453  24.875  25.526  1.00  0.00     0.010 A 
ATOM     37  C   UNL A   1      44.792  24.826  26.882  1.00  0.00    -0.014 A 
BRANCH  37  38
ATOM     38  C   UNL A   1      44.457  26.002  27.674  1.00  0.00     0.031 A 
ATOM     39  C   UNL A   1      43.081  26.538  27.699  1.00  0.00     0.074 A 
ATOM     40  C   UNL A   1      45.405  26.549  28.469  1.00  0.00     0.049 A 
ATOM     41  N   UNL A   1      42.786  27.760  27.991  1.00  0.00    -0.248 NA
ATOM     42  C   UNL A   1      41.916  25.730  27.360  1.00  0.00     0.031 C 
ATOM     43  C   UNL A   1      45.210  27.523  29.540  1.00  0.00     0.029 A 
ATOM     44  N   UNL A   1      46.797  26.462  28.325  1.00  0.00    -0.354 N 
ATOM     45  C   UNL A   1      41.420  27.836  28.146  1.00  0.00     0.074 A 
ATOM     46  C   UNL A   1      40.920  26.560  27.687  1.00  0.00     0.031 C 
ATOM     47  C   UNL A   1      46.373  28.151  29.768  1.00  0.00     0.029 A 
ATOM     48  C   UNL A   1      47.312  27.704  28.755  1.00  0.00     0.049 A 
ATOM     49  H   UNL A   1      47.311  25.692  27.991  1.00  0.00     0.167 HD
ATOM     50  C   UNL A   1      40.871  28.918  28.770  1.00  0.00     0.037 A 
ATOM     51  C   UNL A   1      47.993  28.526  27.905  1.00  0.00     0.037 A 
ATOM     52  C   UNL A   1      41.893  29.889  29.149  1.00  0.00     0.049 A 
ATOM     53  C   UNL A   1      47.362  29.885  27.725  1.00  0.00     0.074 A 
ATOM     54  C   UNL A   1      42.571  30.113  30.336  1.00  0.00     0.029 A 
ATOM     55  N   UNL A   1      42.579  30.591  28.165  1.00  0.00    -0.354 N 
ATOM     56  N   UNL A   1      46.126  30.159  28.040  1.00  0.00    -0.248 NA
ATOM     57  C   UNL A   1      48.056  31.034  27.147  1.00  0.00     0.031 C 
ATOM     58  C   UNL A   1      43.702  30.916  30.054  1.00  0.00     0.029 A 
ATOM     59  C   UNL A   1      43.701  31.195  28.700  1.00  0.00     0.049 A 
ATOM     60  H   UNL A   1      42.305  30.650  27.222  1.00  0.00     0.167 HD
ATOM     61  C   UNL A   1      45.841  31.454  27.695  1.00  0.00     0.074 A 
ATOM     62  C   UNL A   1      47.088  31.968  27.162  1.00  0.00     0.031 C 
ATOM     63  C   UNL A   1      44.594  31.982  27.865  1.00  0.00     0.037 A 
BRANCH  50  64
ATOM     64  C   UNL A   1      39.458  28.936  29.306  1.00  0.00     0.057 A 
ATOM     65  C   UNL A   1      38.387  29.413  28.525  1.00  0.00     0.134 A 
ATOM     66  C   UNL A   1      39.095  28.544  30.606  1.00  0.00     0.134 A 
ATOM     67  F   UNL A   1      38.535  29.712  27.229  1.00  0.00    -0.206 F 
ATOM     68  C   UNL A   1      37.099  29.615  29.037  1.00  0.00     0.040 A 
ATOM     69  C   UNL A   1      37.826  28.791  31.150  1.00  0.00     0.040 A 
ATOM     70  F   UNL A   1      39.942  27.864  31.390  1.00  0.00    -0.206 F 
ATOM     71  C   UNL A   1      36.825  29.347  30.369  1.00  0.00     0.006 A 
ENDBRANCH  50  64
BRANCH  51  72
ATOM     72  C   UNL A   1      48.760  27.796  26.865  1.00  0.00     0.057 A 
ATOM     73  C   UNL A   1      48.175  27.617  25.599  1.00  0.00     0.134 A 
ATOM     74  C   UNL A   1      50.143  27.620  26.959  1.00  0.00     0.134 A 
ATOM     75  F   UNL A   1      46.851  27.774  25.442  1.00  0.00    -0.206 F 
ATOM     76  C   UNL A   1      48.944  27.384  24.457  1.00  0.00     0.040 A 
ATOM     77  C   UNL A   1      50.923  27.379  25.820  1.00  0.00     0.040 A 
ATOM     78  F   UNL A   1      50.776  27.798  28.127  1.00  0.00    -0.206 F 
ATOM     79  C   UNL A   1      50.328  27.298  24.561  1.00  0.00     0.006 A 
ENDBRANCH  51  72
BRANCH  63  80
ATOM     80  C   UNL A   1      44.108  33.310  27.339  1.00  0.00     0.057 A 
ATOM     81  C   UNL A   1      43.890  33.590  25.984  1.00  0.00     0.134 A 
ATOM     82  C   UNL A   1      43.689  34.320  28.236  1.00  0.00     0.134 A 
ATOM     83  F   UNL A   1      44.144  32.683  25.031  1.00  0.00    -0.206 F 
ATOM     84  C   UNL A   1      43.338  34.803  25.546  1.00  0.00     0.040 A 
ATOM     85  C   UNL A   1      43.091  35.511  27.815  1.00  0.00     0.040 A 
ATOM     86  F   UNL A   1      43.822  34.184  29.564  1.00  0.00    -0.206 F 
ATOM     87  C   UNL A   1      42.924  35.762  26.463  1.00  0.00     0.006 A 
ENDBRANCH  63  80
ENDBRANCH  37  38
ENDBRANCH  29  32
ENDBRANCH  27  28
ENDBRANCH   1  27
TORSDOF 13
ENDMDL
