MODEL 1
REMARK VINA RESULT:     -13.9      0.000      0.000
REMARK SMILES Cc1ccccc1-c1c(Cl)ccc2c1C=C(C(=O)NCCCNC(=O)c1ccc(-c3c4nc(c(-c5c(F)cccc5F)c5ccc([nH]5)c(-c5c(F)cccc5F)c5nc(c(-c6c(F)cccc6F)c6ccc3[nH]6)C=C5)C=C4)cc1)[C@@H](C(F)(F)F)O2
REMARK SMILES IDX 21 1 20 2 19 3 17 4 18 5 16 7 8 8 9 9 14 10 10 11 11 12
REMARK SMILES IDX 13 13 15 14 12 15 85 16 80 17 7 18 1 19 2 20 3 21 4 22 6 23
REMARK SMILES IDX 5 24 81 25 82 26 83 27 84 28 22 29 23 30 24 31 25 33 26 34
REMARK SMILES IDX 27 35 79 36 28 37 78 38 29 39 30 40 31 41 72 42 32 43 77 44
REMARK SMILES IDX 71 45 73 46 33 47 76 48 70 49 69 50 34 52 60 53 43 54 59 55
REMARK SMILES IDX 44 56 47 57 58 58 74 59 45 60 46 61 57 63 75 64 48 65 35 66
REMARK SMILES IDX 36 67 41 68 37 69 38 70 40 71 42 72 39 73 61 74 62 75 67 76
REMARK SMILES IDX 63 77 64 78 66 79 68 80 65 81 49 82 50 83 55 84 51 85 52 86
REMARK SMILES IDX 54 87 56 88 53 89
REMARK H PARENT 19 6 23 32 73 51 47 62
REMARK Flexibility Score: inf
ROOT
ATOM      1  C   UNL A   1      33.286  31.116  27.628  1.00  0.00     0.042 C 
ENDROOT
BRANCH   1   2
ATOM      2  C   UNL A   1      32.489  30.332  26.598  1.00  0.00     0.118 C 
BRANCH   2   3
ATOM      3  N   UNL A   1      32.086  29.033  27.104  1.00  0.00    -0.352 N 
ATOM      4  C   UNL A   1      32.126  27.792  26.552  1.00  0.00     0.251 C 
ATOM      5  O   UNL A   1      31.579  26.883  27.177  1.00  0.00    -0.270 OA
ATOM      6  H   UNL A   1      31.716  29.055  28.017  1.00  0.00     0.163 HD
BRANCH   4   7
ATOM      7  C   UNL A   1      32.790  27.520  25.224  1.00  0.00     0.067 C 
ATOM      8  C   UNL A   1      32.999  23.892  24.409  1.00  0.00     0.012 A 
ATOM      9  C   UNL A   1      32.064  22.930  23.960  1.00  0.00     0.049 A 
ATOM     10  C   UNL A   1      32.582  25.248  24.421  1.00  0.00     0.027 A 
ATOM     11  Cl  UNL A   1      32.407  21.231  23.998  1.00  0.00    -0.084 Cl
ATOM     12  C   UNL A   1      30.809  23.305  23.467  1.00  0.00     0.025 A 
ATOM     13  C   UNL A   1      31.348  25.615  23.853  1.00  0.00     0.128 A 
ATOM     14  C   UNL A   1      33.348  26.301  25.109  1.00  0.00     0.026 C 
ATOM     15  C   UNL A   1      30.465  24.649  23.385  1.00  0.00     0.049 A 
ATOM     16  O   UNL A   1      30.918  26.913  23.732  1.00  0.00    -0.475 OA
ATOM     17  C   UNL A   1      31.876  27.942  24.079  1.00  0.00     0.314 C 
BRANCH   8  18
ATOM     18  C   UNL A   1      34.402  23.501  24.711  1.00  0.00    -0.013 A 
ATOM     19  C   UNL A   1      34.023  22.954  27.195  1.00  0.00     0.045 C 
ATOM     20  C   UNL A   1      34.887  23.107  25.976  1.00  0.00    -0.043 A 
ATOM     21  C   UNL A   1      36.255  22.796  26.128  1.00  0.00     0.004 A 
ATOM     22  C   UNL A   1      37.134  22.844  25.048  1.00  0.00     0.000 A 
ATOM     23  C   UNL A   1      35.320  23.543  23.636  1.00  0.00     0.009 A 
ATOM     24  C   UNL A   1      36.664  23.208  23.797  1.00  0.00     0.001 A 
ENDBRANCH   8  18
BRANCH  17  25
ATOM     25  C   UNL A   1      32.694  28.401  22.860  1.00  0.00     0.429 C 
ATOM     26  F   UNL A   1      32.028  29.328  22.132  1.00  0.00    -0.167 F 
ATOM     27  F   UNL A   1      33.862  28.977  23.250  1.00  0.00    -0.167 F 
ATOM     28  F   UNL A   1      33.017  27.386  22.025  1.00  0.00    -0.167 F 
ENDBRANCH  17  25
ENDBRANCH   4   7
ENDBRANCH   2   3
ENDBRANCH   1   2
BRANCH   1  29
ATOM     29  C   UNL A   1      34.774  30.798  27.582  1.00  0.00     0.118 C 
BRANCH  29  30
ATOM     30  N   UNL A   1      35.576  31.552  28.548  1.00  0.00    -0.352 N 
ATOM     31  C   UNL A   1      36.735  31.170  29.215  1.00  0.00     0.251 C 
ATOM     32  H   UNL A   1      35.249  32.457  28.756  1.00  0.00     0.163 HD
ATOM     33  O   UNL A   1      37.313  31.931  29.946  1.00  0.00    -0.269 OA
BRANCH  31  34
ATOM     34  C   UNL A   1      37.316  29.839  28.892  1.00  0.00     0.039 A 
ATOM     35  C   UNL A   1      37.548  28.953  29.948  1.00  0.00     0.014 A 
ATOM     36  C   UNL A   1      37.859  29.596  27.632  1.00  0.00     0.014 A 
ATOM     37  C   UNL A   1      38.544  27.991  29.814  1.00  0.00     0.010 A 
ATOM     38  C   UNL A   1      38.918  28.717  27.533  1.00  0.00     0.010 A 
ATOM     39  C   UNL A   1      39.308  27.968  28.647  1.00  0.00    -0.014 A 
BRANCH  39  40
ATOM     40  C   UNL A   1      40.597  27.289  28.566  1.00  0.00     0.031 A 
ATOM     41  C   UNL A   1      40.672  25.837  28.317  1.00  0.00     0.074 A 
ATOM     42  C   UNL A   1      41.742  27.999  28.685  1.00  0.00     0.049 A 
ATOM     43  N   UNL A   1      41.619  25.074  28.751  1.00  0.00    -0.248 NA
ATOM     44  C   UNL A   1      39.646  25.118  27.574  1.00  0.00     0.031 C 
ATOM     45  C   UNL A   1      43.101  27.534  28.423  1.00  0.00     0.029 A 
ATOM     46  N   UNL A   1      41.912  29.258  29.275  1.00  0.00    -0.354 N 
ATOM     47  C   UNL A   1      41.494  23.856  28.123  1.00  0.00     0.074 A 
ATOM     48  C   UNL A   1      40.213  23.914  27.453  1.00  0.00     0.031 C 
ATOM     49  C   UNL A   1      43.963  28.320  29.087  1.00  0.00     0.029 A 
ATOM     50  C   UNL A   1      43.183  29.243  29.890  1.00  0.00     0.049 A 
ATOM     51  H   UNL A   1      41.272  30.006  29.263  1.00  0.00     0.167 HD
ATOM     52  C   UNL A   1      42.547  22.987  28.117  1.00  0.00     0.037 A 
ATOM     53  C   UNL A   1      43.324  29.437  31.234  1.00  0.00     0.037 A 
ATOM     54  C   UNL A   1      43.680  23.513  28.879  1.00  0.00     0.049 A 
ATOM     55  C   UNL A   1      43.923  28.258  31.963  1.00  0.00     0.074 A 
ATOM     56  C   UNL A   1      44.838  24.168  28.495  1.00  0.00     0.029 A 
ATOM     57  N   UNL A   1      43.574  23.679  30.257  1.00  0.00    -0.354 N 
ATOM     58  N   UNL A   1      44.080  27.077  31.431  1.00  0.00    -0.248 NA
ATOM     59  C   UNL A   1      44.340  28.294  33.363  1.00  0.00     0.031 C 
ATOM     60  C   UNL A   1      45.400  24.781  29.640  1.00  0.00     0.029 A 
ATOM     61  C   UNL A   1      44.592  24.491  30.724  1.00  0.00     0.049 A 
ATOM     62  H   UNL A   1      42.875  23.277  30.820  1.00  0.00     0.167 HD
ATOM     63  C   UNL A   1      44.524  26.201  32.385  1.00  0.00     0.074 A 
ATOM     64  C   UNL A   1      44.713  27.019  33.568  1.00  0.00     0.031 C 
ATOM     65  C   UNL A   1      44.668  24.868  32.128  1.00  0.00     0.037 A 
BRANCH  52  66
ATOM     66  C   UNL A   1      42.651  21.828  27.145  1.00  0.00     0.057 A 
ATOM     67  C   UNL A   1      41.842  20.684  27.283  1.00  0.00     0.134 A 
ATOM     68  C   UNL A   1      43.576  21.753  26.089  1.00  0.00     0.134 A 
ATOM     69  F   UNL A   1      40.818  20.641  28.144  1.00  0.00    -0.206 F 
ATOM     70  C   UNL A   1      42.040  19.512  26.539  1.00  0.00     0.040 A 
ATOM     71  C   UNL A   1      43.826  20.572  25.376  1.00  0.00     0.040 A 
ATOM     72  F   UNL A   1      44.241  22.837  25.668  1.00  0.00    -0.206 F 
ATOM     73  C   UNL A   1      43.068  19.436  25.614  1.00  0.00     0.006 A 
ENDBRANCH  52  66
BRANCH  53  74
ATOM     74  C   UNL A   1      42.307  30.366  31.788  1.00  0.00     0.057 A 
ATOM     75  C   UNL A   1      42.509  31.747  31.616  1.00  0.00     0.134 A 
ATOM     76  C   UNL A   1      41.010  29.942  32.085  1.00  0.00     0.134 A 
ATOM     77  F   UNL A   1      43.735  32.219  31.338  1.00  0.00    -0.206 F 
ATOM     78  C   UNL A   1      41.445  32.651  31.596  1.00  0.00     0.040 A 
ATOM     79  C   UNL A   1      39.938  30.842  32.084  1.00  0.00     0.040 A 
ATOM     80  F   UNL A   1      40.738  28.639  32.251  1.00  0.00    -0.206 F 
ATOM     81  C   UNL A   1      40.147  32.190  31.791  1.00  0.00     0.006 A 
ENDBRANCH  53  74
BRANCH  65  82
ATOM     82  C   UNL A   1      44.972  23.815  33.159  1.00  0.00     0.057 A 
ATOM     83  C   UNL A   1      46.210  23.685  33.807  1.00  0.00     0.134 A 
ATOM     84  C   UNL A   1      43.951  22.961  33.628  1.00  0.00     0.134 A 
ATOM     85  F   UNL A   1      47.230  24.511  33.536  1.00  0.00    -0.206 F 
ATOM     86  C   UNL A   1      46.435  22.728  34.804  1.00  0.00     0.040 A 
ATOM     87  C   UNL A   1      44.152  22.035  34.656  1.00  0.00     0.040 A 
ATOM     88  F   UNL A   1      42.712  23.003  33.117  1.00  0.00    -0.206 F 
ATOM     89  C   UNL A   1      45.404  21.904  35.238  1.00  0.00     0.006 A 
ENDBRANCH  65  82
ENDBRANCH  39  40
ENDBRANCH  31  34
ENDBRANCH  29  30
ENDBRANCH   1  29
TORSDOF 12
ENDMDL
MODEL 2
REMARK VINA RESULT:     -13.9      3.656      9.236
REMARK SMILES Cc1ccccc1-c1c(Cl)ccc2c1C=C(C(=O)NCCCNC(=O)c1ccc(-c3c4nc(c(-c5c(F)cccc5F)c5ccc([nH]5)c(-c5c(F)cccc5F)c5nc(c(-c6c(F)cccc6F)c6ccc3[nH]6)C=C5)C=C4)cc1)[C@@H](C(F)(F)F)O2
REMARK SMILES IDX 21 1 20 2 19 3 17 4 18 5 16 7 8 8 9 9 14 10 10 11 11 12
REMARK SMILES IDX 13 13 15 14 12 15 85 16 80 17 7 18 1 19 2 20 3 21 4 22 6 23
REMARK SMILES IDX 5 24 81 25 82 26 83 27 84 28 22 29 23 30 24 31 25 33 26 34
REMARK SMILES IDX 27 35 79 36 28 37 78 38 29 39 30 40 31 41 72 42 32 43 77 44
REMARK SMILES IDX 71 45 73 46 33 47 76 48 70 49 69 50 34 52 60 53 43 54 59 55
REMARK SMILES IDX 44 56 47 57 58 58 74 59 45 60 46 61 57 63 75 64 48 65 35 66
REMARK SMILES IDX 36 67 41 68 37 69 38 70 40 71 42 72 39 73 61 74 62 75 67 76
REMARK SMILES IDX 63 77 64 78 66 79 68 80 65 81 49 82 50 83 55 84 51 85 52 86
REMARK SMILES IDX 54 87 56 88 53 89
REMARK H PARENT 19 6 23 32 73 51 47 62
REMARK Flexibility Score: inf
ROOT
ATOM      1  C   UNL A   1      38.770  21.728  25.677  1.00  0.00     0.042 C 
ENDROOT
BRANCH   1   2
ATOM      2  C   UNL A   1      37.291  21.549  25.374  1.00  0.00     0.118 C 
BRANCH   2   3
ATOM      3  N   UNL A   1      36.834  22.477  24.357  1.00  0.00    -0.352 N 
ATOM      4  C   UNL A   1      35.740  23.282  24.287  1.00  0.00     0.251 C 
ATOM      5  O   UNL A   1      35.541  23.866  23.223  1.00  0.00    -0.270 OA
ATOM      6  H   UNL A   1      37.425  22.534  23.571  1.00  0.00     0.163 HD
BRANCH   4   7
ATOM      7  C   UNL A   1      34.790  23.453  25.447  1.00  0.00     0.067 C 
ATOM      8  C   UNL A   1      32.113  25.957  24.786  1.00  0.00     0.012 A 
ATOM      9  C   UNL A   1      30.925  25.945  24.018  1.00  0.00     0.049 A 
ATOM     10  C   UNL A   1      32.790  24.721  24.954  1.00  0.00     0.027 A 
ATOM     11  Cl  UNL A   1      30.060  27.401  23.646  1.00  0.00    -0.084 Cl
ATOM     12  C   UNL A   1      30.391  24.754  23.514  1.00  0.00     0.025 A 
ATOM     13  C   UNL A   1      32.202  23.523  24.505  1.00  0.00     0.128 A 
ATOM     14  C   UNL A   1      34.158  24.641  25.491  1.00  0.00     0.026 C 
ATOM     15  C   UNL A   1      31.013  23.541  23.785  1.00  0.00     0.049 A 
ATOM     16  O   UNL A   1      32.742  22.280  24.720  1.00  0.00    -0.475 OA
ATOM     17  C   UNL A   1      33.900  22.223  25.587  1.00  0.00     0.314 C 
BRANCH   8  18
ATOM     18  C   UNL A   1      32.539  27.187  25.504  1.00  0.00    -0.013 A 
ATOM     19  C   UNL A   1      33.954  28.163  23.591  1.00  0.00     0.045 C 
ATOM     20  C   UNL A   1      33.400  28.177  24.987  1.00  0.00    -0.043 A 
ATOM     21  C   UNL A   1      33.751  29.281  25.793  1.00  0.00     0.004 A 
ATOM     22  C   UNL A   1      33.244  29.428  27.082  1.00  0.00     0.000 A 
ATOM     23  C   UNL A   1      32.044  27.363  26.816  1.00  0.00     0.009 A 
ATOM     24  C   UNL A   1      32.379  28.472  27.592  1.00  0.00     0.001 A 
ENDBRANCH   8  18
BRANCH  17  25
ATOM     25  C   UNL A   1      33.507  21.991  27.057  1.00  0.00     0.429 C 
ATOM     26  F   UNL A   1      33.498  20.674  27.369  1.00  0.00    -0.167 F 
ATOM     27  F   UNL A   1      34.397  22.584  27.895  1.00  0.00    -0.167 F 
ATOM     28  F   UNL A   1      32.286  22.487  27.364  1.00  0.00    -0.167 F 
ENDBRANCH  17  25
ENDBRANCH   4   7
ENDBRANCH   2   3
ENDBRANCH   1   2
BRANCH   1  29
ATOM     29  C   UNL A   1      39.062  23.021  26.424  1.00  0.00     0.118 C 
BRANCH  29  30
ATOM     30  N   UNL A   1      40.489  23.283  26.630  1.00  0.00    -0.352 N 
ATOM     31  C   UNL A   1      41.126  24.480  26.938  1.00  0.00     0.251 C 
ATOM     32  H   UNL A   1      41.081  22.502  26.535  1.00  0.00     0.163 HD
ATOM     33  O   UNL A   1      42.313  24.522  27.130  1.00  0.00    -0.269 OA
BRANCH  31  34
ATOM     34  C   UNL A   1      40.278  25.682  27.161  1.00  0.00     0.039 A 
ATOM     35  C   UNL A   1      40.626  26.860  26.494  1.00  0.00     0.014 A 
ATOM     36  C   UNL A   1      39.348  25.704  28.198  1.00  0.00     0.014 A 
ATOM     37  C   UNL A   1      40.260  28.082  27.048  1.00  0.00     0.010 A 
ATOM     38  C   UNL A   1      39.076  26.911  28.809  1.00  0.00     0.010 A 
ATOM     39  C   UNL A   1      39.595  28.094  28.275  1.00  0.00    -0.014 A 
BRANCH  39  40
ATOM     40  C   UNL A   1      39.522  29.284  29.117  1.00  0.00     0.031 A 
ATOM     41  C   UNL A   1      38.496  30.317  28.878  1.00  0.00     0.074 A 
ATOM     42  C   UNL A   1      40.381  29.432  30.151  1.00  0.00     0.049 A 
ATOM     43  N   UNL A   1      38.653  31.571  29.143  1.00  0.00    -0.248 NA
ATOM     44  C   UNL A   1      37.204  30.010  28.280  1.00  0.00     0.031 C 
ATOM     45  C   UNL A   1      40.322  30.434  31.211  1.00  0.00     0.029 A 
ATOM     46  N   UNL A   1      41.620  28.806  30.332  1.00  0.00    -0.354 N 
ATOM     47  C   UNL A   1      37.423  32.178  29.030  1.00  0.00     0.074 A 
ATOM     48  C   UNL A   1      36.571  31.178  28.426  1.00  0.00     0.031 C 
ATOM     49  C   UNL A   1      41.545  30.570  31.746  1.00  0.00     0.029 A 
ATOM     50  C   UNL A   1      42.456  29.748  30.972  1.00  0.00     0.049 A 
ATOM     51  H   UNL A   1      41.862  27.889  30.066  1.00  0.00     0.167 HD
ATOM     52  C   UNL A   1      37.221  33.407  29.590  1.00  0.00     0.037 A 
ATOM     53  C   UNL A   1      43.614  30.179  30.392  1.00  0.00     0.037 A 
ATOM     54  C   UNL A   1      38.446  33.924  30.202  1.00  0.00     0.049 A 
ATOM     55  C   UNL A   1      43.637  31.660  30.098  1.00  0.00     0.074 A 
ATOM     56  C   UNL A   1      38.902  33.934  31.510  1.00  0.00     0.029 A 
ATOM     57  N   UNL A   1      39.538  34.251  29.405  1.00  0.00    -0.354 N 
ATOM     58  N   UNL A   1      42.587  32.431  30.162  1.00  0.00    -0.248 NA
ATOM     59  C   UNL A   1      44.828  32.383  29.655  1.00  0.00     0.031 C 
ATOM     60  C   UNL A   1      40.289  34.211  31.494  1.00  0.00     0.029 A 
ATOM     61  C   UNL A   1      40.678  34.381  30.177  1.00  0.00     0.049 A 
ATOM     62  H   UNL A   1      39.505  34.373  28.429  1.00  0.00     0.167 HD
ATOM     63  C   UNL A   1      42.910  33.683  29.714  1.00  0.00     0.074 A 
ATOM     64  C   UNL A   1      44.335  33.616  29.449  1.00  0.00     0.031 C 
ATOM     65  C   UNL A   1      41.970  34.663  29.569  1.00  0.00     0.037 A 
BRANCH  52  66
ATOM     66  C   UNL A   1      35.841  33.969  29.864  1.00  0.00     0.057 A 
ATOM     67  C   UNL A   1      35.024  34.442  28.818  1.00  0.00     0.134 A 
ATOM     68  C   UNL A   1      35.285  34.130  31.145  1.00  0.00     0.134 A 
ATOM     69  F   UNL A   1      35.335  34.244  27.532  1.00  0.00    -0.206 F 
ATOM     70  C   UNL A   1      33.835  35.151  29.038  1.00  0.00     0.040 A 
ATOM     71  C   UNL A   1      34.127  34.885  31.385  1.00  0.00     0.040 A 
ATOM     72  F   UNL A   1      35.809  33.517  32.214  1.00  0.00    -0.206 F 
ATOM     73  C   UNL A   1      33.406  35.418  30.328  1.00  0.00     0.006 A 
ENDBRANCH  52  66
BRANCH  53  74
ATOM     74  C   UNL A   1      44.270  29.128  29.574  1.00  0.00     0.057 A 
ATOM     75  C   UNL A   1      45.019  28.141  30.240  1.00  0.00     0.134 A 
ATOM     76  C   UNL A   1      43.850  28.842  28.273  1.00  0.00     0.134 A 
ATOM     77  F   UNL A   1      45.460  28.360  31.489  1.00  0.00    -0.206 F 
ATOM     78  C   UNL A   1      45.216  26.871  29.694  1.00  0.00     0.040 A 
ATOM     79  C   UNL A   1      44.057  27.578  27.709  1.00  0.00     0.040 A 
ATOM     80  F   UNL A   1      43.122  29.729  27.579  1.00  0.00    -0.206 F 
ATOM     81  C   UNL A   1      44.697  26.575  28.438  1.00  0.00     0.006 A 
ENDBRANCH  53  74
BRANCH  65  82
ATOM     82  C   UNL A   1      42.204  35.998  28.917  1.00  0.00     0.057 A 
ATOM     83  C   UNL A   1      42.954  37.033  29.494  1.00  0.00     0.134 A 
ATOM     84  C   UNL A   1      41.769  36.231  27.594  1.00  0.00     0.134 A 
ATOM     85  F   UNL A   1      43.521  36.896  30.701  1.00  0.00    -0.206 F 
ATOM     86  C   UNL A   1      43.198  38.241  28.829  1.00  0.00     0.040 A 
ATOM     87  C   UNL A   1      42.048  37.415  26.904  1.00  0.00     0.040 A 
ATOM     88  F   UNL A   1      41.069  35.311  26.914  1.00  0.00    -0.206 F 
ATOM     89  C   UNL A   1      42.751  38.434  27.528  1.00  0.00     0.006 A 
ENDBRANCH  65  82
ENDBRANCH  39  40
ENDBRANCH  31  34
ENDBRANCH  29  30
ENDBRANCH   1  29
TORSDOF 12
ENDMDL
MODEL 3
REMARK VINA RESULT:     -13.6      3.421      8.179
REMARK SMILES Cc1ccccc1-c1c(Cl)ccc2c1C=C(C(=O)NCCCNC(=O)c1ccc(-c3c4nc(c(-c5c(F)cccc5F)c5ccc([nH]5)c(-c5c(F)cccc5F)c5nc(c(-c6c(F)cccc6F)c6ccc3[nH]6)C=C5)C=C4)cc1)[C@@H](C(F)(F)F)O2
REMARK SMILES IDX 21 1 20 2 19 3 17 4 18 5 16 7 8 8 9 9 14 10 10 11 11 12
REMARK SMILES IDX 13 13 15 14 12 15 85 16 80 17 7 18 1 19 2 20 3 21 4 22 6 23
REMARK SMILES IDX 5 24 81 25 82 26 83 27 84 28 22 29 23 30 24 31 25 33 26 34
REMARK SMILES IDX 27 35 79 36 28 37 78 38 29 39 30 40 31 41 72 42 32 43 77 44
REMARK SMILES IDX 71 45 73 46 33 47 76 48 70 49 69 50 34 52 60 53 43 54 59 55
REMARK SMILES IDX 44 56 47 57 58 58 74 59 45 60 46 61 57 63 75 64 48 65 35 66
REMARK SMILES IDX 36 67 41 68 37 69 38 70 40 71 42 72 39 73 61 74 62 75 67 76
REMARK SMILES IDX 63 77 64 78 66 79 68 80 65 81 49 82 50 83 55 84 51 85 52 86
REMARK SMILES IDX 54 87 56 88 53 89
REMARK H PARENT 19 6 23 32 73 51 47 62
REMARK Flexibility Score: inf
ROOT
ATOM      1  C   UNL A   1      38.573  21.811  25.797  1.00  0.00     0.042 C 
ENDROOT
BRANCH   1   2
ATOM      2  C   UNL A   1      37.921  23.184  25.831  1.00  0.00     0.118 C 
BRANCH   2   3
ATOM      3  N   UNL A   1      37.173  23.455  24.618  1.00  0.00    -0.352 N 
ATOM      4  C   UNL A   1      35.843  23.610  24.387  1.00  0.00     0.251 C 
ATOM      5  O   UNL A   1      35.484  23.696  23.213  1.00  0.00    -0.270 OA
ATOM      6  H   UNL A   1      37.733  23.543  23.812  1.00  0.00     0.163 HD
BRANCH   4   7
ATOM      7  C   UNL A   1      34.831  23.660  25.505  1.00  0.00     0.067 C 
ATOM      8  C   UNL A   1      31.985  25.957  24.800  1.00  0.00     0.012 A 
ATOM      9  C   UNL A   1      30.837  25.876  23.977  1.00  0.00     0.049 A 
ATOM     10  C   UNL A   1      32.756  24.776  24.959  1.00  0.00     0.027 A 
ATOM     11  Cl  UNL A   1      29.871  27.269  23.612  1.00  0.00    -0.084 Cl
ATOM     12  C   UNL A   1      30.429  24.664  23.409  1.00  0.00     0.025 A 
ATOM     13  C   UNL A   1      32.291  23.551  24.444  1.00  0.00     0.128 A 
ATOM     14  C   UNL A   1      34.100  24.789  25.558  1.00  0.00     0.026 C 
ATOM     15  C   UNL A   1      31.138  23.497  23.669  1.00  0.00     0.049 A 
ATOM     16  O   UNL A   1      32.922  22.350  24.643  1.00  0.00    -0.475 OA
ATOM     17  C   UNL A   1      34.041  22.356  25.562  1.00  0.00     0.314 C 
BRANCH   8  18
ATOM     18  C   UNL A   1      32.274  27.191  25.577  1.00  0.00    -0.013 A 
ATOM     19  C   UNL A   1      33.915  28.221  23.886  1.00  0.00     0.045 C 
ATOM     20  C   UNL A   1      33.172  28.208  25.191  1.00  0.00    -0.043 A 
ATOM     21  C   UNL A   1      33.377  29.313  26.045  1.00  0.00     0.004 A 
ATOM     22  C   UNL A   1      32.692  29.434  27.252  1.00  0.00     0.000 A 
ATOM     23  C   UNL A   1      31.597  27.342  26.809  1.00  0.00     0.009 A 
ATOM     24  C   UNL A   1      31.791  28.451  27.630  1.00  0.00     0.001 A 
ENDBRANCH   8  18
BRANCH  17  25
ATOM     25  C   UNL A   1      33.604  22.038  27.003  1.00  0.00     0.429 C 
ATOM     26  F   UNL A   1      33.654  20.710  27.258  1.00  0.00    -0.167 F 
ATOM     27  F   UNL A   1      34.427  22.640  27.902  1.00  0.00    -0.167 F 
ATOM     28  F   UNL A   1      32.347  22.457  27.280  1.00  0.00    -0.167 F 
ENDBRANCH  17  25
ENDBRANCH   4   7
ENDBRANCH   2   3
ENDBRANCH   1   2
BRANCH   1  29
ATOM     29  C   UNL A   1      39.970  21.813  26.401  1.00  0.00     0.118 C 
BRANCH  29  30
ATOM     30  N   UNL A   1      40.897  20.871  25.766  1.00  0.00    -0.352 N 
ATOM     31  C   UNL A   1      42.284  20.824  25.836  1.00  0.00     0.251 C 
ATOM     32  H   UNL A   1      40.478  20.175  25.211  1.00  0.00     0.163 HD
ATOM     33  O   UNL A   1      42.906  19.947  25.295  1.00  0.00    -0.269 OA
BRANCH  31  34
ATOM     34  C   UNL A   1      42.971  21.808  26.716  1.00  0.00     0.039 A 
ATOM     35  C   UNL A   1      42.829  21.660  28.098  1.00  0.00     0.014 A 
ATOM     36  C   UNL A   1      43.500  22.980  26.181  1.00  0.00     0.014 A 
ATOM     37  C   UNL A   1      42.949  22.781  28.912  1.00  0.00     0.010 A 
ATOM     38  C   UNL A   1      43.514  24.113  26.968  1.00  0.00     0.010 A 
ATOM     39  C   UNL A   1      43.166  24.026  28.319  1.00  0.00    -0.014 A 
BRANCH  39  40
ATOM     40  C   UNL A   1      42.916  25.283  29.018  1.00  0.00     0.031 A 
ATOM     41  C   UNL A   1      41.701  26.072  28.739  1.00  0.00     0.074 A 
ATOM     42  C   UNL A   1      43.786  25.717  29.957  1.00  0.00     0.049 A 
ATOM     43  N   UNL A   1      41.632  27.358  28.842  1.00  0.00    -0.248 NA
ATOM     44  C   UNL A   1      40.460  25.461  28.285  1.00  0.00     0.031 C 
ATOM     45  C   UNL A   1      43.597  26.821  30.893  1.00  0.00     0.029 A 
ATOM     46  N   UNL A   1      45.130  25.354  30.114  1.00  0.00    -0.354 N 
ATOM     47  C   UNL A   1      40.305  27.712  28.754  1.00  0.00     0.074 A 
ATOM     48  C   UNL A   1      39.626  26.504  28.341  1.00  0.00     0.031 C 
ATOM     49  C   UNL A   1      44.799  27.245  31.311  1.00  0.00     0.029 A 
ATOM     50  C   UNL A   1      45.805  26.508  30.570  1.00  0.00     0.049 A 
ATOM     51  H   UNL A   1      45.526  24.470  29.939  1.00  0.00     0.167 HD
ATOM     52  C   UNL A   1      39.905  28.947  29.179  1.00  0.00     0.037 A 
ATOM     53  C   UNL A   1      46.827  27.062  29.855  1.00  0.00     0.037 A 
ATOM     54  C   UNL A   1      41.041  29.752  29.628  1.00  0.00     0.049 A 
ATOM     55  C   UNL A   1      46.554  28.471  29.388  1.00  0.00     0.074 A 
ATOM     56  C   UNL A   1      41.558  30.015  30.887  1.00  0.00     0.029 A 
ATOM     57  N   UNL A   1      42.007  30.165  28.715  1.00  0.00    -0.354 N 
ATOM     58  N   UNL A   1      45.381  29.041  29.442  1.00  0.00    -0.248 NA
ATOM     59  C   UNL A   1      47.560  29.333  28.770  1.00  0.00     0.031 C 
ATOM     60  C   UNL A   1      42.865  30.534  30.729  1.00  0.00     0.029 A 
ATOM     61  C   UNL A   1      43.142  30.599  29.376  1.00  0.00     0.049 A 
ATOM     62  H   UNL A   1      41.898  30.150  27.737  1.00  0.00     0.167 HD
ATOM     63  C   UNL A   1      45.437  30.262  28.825  1.00  0.00     0.074 A 
ATOM     64  C   UNL A   1      46.832  30.419  28.459  1.00  0.00     0.031 C 
ATOM     65  C   UNL A   1      44.322  31.028  28.639  1.00  0.00     0.037 A 
BRANCH  52  66
ATOM     66  C   UNL A   1      38.460  29.280  29.492  1.00  0.00     0.057 A 
ATOM     67  C   UNL A   1      37.596  29.784  28.500  1.00  0.00     0.134 A 
ATOM     68  C   UNL A   1      37.878  29.187  30.767  1.00  0.00     0.134 A 
ATOM     69  F   UNL A   1      37.940  29.810  27.207  1.00  0.00    -0.206 F 
ATOM     70  C   UNL A   1      36.322  30.295  28.784  1.00  0.00     0.040 A 
ATOM     71  C   UNL A   1      36.629  29.744  31.079  1.00  0.00     0.040 A 
ATOM     72  F   UNL A   1      38.471  28.505  31.756  1.00  0.00    -0.206 F 
ATOM     73  C   UNL A   1      35.852  30.321  30.087  1.00  0.00     0.006 A 
ENDBRANCH  52  66
BRANCH  53  74
ATOM     74  C   UNL A   1      47.625  26.049  29.118  1.00  0.00     0.057 A 
ATOM     75  C   UNL A   1      47.339  25.845  27.756  1.00  0.00     0.134 A 
ATOM     76  C   UNL A   1      48.869  25.615  29.582  1.00  0.00     0.134 A 
ATOM     77  F   UNL A   1      46.157  26.233  27.251  1.00  0.00    -0.206 F 
ATOM     78  C   UNL A   1      48.300  25.364  26.865  1.00  0.00     0.040 A 
ATOM     79  C   UNL A   1      49.834  25.116  28.700  1.00  0.00     0.040 A 
ATOM     80  F   UNL A   1      49.217  25.786  30.865  1.00  0.00    -0.206 F 
ATOM     81  C   UNL A   1      49.568  25.036  27.333  1.00  0.00     0.006 A 
ENDBRANCH  53  74
BRANCH  65  82
ATOM     82  C   UNL A   1      44.262  32.287  27.818  1.00  0.00     0.057 A 
ATOM     83  C   UNL A   1      44.532  32.340  26.443  1.00  0.00     0.134 A 
ATOM     84  C   UNL A   1      43.792  33.488  28.390  1.00  0.00     0.134 A 
ATOM     85  F   UNL A   1      44.877  31.242  25.755  1.00  0.00    -0.206 F 
ATOM     86  C   UNL A   1      44.409  33.522  25.701  1.00  0.00     0.040 A 
ATOM     87  C   UNL A   1      43.619  34.661  27.649  1.00  0.00     0.040 A 
ATOM     88  F   UNL A   1      43.466  33.567  29.688  1.00  0.00    -0.206 F 
ATOM     89  C   UNL A   1      43.944  34.686  26.301  1.00  0.00     0.006 A 
ENDBRANCH  65  82
ENDBRANCH  39  40
ENDBRANCH  31  34
ENDBRANCH  29  30
ENDBRANCH   1  29
TORSDOF 12
ENDMDL
