MODEL 1
REMARK VINA RESULT:     -12.0      0.000      0.000
REMARK SMILES Cc1cc(Cl)cc2c1O[C@H](C(F)(F)F)C(C(=O)OCCOC(=O)c1ccc(-c3c4nc(c(-c5c(F)cccc5F)c5ccc([nH]5)c(-c5c(F)cccc5F)c5nc(c(-c6c(F)cccc6F)c6ccc3[nH]6)C=C5)C=C4)cc1)=C2
REMARK SMILES IDX 20 1 19 2 18 3 16 4 17 5 15 6 1 7 2 8 3 9 8 10 4 11 7 12
REMARK SMILES IDX 9 13 5 14 6 15 78 16 10 17 11 18 12 19 13 20 14 21 21 22
REMARK SMILES IDX 22 23 23 24 24 25 25 26 77 27 26 28 76 29 27 30 28 31 29 32
REMARK SMILES IDX 70 33 30 34 75 35 69 36 71 37 31 38 74 39 68 40 67 41 32 43
REMARK SMILES IDX 58 44 41 45 57 46 42 47 45 48 56 49 72 50 43 51 44 52 55 54
REMARK SMILES IDX 73 55 46 56 33 57 34 58 39 59 35 60 36 61 38 62 40 63 37 64
REMARK SMILES IDX 59 65 60 66 65 67 61 68 62 69 64 70 66 71 63 72 47 73 48 74
REMARK SMILES IDX 53 75 49 76 50 77 52 78 54 79 51 80
REMARK H PARENT 71 42 45 53
REMARK Flexibility Score: inf
ROOT
ATOM      1  C   UNL A   1      31.679  30.465  25.724  1.00  0.00     0.275 C 
ENDROOT
BRANCH   1   2
ATOM      2  C   UNL A   1      31.698  29.081  25.070  1.00  0.00     0.275 C 
BRANCH   2   3
ATOM      3  O   UNL A   1      32.524  28.154  25.808  1.00  0.00    -0.459 OA
BRANCH   3   4
ATOM      4  C   UNL A   1      31.855  27.201  26.495  1.00  0.00     0.338 C 
ATOM      5  O   UNL A   1      31.027  27.383  27.373  1.00  0.00    -0.246 OA
BRANCH   4   6
ATOM      6  C   UNL A   1      32.235  25.853  26.030  1.00  0.00     0.087 C 
ATOM      7  C   UNL A   1      32.451  21.306  23.617  1.00  0.00     0.048 C 
ATOM      8  C   UNL A   1      33.427  22.247  24.264  1.00  0.00    -0.007 A 
ATOM      9  C   UNL A   1      34.803  21.975  24.154  1.00  0.00     0.027 A 
ATOM     10  C   UNL A   1      33.009  23.426  24.898  1.00  0.00     0.131 A 
ATOM     11  C   UNL A   1      35.741  22.845  24.704  1.00  0.00     0.042 A 
ATOM     12  C   UNL A   1      33.960  24.296  25.435  1.00  0.00     0.019 A 
ATOM     13  O   UNL A   1      31.663  23.665  24.978  1.00  0.00    -0.475 OA
ATOM     14  Cl  UNL A   1      37.420  22.502  24.564  1.00  0.00    -0.084 Cl
ATOM     15  C   UNL A   1      35.326  24.002  25.350  1.00  0.00     0.032 A 
ATOM     16  C   UNL A   1      33.534  25.540  26.040  1.00  0.00     0.027 C 
ATOM     17  C   UNL A   1      31.188  24.967  25.427  1.00  0.00     0.316 C 
BRANCH  17  18
ATOM     18  C   UNL A   1      30.475  25.663  24.257  1.00  0.00     0.430 C 
ATOM     19  F   UNL A   1      29.853  24.768  23.453  1.00  0.00    -0.167 F 
ATOM     20  F   UNL A   1      29.519  26.518  24.694  1.00  0.00    -0.167 F 
ATOM     21  F   UNL A   1      31.332  26.375  23.488  1.00  0.00    -0.167 F 
ENDBRANCH  17  18
ENDBRANCH   4   6
ENDBRANCH   3   4
ENDBRANCH   2   3
ENDBRANCH   1   2
BRANCH   1  22
ATOM     22  O   UNL A   1      32.399  30.449  26.971  1.00  0.00    -0.458 OA
BRANCH  22  23
ATOM     23  C   UNL A   1      33.069  31.587  27.254  1.00  0.00     0.338 C 
ATOM     24  O   UNL A   1      32.620  32.720  27.308  1.00  0.00    -0.246 OA
BRANCH  23  25
ATOM     25  C   UNL A   1      34.466  31.293  27.603  1.00  0.00     0.060 A 
ATOM     26  C   UNL A   1      34.818  29.969  27.827  1.00  0.00     0.016 A 
ATOM     27  C   UNL A   1      35.343  32.316  27.951  1.00  0.00     0.016 A 
ATOM     28  C   UNL A   1      35.949  29.670  28.577  1.00  0.00     0.010 A 
ATOM     29  C   UNL A   1      36.567  31.996  28.553  1.00  0.00     0.010 A 
ATOM     30  C   UNL A   1      36.860  30.672  28.931  1.00  0.00    -0.014 A 
BRANCH  30  31
ATOM     31  C   UNL A   1      38.091  30.339  29.711  1.00  0.00     0.031 A 
ATOM     32  C   UNL A   1      39.172  29.480  29.104  1.00  0.00     0.074 A 
ATOM     33  C   UNL A   1      38.259  30.823  30.960  1.00  0.00     0.049 A 
ATOM     34  N   UNL A   1      40.197  28.904  29.683  1.00  0.00    -0.248 NA
ATOM     35  C   UNL A   1      39.086  29.217  27.657  1.00  0.00     0.031 C 
ATOM     36  C   UNL A   1      37.336  31.720  31.659  1.00  0.00     0.029 A 
ATOM     37  N   UNL A   1      39.276  30.636  31.867  1.00  0.00    -0.354 N 
ATOM     38  C   UNL A   1      40.837  28.170  28.691  1.00  0.00     0.074 A 
ATOM     39  C   UNL A   1      40.082  28.362  27.472  1.00  0.00     0.031 C 
ATOM     40  C   UNL A   1      37.852  32.051  32.850  1.00  0.00     0.029 A 
ATOM     41  C   UNL A   1      39.076  31.292  33.058  1.00  0.00     0.049 A 
ATOM     42  H   UNL A   1      40.070  30.085  31.680  1.00  0.00     0.167 HD
ATOM     43  C   UNL A   1      41.953  27.408  28.791  1.00  0.00     0.037 A 
ATOM     44  C   UNL A   1      39.759  31.247  34.217  1.00  0.00     0.037 A 
ATOM     45  C   UNL A   1      42.731  27.269  29.995  1.00  0.00     0.049 A 
ATOM     46  C   UNL A   1      40.952  30.343  34.324  1.00  0.00     0.074 A 
ATOM     47  C   UNL A   1      43.878  26.520  30.199  1.00  0.00     0.029 A 
ATOM     48  N   UNL A   1      42.458  27.912  31.193  1.00  0.00    -0.354 N 
ATOM     49  N   UNL A   1      41.496  29.586  33.404  1.00  0.00    -0.248 NA
ATOM     50  C   UNL A   1      41.607  30.266  35.636  1.00  0.00     0.031 C 
ATOM     51  C   UNL A   1      44.272  26.674  31.531  1.00  0.00     0.029 A 
ATOM     52  C   UNL A   1      43.402  27.563  32.144  1.00  0.00     0.049 A 
ATOM     53  H   UNL A   1      41.703  28.525  31.346  1.00  0.00     0.167 HD
ATOM     54  C   UNL A   1      42.567  28.953  34.019  1.00  0.00     0.074 A 
ATOM     55  C   UNL A   1      42.607  29.432  35.386  1.00  0.00     0.031 C 
ATOM     56  C   UNL A   1      43.434  28.051  33.498  1.00  0.00     0.037 A 
BRANCH  43  57
ATOM     57  C   UNL A   1      42.397  26.639  27.577  1.00  0.00     0.057 A 
ATOM     58  C   UNL A   1      41.954  25.338  27.312  1.00  0.00     0.134 A 
ATOM     59  C   UNL A   1      43.224  27.245  26.618  1.00  0.00     0.134 A 
ATOM     60  F   UNL A   1      41.171  24.695  28.190  1.00  0.00    -0.206 F 
ATOM     61  C   UNL A   1      42.327  24.662  26.146  1.00  0.00     0.040 A 
ATOM     62  C   UNL A   1      43.579  26.591  25.438  1.00  0.00     0.040 A 
ATOM     63  F   UNL A   1      43.679  28.494  26.803  1.00  0.00    -0.206 F 
ATOM     64  C   UNL A   1      43.132  25.294  25.200  1.00  0.00     0.006 A 
ENDBRANCH  43  57
BRANCH  44  65
ATOM     65  C   UNL A   1      39.297  32.052  35.379  1.00  0.00     0.057 A 
ATOM     66  C   UNL A   1      39.704  33.379  35.544  1.00  0.00     0.134 A 
ATOM     67  C   UNL A   1      38.415  31.525  36.332  1.00  0.00     0.134 A 
ATOM     68  F   UNL A   1      40.566  33.935  34.680  1.00  0.00    -0.206 F 
ATOM     69  C   UNL A   1      39.252  34.155  36.614  1.00  0.00     0.040 A 
ATOM     70  C   UNL A   1      37.929  32.298  37.387  1.00  0.00     0.040 A 
ATOM     71  F   UNL A   1      37.983  30.259  36.231  1.00  0.00    -0.206 F 
ATOM     72  C   UNL A   1      38.352  33.617  37.533  1.00  0.00     0.006 A 
ENDBRANCH  44  65
BRANCH  56  73
ATOM     73  C   UNL A   1      44.519  27.544  34.401  1.00  0.00     0.057 A 
ATOM     74  C   UNL A   1      45.744  28.209  34.528  1.00  0.00     0.134 A 
ATOM     75  C   UNL A   1      44.315  26.404  35.188  1.00  0.00     0.134 A 
ATOM     76  F   UNL A   1      46.006  29.298  33.791  1.00  0.00    -0.206 F 
ATOM     77  C   UNL A   1      46.737  27.747  35.393  1.00  0.00     0.040 A 
ATOM     78  C   UNL A   1      45.289  25.948  36.078  1.00  0.00     0.040 A 
ATOM     79  F   UNL A   1      43.160  25.725  35.120  1.00  0.00    -0.206 F 
ATOM     80  C   UNL A   1      46.506  26.618  36.179  1.00  0.00     0.006 A 
ENDBRANCH  56  73
ENDBRANCH  30  31
ENDBRANCH  23  25
ENDBRANCH  22  23
ENDBRANCH   1  22
TORSDOF 12
ENDMDL
MODEL 2
REMARK VINA RESULT:     -12.0      0.052      1.391
REMARK SMILES Cc1cc(Cl)cc2c1O[C@H](C(F)(F)F)C(C(=O)OCCOC(=O)c1ccc(-c3c4nc(c(-c5c(F)cccc5F)c5ccc([nH]5)c(-c5c(F)cccc5F)c5nc(c(-c6c(F)cccc6F)c6ccc3[nH]6)C=C5)C=C4)cc1)=C2
REMARK SMILES IDX 20 1 19 2 18 3 16 4 17 5 15 6 1 7 2 8 3 9 8 10 4 11 7 12
REMARK SMILES IDX 9 13 5 14 6 15 78 16 10 17 11 18 12 19 13 20 14 21 21 22
REMARK SMILES IDX 22 23 23 24 24 25 25 26 77 27 26 28 76 29 27 30 28 31 29 32
REMARK SMILES IDX 70 33 30 34 75 35 69 36 71 37 31 38 74 39 68 40 67 41 32 43
REMARK SMILES IDX 58 44 41 45 57 46 42 47 45 48 56 49 72 50 43 51 44 52 55 54
REMARK SMILES IDX 73 55 46 56 33 57 34 58 39 59 35 60 36 61 38 62 40 63 37 64
REMARK SMILES IDX 59 65 60 66 65 67 61 68 62 69 64 70 66 71 63 72 47 73 48 74
REMARK SMILES IDX 53 75 49 76 50 77 52 78 54 79 51 80
REMARK H PARENT 71 42 45 53
REMARK Flexibility Score: inf
ROOT
ATOM      1  C   UNL A   1      31.605  30.459  25.768  1.00  0.00     0.275 C 
ENDROOT
BRANCH   1   2
ATOM      2  C   UNL A   1      31.730  29.116  25.045  1.00  0.00     0.275 C 
BRANCH   2   3
ATOM      3  O   UNL A   1      32.537  28.180  25.794  1.00  0.00    -0.459 OA
BRANCH   3   4
ATOM      4  C   UNL A   1      31.849  27.232  26.469  1.00  0.00     0.338 C 
ATOM      5  O   UNL A   1      31.010  27.420  27.336  1.00  0.00    -0.246 OA
BRANCH   4   6
ATOM      6  C   UNL A   1      32.224  25.882  26.008  1.00  0.00     0.087 C 
ATOM      7  C   UNL A   1      32.422  21.328  23.606  1.00  0.00     0.048 C 
ATOM      8  C   UNL A   1      33.401  22.266  24.250  1.00  0.00    -0.007 A 
ATOM      9  C   UNL A   1      34.776  21.989  24.141  1.00  0.00     0.027 A 
ATOM     10  C   UNL A   1      32.988  23.448  24.882  1.00  0.00     0.131 A 
ATOM     11  C   UNL A   1      35.718  22.856  24.689  1.00  0.00     0.042 A 
ATOM     12  C   UNL A   1      33.943  24.316  25.417  1.00  0.00     0.019 A 
ATOM     13  O   UNL A   1      31.643  23.693  24.961  1.00  0.00    -0.475 OA
ATOM     14  Cl  UNL A   1      37.396  22.506  24.550  1.00  0.00    -0.084 Cl
ATOM     15  C   UNL A   1      35.308  24.016  25.333  1.00  0.00     0.032 A 
ATOM     16  C   UNL A   1      33.522  25.563  26.019  1.00  0.00     0.027 C 
ATOM     17  C   UNL A   1      31.173  24.998  25.407  1.00  0.00     0.316 C 
BRANCH  17  18
ATOM     18  C   UNL A   1      30.464  25.695  24.234  1.00  0.00     0.430 C 
ATOM     19  F   UNL A   1      31.339  26.384  23.465  1.00  0.00    -0.167 F 
ATOM     20  F   UNL A   1      29.855  24.800  23.419  1.00  0.00    -0.167 F 
ATOM     21  F   UNL A   1      29.518  26.566  24.656  1.00  0.00    -0.167 F 
ENDBRANCH  17  18
ENDBRANCH   4   6
ENDBRANCH   3   4
ENDBRANCH   2   3
ENDBRANCH   1   2
BRANCH   1  22
ATOM     22  O   UNL A   1      32.368  30.453  26.989  1.00  0.00    -0.458 OA
BRANCH  22  23
ATOM     23  C   UNL A   1      33.046  31.594  27.241  1.00  0.00     0.338 C 
ATOM     24  O   UNL A   1      32.604  32.731  27.266  1.00  0.00    -0.246 OA
BRANCH  23  25
ATOM     25  C   UNL A   1      34.442  31.301  27.593  1.00  0.00     0.060 A 
ATOM     26  C   UNL A   1      34.794  29.977  27.819  1.00  0.00     0.016 A 
ATOM     27  C   UNL A   1      35.317  32.323  27.945  1.00  0.00     0.016 A 
ATOM     28  C   UNL A   1      35.923  29.678  28.572  1.00  0.00     0.010 A 
ATOM     29  C   UNL A   1      36.540  32.005  28.550  1.00  0.00     0.010 A 
ATOM     30  C   UNL A   1      36.832  30.681  28.929  1.00  0.00    -0.014 A 
BRANCH  30  31
ATOM     31  C   UNL A   1      38.061  30.348  29.713  1.00  0.00     0.031 A 
ATOM     32  C   UNL A   1      39.143  29.486  29.110  1.00  0.00     0.074 A 
ATOM     33  C   UNL A   1      38.226  30.834  30.961  1.00  0.00     0.049 A 
ATOM     34  N   UNL A   1      40.165  28.911  29.694  1.00  0.00    -0.248 NA
ATOM     35  C   UNL A   1      39.059  29.220  27.664  1.00  0.00     0.031 C 
ATOM     36  C   UNL A   1      37.303  31.735  31.655  1.00  0.00     0.029 A 
ATOM     37  N   UNL A   1      39.241  30.649  31.871  1.00  0.00    -0.354 N 
ATOM     38  C   UNL A   1      40.807  28.174  28.704  1.00  0.00     0.074 A 
ATOM     39  C   UNL A   1      40.055  28.364  27.484  1.00  0.00     0.031 C 
ATOM     40  C   UNL A   1      37.816  32.068  32.847  1.00  0.00     0.029 A 
ATOM     41  C   UNL A   1      39.039  31.308  33.060  1.00  0.00     0.049 A 
ATOM     42  H   UNL A   1      40.035  30.096  31.687  1.00  0.00     0.167 HD
ATOM     43  C   UNL A   1      41.922  27.410  28.809  1.00  0.00     0.037 A 
ATOM     44  C   UNL A   1      39.719  31.265  34.221  1.00  0.00     0.037 A 
ATOM     45  C   UNL A   1      42.697  27.274  30.015  1.00  0.00     0.049 A 
ATOM     46  C   UNL A   1      40.910  30.360  34.333  1.00  0.00     0.074 A 
ATOM     47  C   UNL A   1      43.843  26.524  30.224  1.00  0.00     0.029 A 
ATOM     48  N   UNL A   1      42.421  27.920  31.211  1.00  0.00    -0.354 N 
ATOM     49  N   UNL A   1      41.456  29.600  33.416  1.00  0.00    -0.248 NA
ATOM     50  C   UNL A   1      41.562  30.285  35.647  1.00  0.00     0.031 C 
ATOM     51  C   UNL A   1      44.233  26.681  31.556  1.00  0.00     0.029 A 
ATOM     52  C   UNL A   1      43.363  27.572  32.165  1.00  0.00     0.049 A 
ATOM     53  H   UNL A   1      41.666  28.534  31.361  1.00  0.00     0.167 HD
ATOM     54  C   UNL A   1      42.525  28.968  34.035  1.00  0.00     0.074 A 
ATOM     55  C   UNL A   1      42.562  29.449  35.401  1.00  0.00     0.031 C 
ATOM     56  C   UNL A   1      43.392  28.063  33.519  1.00  0.00     0.037 A 
BRANCH  43  57
ATOM     57  C   UNL A   1      42.368  26.639  27.598  1.00  0.00     0.057 A 
ATOM     58  C   UNL A   1      41.931  25.334  27.340  1.00  0.00     0.134 A 
ATOM     59  C   UNL A   1      43.190  27.245  26.635  1.00  0.00     0.134 A 
ATOM     60  F   UNL A   1      41.153  24.691  28.222  1.00  0.00    -0.206 F 
ATOM     61  C   UNL A   1      42.306  24.655  26.177  1.00  0.00     0.040 A 
ATOM     62  C   UNL A   1      43.546  26.586  25.457  1.00  0.00     0.040 A 
ATOM     63  F   UNL A   1      43.639  28.497  26.813  1.00  0.00    -0.206 F 
ATOM     64  C   UNL A   1      43.107  25.286  25.226  1.00  0.00     0.006 A 
ENDBRANCH  43  57
BRANCH  44  65
ATOM     65  C   UNL A   1      39.255  32.073  35.380  1.00  0.00     0.057 A 
ATOM     66  C   UNL A   1      38.408  31.524  36.347  1.00  0.00     0.134 A 
ATOM     67  C   UNL A   1      39.669  33.399  35.564  1.00  0.00     0.134 A 
ATOM     68  F   UNL A   1      37.955  30.268  36.216  1.00  0.00    -0.206 F 
ATOM     69  C   UNL A   1      37.990  32.263  37.457  1.00  0.00     0.040 A 
ATOM     70  C   UNL A   1      39.287  34.137  36.684  1.00  0.00     0.040 A 
ATOM     71  F   UNL A   1      40.484  33.985  34.674  1.00  0.00    -0.206 F 
ATOM     72  C   UNL A   1      38.440  33.570  37.633  1.00  0.00     0.006 A 
ENDBRANCH  44  65
BRANCH  56  73
ATOM     73  C   UNL A   1      44.475  27.557  34.425  1.00  0.00     0.057 A 
ATOM     74  C   UNL A   1      44.320  26.386  35.177  1.00  0.00     0.134 A 
ATOM     75  C   UNL A   1      45.704  28.222  34.506  1.00  0.00     0.134 A 
ATOM     76  F   UNL A   1      43.162  25.711  35.153  1.00  0.00    -0.206 F 
ATOM     77  C   UNL A   1      45.344  25.906  35.993  1.00  0.00     0.040 A 
ATOM     78  C   UNL A   1      46.746  27.736  35.296  1.00  0.00     0.040 A 
ATOM     79  F   UNL A   1      45.920  29.345  33.804  1.00  0.00    -0.206 F 
ATOM     80  C   UNL A   1      46.566  26.577  36.047  1.00  0.00     0.006 A 
ENDBRANCH  56  73
ENDBRANCH  30  31
ENDBRANCH  23  25
ENDBRANCH  22  23
ENDBRANCH   1  22
TORSDOF 12
ENDMDL
MODEL 3
REMARK VINA RESULT:     -12.0      4.045      8.762
REMARK SMILES Cc1cc(Cl)cc2c1O[C@H](C(F)(F)F)C(C(=O)OCCOC(=O)c1ccc(-c3c4nc(c(-c5c(F)cccc5F)c5ccc([nH]5)c(-c5c(F)cccc5F)c5nc(c(-c6c(F)cccc6F)c6ccc3[nH]6)C=C5)C=C4)cc1)=C2
REMARK SMILES IDX 20 1 19 2 18 3 16 4 17 5 15 6 1 7 2 8 3 9 8 10 4 11 7 12
REMARK SMILES IDX 9 13 5 14 6 15 78 16 10 17 11 18 12 19 13 20 14 21 21 22
REMARK SMILES IDX 22 23 23 24 24 25 25 26 77 27 26 28 76 29 27 30 28 31 29 32
REMARK SMILES IDX 70 33 30 34 75 35 69 36 71 37 31 38 74 39 68 40 67 41 32 43
REMARK SMILES IDX 58 44 41 45 57 46 42 47 45 48 56 49 72 50 43 51 44 52 55 54
REMARK SMILES IDX 73 55 46 56 33 57 34 58 39 59 35 60 36 61 38 62 40 63 37 64
REMARK SMILES IDX 59 65 60 66 65 67 61 68 62 69 64 70 66 71 63 72 47 73 48 74
REMARK SMILES IDX 53 75 49 76 50 77 52 78 54 79 51 80
REMARK H PARENT 71 42 45 53
REMARK Flexibility Score: inf
ROOT
ATOM      1  C   UNL A   1      36.497  20.471  25.011  1.00  0.00     0.275 C 
ENDROOT
BRANCH   1   2
ATOM      2  C   UNL A   1      35.167  21.199  24.808  1.00  0.00     0.275 C 
BRANCH   2   3
ATOM      3  O   UNL A   1      35.339  22.633  24.812  1.00  0.00    -0.459 OA
BRANCH   3   4
ATOM      4  C   UNL A   1      35.129  23.246  23.624  1.00  0.00     0.338 C 
ATOM      5  O   UNL A   1      35.644  22.956  22.556  1.00  0.00    -0.246 OA
BRANCH   4   6
ATOM      6  C   UNL A   1      34.150  24.340  23.763  1.00  0.00     0.087 C 
ATOM      7  C   UNL A   1      29.849  27.174  23.874  1.00  0.00     0.048 C 
ATOM      8  C   UNL A   1      31.186  27.191  24.557  1.00  0.00    -0.007 A 
ATOM      9  C   UNL A   1      31.402  28.114  25.597  1.00  0.00     0.027 A 
ATOM     10  C   UNL A   1      32.189  26.263  24.243  1.00  0.00     0.131 A 
ATOM     11  C   UNL A   1      32.614  28.134  26.283  1.00  0.00     0.042 A 
ATOM     12  C   UNL A   1      33.395  26.285  24.947  1.00  0.00     0.019 A 
ATOM     13  O   UNL A   1      31.941  25.372  23.233  1.00  0.00    -0.475 OA
ATOM     14  Cl  UNL A   1      32.868  29.266  27.552  1.00  0.00    -0.084 Cl
ATOM     15  C   UNL A   1      33.616  27.227  25.959  1.00  0.00     0.032 A 
ATOM     16  C   UNL A   1      34.410  25.292  24.664  1.00  0.00     0.027 C 
ATOM     17  C   UNL A   1      32.853  24.256  23.017  1.00  0.00     0.316 C 
BRANCH  17  18
ATOM     18  C   UNL A   1      32.113  22.946  23.331  1.00  0.00     0.430 C 
ATOM     19  F   UNL A   1      32.206  22.628  24.644  1.00  0.00    -0.167 F 
ATOM     20  F   UNL A   1      30.790  23.042  23.051  1.00  0.00    -0.167 F 
ATOM     21  F   UNL A   1      32.602  21.902  22.623  1.00  0.00    -0.167 F 
ENDBRANCH  17  18
ENDBRANCH   4   6
ENDBRANCH   3   4
ENDBRANCH   2   3
ENDBRANCH   1   2
BRANCH   1  22
ATOM     22  O   UNL A   1      37.598  21.398  24.967  1.00  0.00    -0.458 OA
BRANCH  22  23
ATOM     23  C   UNL A   1      38.666  21.048  25.716  1.00  0.00     0.338 C 
ATOM     24  O   UNL A   1      39.227  19.965  25.751  1.00  0.00    -0.246 OA
BRANCH  23  25
ATOM     25  C   UNL A   1      39.175  22.205  26.467  1.00  0.00     0.060 A 
ATOM     26  C   UNL A   1      38.648  23.456  26.173  1.00  0.00     0.016 A 
ATOM     27  C   UNL A   1      40.318  22.098  27.252  1.00  0.00     0.016 A 
ATOM     28  C   UNL A   1      39.367  24.602  26.490  1.00  0.00     0.010 A 
ATOM     29  C   UNL A   1      40.943  23.261  27.718  1.00  0.00     0.010 A 
ATOM     30  C   UNL A   1      40.513  24.531  27.291  1.00  0.00    -0.014 A 
BRANCH  30  31
ATOM     31  C   UNL A   1      41.263  25.771  27.655  1.00  0.00     0.031 A 
ATOM     32  C   UNL A   1      40.613  26.840  28.500  1.00  0.00     0.074 A 
ATOM     33  C   UNL A   1      42.540  25.940  27.250  1.00  0.00     0.049 A 
ATOM     34  N   UNL A   1      41.011  28.065  28.735  1.00  0.00    -0.248 NA
ATOM     35  C   UNL A   1      39.340  26.493  29.155  1.00  0.00     0.031 C 
ATOM     36  C   UNL A   1      43.327  24.969  26.486  1.00  0.00     0.029 A 
ATOM     37  N   UNL A   1      43.411  26.988  27.434  1.00  0.00    -0.354 N 
ATOM     38  C   UNL A   1      40.015  28.649  29.511  1.00  0.00     0.074 A 
ATOM     39  C   UNL A   1      38.988  27.649  29.700  1.00  0.00     0.031 C 
ATOM     40  C   UNL A   1      44.572  25.437  26.320  1.00  0.00     0.029 A 
ATOM     41  C   UNL A   1      44.639  26.791  26.848  1.00  0.00     0.049 A 
ATOM     42  H   UNL A   1      43.176  27.801  27.937  1.00  0.00     0.167 HD
ATOM     43  C   UNL A   1      39.967  29.905  30.019  1.00  0.00     0.037 A 
ATOM     44  C   UNL A   1      45.686  27.621  26.692  1.00  0.00     0.037 A 
ATOM     45  C   UNL A   1      41.021  30.875  29.875  1.00  0.00     0.049 A 
ATOM     46  C   UNL A   1      45.582  29.028  27.202  1.00  0.00     0.074 A 
ATOM     47  C   UNL A   1      41.068  32.175  30.352  1.00  0.00     0.029 A 
ATOM     48  N   UNL A   1      42.225  30.647  29.225  1.00  0.00    -0.354 N 
ATOM     49  N   UNL A   1      44.600  29.596  27.858  1.00  0.00    -0.248 NA
ATOM     50  C   UNL A   1      46.718  29.917  26.927  1.00  0.00     0.031 C 
ATOM     51  C   UNL A   1      42.279  32.745  29.952  1.00  0.00     0.029 A 
ATOM     52  C   UNL A   1      43.013  31.785  29.273  1.00  0.00     0.049 A 
ATOM     53  H   UNL A   1      42.482  29.800  28.792  1.00  0.00     0.167 HD
ATOM     54  C   UNL A   1      45.004  30.903  28.088  1.00  0.00     0.074 A 
ATOM     55  C   UNL A   1      46.330  31.038  27.519  1.00  0.00     0.031 C 
ATOM     56  C   UNL A   1      44.332  31.903  28.708  1.00  0.00     0.037 A 
BRANCH  43  57
ATOM     57  C   UNL A   1      38.727  30.321  30.761  1.00  0.00     0.057 A 
ATOM     58  C   UNL A   1      37.637  30.922  30.118  1.00  0.00     0.134 A 
ATOM     59  C   UNL A   1      38.595  30.047  32.130  1.00  0.00     0.134 A 
ATOM     60  F   UNL A   1      37.699  31.223  28.813  1.00  0.00    -0.206 F 
ATOM     61  C   UNL A   1      36.467  31.245  30.812  1.00  0.00     0.040 A 
ATOM     62  C   UNL A   1      37.420  30.339  32.827  1.00  0.00     0.040 A 
ATOM     63  F   UNL A   1      39.596  29.466  32.808  1.00  0.00    -0.206 F 
ATOM     64  C   UNL A   1      36.353  30.942  32.168  1.00  0.00     0.006 A 
ENDBRANCH  43  57
BRANCH  44  65
ATOM     65  C   UNL A   1      46.903  27.150  25.978  1.00  0.00     0.057 A 
ATOM     66  C   UNL A   1      47.030  27.301  24.594  1.00  0.00     0.134 A 
ATOM     67  C   UNL A   1      47.976  26.566  26.664  1.00  0.00     0.134 A 
ATOM     68  F   UNL A   1      46.029  27.830  23.876  1.00  0.00    -0.206 F 
ATOM     69  C   UNL A   1      48.181  26.890  23.917  1.00  0.00     0.040 A 
ATOM     70  C   UNL A   1      49.145  26.182  26.006  1.00  0.00     0.040 A 
ATOM     71  F   UNL A   1      47.919  26.394  27.994  1.00  0.00    -0.206 F 
ATOM     72  C   UNL A   1      49.248  26.339  24.626  1.00  0.00     0.006 A 
ENDBRANCH  44  65
BRANCH  56  73
ATOM     73  C   UNL A   1      45.031  33.225  28.833  1.00  0.00     0.057 A 
ATOM     74  C   UNL A   1      44.877  34.233  27.875  1.00  0.00     0.134 A 
ATOM     75  C   UNL A   1      45.827  33.506  29.950  1.00  0.00     0.134 A 
ATOM     76  F   UNL A   1      44.140  34.021  26.775  1.00  0.00    -0.206 F 
ATOM     77  C   UNL A   1      45.507  35.471  28.014  1.00  0.00     0.040 A 
ATOM     78  C   UNL A   1      46.438  34.750  30.115  1.00  0.00     0.040 A 
ATOM     79  F   UNL A   1      46.008  32.586  30.909  1.00  0.00    -0.206 F 
ATOM     80  C   UNL A   1      46.283  35.735  29.143  1.00  0.00     0.006 A 
ENDBRANCH  56  73
ENDBRANCH  30  31
ENDBRANCH  23  25
ENDBRANCH  22  23
ENDBRANCH   1  22
TORSDOF 12
ENDMDL
