MODEL 1
REMARK VINA RESULT:      -9.1      0.000      0.000
REMARK SMILES CC(C)[C@H](NC(=O)[C@H](C)NC(=O)C[NH3+])C(=O)OCCOC(=O)c1ccc(-c2c3nc(c(-c4c(F)cccc4F)c4ccc([nH]4)c(-c4c(F)cccc4F)c4nc(c(-c5c(F)cccc5F)c5ccc2[nH]5)C=C4)C=C3)cc1
REMARK SMILES IDX 17 1 15 2 16 3 4 4 2 5 1 6 3 7 5 8 6 9 7 11 8 12 9 13 10 14
REMARK SMILES IDX 11 15 12 17 13 18 14 19 18 23 19 24 20 25 21 26 22 27 23 28
REMARK SMILES IDX 24 29 76 30 25 31 75 32 26 33 27 34 28 35 69 36 29 37 74 38
REMARK SMILES IDX 68 39 70 40 30 41 73 42 67 43 66 44 31 46 57 47 40 48 56 49
REMARK SMILES IDX 41 50 44 51 55 52 71 53 42 54 43 55 54 57 72 58 45 59 32 60
REMARK SMILES IDX 33 61 38 62 34 63 35 64 37 65 39 66 36 67 58 68 59 69 64 70
REMARK SMILES IDX 60 71 61 72 63 73 65 74 62 75 46 76 47 77 52 78 48 79 49 80
REMARK SMILES IDX 51 81 53 82 50 83
REMARK H PARENT 5 10 10 16 14 20 14 21 14 22 70 45 44 56
REMARK Flexibility Score: inf
ROOT
ATOM      1  O   UNL A   1      40.622  21.377  27.289  1.00  0.00    -0.461 OA
ENDROOT
BRANCH   1   2
ATOM      2  C   UNL A   1      41.918  20.952  27.322  1.00  0.00     0.329 C 
ATOM      3  O   UNL A   1      42.271  19.814  27.608  1.00  0.00    -0.250 OA
BRANCH   2   4
ATOM      4  C   UNL A   1      42.916  22.080  26.993  1.00  0.00     0.194 C 
BRANCH   4   5
ATOM      5  C   UNL A   1      42.629  23.350  27.829  1.00  0.00     0.017 C 
ATOM      6  C   UNL A   1      42.813  23.135  29.333  1.00  0.00     0.010 C 
ATOM      7  C   UNL A   1      43.465  24.542  27.352  1.00  0.00     0.010 C 
ENDBRANCH   4   5
BRANCH   4   8
ATOM      8  N   UNL A   1      42.955  22.406  25.561  1.00  0.00    -0.341 N 
ATOM      9  C   UNL A   1      43.967  22.262  24.655  1.00  0.00     0.243 C 
ATOM     10  H   UNL A   1      42.123  22.786  25.198  1.00  0.00     0.164 HD
ATOM     11  O   UNL A   1      43.761  22.634  23.495  1.00  0.00    -0.273 OA
BRANCH   9  12
ATOM     12  C   UNL A   1      45.338  21.696  25.084  1.00  0.00     0.168 C 
ATOM     13  C   UNL A   1      46.384  22.805  25.076  1.00  0.00     0.041 C 
BRANCH  12  14
ATOM     14  N   UNL A   1      45.721  20.661  24.123  1.00  0.00    -0.340 N 
ATOM     15  C   UNL A   1      45.324  19.357  24.067  1.00  0.00     0.275 C 
ATOM     16  H   UNL A   1      46.352  20.944  23.423  1.00  0.00     0.164 HD
ATOM     17  O   UNL A   1      45.835  18.608  23.235  1.00  0.00    -0.268 OA
BRANCH  15  18
ATOM     18  C   UNL A   1      44.189  18.877  24.971  1.00  0.00     0.360 C 
BRANCH  18  19
ATOM     19  N   UNL A   1      44.669  18.238  26.205  1.00  0.00    -0.350 N 
ATOM     20  H   UNL A   1      45.257  17.439  25.968  1.00  0.00     0.344 HD
ATOM     21  H   UNL A   1      43.871  17.921  26.756  1.00  0.00     0.344 HD
ATOM     22  H   UNL A   1      45.210  18.910  26.748  1.00  0.00     0.344 HD
ENDBRANCH  18  19
ENDBRANCH  15  18
ENDBRANCH  12  14
ENDBRANCH   9  12
ENDBRANCH   4   8
ENDBRANCH   2   4
ENDBRANCH   1   2
BRANCH   1  23
ATOM     23  C   UNL A   1      39.742  20.624  26.430  1.00  0.00     0.274 C 
BRANCH  23  24
ATOM     24  C   UNL A   1      38.736  21.548  25.749  1.00  0.00     0.275 C 
BRANCH  24  25
ATOM     25  O   UNL A   1      39.299  22.865  25.604  1.00  0.00    -0.458 OA
BRANCH  25  26
ATOM     26  C   UNL A   1      38.533  23.875  26.073  1.00  0.00     0.338 C 
ATOM     27  O   UNL A   1      37.346  24.071  25.857  1.00  0.00    -0.246 OA
BRANCH  26  28
ATOM     28  C   UNL A   1      39.322  24.758  26.946  1.00  0.00     0.060 A 
ATOM     29  C   UNL A   1      39.196  24.660  28.328  1.00  0.00     0.016 A 
ATOM     30  C   UNL A   1      40.040  25.813  26.381  1.00  0.00     0.016 A 
ATOM     31  C   UNL A   1      39.688  25.685  29.137  1.00  0.00     0.010 A 
ATOM     32  C   UNL A   1      40.597  26.800  27.205  1.00  0.00     0.010 A 
ATOM     33  C   UNL A   1      40.361  26.792  28.589  1.00  0.00    -0.014 A 
BRANCH  33  34
ATOM     34  C   UNL A   1      40.682  27.980  29.444  1.00  0.00     0.031 A 
ATOM     35  C   UNL A   1      39.652  29.066  29.678  1.00  0.00     0.074 A 
ATOM     36  C   UNL A   1      41.854  28.059  30.108  1.00  0.00     0.049 A 
ATOM     37  N   UNL A   1      39.779  30.201  30.321  1.00  0.00    -0.248 NA
ATOM     38  C   UNL A   1      38.306  28.852  29.120  1.00  0.00     0.031 C 
ATOM     39  C   UNL A   1      42.942  27.085  30.034  1.00  0.00     0.029 A 
ATOM     40  N   UNL A   1      42.305  28.988  31.016  1.00  0.00    -0.354 N 
ATOM     41  C   UNL A   1      38.563  30.862  30.182  1.00  0.00     0.074 A 
ATOM     42  C   UNL A   1      37.700  29.994  29.412  1.00  0.00     0.031 C 
ATOM     43  C   UNL A   1      43.888  27.413  30.925  1.00  0.00     0.029 A 
ATOM     44  C   UNL A   1      43.519  28.667  31.575  1.00  0.00     0.049 A 
ATOM     45  H   UNL A   1      41.807  29.805  31.245  1.00  0.00     0.167 HD
ATOM     46  C   UNL A   1      38.190  32.079  30.647  1.00  0.00     0.037 A 
ATOM     47  C   UNL A   1      44.264  29.310  32.495  1.00  0.00     0.037 A 
ATOM     48  C   UNL A   1      38.996  32.922  31.491  1.00  0.00     0.049 A 
ATOM     49  C   UNL A   1      43.817  30.638  33.032  1.00  0.00     0.074 A 
ATOM     50  C   UNL A   1      38.702  34.181  31.989  1.00  0.00     0.029 A 
ATOM     51  N   UNL A   1      40.234  32.573  32.000  1.00  0.00    -0.354 N 
ATOM     52  N   UNL A   1      42.715  31.299  32.783  1.00  0.00    -0.248 NA
ATOM     53  C   UNL A   1      44.735  31.323  33.954  1.00  0.00     0.031 C 
ATOM     54  C   UNL A   1      39.767  34.595  32.797  1.00  0.00     0.029 A 
ATOM     55  C   UNL A   1      40.712  33.584  32.817  1.00  0.00     0.049 A 
ATOM     56  H   UNL A   1      40.706  31.730  31.809  1.00  0.00     0.167 HD
ATOM     57  C   UNL A   1      42.817  32.485  33.499  1.00  0.00     0.074 A 
ATOM     58  C   UNL A   1      44.067  32.434  34.227  1.00  0.00     0.031 C 
ATOM     59  C   UNL A   1      41.959  33.532  33.529  1.00  0.00     0.037 A 
BRANCH  46  60
ATOM     60  C   UNL A   1      36.847  32.598  30.232  1.00  0.00     0.057 A 
ATOM     61  C   UNL A   1      35.691  32.345  30.979  1.00  0.00     0.134 A 
ATOM     62  C   UNL A   1      36.723  33.409  29.097  1.00  0.00     0.134 A 
ATOM     63  F   UNL A   1      35.747  31.571  32.074  1.00  0.00    -0.206 F 
ATOM     64  C   UNL A   1      34.454  32.869  30.602  1.00  0.00     0.040 A 
ATOM     65  C   UNL A   1      35.495  33.955  28.721  1.00  0.00     0.040 A 
ATOM     66  F   UNL A   1      37.797  33.696  28.345  1.00  0.00    -0.206 F 
ATOM     67  C   UNL A   1      34.355  33.683  29.473  1.00  0.00     0.006 A 
ENDBRANCH  46  60
BRANCH  47  68
ATOM     68  C   UNL A   1      45.538  28.709  32.963  1.00  0.00     0.057 A 
ATOM     69  C   UNL A   1      46.740  28.975  32.297  1.00  0.00     0.134 A 
ATOM     70  C   UNL A   1      45.583  27.860  34.073  1.00  0.00     0.134 A 
ATOM     71  F   UNL A   1      46.751  29.762  31.212  1.00  0.00    -0.206 F 
ATOM     72  C   UNL A   1      47.945  28.412  32.719  1.00  0.00     0.040 A 
ATOM     73  C   UNL A   1      46.784  27.308  34.519  1.00  0.00     0.040 A 
ATOM     74  F   UNL A   1      44.462  27.569  34.748  1.00  0.00    -0.206 F 
ATOM     75  C   UNL A   1      47.969  27.581  33.838  1.00  0.00     0.006 A 
ENDBRANCH  47  68
BRANCH  59  76
ATOM     76  C   UNL A   1      42.351  34.710  34.367  1.00  0.00     0.057 A 
ATOM     77  C   UNL A   1      42.079  34.747  35.740  1.00  0.00     0.134 A 
ATOM     78  C   UNL A   1      43.019  35.805  33.805  1.00  0.00     0.134 A 
ATOM     79  F   UNL A   1      41.431  33.733  36.332  1.00  0.00    -0.206 F 
ATOM     80  C   UNL A   1      42.441  35.843  36.525  1.00  0.00     0.040 A 
ATOM     81  C   UNL A   1      43.399  36.900  34.583  1.00  0.00     0.040 A 
ATOM     82  F   UNL A   1      43.310  35.826  32.497  1.00  0.00    -0.206 F 
ATOM     83  C   UNL A   1      43.105  36.923  35.945  1.00  0.00     0.006 A 
ENDBRANCH  59  76
ENDBRANCH  33  34
ENDBRANCH  26  28
ENDBRANCH  25  26
ENDBRANCH  24  25
ENDBRANCH  23  24
ENDBRANCH   1  23
TORSDOF 17
ENDMDL
MODEL 2
REMARK VINA RESULT:      -9.0      5.471     10.478
REMARK SMILES CC(C)[C@H](NC(=O)[C@H](C)NC(=O)C[NH3+])C(=O)OCCOC(=O)c1ccc(-c2c3nc(c(-c4c(F)cccc4F)c4ccc([nH]4)c(-c4c(F)cccc4F)c4nc(c(-c5c(F)cccc5F)c5ccc2[nH]5)C=C4)C=C3)cc1
REMARK SMILES IDX 17 1 15 2 16 3 4 4 2 5 1 6 3 7 5 8 6 9 7 11 8 12 9 13 10 14
REMARK SMILES IDX 11 15 12 17 13 18 14 19 18 23 19 24 20 25 21 26 22 27 23 28
REMARK SMILES IDX 24 29 76 30 25 31 75 32 26 33 27 34 28 35 69 36 29 37 74 38
REMARK SMILES IDX 68 39 70 40 30 41 73 42 67 43 66 44 31 46 57 47 40 48 56 49
REMARK SMILES IDX 41 50 44 51 55 52 71 53 42 54 43 55 54 57 72 58 45 59 32 60
REMARK SMILES IDX 33 61 38 62 34 63 35 64 37 65 39 66 36 67 58 68 59 69 64 70
REMARK SMILES IDX 60 71 61 72 63 73 65 74 62 75 46 76 47 77 52 78 48 79 49 80
REMARK SMILES IDX 51 81 53 82 50 83
REMARK H PARENT 5 10 10 16 14 20 14 21 14 22 70 45 44 56
REMARK Flexibility Score: inf
ROOT
ATOM      1  O   UNL A   1      31.662  30.385  26.404  1.00  0.00    -0.461 OA
ENDROOT
BRANCH   1   2
ATOM      2  C   UNL A   1      32.098  29.625  25.359  1.00  0.00     0.329 C 
ATOM      3  O   UNL A   1      33.253  29.599  24.950  1.00  0.00    -0.250 OA
BRANCH   2   4
ATOM      4  C   UNL A   1      30.960  28.815  24.705  1.00  0.00     0.194 C 
BRANCH   4   5
ATOM      5  C   UNL A   1      31.062  27.312  25.055  1.00  0.00     0.017 C 
ATOM      6  C   UNL A   1      31.245  27.053  26.552  1.00  0.00     0.010 C 
ATOM      7  C   UNL A   1      29.865  26.522  24.517  1.00  0.00     0.010 C 
ENDBRANCH   4   5
BRANCH   4   8
ATOM      8  N   UNL A   1      30.895  29.000  23.249  1.00  0.00    -0.341 N 
ATOM      9  C   UNL A   1      29.896  29.514  22.472  1.00  0.00     0.243 C 
ATOM     10  H   UNL A   1      31.696  28.709  22.756  1.00  0.00     0.164 HD
ATOM     11  O   UNL A   1      30.072  29.545  21.250  1.00  0.00    -0.273 OA
BRANCH   9  12
ATOM     12  C   UNL A   1      28.571  29.994  23.104  1.00  0.00     0.168 C 
ATOM     13  C   UNL A   1      27.520  28.894  23.006  1.00  0.00     0.041 C 
BRANCH  12  14
ATOM     14  N   UNL A   1      28.116  31.169  22.361  1.00  0.00    -0.340 N 
ATOM     15  C   UNL A   1      28.413  32.483  22.573  1.00  0.00     0.275 C 
ATOM     16  H   UNL A   1      27.510  30.987  21.606  1.00  0.00     0.164 HD
ATOM     17  O   UNL A   1      27.850  33.345  21.896  1.00  0.00    -0.268 OA
BRANCH  15  18
ATOM     18  C   UNL A   1      29.504  32.855  23.576  1.00  0.00     0.360 C 
BRANCH  18  19
ATOM     19  N   UNL A   1      29.968  34.243  23.434  1.00  0.00    -0.350 N 
ATOM     20  H   UNL A   1      30.322  34.577  24.329  1.00  0.00     0.344 HD
ATOM     21  H   UNL A   1      29.190  34.832  23.135  1.00  0.00     0.344 HD
ATOM     22  H   UNL A   1      30.711  34.283  22.737  1.00  0.00     0.344 HD
ENDBRANCH  18  19
ENDBRANCH  15  18
ENDBRANCH  12  14
ENDBRANCH   9  12
ENDBRANCH   4   8
ENDBRANCH   2   4
ENDBRANCH   1   2
BRANCH   1  23
ATOM     23  C   UNL A   1      30.986  31.607  26.044  1.00  0.00     0.274 C 
BRANCH  23  24
ATOM     24  C   UNL A   1      31.662  32.808  26.700  1.00  0.00     0.275 C 
BRANCH  24  25
ATOM     25  O   UNL A   1      32.682  32.360  27.612  1.00  0.00    -0.458 OA
BRANCH  25  26
ATOM     26  C   UNL A   1      33.657  33.258  27.872  1.00  0.00     0.338 C 
ATOM     27  O   UNL A   1      33.551  34.474  27.941  1.00  0.00    -0.246 OA
BRANCH  26  28
ATOM     28  C   UNL A   1      34.940  32.575  28.102  1.00  0.00     0.060 A 
ATOM     29  C   UNL A   1      34.963  31.203  28.332  1.00  0.00     0.016 A 
ATOM     30  C   UNL A   1      36.097  33.335  28.278  1.00  0.00     0.016 A 
ATOM     31  C   UNL A   1      36.115  30.614  28.856  1.00  0.00     0.010 A 
ATOM     32  C   UNL A   1      37.273  32.723  28.732  1.00  0.00     0.010 A 
ATOM     33  C   UNL A   1      37.276  31.369  29.102  1.00  0.00    -0.014 A 
BRANCH  33  34
ATOM     34  C   UNL A   1      38.418  30.769  29.865  1.00  0.00     0.031 A 
ATOM     35  C   UNL A   1      38.587  31.043  31.346  1.00  0.00     0.074 A 
ATOM     36  C   UNL A   1      39.260  29.893  29.278  1.00  0.00     0.049 A 
ATOM     37  N   UNL A   1      39.557  30.675  32.149  1.00  0.00    -0.248 NA
ATOM     38  C   UNL A   1      37.534  31.826  32.013  1.00  0.00     0.031 C 
ATOM     39  C   UNL A   1      39.218  29.483  27.875  1.00  0.00     0.029 A 
ATOM     40  N   UNL A   1      40.290  29.152  29.808  1.00  0.00    -0.354 N 
ATOM     41  C   UNL A   1      39.268  31.241  33.386  1.00  0.00     0.074 A 
ATOM     42  C   UNL A   1      38.022  31.961  33.238  1.00  0.00     0.031 C 
ATOM     43  C   UNL A   1      40.111  28.502  27.677  1.00  0.00     0.029 A 
ATOM     44  C   UNL A   1      40.850  28.270  28.915  1.00  0.00     0.049 A 
ATOM     45  H   UNL A   1      40.598  29.245  30.738  1.00  0.00     0.167 HD
ATOM     46  C   UNL A   1      39.970  31.176  34.543  1.00  0.00     0.037 A 
ATOM     47  C   UNL A   1      41.853  27.383  29.062  1.00  0.00     0.037 A 
ATOM     48  C   UNL A   1      41.163  30.395  34.742  1.00  0.00     0.049 A 
ATOM     49  C   UNL A   1      42.594  27.294  30.364  1.00  0.00     0.074 A 
ATOM     50  C   UNL A   1      41.949  30.291  35.878  1.00  0.00     0.029 A 
ATOM     51  N   UNL A   1      41.715  29.548  33.798  1.00  0.00    -0.354 N 
ATOM     52  N   UNL A   1      42.376  27.938  31.482  1.00  0.00    -0.248 NA
ATOM     53  C   UNL A   1      43.742  26.376  30.411  1.00  0.00     0.031 C 
ATOM     54  C   UNL A   1      42.981  29.383  35.618  1.00  0.00     0.029 A 
ATOM     55  C   UNL A   1      42.823  28.907  34.328  1.00  0.00     0.049 A 
ATOM     56  H   UNL A   1      41.372  29.420  32.884  1.00  0.00     0.167 HD
ATOM     57  C   UNL A   1      43.370  27.520  32.358  1.00  0.00     0.074 A 
ATOM     58  C   UNL A   1      44.165  26.535  31.656  1.00  0.00     0.031 C 
ATOM     59  C   UNL A   1      43.614  27.937  33.623  1.00  0.00     0.037 A 
BRANCH  46  60
ATOM     60  C   UNL A   1      39.482  31.999  35.697  1.00  0.00     0.057 A 
ATOM     61  C   UNL A   1      39.945  33.300  35.927  1.00  0.00     0.134 A 
ATOM     62  C   UNL A   1      38.495  31.498  36.556  1.00  0.00     0.134 A 
ATOM     63  F   UNL A   1      40.892  33.832  35.142  1.00  0.00    -0.206 F 
ATOM     64  C   UNL A   1      39.451  34.069  36.982  1.00  0.00     0.040 A 
ATOM     65  C   UNL A   1      37.980  32.264  37.601  1.00  0.00     0.040 A 
ATOM     66  F   UNL A   1      38.006  30.261  36.380  1.00  0.00    -0.206 F 
ATOM     67  C   UNL A   1      38.460  33.554  37.819  1.00  0.00     0.006 A 
ENDBRANCH  46  60
BRANCH  47  68
ATOM     68  C   UNL A   1      42.236  26.508  27.927  1.00  0.00     0.057 A 
ATOM     69  C   UNL A   1      41.606  25.273  27.733  1.00  0.00     0.134 A 
ATOM     70  C   UNL A   1      43.232  26.879  27.019  1.00  0.00     0.134 A 
ATOM     71  F   UNL A   1      40.662  24.855  28.588  1.00  0.00    -0.206 F 
ATOM     72  C   UNL A   1      41.959  24.434  26.675  1.00  0.00     0.040 A 
ATOM     73  C   UNL A   1      43.579  26.061  25.944  1.00  0.00     0.040 A 
ATOM     74  F   UNL A   1      43.869  28.051  27.156  1.00  0.00    -0.206 F 
ATOM     75  C   UNL A   1      42.944  24.833  25.773  1.00  0.00     0.006 A 
ENDBRANCH  47  68
BRANCH  59  76
ATOM     76  C   UNL A   1      44.794  27.335  34.323  1.00  0.00     0.057 A 
ATOM     77  C   UNL A   1      44.674  26.152  35.062  1.00  0.00     0.134 A 
ATOM     78  C   UNL A   1      46.059  27.929  34.244  1.00  0.00     0.134 A 
ATOM     79  F   UNL A   1      43.485  25.544  35.183  1.00  0.00    -0.206 F 
ATOM     80  C   UNL A   1      45.770  25.589  35.717  1.00  0.00     0.040 A 
ATOM     81  C   UNL A   1      47.166  27.367  34.883  1.00  0.00     0.040 A 
ATOM     82  F   UNL A   1      46.237  29.061  33.549  1.00  0.00    -0.206 F 
ATOM     83  C   UNL A   1      47.021  26.196  35.625  1.00  0.00     0.006 A 
ENDBRANCH  59  76
ENDBRANCH  33  34
ENDBRANCH  26  28
ENDBRANCH  25  26
ENDBRANCH  24  25
ENDBRANCH  23  24
ENDBRANCH   1  23
TORSDOF 17
ENDMDL
MODEL 3
REMARK VINA RESULT:      -9.0      0.477      6.411
REMARK SMILES CC(C)[C@H](NC(=O)[C@H](C)NC(=O)C[NH3+])C(=O)OCCOC(=O)c1ccc(-c2c3nc(c(-c4c(F)cccc4F)c4ccc([nH]4)c(-c4c(F)cccc4F)c4nc(c(-c5c(F)cccc5F)c5ccc2[nH]5)C=C4)C=C3)cc1
REMARK SMILES IDX 17 1 15 2 16 3 4 4 2 5 1 6 3 7 5 8 6 9 7 11 8 12 9 13 10 14
REMARK SMILES IDX 11 15 12 17 13 18 14 19 18 23 19 24 20 25 21 26 22 27 23 28
REMARK SMILES IDX 24 29 76 30 25 31 75 32 26 33 27 34 28 35 69 36 29 37 74 38
REMARK SMILES IDX 68 39 70 40 30 41 73 42 67 43 66 44 31 46 57 47 40 48 56 49
REMARK SMILES IDX 41 50 44 51 55 52 71 53 42 54 43 55 54 57 72 58 45 59 32 60
REMARK SMILES IDX 33 61 38 62 34 63 35 64 37 65 39 66 36 67 58 68 59 69 64 70
REMARK SMILES IDX 60 71 61 72 63 73 65 74 62 75 46 76 47 77 52 78 48 79 49 80
REMARK SMILES IDX 51 81 53 82 50 83
REMARK H PARENT 5 10 10 16 14 20 14 21 14 22 70 45 44 56
REMARK Flexibility Score: inf
ROOT
ATOM      1  O   UNL A   1      40.558  21.134  27.431  1.00  0.00    -0.461 OA
ENDROOT
BRANCH   1   2
ATOM      2  C   UNL A   1      41.869  20.760  27.436  1.00  0.00     0.329 C 
ATOM      3  O   UNL A   1      42.268  19.618  27.635  1.00  0.00    -0.250 OA
BRANCH   2   4
ATOM      4  C   UNL A   1      42.822  21.949  27.200  1.00  0.00     0.194 C 
BRANCH   4   5
ATOM      5  C   UNL A   1      42.565  23.090  28.213  1.00  0.00     0.017 C 
ATOM      6  C   UNL A   1      43.112  22.788  29.611  1.00  0.00     0.010 C 
ATOM      7  C   UNL A   1      43.104  24.430  27.706  1.00  0.00     0.010 C 
ENDBRANCH   4   5
BRANCH   4   8
ATOM      8  N   UNL A   1      42.762  22.461  25.824  1.00  0.00    -0.341 N 
ATOM      9  C   UNL A   1      43.665  22.351  24.806  1.00  0.00     0.243 C 
ATOM     10  H   UNL A   1      41.944  22.961  25.602  1.00  0.00     0.164 HD
ATOM     11  O   UNL A   1      43.393  22.895  23.731  1.00  0.00    -0.273 OA
BRANCH   9  12
ATOM     12  C   UNL A   1      45.005  21.611  25.013  1.00  0.00     0.168 C 
ATOM     13  C   UNL A   1      46.166  22.588  24.873  1.00  0.00     0.041 C 
BRANCH  12  14
ATOM     14  N   UNL A   1      45.113  20.576  23.985  1.00  0.00    -0.340 N 
ATOM     15  C   UNL A   1      45.366  19.244  24.135  1.00  0.00     0.275 C 
ATOM     16  H   UNL A   1      44.988  20.883  23.058  1.00  0.00     0.164 HD
ATOM     17  O   UNL A   1      45.518  18.543  23.133  1.00  0.00    -0.268 OA
BRANCH  15  18
ATOM     18  C   UNL A   1      45.363  18.631  25.535  1.00  0.00     0.360 C 
BRANCH  18  19
ATOM     19  N   UNL A   1      46.715  18.391  26.061  1.00  0.00    -0.350 N 
ATOM     20  H   UNL A   1      46.929  19.085  26.777  1.00  0.00     0.344 HD
ATOM     21  H   UNL A   1      47.392  18.464  25.302  1.00  0.00     0.344 HD
ATOM     22  H   UNL A   1      46.760  17.458  26.468  1.00  0.00     0.344 HD
ENDBRANCH  18  19
ENDBRANCH  15  18
ENDBRANCH  12  14
ENDBRANCH   9  12
ENDBRANCH   4   8
ENDBRANCH   2   4
ENDBRANCH   1   2
BRANCH   1  23
ATOM     23  C   UNL A   1      39.738  20.511  26.422  1.00  0.00     0.274 C 
BRANCH  23  24
ATOM     24  C   UNL A   1      38.840  21.543  25.747  1.00  0.00     0.275 C 
BRANCH  24  25
ATOM     25  O   UNL A   1      39.491  22.828  25.734  1.00  0.00    -0.458 OA
BRANCH  25  26
ATOM     26  C   UNL A   1      38.702  23.878  26.051  1.00  0.00     0.338 C 
ATOM     27  O   UNL A   1      37.554  24.085  25.684  1.00  0.00    -0.246 OA
BRANCH  26  28
ATOM     28  C   UNL A   1      39.406  24.796  26.960  1.00  0.00     0.060 A 
ATOM     29  C   UNL A   1      39.292  24.630  28.337  1.00  0.00     0.016 A 
ATOM     30  C   UNL A   1      40.021  25.936  26.439  1.00  0.00     0.016 A 
ATOM     31  C   UNL A   1      39.686  25.663  29.188  1.00  0.00     0.010 A 
ATOM     32  C   UNL A   1      40.483  26.936  27.304  1.00  0.00     0.010 A 
ATOM     33  C   UNL A   1      40.251  26.850  28.686  1.00  0.00    -0.014 A 
BRANCH  33  34
ATOM     34  C   UNL A   1      40.460  28.027  29.590  1.00  0.00     0.031 A 
ATOM     35  C   UNL A   1      41.788  28.239  30.289  1.00  0.00     0.074 A 
ATOM     36  C   UNL A   1      39.512  28.978  29.720  1.00  0.00     0.049 A 
ATOM     37  N   UNL A   1      42.123  29.154  31.166  1.00  0.00    -0.248 NA
ATOM     38  C   UNL A   1      42.880  27.307  29.962  1.00  0.00     0.031 C 
ATOM     39  C   UNL A   1      38.194  28.957  29.087  1.00  0.00     0.029 A 
ATOM     40  N   UNL A   1      39.534  30.175  30.397  1.00  0.00    -0.354 N 
ATOM     41  C   UNL A   1      43.429  28.864  31.546  1.00  0.00     0.074 A 
ATOM     42  C   UNL A   1      43.837  27.700  30.790  1.00  0.00     0.031 C 
ATOM     43  C   UNL A   1      37.573  30.121  29.326  1.00  0.00     0.029 A 
ATOM     44  C   UNL A   1      38.410  30.940  30.200  1.00  0.00     0.049 A 
ATOM     45  H   UNL A   1      40.283  30.457  30.969  1.00  0.00     0.167 HD
ATOM     46  C   UNL A   1      44.223  29.499  32.442  1.00  0.00     0.037 A 
ATOM     47  C   UNL A   1      38.074  32.155  30.675  1.00  0.00     0.037 A 
ATOM     48  C   UNL A   1      43.874  30.709  33.140  1.00  0.00     0.049 A 
ATOM     49  C   UNL A   1      38.984  32.865  31.634  1.00  0.00     0.074 A 
ATOM     50  C   UNL A   1      44.613  31.407  34.083  1.00  0.00     0.029 A 
ATOM     51  N   UNL A   1      42.709  31.427  32.937  1.00  0.00    -0.354 N 
ATOM     52  N   UNL A   1      40.162  32.503  32.074  1.00  0.00    -0.248 NA
ATOM     53  C   UNL A   1      38.499  34.139  32.187  1.00  0.00     0.031 C 
ATOM     54  C   UNL A   1      43.890  32.547  34.453  1.00  0.00     0.029 A 
ATOM     55  C   UNL A   1      42.713  32.567  33.725  1.00  0.00     0.049 A 
ATOM     56  H   UNL A   1      41.984  31.166  32.324  1.00  0.00     0.167 HD
ATOM     57  C   UNL A   1      40.550  33.491  32.970  1.00  0.00     0.074 A 
ATOM     58  C   UNL A   1      39.502  34.490  32.978  1.00  0.00     0.031 C 
ATOM     59  C   UNL A   1      41.665  33.550  33.736  1.00  0.00     0.037 A 
BRANCH  46  60
ATOM     60  C   UNL A   1      45.554  28.883  32.749  1.00  0.00     0.057 A 
ATOM     61  C   UNL A   1      46.718  29.256  32.068  1.00  0.00     0.134 A 
ATOM     62  C   UNL A   1      45.677  27.943  33.781  1.00  0.00     0.134 A 
ATOM     63  F   UNL A   1      46.662  30.148  31.068  1.00  0.00    -0.206 F 
ATOM     64  C   UNL A   1      47.957  28.702  32.393  1.00  0.00     0.040 A 
ATOM     65  C   UNL A   1      46.913  27.397  34.128  1.00  0.00     0.040 A 
ATOM     66  F   UNL A   1      44.598  27.553  34.477  1.00  0.00    -0.206 F 
ATOM     67  C   UNL A   1      48.058  27.775  33.431  1.00  0.00     0.006 A 
ENDBRANCH  46  60
BRANCH  47  68
ATOM     68  C   UNL A   1      36.795  32.781  30.261  1.00  0.00     0.057 A 
ATOM     69  C   UNL A   1      35.632  32.599  31.018  1.00  0.00     0.134 A 
ATOM     70  C   UNL A   1      36.702  33.565  29.106  1.00  0.00     0.134 A 
ATOM     71  F   UNL A   1      35.657  31.837  32.121  1.00  0.00    -0.206 F 
ATOM     72  C   UNL A   1      34.419  33.175  30.639  1.00  0.00     0.040 A 
ATOM     73  C   UNL A   1      35.502  34.165  28.727  1.00  0.00     0.040 A 
ATOM     74  F   UNL A   1      37.784  33.772  28.341  1.00  0.00    -0.206 F 
ATOM     75  C   UNL A   1      34.355  33.966  29.493  1.00  0.00     0.006 A 
ENDBRANCH  47  68
BRANCH  59  76
ATOM     76  C   UNL A   1      41.802  34.728  34.651  1.00  0.00     0.057 A 
ATOM     77  C   UNL A   1      41.330  34.682  35.968  1.00  0.00     0.134 A 
ATOM     78  C   UNL A   1      42.422  35.907  34.222  1.00  0.00     0.134 A 
ATOM     79  F   UNL A   1      40.716  33.583  36.433  1.00  0.00    -0.206 F 
ATOM     80  C   UNL A   1      41.453  35.777  36.824  1.00  0.00     0.040 A 
ATOM     81  C   UNL A   1      42.564  37.004  35.073  1.00  0.00     0.040 A 
ATOM     82  F   UNL A   1      42.896  36.010  32.972  1.00  0.00    -0.206 F 
ATOM     83  C   UNL A   1      42.074  36.942  36.377  1.00  0.00     0.006 A 
ENDBRANCH  59  76
ENDBRANCH  33  34
ENDBRANCH  26  28
ENDBRANCH  25  26
ENDBRANCH  24  25
ENDBRANCH  23  24
ENDBRANCH   1  23
TORSDOF 17
ENDMDL
