MODEL 1
REMARK VINA RESULT:     -10.8      0.000      0.000
REMARK SMILES Cn1ccc(-c2n[nH]c(=O)n2-c2ccc(C(=O)OCCOC(=O)c3ccc(-c4c5nc(c(-c6c(F)cccc6F)c6ccc([nH]6)c(-c6c(F)cccc6F)c6nc(c(-c7c(F)cccc7F)c7ccc4[nH]7)C=C6)C=C5)cc3)cc2)n1
REMARK SMILES IDX 19 1 18 2 16 3 17 4 15 5 12 6 13 7 79 8 14 9 78 10 11 11
REMARK SMILES IDX 6 12 7 13 8 14 9 15 10 17 5 18 1 19 2 20 3 21 80 22 4 23
REMARK SMILES IDX 20 24 21 25 22 26 23 27 24 28 25 29 77 30 26 31 76 32 27 33
REMARK SMILES IDX 28 34 29 35 70 36 30 37 75 38 69 39 71 40 31 41 74 42 68 43
REMARK SMILES IDX 67 44 32 46 58 47 41 48 57 49 42 50 45 51 56 52 72 53 43 54
REMARK SMILES IDX 44 55 55 57 73 58 46 59 33 60 34 61 39 62 35 63 36 64 38 65
REMARK SMILES IDX 40 66 37 67 59 68 60 69 65 70 61 71 62 72 64 73 66 74 63 75
REMARK SMILES IDX 47 76 48 77 53 78 49 79 50 80 52 81 54 82 51 83
REMARK H PARENT 8 16 71 45 45 56
REMARK Flexibility Score: inf
ROOT
ATOM      1  C   UNL A   1      33.151  36.947  30.959  1.00  0.00     0.275 C 
ENDROOT
BRANCH   1   2
ATOM      2  O   UNL A   1      34.412  36.543  31.515  1.00  0.00    -0.458 OA
BRANCH   2   3
ATOM      3  C   UNL A   1      34.494  36.561  32.871  1.00  0.00     0.338 C 
ATOM      4  O   UNL A   1      33.946  37.360  33.619  1.00  0.00    -0.246 OA
BRANCH   3   5
ATOM      5  C   UNL A   1      35.266  35.391  33.355  1.00  0.00     0.060 A 
ATOM      6  C   UNL A   1      36.681  33.093  34.115  1.00  0.00     0.052 A 
ATOM      7  C   UNL A   1      37.150  33.880  33.062  1.00  0.00     0.028 A 
ATOM      8  C   UNL A   1      35.567  33.528  34.850  1.00  0.00     0.028 A 
ATOM      9  C   UNL A   1      36.427  35.011  32.663  1.00  0.00     0.018 A 
ATOM     10  C   UNL A   1      34.866  34.673  34.481  1.00  0.00     0.018 A 
BRANCH   6  11
ATOM     11  N   UNL A   1      37.274  31.855  34.413  1.00  0.00    -0.242 N 
ATOM     12  C   UNL A   1      37.977  31.507  35.531  1.00  0.00     0.189 A 
ATOM     13  N   UNL A   1      38.544  30.331  35.484  1.00  0.00    -0.150 NA
ATOM     14  N   UNL A   1      38.134  29.831  34.276  1.00  0.00    -0.226 N 
ATOM     15  C   UNL A   1      37.309  30.742  33.609  1.00  0.00     0.348 A 
ATOM     16  H   UNL A   1      38.386  28.946  33.924  1.00  0.00     0.195 HD
ATOM     17  O   UNL A   1      36.794  30.548  32.520  1.00  0.00    -0.246 OA
BRANCH  12  18
ATOM     18  C   UNL A   1      38.003  32.323  36.733  1.00  0.00     0.130 A 
ATOM     19  C   UNL A   1      36.930  32.862  40.022  1.00  0.00     0.173 C 
ATOM     20  N   UNL A   1      37.531  32.945  38.712  1.00  0.00    -0.275 N 
ATOM     21  C   UNL A   1      38.386  33.900  38.251  1.00  0.00     0.109 A 
ATOM     22  N   UNL A   1      37.267  31.989  37.810  1.00  0.00    -0.170 NA
ATOM     23  C   UNL A   1      38.741  33.507  36.980  1.00  0.00     0.054 A 
ENDBRANCH  12  18
ENDBRANCH   6  11
ENDBRANCH   3   5
ENDBRANCH   2   3
ENDBRANCH   1   2
BRANCH   1  24
ATOM     24  C   UNL A   1      32.413  35.762  30.353  1.00  0.00     0.275 C 
BRANCH  24  25
ATOM     25  O   UNL A   1      32.643  35.661  28.949  1.00  0.00    -0.458 OA
BRANCH  25  26
ATOM     26  C   UNL A   1      33.055  34.446  28.523  1.00  0.00     0.338 C 
ATOM     27  O   UNL A   1      32.411  33.616  27.905  1.00  0.00    -0.246 OA
BRANCH  26  28
ATOM     28  C   UNL A   1      34.360  34.152  29.119  1.00  0.00     0.060 A 
ATOM     29  C   UNL A   1      35.485  34.804  28.598  1.00  0.00     0.016 A 
ATOM     30  C   UNL A   1      34.472  33.040  29.961  1.00  0.00     0.016 A 
ATOM     31  C   UNL A   1      36.731  34.249  28.809  1.00  0.00     0.010 A 
ATOM     32  C   UNL A   1      35.708  32.476  30.151  1.00  0.00     0.010 A 
ATOM     33  C   UNL A   1      36.814  33.050  29.520  1.00  0.00    -0.014 A 
BRANCH  33  34
ATOM     34  C   UNL A   1      38.102  32.399  29.668  1.00  0.00     0.031 A 
ATOM     35  C   UNL A   1      38.135  30.985  29.206  1.00  0.00     0.074 A 
ATOM     36  C   UNL A   1      39.196  33.132  29.952  1.00  0.00     0.049 A 
ATOM     37  N   UNL A   1      38.624  29.950  29.803  1.00  0.00    -0.248 NA
ATOM     38  C   UNL A   1      37.455  30.675  27.933  1.00  0.00     0.031 C 
ATOM     39  C   UNL A   1      39.274  34.593  30.088  1.00  0.00     0.029 A 
ATOM     40  N   UNL A   1      40.501  32.751  30.020  1.00  0.00    -0.354 N 
ATOM     41  C   UNL A   1      38.481  28.895  28.904  1.00  0.00     0.074 A 
ATOM     42  C   UNL A   1      37.625  29.358  27.848  1.00  0.00     0.031 C 
ATOM     43  C   UNL A   1      40.562  34.980  29.976  1.00  0.00     0.029 A 
ATOM     44  C   UNL A   1      41.400  33.797  29.870  1.00  0.00     0.049 A 
ATOM     45  H   UNL A   1      40.781  31.818  30.162  1.00  0.00     0.167 HD
ATOM     46  C   UNL A   1      39.285  27.801  28.959  1.00  0.00     0.037 A 
ATOM     47  C   UNL A   1      42.718  33.696  29.575  1.00  0.00     0.037 A 
ATOM     48  C   UNL A   1      39.845  27.628  30.272  1.00  0.00     0.049 A 
ATOM     49  C   UNL A   1      43.131  32.292  29.820  1.00  0.00     0.074 A 
ATOM     50  C   UNL A   1      39.317  27.469  31.539  1.00  0.00     0.029 A 
ATOM     51  N   UNL A   1      41.170  27.935  30.459  1.00  0.00    -0.354 N 
ATOM     52  N   UNL A   1      43.220  31.741  30.998  1.00  0.00    -0.248 NA
ATOM     53  C   UNL A   1      43.050  31.361  28.703  1.00  0.00     0.031 C 
ATOM     54  C   UNL A   1      40.217  28.154  32.406  1.00  0.00     0.029 A 
ATOM     55  C   UNL A   1      41.256  28.654  31.622  1.00  0.00     0.049 A 
ATOM     56  H   UNL A   1      41.916  27.685  29.869  1.00  0.00     0.167 HD
ATOM     57  C   UNL A   1      42.784  30.438  30.814  1.00  0.00     0.074 A 
ATOM     58  C   UNL A   1      42.800  30.231  29.369  1.00  0.00     0.031 C 
ATOM     59  C   UNL A   1      42.177  29.747  31.823  1.00  0.00     0.037 A 
BRANCH  46  60
ATOM     60  C   UNL A   1      39.864  27.140  27.730  1.00  0.00     0.057 A 
ATOM     61  C   UNL A   1      39.826  25.738  27.630  1.00  0.00     0.134 A 
ATOM     62  C   UNL A   1      40.720  27.780  26.807  1.00  0.00     0.134 A 
ATOM     63  F   UNL A   1      39.056  25.010  28.452  1.00  0.00    -0.206 F 
ATOM     64  C   UNL A   1      40.653  25.025  26.752  1.00  0.00     0.040 A 
ATOM     65  C   UNL A   1      41.506  27.080  25.890  1.00  0.00     0.040 A 
ATOM     66  F   UNL A   1      40.921  29.102  26.802  1.00  0.00    -0.206 F 
ATOM     67  C   UNL A   1      41.506  25.696  25.887  1.00  0.00     0.006 A 
ENDBRANCH  46  60
BRANCH  47  68
ATOM     68  C   UNL A   1      43.570  34.649  28.824  1.00  0.00     0.057 A 
ATOM     69  C   UNL A   1      43.642  34.607  27.425  1.00  0.00     0.134 A 
ATOM     70  C   UNL A   1      44.147  35.776  29.438  1.00  0.00     0.134 A 
ATOM     71  F   UNL A   1      43.081  33.600  26.744  1.00  0.00    -0.206 F 
ATOM     72  C   UNL A   1      44.245  35.631  26.679  1.00  0.00     0.040 A 
ATOM     73  C   UNL A   1      44.765  36.796  28.706  1.00  0.00     0.040 A 
ATOM     74  F   UNL A   1      44.059  35.969  30.761  1.00  0.00    -0.206 F 
ATOM     75  C   UNL A   1      44.805  36.732  27.320  1.00  0.00     0.006 A 
ENDBRANCH  47  68
BRANCH  59  76
ATOM     76  C   UNL A   1      42.243  30.325  33.208  1.00  0.00     0.057 A 
ATOM     77  C   UNL A   1      43.254  30.021  34.132  1.00  0.00     0.134 A 
ATOM     78  C   UNL A   1      41.346  31.338  33.560  1.00  0.00     0.134 A 
ATOM     79  F   UNL A   1      44.221  29.144  33.840  1.00  0.00    -0.206 F 
ATOM     80  C   UNL A   1      43.337  30.664  35.370  1.00  0.00     0.040 A 
ATOM     81  C   UNL A   1      41.439  32.012  34.780  1.00  0.00     0.040 A 
ATOM     82  F   UNL A   1      40.389  31.724  32.700  1.00  0.00    -0.206 F 
ATOM     83  C   UNL A   1      42.431  31.668  35.695  1.00  0.00     0.006 A 
ENDBRANCH  59  76
ENDBRANCH  33  34
ENDBRANCH  26  28
ENDBRANCH  25  26
ENDBRANCH  24  25
ENDBRANCH   1  24
TORSDOF 13
ENDMDL
MODEL 2
REMARK VINA RESULT:     -10.6      5.759     10.897
REMARK SMILES Cn1ccc(-c2n[nH]c(=O)n2-c2ccc(C(=O)OCCOC(=O)c3ccc(-c4c5nc(c(-c6c(F)cccc6F)c6ccc([nH]6)c(-c6c(F)cccc6F)c6nc(c(-c7c(F)cccc7F)c7ccc4[nH]7)C=C6)C=C5)cc3)cc2)n1
REMARK SMILES IDX 19 1 18 2 16 3 17 4 15 5 12 6 13 7 79 8 14 9 78 10 11 11
REMARK SMILES IDX 6 12 7 13 8 14 9 15 10 17 5 18 1 19 2 20 3 21 80 22 4 23
REMARK SMILES IDX 20 24 21 25 22 26 23 27 24 28 25 29 77 30 26 31 76 32 27 33
REMARK SMILES IDX 28 34 29 35 70 36 30 37 75 38 69 39 71 40 31 41 74 42 68 43
REMARK SMILES IDX 67 44 32 46 58 47 41 48 57 49 42 50 45 51 56 52 72 53 43 54
REMARK SMILES IDX 44 55 55 57 73 58 46 59 33 60 34 61 39 62 35 63 36 64 38 65
REMARK SMILES IDX 40 66 37 67 59 68 60 69 65 70 61 71 62 72 64 73 66 74 63 75
REMARK SMILES IDX 47 76 48 77 53 78 49 79 50 80 52 81 54 82 51 83
REMARK H PARENT 8 16 71 45 45 56
REMARK Flexibility Score: inf
ROOT
ATOM      1  C   UNL A   1      33.798  30.501  27.422  1.00  0.00     0.275 C 
ENDROOT
BRANCH   1   2
ATOM      2  O   UNL A   1      32.736  29.564  27.183  1.00  0.00    -0.458 OA
BRANCH   2   3
ATOM      3  C   UNL A   1      32.056  29.724  26.018  1.00  0.00     0.338 C 
ATOM      4  O   UNL A   1      31.440  30.723  25.672  1.00  0.00    -0.246 OA
BRANCH   3   5
ATOM      5  C   UNL A   1      32.247  28.542  25.144  1.00  0.00     0.060 A 
ATOM      6  C   UNL A   1      32.515  26.209  23.612  1.00  0.00     0.052 A 
ATOM      7  C   UNL A   1      31.264  26.818  23.736  1.00  0.00     0.028 A 
ATOM      8  C   UNL A   1      33.640  26.839  24.166  1.00  0.00     0.028 A 
ATOM      9  C   UNL A   1      31.126  27.966  24.526  1.00  0.00     0.018 A 
ATOM     10  C   UNL A   1      33.513  28.002  24.921  1.00  0.00     0.018 A 
BRANCH   6  11
ATOM     11  N   UNL A   1      32.651  24.957  22.989  1.00  0.00    -0.242 N 
ATOM     12  C   UNL A   1      32.614  23.721  23.568  1.00  0.00     0.189 A 
ATOM     13  N   UNL A   1      32.914  22.729  22.774  1.00  0.00    -0.150 NA
ATOM     14  N   UNL A   1      33.097  23.340  21.561  1.00  0.00    -0.226 N 
ATOM     15  C   UNL A   1      32.898  24.720  21.659  1.00  0.00     0.348 A 
ATOM     16  H   UNL A   1      33.337  22.869  20.730  1.00  0.00     0.195 HD
ATOM     17  O   UNL A   1      32.986  25.505  20.728  1.00  0.00    -0.246 OA
BRANCH  12  18
ATOM     18  C   UNL A   1      32.164  23.501  24.932  1.00  0.00     0.130 A 
ATOM     19  C   UNL A   1      29.539  22.898  27.169  1.00  0.00     0.173 C 
ATOM     20  N   UNL A   1      30.810  23.159  26.538  1.00  0.00    -0.275 N 
ATOM     21  C   UNL A   1      32.032  23.239  27.135  1.00  0.00     0.109 A 
ATOM     22  N   UNL A   1      30.857  23.331  25.210  1.00  0.00    -0.170 NA
ATOM     23  C   UNL A   1      32.939  23.426  26.116  1.00  0.00     0.054 A 
ENDBRANCH  12  18
ENDBRANCH   6  11
ENDBRANCH   3   5
ENDBRANCH   2   3
ENDBRANCH   1   2
BRANCH   1  24
ATOM     24  C   UNL A   1      35.137  29.791  27.558  1.00  0.00     0.275 C 
BRANCH  24  25
ATOM     25  O   UNL A   1      36.219  30.719  27.630  1.00  0.00    -0.458 OA
BRANCH  25  26
ATOM     26  C   UNL A   1      37.038  30.561  28.694  1.00  0.00     0.338 C 
ATOM     27  O   UNL A   1      37.131  31.279  29.674  1.00  0.00    -0.246 OA
BRANCH  26  28
ATOM     28  C   UNL A   1      37.996  29.494  28.401  1.00  0.00     0.060 A 
ATOM     29  C   UNL A   1      38.124  28.450  29.326  1.00  0.00     0.016 A 
ATOM     30  C   UNL A   1      38.937  29.703  27.385  1.00  0.00     0.016 A 
ATOM     31  C   UNL A   1      39.281  27.696  29.321  1.00  0.00     0.010 A 
ATOM     32  C   UNL A   1      40.095  28.968  27.394  1.00  0.00     0.010 A 
ATOM     33  C   UNL A   1      40.281  28.018  28.401  1.00  0.00    -0.014 A 
BRANCH  33  34
ATOM     34  C   UNL A   1      41.542  27.303  28.444  1.00  0.00     0.031 A 
ATOM     35  C   UNL A   1      42.347  27.545  29.670  1.00  0.00     0.074 A 
ATOM     36  C   UNL A   1      41.789  26.321  27.554  1.00  0.00     0.049 A 
ATOM     37  N   UNL A   1      43.604  27.822  29.772  1.00  0.00    -0.248 NA
ATOM     38  C   UNL A   1      41.628  27.556  30.959  1.00  0.00     0.031 C 
ATOM     39  C   UNL A   1      40.876  25.812  26.521  1.00  0.00     0.029 A 
ATOM     40  N   UNL A   1      42.838  25.459  27.484  1.00  0.00    -0.354 N 
ATOM     41  C   UNL A   1      43.872  27.858  31.140  1.00  0.00     0.074 A 
ATOM     42  C   UNL A   1      42.605  27.844  31.815  1.00  0.00     0.031 C 
ATOM     43  C   UNL A   1      41.306  24.601  26.109  1.00  0.00     0.029 A 
ATOM     44  C   UNL A   1      42.568  24.303  26.764  1.00  0.00     0.049 A 
ATOM     45  H   UNL A   1      43.709  25.637  27.906  1.00  0.00     0.167 HD
ATOM     46  C   UNL A   1      45.122  27.637  31.625  1.00  0.00     0.037 A 
ATOM     47  C   UNL A   1      43.277  23.148  26.790  1.00  0.00     0.037 A 
ATOM     48  C   UNL A   1      46.126  27.912  30.632  1.00  0.00     0.049 A 
ATOM     49  C   UNL A   1      44.596  23.441  27.403  1.00  0.00     0.074 A 
ATOM     50  C   UNL A   1      46.469  29.019  29.881  1.00  0.00     0.029 A 
ATOM     51  N   UNL A   1      46.760  26.850  30.037  1.00  0.00    -0.354 N 
ATOM     52  N   UNL A   1      45.532  24.153  26.842  1.00  0.00    -0.248 NA
ATOM     53  C   UNL A   1      44.721  23.275  28.845  1.00  0.00     0.031 C 
ATOM     54  C   UNL A   1      46.884  28.499  28.620  1.00  0.00     0.029 A 
ATOM     55  C   UNL A   1      46.805  27.108  28.693  1.00  0.00     0.049 A 
ATOM     56  H   UNL A   1      47.115  26.052  30.492  1.00  0.00     0.167 HD
ATOM     57  C   UNL A   1      46.106  24.867  27.884  1.00  0.00     0.074 A 
ATOM     58  C   UNL A   1      45.645  24.204  29.100  1.00  0.00     0.031 C 
ATOM     59  C   UNL A   1      46.665  26.095  27.675  1.00  0.00     0.037 A 
BRANCH  46  60
ATOM     60  C   UNL A   1      45.394  26.797  32.852  1.00  0.00     0.057 A 
ATOM     61  C   UNL A   1      44.852  25.502  32.922  1.00  0.00     0.134 A 
ATOM     62  C   UNL A   1      45.887  27.305  34.074  1.00  0.00     0.134 A 
ATOM     63  F   UNL A   1      44.347  24.906  31.831  1.00  0.00    -0.206 F 
ATOM     64  C   UNL A   1      44.717  24.810  34.132  1.00  0.00     0.040 A 
ATOM     65  C   UNL A   1      45.806  26.598  35.276  1.00  0.00     0.040 A 
ATOM     66  F   UNL A   1      46.379  28.542  34.198  1.00  0.00    -0.206 F 
ATOM     67  C   UNL A   1      45.183  25.363  35.317  1.00  0.00     0.006 A 
ENDBRANCH  46  60
BRANCH  47  68
ATOM     68  C   UNL A   1      42.789  21.764  26.592  1.00  0.00     0.057 A 
ATOM     69  C   UNL A   1      43.434  20.888  25.708  1.00  0.00     0.134 A 
ATOM     70  C   UNL A   1      41.824  21.185  27.437  1.00  0.00     0.134 A 
ATOM     71  F   UNL A   1      44.402  21.332  24.895  1.00  0.00    -0.206 F 
ATOM     72  C   UNL A   1      43.145  19.516  25.675  1.00  0.00     0.040 A 
ATOM     73  C   UNL A   1      41.515  19.821  27.403  1.00  0.00     0.040 A 
ATOM     74  F   UNL A   1      41.208  21.905  28.385  1.00  0.00    -0.206 F 
ATOM     75  C   UNL A   1      42.186  18.978  26.527  1.00  0.00     0.006 A 
ENDBRANCH  47  68
BRANCH  59  76
ATOM     76  C   UNL A   1      46.891  26.532  26.256  1.00  0.00     0.057 A 
ATOM     77  C   UNL A   1      45.992  27.329  25.533  1.00  0.00     0.134 A 
ATOM     78  C   UNL A   1      48.127  26.268  25.657  1.00  0.00     0.134 A 
ATOM     79  F   UNL A   1      44.830  27.724  26.066  1.00  0.00    -0.206 F 
ATOM     80  C   UNL A   1      46.291  27.802  24.253  1.00  0.00     0.040 A 
ATOM     81  C   UNL A   1      48.452  26.763  24.392  1.00  0.00     0.040 A 
ATOM     82  F   UNL A   1      49.060  25.562  26.315  1.00  0.00    -0.206 F 
ATOM     83  C   UNL A   1      47.529  27.524  23.680  1.00  0.00     0.006 A 
ENDBRANCH  59  76
ENDBRANCH  33  34
ENDBRANCH  26  28
ENDBRANCH  25  26
ENDBRANCH  24  25
ENDBRANCH   1  24
TORSDOF 13
ENDMDL
MODEL 3
REMARK VINA RESULT:     -10.5      5.841     11.277
REMARK SMILES Cn1ccc(-c2n[nH]c(=O)n2-c2ccc(C(=O)OCCOC(=O)c3ccc(-c4c5nc(c(-c6c(F)cccc6F)c6ccc([nH]6)c(-c6c(F)cccc6F)c6nc(c(-c7c(F)cccc7F)c7ccc4[nH]7)C=C6)C=C5)cc3)cc2)n1
REMARK SMILES IDX 19 1 18 2 16 3 17 4 15 5 12 6 13 7 79 8 14 9 78 10 11 11
REMARK SMILES IDX 6 12 7 13 8 14 9 15 10 17 5 18 1 19 2 20 3 21 80 22 4 23
REMARK SMILES IDX 20 24 21 25 22 26 23 27 24 28 25 29 77 30 26 31 76 32 27 33
REMARK SMILES IDX 28 34 29 35 70 36 30 37 75 38 69 39 71 40 31 41 74 42 68 43
REMARK SMILES IDX 67 44 32 46 58 47 41 48 57 49 42 50 45 51 56 52 72 53 43 54
REMARK SMILES IDX 44 55 55 57 73 58 46 59 33 60 34 61 39 62 35 63 36 64 38 65
REMARK SMILES IDX 40 66 37 67 59 68 60 69 65 70 61 71 62 72 64 73 66 74 63 75
REMARK SMILES IDX 47 76 48 77 53 78 49 79 50 80 52 81 54 82 51 83
REMARK H PARENT 8 16 71 45 45 56
REMARK Flexibility Score: inf
ROOT
ATOM      1  C   UNL A   1      38.771  21.313  25.756  1.00  0.00     0.275 C 
ENDROOT
BRANCH   1   2
ATOM      2  O   UNL A   1      37.334  21.316  25.750  1.00  0.00    -0.458 OA
BRANCH   2   3
ATOM      3  C   UNL A   1      36.747  21.991  24.728  1.00  0.00     0.338 C 
ATOM      4  O   UNL A   1      37.220  22.169  23.613  1.00  0.00    -0.246 OA
BRANCH   3   5
ATOM      5  C   UNL A   1      35.375  22.405  25.107  1.00  0.00     0.060 A 
ATOM      6  C   UNL A   1      32.800  23.333  25.715  1.00  0.00     0.052 A 
ATOM      7  C   UNL A   1      33.081  22.854  24.434  1.00  0.00     0.028 A 
ATOM      8  C   UNL A   1      33.784  23.236  26.711  1.00  0.00     0.028 A 
ATOM      9  C   UNL A   1      34.375  22.419  24.123  1.00  0.00     0.018 A 
ATOM     10  C   UNL A   1      35.062  22.768  26.416  1.00  0.00     0.018 A 
BRANCH   6  11
ATOM     11  N   UNL A   1      31.572  23.951  26.003  1.00  0.00    -0.242 N 
ATOM     12  C   UNL A   1      31.294  25.287  26.048  1.00  0.00     0.189 A 
ATOM     13  N   UNL A   1      30.101  25.590  26.485  1.00  0.00    -0.150 NA
ATOM     14  N   UNL A   1      29.518  24.365  26.682  1.00  0.00    -0.226 N 
ATOM     15  C   UNL A   1      30.397  23.331  26.350  1.00  0.00     0.348 A 
ATOM     16  H   UNL A   1      28.599  24.232  27.013  1.00  0.00     0.195 HD
ATOM     17  O   UNL A   1      30.132  22.141  26.418  1.00  0.00    -0.246 OA
BRANCH  12  18
ATOM     18  C   UNL A   1      32.203  26.301  25.541  1.00  0.00     0.130 A 
ATOM     19  C   UNL A   1      33.437  28.147  22.834  1.00  0.00     0.173 C 
ATOM     20  N   UNL A   1      33.175  27.557  24.124  1.00  0.00    -0.275 N 
ATOM     21  C   UNL A   1      33.763  27.866  25.313  1.00  0.00     0.109 A 
ATOM     22  N   UNL A   1      32.241  26.601  24.228  1.00  0.00    -0.170 NA
ATOM     23  C   UNL A   1      33.131  27.094  26.261  1.00  0.00     0.054 A 
ENDBRANCH  12  18
ENDBRANCH   6  11
ENDBRANCH   3   5
ENDBRANCH   2   3
ENDBRANCH   1   2
BRANCH   1  24
ATOM     24  C   UNL A   1      39.319  19.967  25.306  1.00  0.00     0.275 C 
BRANCH  24  25
ATOM     25  O   UNL A   1      40.296  19.466  26.217  1.00  0.00    -0.458 OA
BRANCH  25  26
ATOM     26  C   UNL A   1      41.580  19.630  25.826  1.00  0.00     0.338 C 
ATOM     27  O   UNL A   1      42.239  18.896  25.110  1.00  0.00    -0.246 OA
BRANCH  26  28
ATOM     28  C   UNL A   1      42.171  20.734  26.585  1.00  0.00     0.060 A 
ATOM     29  C   UNL A   1      41.894  20.813  27.955  1.00  0.00     0.016 A 
ATOM     30  C   UNL A   1      42.730  21.805  25.878  1.00  0.00     0.016 A 
ATOM     31  C   UNL A   1      42.047  22.028  28.594  1.00  0.00     0.010 A 
ATOM     32  C   UNL A   1      42.860  23.017  26.507  1.00  0.00     0.010 A 
ATOM     33  C   UNL A   1      42.456  23.130  27.839  1.00  0.00    -0.014 A 
BRANCH  33  34
ATOM     34  C   UNL A   1      42.527  24.435  28.468  1.00  0.00     0.031 A 
ATOM     35  C   UNL A   1      41.357  25.313  28.201  1.00  0.00     0.074 A 
ATOM     36  C   UNL A   1      43.460  24.677  29.411  1.00  0.00     0.049 A 
ATOM     37  N   UNL A   1      41.341  26.553  27.842  1.00  0.00    -0.248 NA
ATOM     38  C   UNL A   1      40.019  24.694  28.268  1.00  0.00     0.031 C 
ATOM     39  C   UNL A   1      44.436  23.723  29.957  1.00  0.00     0.029 A 
ATOM     40  N   UNL A   1      43.631  25.772  30.199  1.00  0.00    -0.354 N 
ATOM     41  C   UNL A   1      39.996  26.921  27.820  1.00  0.00     0.074 A 
ATOM     42  C   UNL A   1      39.230  25.712  27.935  1.00  0.00     0.031 C 
ATOM     43  C   UNL A   1      44.912  24.200  31.126  1.00  0.00     0.029 A 
ATOM     44  C   UNL A   1      44.361  25.524  31.354  1.00  0.00     0.049 A 
ATOM     45  H   UNL A   1      43.270  26.659  29.972  1.00  0.00     0.167 HD
ATOM     46  C   UNL A   1      39.612  28.216  27.968  1.00  0.00     0.037 A 
ATOM     47  C   UNL A   1      44.420  26.307  32.458  1.00  0.00     0.037 A 
ATOM     48  C   UNL A   1      40.668  29.122  27.603  1.00  0.00     0.049 A 
ATOM     49  C   UNL A   1      43.898  27.647  32.092  1.00  0.00     0.074 A 
ATOM     50  C   UNL A   1      41.412  29.333  26.458  1.00  0.00     0.029 A 
ATOM     51  N   UNL A   1      41.338  29.777  28.606  1.00  0.00    -0.354 N 
ATOM     52  N   UNL A   1      44.507  28.489  31.305  1.00  0.00    -0.248 NA
ATOM     53  C   UNL A   1      42.475  27.892  32.282  1.00  0.00     0.031 C 
ATOM     54  C   UNL A   1      42.713  29.685  26.920  1.00  0.00     0.029 A 
ATOM     55  C   UNL A   1      42.674  29.703  28.314  1.00  0.00     0.049 A 
ATOM     56  H   UNL A   1      40.933  30.216  29.388  1.00  0.00     0.167 HD
ATOM     57  C   UNL A   1      43.491  29.093  30.578  1.00  0.00     0.074 A 
ATOM     58  C   UNL A   1      42.263  28.769  31.298  1.00  0.00     0.031 C 
ATOM     59  C   UNL A   1      43.707  29.552  29.311  1.00  0.00     0.037 A 
BRANCH  46  60
ATOM     60  C   UNL A   1      38.432  28.634  28.815  1.00  0.00     0.057 A 
ATOM     61  C   UNL A   1      37.532  29.586  28.304  1.00  0.00     0.134 A 
ATOM     62  C   UNL A   1      38.317  28.388  30.201  1.00  0.00     0.134 A 
ATOM     63  F   UNL A   1      37.540  29.913  27.003  1.00  0.00    -0.206 F 
ATOM     64  C   UNL A   1      36.658  30.309  29.126  1.00  0.00     0.040 A 
ATOM     65  C   UNL A   1      37.410  29.066  31.018  1.00  0.00     0.040 A 
ATOM     66  F   UNL A   1      39.134  27.560  30.860  1.00  0.00    -0.206 F 
ATOM     67  C   UNL A   1      36.604  30.059  30.490  1.00  0.00     0.006 A 
ENDBRANCH  46  60
BRANCH  47  68
ATOM     68  C   UNL A   1      44.621  25.897  33.867  1.00  0.00     0.057 A 
ATOM     69  C   UNL A   1      45.432  26.645  34.731  1.00  0.00     0.134 A 
ATOM     70  C   UNL A   1      43.835  24.898  34.472  1.00  0.00     0.134 A 
ATOM     71  F   UNL A   1      46.181  27.651  34.260  1.00  0.00    -0.206 F 
ATOM     72  C   UNL A   1      45.454  26.420  36.115  1.00  0.00     0.040 A 
ATOM     73  C   UNL A   1      43.859  24.653  35.849  1.00  0.00     0.040 A 
ATOM     74  F   UNL A   1      42.954  24.181  33.761  1.00  0.00    -0.206 F 
ATOM     75  C   UNL A   1      44.662  25.424  36.679  1.00  0.00     0.006 A 
ENDBRANCH  47  68
BRANCH  59  76
ATOM     76  C   UNL A   1      45.126  29.641  28.828  1.00  0.00     0.057 A 
ATOM     77  C   UNL A   1      45.803  28.586  28.199  1.00  0.00     0.134 A 
ATOM     78  C   UNL A   1      45.773  30.880  28.859  1.00  0.00     0.134 A 
ATOM     79  F   UNL A   1      45.222  27.393  28.025  1.00  0.00    -0.206 F 
ATOM     80  C   UNL A   1      47.085  28.746  27.668  1.00  0.00     0.040 A 
ATOM     81  C   UNL A   1      47.041  31.062  28.301  1.00  0.00     0.040 A 
ATOM     82  F   UNL A   1      45.161  31.951  29.390  1.00  0.00    -0.206 F 
ATOM     83  C   UNL A   1      47.706  29.990  27.713  1.00  0.00     0.006 A 
ENDBRANCH  59  76
ENDBRANCH  33  34
ENDBRANCH  26  28
ENDBRANCH  25  26
ENDBRANCH  24  25
ENDBRANCH   1  24
TORSDOF 13
ENDMDL
