MODEL 1
REMARK VINA RESULT:     -10.5      0.000      0.000
REMARK SMILES O=C(COc1cc(-c2ccccc2)nc(NCc2ccc(Cl)cc2)n1)OCCOC(=O)c1ccc(-c2c3nc(c(-c4c(F)cccc4F)c4ccc([nH]4)c(-c4c(F)cccc4F)c4nc(c(-c5c(F)cccc5F)c5ccc2[nH]5)C=C4)C=C3)cc1
REMARK SMILES IDX 26 1 2 2 1 3 3 4 4 5 5 6 6 7 25 8 7 9 15 10 14 11 8 12 9 13
REMARK SMILES IDX 13 14 10 15 12 16 11 17 16 18 17 20 18 21 19 22 24 23 20 24
REMARK SMILES IDX 23 25 21 26 22 27 27 28 28 29 29 30 30 31 31 32 32 33 33 34
REMARK SMILES IDX 85 35 34 36 84 37 35 38 36 39 37 40 78 41 38 42 83 43 77 44
REMARK SMILES IDX 79 45 39 46 82 47 76 48 75 49 40 51 66 52 49 53 65 54 50 55
REMARK SMILES IDX 53 56 64 57 80 58 51 59 52 60 63 62 81 63 54 64 41 65 42 66
REMARK SMILES IDX 47 67 43 68 44 69 46 70 48 71 45 72 67 73 68 74 73 75 69 76
REMARK SMILES IDX 70 77 72 78 74 79 71 80 55 81 56 82 61 83 57 84 58 85 60 86
REMARK SMILES IDX 62 87 59 88
REMARK H PARENT 16 19 79 50 53 61
REMARK Flexibility Score: inf
ROOT
ATOM      1  O   UNL A   1      44.856  20.222  24.993  1.00  0.00    -0.460 OA
ENDROOT
BRANCH   1   2
ATOM      2  C   UNL A   1      46.152  20.534  24.744  1.00  0.00     0.344 C 
ATOM      3  O   UNL A   1      47.022  19.665  24.783  1.00  0.00    -0.248 OA
BRANCH   2   4
ATOM      4  C   UNL A   1      46.481  21.958  24.329  1.00  0.00     0.353 C 
BRANCH   4   5
ATOM      5  O   UNL A   1      45.318  22.777  24.301  1.00  0.00    -0.466 OA
BRANCH   5   6
ATOM      6  C   UNL A   1      45.649  24.054  24.662  1.00  0.00     0.219 A 
ATOM      7  C   UNL A   1      44.691  24.921  25.106  1.00  0.00     0.097 A 
ATOM      8  N   UNL A   1      46.940  24.358  24.531  1.00  0.00    -0.177 NA
ATOM      9  C   UNL A   1      45.121  26.201  25.371  1.00  0.00     0.080 A 
ATOM     10  C   UNL A   1      47.283  25.608  24.844  1.00  0.00     0.226 A 
ATOM     11  N   UNL A   1      46.418  26.554  25.241  1.00  0.00    -0.213 NA
BRANCH   9  12
ATOM     12  C   UNL A   1      44.152  27.244  25.749  1.00  0.00     0.000 A 
ATOM     13  C   UNL A   1      44.538  28.358  26.511  1.00  0.00     0.010 A 
ATOM     14  C   UNL A   1      42.827  27.204  25.272  1.00  0.00     0.010 A 
ATOM     15  C   UNL A   1      43.647  29.409  26.751  1.00  0.00     0.001 A 
ATOM     16  C   UNL A   1      41.936  28.251  25.511  1.00  0.00     0.001 A 
ATOM     17  C   UNL A   1      42.350  29.358  26.243  1.00  0.00     0.000 A 
ENDBRANCH   9  12
BRANCH  10  18
ATOM     18  N   UNL A   1      48.587  25.986  24.724  1.00  0.00    -0.350 N 
ATOM     19  H   UNL A   1      49.294  25.338  24.948  1.00  0.00     0.164 HD
BRANCH  18  20
ATOM     20  C   UNL A   1      48.963  27.304  24.279  1.00  0.00     0.152 C 
BRANCH  20  21
ATOM     21  C   UNL A   1      49.516  27.170  22.879  1.00  0.00    -0.029 A 
ATOM     22  C   UNL A   1      50.896  27.144  22.644  1.00  0.00     0.007 A 
ATOM     23  C   UNL A   1      48.632  27.185  21.785  1.00  0.00     0.007 A 
ATOM     24  C   UNL A   1      51.383  27.243  21.341  1.00  0.00     0.021 A 
ATOM     25  C   UNL A   1      49.120  27.295  20.485  1.00  0.00     0.021 A 
ATOM     26  C   UNL A   1      50.494  27.371  20.275  1.00  0.00     0.041 A 
ATOM     27  Cl  UNL A   1      51.105  27.712  18.702  1.00  0.00    -0.084 Cl
ENDBRANCH  20  21
ENDBRANCH  18  20
ENDBRANCH  10  18
ENDBRANCH   5   6
ENDBRANCH   4   5
ENDBRANCH   2   4
ENDBRANCH   1   2
BRANCH   1  28
ATOM     28  C   UNL A   1      44.388  18.871  25.186  1.00  0.00     0.274 C 
BRANCH  28  29
ATOM     29  C   UNL A   1      43.099  18.863  26.010  1.00  0.00     0.275 C 
BRANCH  29  30
ATOM     30  O   UNL A   1      42.006  19.361  25.213  1.00  0.00    -0.458 OA
BRANCH  30  31
ATOM     31  C   UNL A   1      40.976  19.926  25.895  1.00  0.00     0.338 C 
ATOM     32  O   UNL A   1      39.892  19.424  26.130  1.00  0.00    -0.246 OA
BRANCH  31  33
ATOM     33  C   UNL A   1      41.453  21.189  26.504  1.00  0.00     0.060 A 
ATOM     34  C   UNL A   1      41.537  21.270  27.900  1.00  0.00     0.016 A 
ATOM     35  C   UNL A   1      41.855  22.271  25.713  1.00  0.00     0.016 A 
ATOM     36  C   UNL A   1      42.019  22.434  28.508  1.00  0.00     0.010 A 
ATOM     37  C   UNL A   1      42.322  23.438  26.324  1.00  0.00     0.010 A 
ATOM     38  C   UNL A   1      42.397  23.532  27.725  1.00  0.00    -0.014 A 
BRANCH  38  39
ATOM     39  C   UNL A   1      42.774  24.822  28.355  1.00  0.00     0.031 A 
ATOM     40  C   UNL A   1      41.724  25.883  28.538  1.00  0.00     0.074 A 
ATOM     41  C   UNL A   1      44.049  25.075  28.703  1.00  0.00     0.049 A 
ATOM     42  N   UNL A   1      41.852  27.110  28.977  1.00  0.00    -0.248 NA
ATOM     43  C   UNL A   1      40.348  25.518  28.163  1.00  0.00     0.031 C 
ATOM     44  C   UNL A   1      45.174  24.152  28.561  1.00  0.00     0.029 A 
ATOM     45  N   UNL A   1      44.614  26.217  29.217  1.00  0.00    -0.354 N 
ATOM     46  C   UNL A   1      40.579  27.663  28.928  1.00  0.00     0.074 A 
ATOM     47  C   UNL A   1      39.695  26.646  28.400  1.00  0.00     0.031 C 
ATOM     48  C   UNL A   1      46.304  24.782  28.933  1.00  0.00     0.029 A 
ATOM     49  C   UNL A   1      45.981  26.151  29.328  1.00  0.00     0.049 A 
ATOM     50  H   UNL A   1      44.089  27.007  29.481  1.00  0.00     0.167 HD
ATOM     51  C   UNL A   1      40.180  28.905  29.294  1.00  0.00     0.037 A 
ATOM     52  C   UNL A   1      46.869  27.102  29.674  1.00  0.00     0.037 A 
ATOM     53  C   UNL A   1      41.043  29.925  29.823  1.00  0.00     0.049 A 
ATOM     54  C   UNL A   1      46.396  28.489  30.034  1.00  0.00     0.074 A 
ATOM     55  C   UNL A   1      40.703  31.186  30.286  1.00  0.00     0.029 A 
ATOM     56  N   UNL A   1      42.416  29.812  29.944  1.00  0.00    -0.354 N 
ATOM     57  N   UNL A   1      45.177  28.966  30.085  1.00  0.00    -0.248 NA
ATOM     58  C   UNL A   1      47.434  29.476  30.380  1.00  0.00     0.031 C 
ATOM     59  C   UNL A   1      41.879  31.855  30.642  1.00  0.00     0.029 A 
ATOM     60  C   UNL A   1      42.943  30.996  30.432  1.00  0.00     0.049 A 
ATOM     61  H   UNL A   1      42.940  29.011  29.716  1.00  0.00     0.167 HD
ATOM     62  C   UNL A   1      45.306  30.292  30.482  1.00  0.00     0.074 A 
ATOM     63  C   UNL A   1      46.713  30.541  30.691  1.00  0.00     0.031 C 
ATOM     64  C   UNL A   1      44.344  31.231  30.643  1.00  0.00     0.037 A 
BRANCH  51  65
ATOM     65  C   UNL A   1      38.733  29.245  29.126  1.00  0.00     0.057 A 
ATOM     66  C   UNL A   1      38.200  29.576  27.875  1.00  0.00     0.134 A 
ATOM     67  C   UNL A   1      37.851  29.157  30.209  1.00  0.00     0.134 A 
ATOM     68  F   UNL A   1      38.998  29.683  26.802  1.00  0.00    -0.206 F 
ATOM     69  C   UNL A   1      36.835  29.815  27.709  1.00  0.00     0.040 A 
ATOM     70  C   UNL A   1      36.484  29.377  30.052  1.00  0.00     0.040 A 
ATOM     71  F   UNL A   1      38.304  28.838  31.431  1.00  0.00    -0.206 F 
ATOM     72  C   UNL A   1      35.972  29.708  28.799  1.00  0.00     0.006 A 
ENDBRANCH  51  65
BRANCH  52  73
ATOM     73  C   UNL A   1      48.329  26.847  29.632  1.00  0.00     0.057 A 
ATOM     74  C   UNL A   1      49.070  27.123  28.479  1.00  0.00     0.134 A 
ATOM     75  C   UNL A   1      48.957  26.133  30.659  1.00  0.00     0.134 A 
ATOM     76  F   UNL A   1      48.511  27.791  27.459  1.00  0.00    -0.206 F 
ATOM     77  C   UNL A   1      50.356  26.616  28.311  1.00  0.00     0.040 A 
ATOM     78  C   UNL A   1      50.261  25.660  30.521  1.00  0.00     0.040 A 
ATOM     79  F   UNL A   1      48.294  25.842  31.787  1.00  0.00    -0.206 F 
ATOM     80  C   UNL A   1      50.951  25.872  29.330  1.00  0.00     0.006 A 
ENDBRANCH  52  73
BRANCH  64  81
ATOM     81  C   UNL A   1      44.784  32.597  31.077  1.00  0.00     0.057 A 
ATOM     82  C   UNL A   1      44.927  32.926  32.431  1.00  0.00     0.134 A 
ATOM     83  C   UNL A   1      45.076  33.591  30.135  1.00  0.00     0.134 A 
ATOM     84  F   UNL A   1      44.642  32.024  33.383  1.00  0.00    -0.206 F 
ATOM     85  C   UNL A   1      45.325  34.201  32.834  1.00  0.00     0.040 A 
ATOM     86  C   UNL A   1      45.498  34.863  30.525  1.00  0.00     0.040 A 
ATOM     87  F   UNL A   1      44.961  33.340  28.822  1.00  0.00    -0.206 F 
ATOM     88  C   UNL A   1      45.618  35.172  31.878  1.00  0.00     0.006 A 
ENDBRANCH  64  81
ENDBRANCH  38  39
ENDBRANCH  31  33
ENDBRANCH  30  31
ENDBRANCH  29  30
ENDBRANCH  28  29
ENDBRANCH   1  28
TORSDOF 17
ENDMDL
MODEL 2
REMARK VINA RESULT:     -10.1      5.160     10.385
REMARK SMILES O=C(COc1cc(-c2ccccc2)nc(NCc2ccc(Cl)cc2)n1)OCCOC(=O)c1ccc(-c2c3nc(c(-c4c(F)cccc4F)c4ccc([nH]4)c(-c4c(F)cccc4F)c4nc(c(-c5c(F)cccc5F)c5ccc2[nH]5)C=C4)C=C3)cc1
REMARK SMILES IDX 26 1 2 2 1 3 3 4 4 5 5 6 6 7 25 8 7 9 15 10 14 11 8 12 9 13
REMARK SMILES IDX 13 14 10 15 12 16 11 17 16 18 17 20 18 21 19 22 24 23 20 24
REMARK SMILES IDX 23 25 21 26 22 27 27 28 28 29 29 30 30 31 31 32 32 33 33 34
REMARK SMILES IDX 85 35 34 36 84 37 35 38 36 39 37 40 78 41 38 42 83 43 77 44
REMARK SMILES IDX 79 45 39 46 82 47 76 48 75 49 40 51 66 52 49 53 65 54 50 55
REMARK SMILES IDX 53 56 64 57 80 58 51 59 52 60 63 62 81 63 54 64 41 65 42 66
REMARK SMILES IDX 47 67 43 68 44 69 46 70 48 71 45 72 67 73 68 74 73 75 69 76
REMARK SMILES IDX 70 77 72 78 74 79 71 80 55 81 56 82 61 83 57 84 58 85 60 86
REMARK SMILES IDX 62 87 59 88
REMARK H PARENT 16 19 79 50 53 61
REMARK Flexibility Score: inf
ROOT
ATOM      1  O   UNL A   1      41.333  19.949  26.939  1.00  0.00    -0.460 OA
ENDROOT
BRANCH   1   2
ATOM      2  C   UNL A   1      40.208  20.042  26.187  1.00  0.00     0.344 C 
ATOM      3  O   UNL A   1      39.877  19.122  25.442  1.00  0.00    -0.248 OA
BRANCH   2   4
ATOM      4  C   UNL A   1      39.329  21.269  26.360  1.00  0.00     0.353 C 
BRANCH   4   5
ATOM      5  O   UNL A   1      38.681  21.623  25.144  1.00  0.00    -0.466 OA
BRANCH   5   6
ATOM      6  C   UNL A   1      37.327  21.495  25.293  1.00  0.00     0.219 A 
ATOM      7  C   UNL A   1      36.693  20.343  24.920  1.00  0.00     0.097 A 
ATOM      8  N   UNL A   1      36.715  22.562  25.805  1.00  0.00    -0.177 NA
ATOM      9  C   UNL A   1      35.323  20.349  25.044  1.00  0.00     0.080 A 
ATOM     10  C   UNL A   1      35.390  22.476  25.929  1.00  0.00     0.226 A 
ATOM     11  N   UNL A   1      34.661  21.414  25.548  1.00  0.00    -0.213 NA
BRANCH   9  12
ATOM     12  C   UNL A   1      34.532  19.203  24.568  1.00  0.00     0.000 A 
ATOM     13  C   UNL A   1      33.243  19.374  24.036  1.00  0.00     0.010 A 
ATOM     14  C   UNL A   1      35.084  17.907  24.542  1.00  0.00     0.010 A 
ATOM     15  C   UNL A   1      32.553  18.300  23.464  1.00  0.00     0.001 A 
ATOM     16  C   UNL A   1      34.396  16.834  23.972  1.00  0.00     0.001 A 
ATOM     17  C   UNL A   1      33.134  17.034  23.424  1.00  0.00     0.000 A 
ENDBRANCH   9  12
BRANCH  10  18
ATOM     18  N   UNL A   1      34.702  23.536  26.437  1.00  0.00    -0.350 N 
ATOM     19  H   UNL A   1      35.198  24.247  26.906  1.00  0.00     0.164 HD
BRANCH  18  20
ATOM     20  C   UNL A   1      33.270  23.650  26.312  1.00  0.00     0.152 C 
BRANCH  20  21
ATOM     21  C   UNL A   1      32.948  25.112  26.106  1.00  0.00    -0.029 A 
ATOM     22  C   UNL A   1      33.941  26.028  25.738  1.00  0.00     0.007 A 
ATOM     23  C   UNL A   1      31.655  25.581  26.399  1.00  0.00     0.007 A 
ATOM     24  C   UNL A   1      33.673  27.396  25.769  1.00  0.00     0.021 A 
ATOM     25  C   UNL A   1      31.392  26.948  26.441  1.00  0.00     0.021 A 
ATOM     26  C   UNL A   1      32.418  27.849  26.171  1.00  0.00     0.041 A 
ATOM     27  Cl  UNL A   1      32.168  29.534  26.418  1.00  0.00    -0.084 Cl
ENDBRANCH  20  21
ENDBRANCH  18  20
ENDBRANCH  10  18
ENDBRANCH   5   6
ENDBRANCH   4   5
ENDBRANCH   2   4
ENDBRANCH   1   2
BRANCH   1  28
ATOM     28  C   UNL A   1      42.290  21.021  27.071  1.00  0.00     0.274 C 
BRANCH  28  29
ATOM     29  C   UNL A   1      43.017  21.256  25.746  1.00  0.00     0.275 C 
BRANCH  29  30
ATOM     30  O   UNL A   1      42.516  22.454  25.119  1.00  0.00    -0.458 OA
BRANCH  30  31
ATOM     31  C   UNL A   1      43.373  23.507  25.069  1.00  0.00     0.338 C 
ATOM     32  O   UNL A   1      44.257  23.692  24.253  1.00  0.00    -0.246 OA
BRANCH  31  33
ATOM     33  C   UNL A   1      42.927  24.522  26.052  1.00  0.00     0.060 A 
ATOM     34  C   UNL A   1      43.662  25.709  26.169  1.00  0.00     0.016 A 
ATOM     35  C   UNL A   1      41.774  24.332  26.821  1.00  0.00     0.016 A 
ATOM     36  C   UNL A   1      43.249  26.706  27.059  1.00  0.00     0.010 A 
ATOM     37  C   UNL A   1      41.371  25.324  27.720  1.00  0.00     0.010 A 
ATOM     38  C   UNL A   1      42.111  26.512  27.854  1.00  0.00    -0.014 A 
BRANCH  38  39
ATOM     39  C   UNL A   1      41.740  27.494  28.902  1.00  0.00     0.031 A 
ATOM     40  C   UNL A   1      42.431  27.438  30.237  1.00  0.00     0.074 A 
ATOM     41  C   UNL A   1      40.755  28.387  28.696  1.00  0.00     0.049 A 
ATOM     42  N   UNL A   1      42.199  28.134  31.321  1.00  0.00    -0.248 NA
ATOM     43  C   UNL A   1      43.520  26.456  30.373  1.00  0.00     0.031 C 
ATOM     44  C   UNL A   1      39.983  28.540  27.464  1.00  0.00     0.029 A 
ATOM     45  N   UNL A   1      40.211  29.314  29.551  1.00  0.00    -0.354 N 
ATOM     46  C   UNL A   1      43.106  27.674  32.267  1.00  0.00     0.074 A 
ATOM     47  C   UNL A   1      43.881  26.626  31.636  1.00  0.00     0.031 C 
ATOM     48  C   UNL A   1      39.031  29.471  27.659  1.00  0.00     0.029 A 
ATOM     49  C   UNL A   1      39.122  29.970  29.029  1.00  0.00     0.049 A 
ATOM     50  H   UNL A   1      40.567  29.492  30.452  1.00  0.00     0.167 HD
ATOM     51  C   UNL A   1      43.283  28.088  33.544  1.00  0.00     0.037 A 
ATOM     52  C   UNL A   1      38.277  30.844  29.609  1.00  0.00     0.037 A 
ATOM     53  C   UNL A   1      42.525  29.128  34.185  1.00  0.00     0.049 A 
ATOM     54  C   UNL A   1      38.476  31.253  31.048  1.00  0.00     0.074 A 
ATOM     55  C   UNL A   1      42.691  29.657  35.455  1.00  0.00     0.029 A 
ATOM     56  N   UNL A   1      41.449  29.785  33.617  1.00  0.00    -0.354 N 
ATOM     57  N   UNL A   1      39.403  30.888  31.896  1.00  0.00    -0.248 NA
ATOM     58  C   UNL A   1      37.494  32.196  31.610  1.00  0.00     0.031 C 
ATOM     59  C   UNL A   1      41.682  30.601  35.673  1.00  0.00     0.029 A 
ATOM     60  C   UNL A   1      40.914  30.682  34.525  1.00  0.00     0.049 A 
ATOM     61  H   UNL A   1      41.114  29.635  32.703  1.00  0.00     0.167 HD
ATOM     62  C   UNL A   1      39.125  31.567  33.077  1.00  0.00     0.074 A 
ATOM     63  C   UNL A   1      37.965  32.391  32.832  1.00  0.00     0.031 C 
ATOM     64  C   UNL A   1      39.763  31.503  34.269  1.00  0.00     0.037 A 
BRANCH  51  65
ATOM     65  C   UNL A   1      44.339  27.405  34.354  1.00  0.00     0.057 A 
ATOM     66  C   UNL A   1      44.071  26.230  35.064  1.00  0.00     0.134 A 
ATOM     67  C   UNL A   1      45.655  27.883  34.354  1.00  0.00     0.134 A 
ATOM     68  F   UNL A   1      42.827  25.729  35.107  1.00  0.00    -0.206 F 
ATOM     69  C   UNL A   1      45.078  25.554  35.754  1.00  0.00     0.040 A 
ATOM     70  C   UNL A   1      46.673  27.207  35.025  1.00  0.00     0.040 A 
ATOM     71  F   UNL A   1      45.972  29.002  33.687  1.00  0.00    -0.206 F 
ATOM     72  C   UNL A   1      46.385  26.038  35.728  1.00  0.00     0.006 A 
ENDBRANCH  51  65
BRANCH  52  73
ATOM     73  C   UNL A   1      37.091  31.363  28.887  1.00  0.00     0.057 A 
ATOM     74  C   UNL A   1      37.033  32.698  28.475  1.00  0.00     0.134 A 
ATOM     75  C   UNL A   1      35.924  30.597  28.789  1.00  0.00     0.134 A 
ATOM     76  F   UNL A   1      38.118  33.481  28.562  1.00  0.00    -0.206 F 
ATOM     77  C   UNL A   1      35.830  33.278  28.079  1.00  0.00     0.040 A 
ATOM     78  C   UNL A   1      34.725  31.153  28.350  1.00  0.00     0.040 A 
ATOM     79  F   UNL A   1      35.923  29.311  29.170  1.00  0.00    -0.206 F 
ATOM     80  C   UNL A   1      34.669  32.507  28.026  1.00  0.00     0.006 A 
ENDBRANCH  52  73
BRANCH  64  81
ATOM     81  C   UNL A   1      39.228  32.353  35.382  1.00  0.00     0.057 A 
ATOM     82  C   UNL A   1      39.616  33.691  35.534  1.00  0.00     0.134 A 
ATOM     83  C   UNL A   1      38.311  31.836  36.304  1.00  0.00     0.134 A 
ATOM     84  F   UNL A   1      40.508  34.239  34.695  1.00  0.00    -0.206 F 
ATOM     85  C   UNL A   1      39.126  34.478  36.576  1.00  0.00     0.040 A 
ATOM     86  C   UNL A   1      37.796  32.620  37.338  1.00  0.00     0.040 A 
ATOM     87  F   UNL A   1      37.898  30.563  36.214  1.00  0.00    -0.206 F 
ATOM     88  C   UNL A   1      38.208  33.944  37.479  1.00  0.00     0.006 A 
ENDBRANCH  64  81
ENDBRANCH  38  39
ENDBRANCH  31  33
ENDBRANCH  30  31
ENDBRANCH  29  30
ENDBRANCH  28  29
ENDBRANCH   1  28
TORSDOF 17
ENDMDL
MODEL 3
REMARK VINA RESULT:     -10.1      1.336      1.585
REMARK SMILES O=C(COc1cc(-c2ccccc2)nc(NCc2ccc(Cl)cc2)n1)OCCOC(=O)c1ccc(-c2c3nc(c(-c4c(F)cccc4F)c4ccc([nH]4)c(-c4c(F)cccc4F)c4nc(c(-c5c(F)cccc5F)c5ccc2[nH]5)C=C4)C=C3)cc1
REMARK SMILES IDX 26 1 2 2 1 3 3 4 4 5 5 6 6 7 25 8 7 9 15 10 14 11 8 12 9 13
REMARK SMILES IDX 13 14 10 15 12 16 11 17 16 18 17 20 18 21 19 22 24 23 20 24
REMARK SMILES IDX 23 25 21 26 22 27 27 28 28 29 29 30 30 31 31 32 32 33 33 34
REMARK SMILES IDX 85 35 34 36 84 37 35 38 36 39 37 40 78 41 38 42 83 43 77 44
REMARK SMILES IDX 79 45 39 46 82 47 76 48 75 49 40 51 66 52 49 53 65 54 50 55
REMARK SMILES IDX 53 56 64 57 80 58 51 59 52 60 63 62 81 63 54 64 41 65 42 66
REMARK SMILES IDX 47 67 43 68 44 69 46 70 48 71 45 72 67 73 68 74 73 75 69 76
REMARK SMILES IDX 70 77 72 78 74 79 71 80 55 81 56 82 61 83 57 84 58 85 60 86
REMARK SMILES IDX 62 87 59 88
REMARK H PARENT 16 19 79 50 53 61
REMARK Flexibility Score: inf
ROOT
ATOM      1  O   UNL A   1      45.040  19.833  25.482  1.00  0.00    -0.460 OA
ENDROOT
BRANCH   1   2
ATOM      2  C   UNL A   1      45.113  20.691  24.434  1.00  0.00     0.344 C 
ATOM      3  O   UNL A   1      44.524  20.445  23.383  1.00  0.00    -0.248 OA
BRANCH   2   4
ATOM      4  C   UNL A   1      45.863  21.998  24.628  1.00  0.00     0.353 C 
BRANCH   4   5
ATOM      5  O   UNL A   1      45.241  23.067  23.924  1.00  0.00    -0.466 OA
BRANCH   5   6
ATOM      6  C   UNL A   1      45.597  24.258  24.495  1.00  0.00     0.219 A 
ATOM      7  C   UNL A   1      44.642  25.131  24.934  1.00  0.00     0.097 A 
ATOM      8  N   UNL A   1      46.910  24.477  24.566  1.00  0.00    -0.177 NA
ATOM      9  C   UNL A   1      45.108  26.330  25.423  1.00  0.00     0.080 A 
ATOM     10  C   UNL A   1      47.283  25.647  25.087  1.00  0.00     0.226 A 
ATOM     11  N   UNL A   1      46.430  26.597  25.502  1.00  0.00    -0.213 NA
BRANCH   9  12
ATOM     12  C   UNL A   1      44.162  27.386  25.820  1.00  0.00     0.000 A 
ATOM     13  C   UNL A   1      44.569  28.472  26.612  1.00  0.00     0.010 A 
ATOM     14  C   UNL A   1      42.840  27.388  25.335  1.00  0.00     0.010 A 
ATOM     15  C   UNL A   1      43.700  29.538  26.871  1.00  0.00     0.001 A 
ATOM     16  C   UNL A   1      41.971  28.449  25.594  1.00  0.00     0.001 A 
ATOM     17  C   UNL A   1      42.406  29.529  26.355  1.00  0.00     0.000 A 
ENDBRANCH   9  12
BRANCH  10  18
ATOM     18  N   UNL A   1      48.611  25.937  25.180  1.00  0.00    -0.350 N 
ATOM     19  H   UNL A   1      49.217  25.274  25.586  1.00  0.00     0.164 HD
BRANCH  18  20
ATOM     20  C   UNL A   1      49.156  27.183  24.703  1.00  0.00     0.152 C 
BRANCH  20  21
ATOM     21  C   UNL A   1      50.655  27.122  24.890  1.00  0.00    -0.029 A 
ATOM     22  C   UNL A   1      51.295  25.923  25.226  1.00  0.00     0.007 A 
ATOM     23  C   UNL A   1      51.405  28.311  24.835  1.00  0.00     0.007 A 
ATOM     24  C   UNL A   1      52.637  25.933  25.608  1.00  0.00     0.021 A 
ATOM     25  C   UNL A   1      52.741  28.321  25.227  1.00  0.00     0.021 A 
ATOM     26  C   UNL A   1      53.336  27.138  25.657  1.00  0.00     0.041 A 
ATOM     27  Cl  UNL A   1      54.917  27.169  26.337  1.00  0.00    -0.084 Cl
ENDBRANCH  20  21
ENDBRANCH  18  20
ENDBRANCH  10  18
ENDBRANCH   5   6
ENDBRANCH   4   5
ENDBRANCH   2   4
ENDBRANCH   1   2
BRANCH   1  28
ATOM     28  C   UNL A   1      44.425  18.530  25.398  1.00  0.00     0.274 C 
BRANCH  28  29
ATOM     29  C   UNL A   1      43.031  18.554  26.027  1.00  0.00     0.275 C 
BRANCH  29  30
ATOM     30  O   UNL A   1      42.159  19.400  25.251  1.00  0.00    -0.458 OA
BRANCH  30  31
ATOM     31  C   UNL A   1      41.114  19.954  25.917  1.00  0.00     0.338 C 
ATOM     32  O   UNL A   1      40.032  19.441  26.138  1.00  0.00    -0.246 OA
BRANCH  31  33
ATOM     33  C   UNL A   1      41.567  21.225  26.529  1.00  0.00     0.060 A 
ATOM     34  C   UNL A   1      41.685  21.293  27.923  1.00  0.00     0.016 A 
ATOM     35  C   UNL A   1      41.916  22.327  25.742  1.00  0.00     0.016 A 
ATOM     36  C   UNL A   1      42.146  22.463  28.534  1.00  0.00     0.010 A 
ATOM     37  C   UNL A   1      42.363  23.502  26.355  1.00  0.00     0.010 A 
ATOM     38  C   UNL A   1      42.471  23.582  27.754  1.00  0.00    -0.014 A 
BRANCH  38  39
ATOM     39  C   UNL A   1      42.825  24.875  28.390  1.00  0.00     0.031 A 
ATOM     40  C   UNL A   1      41.760  25.924  28.560  1.00  0.00     0.074 A 
ATOM     41  C   UNL A   1      44.091  25.142  28.756  1.00  0.00     0.049 A 
ATOM     42  N   UNL A   1      41.869  27.152  29.001  1.00  0.00    -0.248 NA
ATOM     43  C   UNL A   1      40.393  25.544  28.166  1.00  0.00     0.031 C 
ATOM     44  C   UNL A   1      45.229  24.232  28.629  1.00  0.00     0.029 A 
ATOM     45  N   UNL A   1      44.636  26.290  29.279  1.00  0.00    -0.354 N 
ATOM     46  C   UNL A   1      40.590  27.691  28.935  1.00  0.00     0.074 A 
ATOM     47  C   UNL A   1      39.725  26.665  28.394  1.00  0.00     0.031 C 
ATOM     48  C   UNL A   1      46.346  24.875  29.017  1.00  0.00     0.029 A 
ATOM     49  C   UNL A   1      46.002  26.239  29.409  1.00  0.00     0.049 A 
ATOM     50  H   UNL A   1      44.098  27.074  29.535  1.00  0.00     0.167 HD
ATOM     51  C   UNL A   1      40.172  28.928  29.296  1.00  0.00     0.037 A 
ATOM     52  C   UNL A   1      46.875  27.200  29.767  1.00  0.00     0.037 A 
ATOM     53  C   UNL A   1      41.016  29.957  29.837  1.00  0.00     0.049 A 
ATOM     54  C   UNL A   1      46.381  28.582  30.122  1.00  0.00     0.074 A 
ATOM     55  C   UNL A   1      40.656  31.214  30.297  1.00  0.00     0.029 A 
ATOM     56  N   UNL A   1      42.388  29.860  29.977  1.00  0.00    -0.354 N 
ATOM     57  N   UNL A   1      45.157  29.044  30.156  1.00  0.00    -0.248 NA
ATOM     58  C   UNL A   1      47.403  29.579  30.482  1.00  0.00     0.031 C 
ATOM     59  C   UNL A   1      41.819  31.896  30.668  1.00  0.00     0.029 A 
ATOM     60  C   UNL A   1      42.895  31.049  30.473  1.00  0.00     0.049 A 
ATOM     61  H   UNL A   1      42.925  29.064  29.755  1.00  0.00     0.167 HD
ATOM     62  C   UNL A   1      45.265  30.372  30.555  1.00  0.00     0.074 A 
ATOM     63  C   UNL A   1      46.666  30.636  30.784  1.00  0.00     0.031 C 
ATOM     64  C   UNL A   1      44.290  31.300  30.704  1.00  0.00     0.037 A 
BRANCH  51  65
ATOM     65  C   UNL A   1      38.724  29.252  29.107  1.00  0.00     0.057 A 
ATOM     66  C   UNL A   1      38.200  29.558  27.847  1.00  0.00     0.134 A 
ATOM     67  C   UNL A   1      37.832  29.173  30.183  1.00  0.00     0.134 A 
ATOM     68  F   UNL A   1      39.008  29.656  26.780  1.00  0.00    -0.206 F 
ATOM     69  C   UNL A   1      36.835  29.782  27.663  1.00  0.00     0.040 A 
ATOM     70  C   UNL A   1      36.464  29.378  30.009  1.00  0.00     0.040 A 
ATOM     71  F   UNL A   1      38.275  28.877  31.414  1.00  0.00    -0.206 F 
ATOM     72  C   UNL A   1      35.962  29.684  28.745  1.00  0.00     0.006 A 
ENDBRANCH  51  65
BRANCH  52  73
ATOM     73  C   UNL A   1      48.338  26.961  29.745  1.00  0.00     0.057 A 
ATOM     74  C   UNL A   1      49.105  27.328  28.636  1.00  0.00     0.134 A 
ATOM     75  C   UNL A   1      48.947  26.180  30.734  1.00  0.00     0.134 A 
ATOM     76  F   UNL A   1      48.566  28.064  27.652  1.00  0.00    -0.206 F 
ATOM     77  C   UNL A   1      50.401  26.845  28.465  1.00  0.00     0.040 A 
ATOM     78  C   UNL A   1      50.258  25.729  30.596  1.00  0.00     0.040 A 
ATOM     79  F   UNL A   1      48.258  25.801  31.819  1.00  0.00    -0.206 F 
ATOM     80  C   UNL A   1      50.977  26.034  29.442  1.00  0.00     0.006 A 
ENDBRANCH  52  73
BRANCH  64  81
ATOM     81  C   UNL A   1      44.709  32.670  31.144  1.00  0.00     0.057 A 
ATOM     82  C   UNL A   1      44.812  33.004  32.501  1.00  0.00     0.134 A 
ATOM     83  C   UNL A   1      45.020  33.663  30.208  1.00  0.00     0.134 A 
ATOM     84  F   UNL A   1      44.508  32.104  33.447  1.00  0.00    -0.206 F 
ATOM     85  C   UNL A   1      45.191  34.283  32.910  1.00  0.00     0.040 A 
ATOM     86  C   UNL A   1      45.422  34.939  30.604  1.00  0.00     0.040 A 
ATOM     87  F   UNL A   1      44.941  33.407  28.892  1.00  0.00    -0.206 F 
ATOM     88  C   UNL A   1      45.503  35.254  31.959  1.00  0.00     0.006 A 
ENDBRANCH  64  81
ENDBRANCH  38  39
ENDBRANCH  31  33
ENDBRANCH  30  31
ENDBRANCH  29  30
ENDBRANCH  28  29
ENDBRANCH   1  28
TORSDOF 17
ENDMDL
