MODEL 1
REMARK VINA RESULT:     -10.2      0.000      0.000
REMARK SMILES CCCCCCC(=O)Nc1ccc(Cl)c(C(=O)OCCOC(=O)c2ccc(-c3c4nc(c(-c5c(F)cccc5F)c5ccc([nH]5)c(-c5c(F)cccc5F)c5nc(c(-c6c(F)cccc6F)c6ccc3[nH]6)C=C5)C=C4)cc2)c1
REMARK SMILES IDX 16 1 17 2 15 3 10 4 11 5 78 6 12 7 13 8 14 9 9 10 7 11 8 12
REMARK SMILES IDX 6 14 5 15 4 16 3 17 2 18 1 19 18 20 19 21 20 22 21 23 22 24
REMARK SMILES IDX 23 25 24 26 25 27 77 28 26 29 76 30 27 31 28 32 29 33 70 34
REMARK SMILES IDX 30 35 75 36 69 37 71 38 31 39 74 40 68 41 67 42 32 44 58 45
REMARK SMILES IDX 41 46 57 47 42 48 45 49 56 50 72 51 43 52 44 53 55 55 73 56
REMARK SMILES IDX 46 57 33 58 34 59 39 60 35 61 36 62 38 63 40 64 37 65 59 66
REMARK SMILES IDX 60 67 65 68 61 69 62 70 64 71 66 72 63 73 47 74 48 75 53 76
REMARK SMILES IDX 49 77 50 78 52 79 54 80 51 81
REMARK H PARENT 9 13 71 43 45 54
REMARK Flexibility Score: inf
ROOT
ATOM      1  C   UNL A   1      32.213  29.373  25.021  1.00  0.00     0.339 C 
ATOM      2  O   UNL A   1      33.420  29.348  24.892  1.00  0.00    -0.246 OA
ENDROOT
BRANCH   1   3
ATOM      3  C   UNL A   1      31.322  28.223  24.688  1.00  0.00     0.080 A 
ATOM      4  C   UNL A   1      30.259  26.197  25.525  1.00  0.00     0.042 A 
ATOM      5  C   UNL A   1      29.314  26.288  24.506  1.00  0.00     0.028 A 
ATOM      6  C   UNL A   1      31.270  27.155  25.620  1.00  0.00     0.043 A 
ATOM      7  C   UNL A   1      29.451  27.247  23.505  1.00  0.00     0.023 A 
ATOM      8  C   UNL A   1      30.459  28.210  23.582  1.00  0.00     0.055 A 
ATOM      9  Cl  UNL A   1      30.609  29.273  22.226  1.00  0.00    -0.083 Cl
BRANCH   4  10
ATOM     10  N   UNL A   1      30.045  25.218  26.498  1.00  0.00    -0.326 N 
ATOM     11  C   UNL A   1      30.616  23.984  26.617  1.00  0.00     0.224 C 
ATOM     12  O   UNL A   1      30.068  23.170  27.365  1.00  0.00    -0.275 OA
ATOM     13  H   UNL A   1      29.391  25.451  27.197  1.00  0.00     0.169 HD
BRANCH  11  14
ATOM     14  C   UNL A   1      31.850  23.591  25.836  1.00  0.00     0.100 C 
BRANCH  14  15
ATOM     15  C   UNL A   1      31.573  23.023  24.439  1.00  0.00     0.010 C 
BRANCH  15  16
ATOM     16  C   UNL A   1      31.799  23.951  23.237  1.00  0.00     0.001 C 
BRANCH  16  17
ATOM     17  C   UNL A   1      33.079  24.790  23.313  1.00  0.00    -0.000 C 
BRANCH  17  18
ATOM     18  C   UNL A   1      33.169  25.931  22.308  1.00  0.00    -0.003 C 
ATOM     19  C   UNL A   1      32.112  25.842  21.220  1.00  0.00     0.004 C 
ENDBRANCH  17  18
ENDBRANCH  16  17
ENDBRANCH  15  16
ENDBRANCH  14  15
ENDBRANCH  11  14
ENDBRANCH   4  10
ENDBRANCH   1   3
BRANCH   1  20
ATOM     20  O   UNL A   1      31.494  30.309  25.684  1.00  0.00    -0.458 OA
BRANCH  20  21
ATOM     21  C   UNL A   1      32.047  30.928  26.861  1.00  0.00     0.275 C 
BRANCH  21  22
ATOM     22  C   UNL A   1      31.656  32.408  26.844  1.00  0.00     0.275 C 
BRANCH  22  23
ATOM     23  O   UNL A   1      32.851  33.214  26.816  1.00  0.00    -0.458 OA
BRANCH  23  24
ATOM     24  C   UNL A   1      33.155  33.852  27.968  1.00  0.00     0.338 C 
ATOM     25  O   UNL A   1      32.495  34.680  28.572  1.00  0.00    -0.246 OA
BRANCH  24  26
ATOM     26  C   UNL A   1      34.403  33.293  28.499  1.00  0.00     0.060 A 
ATOM     27  C   UNL A   1      34.311  32.179  29.328  1.00  0.00     0.016 A 
ATOM     28  C   UNL A   1      35.631  33.911  28.286  1.00  0.00     0.016 A 
ATOM     29  C   UNL A   1      35.425  31.729  30.028  1.00  0.00     0.010 A 
ATOM     30  C   UNL A   1      36.775  33.384  28.900  1.00  0.00     0.010 A 
ATOM     31  C   UNL A   1      36.681  32.302  29.797  1.00  0.00    -0.014 A 
BRANCH  31  32
ATOM     32  C   UNL A   1      37.888  31.752  30.478  1.00  0.00     0.031 A 
ATOM     33  C   UNL A   1      38.741  30.711  29.805  1.00  0.00     0.074 A 
ATOM     34  C   UNL A   1      38.224  32.189  31.710  1.00  0.00     0.049 A 
ATOM     35  N   UNL A   1      39.723  29.997  30.300  1.00  0.00    -0.248 NA
ATOM     36  C   UNL A   1      38.446  30.423  28.393  1.00  0.00     0.031 C 
ATOM     37  C   UNL A   1      37.513  33.221  32.468  1.00  0.00     0.029 A 
ATOM     38  N   UNL A   1      39.253  31.824  32.543  1.00  0.00    -0.354 N 
ATOM     39  C   UNL A   1      40.129  29.147  29.279  1.00  0.00     0.074 A 
ATOM     40  C   UNL A   1      39.281  29.425  28.139  1.00  0.00     0.031 C 
ATOM     41  C   UNL A   1      38.144  33.432  33.631  1.00  0.00     0.029 A 
ATOM     42  C   UNL A   1      39.246  32.486  33.748  1.00  0.00     0.049 A 
ATOM     43  H   UNL A   1      39.930  31.151  32.301  1.00  0.00     0.167 HD
ATOM     44  C   UNL A   1      41.118  28.221  29.292  1.00  0.00     0.037 A 
ATOM     45  C   UNL A   1      40.004  32.321  34.847  1.00  0.00     0.037 A 
ATOM     46  C   UNL A   1      41.988  27.977  30.415  1.00  0.00     0.049 A 
ATOM     47  C   UNL A   1      41.058  31.252  34.856  1.00  0.00     0.074 A 
ATOM     48  C   UNL A   1      43.032  27.074  30.518  1.00  0.00     0.029 A 
ATOM     49  N   UNL A   1      41.920  28.647  31.629  1.00  0.00    -0.354 N 
ATOM     50  N   UNL A   1      41.406  30.427  33.898  1.00  0.00    -0.248 NA
ATOM     51  C   UNL A   1      41.810  31.074  36.106  1.00  0.00     0.031 C 
ATOM     52  C   UNL A   1      43.565  27.164  31.809  1.00  0.00     0.029 A 
ATOM     53  C   UNL A   1      42.887  28.159  32.494  1.00  0.00     0.049 A 
ATOM     54  H   UNL A   1      41.280  29.362  31.844  1.00  0.00     0.167 HD
ATOM     55  C   UNL A   1      42.423  29.643  34.424  1.00  0.00     0.074 A 
ATOM     56  C   UNL A   1      42.653  30.106  35.776  1.00  0.00     0.031 C 
ATOM     57  C   UNL A   1      43.102  28.627  33.838  1.00  0.00     0.037 A 
BRANCH  44  58
ATOM     58  C   UNL A   1      41.295  27.371  28.066  1.00  0.00     0.057 A 
ATOM     59  C   UNL A   1      40.594  26.175  27.876  1.00  0.00     0.134 A 
ATOM     60  C   UNL A   1      42.155  27.784  27.038  1.00  0.00     0.134 A 
ATOM     61  F   UNL A   1      39.765  25.715  28.825  1.00  0.00    -0.206 F 
ATOM     62  C   UNL A   1      40.755  25.409  26.719  1.00  0.00     0.040 A 
ATOM     63  C   UNL A   1      42.305  27.040  25.867  1.00  0.00     0.040 A 
ATOM     64  F   UNL A   1      42.854  28.923  27.150  1.00  0.00    -0.206 F 
ATOM     65  C   UNL A   1      41.608  25.846  25.707  1.00  0.00     0.006 A 
ENDBRANCH  44  58
BRANCH  45  66
ATOM     66  C   UNL A   1      39.757  33.156  36.051  1.00  0.00     0.057 A 
ATOM     67  C   UNL A   1      40.476  34.335  36.275  1.00  0.00     0.134 A 
ATOM     68  C   UNL A   1      38.797  32.796  37.006  1.00  0.00     0.134 A 
ATOM     69  F   UNL A   1      41.428  34.721  35.413  1.00  0.00    -0.206 F 
ATOM     70  C   UNL A   1      40.257  35.120  37.410  1.00  0.00     0.040 A 
ATOM     71  C   UNL A   1      38.545  33.587  38.127  1.00  0.00     0.040 A 
ATOM     72  F   UNL A   1      38.072  31.679  36.849  1.00  0.00    -0.206 F 
ATOM     73  C   UNL A   1      39.282  34.751  38.335  1.00  0.00     0.006 A 
ENDBRANCH  45  66
BRANCH  57  74
ATOM     74  C   UNL A   1      44.174  27.966  34.655  1.00  0.00     0.057 A 
ATOM     75  C   UNL A   1      43.936  26.782  35.365  1.00  0.00     0.134 A 
ATOM     76  C   UNL A   1      45.463  28.510  34.714  1.00  0.00     0.134 A 
ATOM     77  F   UNL A   1      42.718  26.220  35.362  1.00  0.00    -0.206 F 
ATOM     78  C   UNL A   1      44.937  26.175  36.125  1.00  0.00     0.040 A 
ATOM     79  C   UNL A   1      46.479  27.897  35.449  1.00  0.00     0.040 A 
ATOM     80  F   UNL A   1      45.759  29.639  34.052  1.00  0.00    -0.206 F 
ATOM     81  C   UNL A   1      46.215  26.730  36.162  1.00  0.00     0.006 A 
ENDBRANCH  57  74
ENDBRANCH  31  32
ENDBRANCH  24  26
ENDBRANCH  23  24
ENDBRANCH  22  23
ENDBRANCH  21  22
ENDBRANCH  20  21
ENDBRANCH   1  20
TORSDOF 17
ENDMDL
MODEL 2
REMARK VINA RESULT:      -9.9      2.574      7.527
REMARK SMILES CCCCCCC(=O)Nc1ccc(Cl)c(C(=O)OCCOC(=O)c2ccc(-c3c4nc(c(-c5c(F)cccc5F)c5ccc([nH]5)c(-c5c(F)cccc5F)c5nc(c(-c6c(F)cccc6F)c6ccc3[nH]6)C=C5)C=C4)cc2)c1
REMARK SMILES IDX 16 1 17 2 15 3 10 4 11 5 78 6 12 7 13 8 14 9 9 10 7 11 8 12
REMARK SMILES IDX 6 14 5 15 4 16 3 17 2 18 1 19 18 20 19 21 20 22 21 23 22 24
REMARK SMILES IDX 23 25 24 26 25 27 77 28 26 29 76 30 27 31 28 32 29 33 70 34
REMARK SMILES IDX 30 35 75 36 69 37 71 38 31 39 74 40 68 41 67 42 32 44 58 45
REMARK SMILES IDX 41 46 57 47 42 48 45 49 56 50 72 51 43 52 44 53 55 55 73 56
REMARK SMILES IDX 46 57 33 58 34 59 39 60 35 61 36 62 38 63 40 64 37 65 59 66
REMARK SMILES IDX 60 67 65 68 61 69 62 70 64 71 66 72 63 73 47 74 48 75 53 76
REMARK SMILES IDX 49 77 50 78 52 79 54 80 51 81
REMARK H PARENT 9 13 71 43 45 54
REMARK Flexibility Score: inf
ROOT
ATOM      1  C   UNL A   1      34.666  33.605  28.017  1.00  0.00     0.339 C 
ATOM      2  O   UNL A   1      35.150  34.399  27.237  1.00  0.00    -0.246 OA
ENDROOT
BRANCH   1   3
ATOM      3  C   UNL A   1      35.037  32.160  28.063  1.00  0.00     0.080 A 
ATOM      4  C   UNL A   1      34.267  29.876  27.707  1.00  0.00     0.042 A 
ATOM      5  C   UNL A   1      35.591  29.466  27.567  1.00  0.00     0.028 A 
ATOM      6  C   UNL A   1      33.980  31.219  27.962  1.00  0.00     0.043 A 
ATOM      7  C   UNL A   1      36.632  30.358  27.813  1.00  0.00     0.023 A 
ATOM      8  C   UNL A   1      36.364  31.703  28.074  1.00  0.00     0.055 A 
ATOM      9  Cl  UNL A   1      37.723  32.691  28.484  1.00  0.00    -0.083 Cl
BRANCH   4  10
ATOM     10  N   UNL A   1      33.280  28.928  27.430  1.00  0.00    -0.326 N 
ATOM     11  C   UNL A   1      32.557  28.747  26.286  1.00  0.00     0.224 C 
ATOM     12  O   UNL A   1      31.537  28.057  26.357  1.00  0.00    -0.275 OA
ATOM     13  H   UNL A   1      33.077  28.301  28.162  1.00  0.00     0.169 HD
BRANCH  11  14
ATOM     14  C   UNL A   1      32.949  29.395  24.977  1.00  0.00     0.100 C 
BRANCH  14  15
ATOM     15  C   UNL A   1      33.789  28.511  24.047  1.00  0.00     0.010 C 
BRANCH  15  16
ATOM     16  C   UNL A   1      33.274  28.287  22.620  1.00  0.00     0.001 C 
BRANCH  16  17
ATOM     17  C   UNL A   1      31.824  28.730  22.391  1.00  0.00    -0.000 C 
BRANCH  17  18
ATOM     18  C   UNL A   1      30.778  27.632  22.545  1.00  0.00    -0.003 C 
ATOM     19  C   UNL A   1      29.581  28.070  23.372  1.00  0.00     0.004 C 
ENDBRANCH  17  18
ENDBRANCH  16  17
ENDBRANCH  15  16
ENDBRANCH  14  15
ENDBRANCH  11  14
ENDBRANCH   4  10
ENDBRANCH   1   3
BRANCH   1  20
ATOM     20  O   UNL A   1      33.915  33.901  29.103  1.00  0.00    -0.458 OA
BRANCH  20  21
ATOM     21  C   UNL A   1      32.892  34.910  29.008  1.00  0.00     0.275 C 
BRANCH  21  22
ATOM     22  C   UNL A   1      33.122  35.925  30.129  1.00  0.00     0.275 C 
BRANCH  22  23
ATOM     23  O   UNL A   1      32.196  35.664  31.203  1.00  0.00    -0.458 OA
BRANCH  23  24
ATOM     24  C   UNL A   1      32.572  36.106  32.423  1.00  0.00     0.338 C 
ATOM     25  O   UNL A   1      32.049  36.964  33.112  1.00  0.00    -0.246 OA
BRANCH  24  26
ATOM     26  C   UNL A   1      33.686  35.278  32.900  1.00  0.00     0.060 A 
ATOM     27  C   UNL A   1      34.962  35.834  32.877  1.00  0.00     0.016 A 
ATOM     28  C   UNL A   1      33.507  33.946  33.256  1.00  0.00     0.016 A 
ATOM     29  C   UNL A   1      36.079  35.041  33.114  1.00  0.00     0.010 A 
ATOM     30  C   UNL A   1      34.624  33.178  33.610  1.00  0.00     0.010 A 
ATOM     31  C   UNL A   1      35.925  33.710  33.521  1.00  0.00    -0.014 A 
BRANCH  31  32
ATOM     32  C   UNL A   1      37.124  32.893  33.867  1.00  0.00     0.031 A 
ATOM     33  C   UNL A   1      37.870  33.134  35.152  1.00  0.00     0.074 A 
ATOM     34  C   UNL A   1      37.546  31.927  33.025  1.00  0.00     0.049 A 
ATOM     35  N   UNL A   1      39.020  32.645  35.545  1.00  0.00    -0.248 NA
ATOM     36  C   UNL A   1      37.249  34.053  36.117  1.00  0.00     0.031 C 
ATOM     37  C   UNL A   1      36.900  31.558  31.763  1.00  0.00     0.029 A 
ATOM     38  N   UNL A   1      38.621  31.075  33.103  1.00  0.00    -0.354 N 
ATOM     39  C   UNL A   1      39.283  33.232  36.777  1.00  0.00     0.074 A 
ATOM     40  C   UNL A   1      38.176  34.121  37.063  1.00  0.00     0.031 C 
ATOM     41  C   UNL A   1      37.564  30.535  31.208  1.00  0.00     0.029 A 
ATOM     42  C   UNL A   1      38.738  30.238  32.019  1.00  0.00     0.049 A 
ATOM     43  H   UNL A   1      39.247  31.066  33.862  1.00  0.00     0.167 HD
ATOM     44  C   UNL A   1      40.348  33.045  37.594  1.00  0.00     0.037 A 
ATOM     45  C   UNL A   1      39.704  29.364  31.682  1.00  0.00     0.037 A 
ATOM     46  C   UNL A   1      41.425  32.126  37.325  1.00  0.00     0.049 A 
ATOM     47  C   UNL A   1      40.900  29.214  32.577  1.00  0.00     0.074 A 
ATOM     48  C   UNL A   1      42.538  31.852  38.102  1.00  0.00     0.029 A 
ATOM     49  N   UNL A   1      41.521  31.326  36.196  1.00  0.00    -0.354 N 
ATOM     50  N   UNL A   1      41.156  29.804  33.719  1.00  0.00    -0.248 NA
ATOM     51  C   UNL A   1      41.953  28.295  32.125  1.00  0.00     0.031 C 
ATOM     52  C   UNL A   1      43.331  30.921  37.421  1.00  0.00     0.029 A 
ATOM     53  C   UNL A   1      42.686  30.576  36.244  1.00  0.00     0.049 A 
ATOM     54  H   UNL A   1      40.859  31.294  35.468  1.00  0.00     0.167 HD
ATOM     55  C   UNL A   1      42.390  29.319  34.129  1.00  0.00     0.074 A 
ATOM     56  C   UNL A   1      42.820  28.369  33.124  1.00  0.00     0.031 C 
ATOM     57  C   UNL A   1      43.104  29.637  35.236  1.00  0.00     0.037 A 
BRANCH  44  58
ATOM     58  C   UNL A   1      40.423  33.875  38.844  1.00  0.00     0.057 A 
ATOM     59  C   UNL A   1      39.818  33.481  40.042  1.00  0.00     0.134 A 
ATOM     60  C   UNL A   1      41.153  35.073  38.854  1.00  0.00     0.134 A 
ATOM     61  F   UNL A   1      39.093  32.354  40.099  1.00  0.00    -0.206 F 
ATOM     62  C   UNL A   1      39.917  34.256  41.200  1.00  0.00     0.040 A 
ATOM     63  C   UNL A   1      41.281  35.842  40.011  1.00  0.00     0.040 A 
ATOM     64  F   UNL A   1      41.765  35.508  37.742  1.00  0.00    -0.206 F 
ATOM     65  C   UNL A   1      40.657  35.437  41.188  1.00  0.00     0.006 A 
ENDBRANCH  44  58
BRANCH  45  66
ATOM     66  C   UNL A   1      39.604  28.601  30.411  1.00  0.00     0.057 A 
ATOM     67  C   UNL A   1      39.030  27.326  30.374  1.00  0.00     0.134 A 
ATOM     68  C   UNL A   1      40.080  29.128  29.203  1.00  0.00     0.134 A 
ATOM     69  F   UNL A   1      38.580  26.755  31.500  1.00  0.00    -0.206 F 
ATOM     70  C   UNL A   1      38.942  26.598  29.185  1.00  0.00     0.040 A 
ATOM     71  C   UNL A   1      39.970  28.426  28.003  1.00  0.00     0.040 A 
ATOM     72  F   UNL A   1      40.640  30.347  29.169  1.00  0.00    -0.206 F 
ATOM     73  C   UNL A   1      39.405  27.153  27.993  1.00  0.00     0.006 A 
ENDBRANCH  45  66
BRANCH  57  74
ATOM     74  C   UNL A   1      44.413  28.930  35.426  1.00  0.00     0.057 A 
ATOM     75  C   UNL A   1      45.615  29.459  34.937  1.00  0.00     0.134 A 
ATOM     76  C   UNL A   1      44.475  27.718  36.124  1.00  0.00     0.134 A 
ATOM     77  F   UNL A   1      45.621  30.608  34.245  1.00  0.00    -0.206 F 
ATOM     78  C   UNL A   1      46.829  28.793  35.115  1.00  0.00     0.040 A 
ATOM     79  C   UNL A   1      45.686  27.058  36.332  1.00  0.00     0.040 A 
ATOM     80  F   UNL A   1      43.361  27.161  36.625  1.00  0.00    -0.206 F 
ATOM     81  C   UNL A   1      46.867  27.592  35.821  1.00  0.00     0.006 A 
ENDBRANCH  57  74
ENDBRANCH  31  32
ENDBRANCH  24  26
ENDBRANCH  23  24
ENDBRANCH  22  23
ENDBRANCH  21  22
ENDBRANCH  20  21
ENDBRANCH   1  20
TORSDOF 17
ENDMDL
MODEL 3
REMARK VINA RESULT:      -9.9      2.193      2.867
REMARK SMILES CCCCCCC(=O)Nc1ccc(Cl)c(C(=O)OCCOC(=O)c2ccc(-c3c4nc(c(-c5c(F)cccc5F)c5ccc([nH]5)c(-c5c(F)cccc5F)c5nc(c(-c6c(F)cccc6F)c6ccc3[nH]6)C=C5)C=C4)cc2)c1
REMARK SMILES IDX 16 1 17 2 15 3 10 4 11 5 78 6 12 7 13 8 14 9 9 10 7 11 8 12
REMARK SMILES IDX 6 14 5 15 4 16 3 17 2 18 1 19 18 20 19 21 20 22 21 23 22 24
REMARK SMILES IDX 23 25 24 26 25 27 77 28 26 29 76 30 27 31 28 32 29 33 70 34
REMARK SMILES IDX 30 35 75 36 69 37 71 38 31 39 74 40 68 41 67 42 32 44 58 45
REMARK SMILES IDX 41 46 57 47 42 48 45 49 56 50 72 51 43 52 44 53 55 55 73 56
REMARK SMILES IDX 46 57 33 58 34 59 39 60 35 61 36 62 38 63 40 64 37 65 59 66
REMARK SMILES IDX 60 67 65 68 61 69 62 70 64 71 66 72 63 73 47 74 48 75 53 76
REMARK SMILES IDX 49 77 50 78 52 79 54 80 51 81
REMARK H PARENT 9 13 71 43 45 54
REMARK Flexibility Score: inf
ROOT
ATOM      1  C   UNL A   1      32.350  26.499  24.078  1.00  0.00     0.339 C 
ATOM      2  O   UNL A   1      32.244  26.449  22.869  1.00  0.00    -0.246 OA
ENDROOT
BRANCH   1   3
ATOM      3  C   UNL A   1      32.798  25.348  24.916  1.00  0.00     0.080 A 
ATOM      4  C   UNL A   1      34.713  24.090  25.743  1.00  0.00     0.042 A 
ATOM      5  C   UNL A   1      33.930  23.615  26.793  1.00  0.00     0.028 A 
ATOM      6  C   UNL A   1      34.154  24.951  24.797  1.00  0.00     0.043 A 
ATOM      7  C   UNL A   1      32.564  23.883  26.827  1.00  0.00     0.023 A 
ATOM      8  C   UNL A   1      31.987  24.739  25.886  1.00  0.00     0.055 A 
ATOM      9  Cl  UNL A   1      30.267  24.904  25.952  1.00  0.00    -0.083 Cl
BRANCH   4  10
ATOM     10  N   UNL A   1      36.076  23.790  25.787  1.00  0.00    -0.326 N 
ATOM     11  C   UNL A   1      36.730  22.690  25.311  1.00  0.00     0.224 C 
ATOM     12  O   UNL A   1      37.876  22.486  25.720  1.00  0.00    -0.275 OA
ATOM     13  H   UNL A   1      36.646  24.466  26.221  1.00  0.00     0.169 HD
BRANCH  11  14
ATOM     14  C   UNL A   1      36.078  21.719  24.353  1.00  0.00     0.100 C 
BRANCH  14  15
ATOM     15  C   UNL A   1      35.569  20.424  24.996  1.00  0.00     0.010 C 
BRANCH  15  16
ATOM     16  C   UNL A   1      34.078  20.345  25.352  1.00  0.00     0.001 C 
BRANCH  16  17
ATOM     17  C   UNL A   1      33.136  20.327  24.142  1.00  0.00    -0.000 C 
BRANCH  17  18
ATOM     18  C   UNL A   1      32.244  21.554  23.995  1.00  0.00    -0.003 C 
ATOM     19  C   UNL A   1      32.534  22.344  22.730  1.00  0.00     0.004 C 
ENDBRANCH  17  18
ENDBRANCH  16  17
ENDBRANCH  15  16
ENDBRANCH  14  15
ENDBRANCH  11  14
ENDBRANCH   4  10
ENDBRANCH   1   3
BRANCH   1  20
ATOM     20  O   UNL A   1      32.320  27.615  24.842  1.00  0.00    -0.458 OA
BRANCH  20  21
ATOM     21  C   UNL A   1      31.667  28.799  24.348  1.00  0.00     0.275 C 
BRANCH  21  22
ATOM     22  C   UNL A   1      31.640  29.832  25.477  1.00  0.00     0.275 C 
BRANCH  22  23
ATOM     23  O   UNL A   1      32.993  30.188  25.826  1.00  0.00    -0.458 OA
BRANCH  23  24
ATOM     24  C   UNL A   1      33.124  31.089  26.825  1.00  0.00     0.338 C 
ATOM     25  O   UNL A   1      32.302  31.893  27.230  1.00  0.00    -0.246 OA
BRANCH  24  26
ATOM     26  C   UNL A   1      34.416  30.875  27.486  1.00  0.00     0.060 A 
ATOM     27  C   UNL A   1      34.738  29.577  27.871  1.00  0.00     0.016 A 
ATOM     28  C   UNL A   1      35.248  31.936  27.825  1.00  0.00     0.016 A 
ATOM     29  C   UNL A   1      35.842  29.338  28.681  1.00  0.00     0.010 A 
ATOM     30  C   UNL A   1      36.424  31.678  28.542  1.00  0.00     0.010 A 
ATOM     31  C   UNL A   1      36.723  30.379  28.998  1.00  0.00    -0.014 A 
BRANCH  31  32
ATOM     32  C   UNL A   1      37.957  30.098  29.787  1.00  0.00     0.031 A 
ATOM     33  C   UNL A   1      39.052  29.237  29.216  1.00  0.00     0.074 A 
ATOM     34  C   UNL A   1      38.099  30.618  31.024  1.00  0.00     0.049 A 
ATOM     35  N   UNL A   1      40.113  28.747  29.808  1.00  0.00    -0.248 NA
ATOM     36  C   UNL A   1      38.934  28.868  27.797  1.00  0.00     0.031 C 
ATOM     37  C   UNL A   1      37.137  31.500  31.690  1.00  0.00     0.029 A 
ATOM     38  N   UNL A   1      39.110  30.484  31.943  1.00  0.00    -0.354 N 
ATOM     39  C   UNL A   1      40.761  27.976  28.850  1.00  0.00     0.074 A 
ATOM     40  C   UNL A   1      39.969  28.055  27.641  1.00  0.00     0.031 C 
ATOM     41  C   UNL A   1      37.618  31.857  32.888  1.00  0.00     0.029 A 
ATOM     42  C   UNL A   1      38.874  31.155  33.121  1.00  0.00     0.049 A 
ATOM     43  H   UNL A   1      39.924  29.958  31.777  1.00  0.00     0.167 HD
ATOM     44  C   UNL A   1      41.911  27.269  28.970  1.00  0.00     0.037 A 
ATOM     45  C   UNL A   1      39.560  31.168  34.279  1.00  0.00     0.037 A 
ATOM     46  C   UNL A   1      42.719  27.229  30.163  1.00  0.00     0.049 A 
ATOM     47  C   UNL A   1      40.801  30.334  34.404  1.00  0.00     0.074 A 
ATOM     48  C   UNL A   1      43.912  26.557  30.375  1.00  0.00     0.029 A 
ATOM     49  N   UNL A   1      42.422  27.894  31.343  1.00  0.00    -0.354 N 
ATOM     50  N   UNL A   1      41.382  29.578  33.504  1.00  0.00    -0.248 NA
ATOM     51  C   UNL A   1      41.471  30.337  35.711  1.00  0.00     0.031 C 
ATOM     52  C   UNL A   1      44.311  26.778  31.698  1.00  0.00     0.029 A 
ATOM     53  C   UNL A   1      43.395  27.629  32.295  1.00  0.00     0.049 A 
ATOM     54  H   UNL A   1      41.637  28.470  31.485  1.00  0.00     0.167 HD
ATOM     55  C   UNL A   1      42.491  29.026  34.131  1.00  0.00     0.074 A 
ATOM     56  C   UNL A   1      42.514  29.552  35.480  1.00  0.00     0.031 C 
ATOM     57  C   UNL A   1      43.404  28.157  33.634  1.00  0.00     0.037 A 
BRANCH  44  58
ATOM     58  C   UNL A   1      42.352  26.449  27.791  1.00  0.00     0.057 A 
ATOM     59  C   UNL A   1      41.949  25.121  27.610  1.00  0.00     0.134 A 
ATOM     60  C   UNL A   1      43.163  27.017  26.798  1.00  0.00     0.134 A 
ATOM     61  F   UNL A   1      41.185  24.512  28.529  1.00  0.00    -0.206 F 
ATOM     62  C   UNL A   1      42.352  24.381  26.497  1.00  0.00     0.040 A 
ATOM     63  C   UNL A   1      43.550  26.296  25.668  1.00  0.00     0.040 A 
ATOM     64  F   UNL A   1      43.581  28.288  26.903  1.00  0.00    -0.206 F 
ATOM     65  C   UNL A   1      43.150  24.971  25.517  1.00  0.00     0.006 A 
ENDBRANCH  44  58
BRANCH  45  66
ATOM     66  C   UNL A   1      39.055  31.960  35.430  1.00  0.00     0.057 A 
ATOM     67  C   UNL A   1      39.366  33.316  35.569  1.00  0.00     0.134 A 
ATOM     68  C   UNL A   1      38.251  31.379  36.420  1.00  0.00     0.134 A 
ATOM     69  F   UNL A   1      40.153  33.925  34.670  1.00  0.00    -0.206 F 
ATOM     70  C   UNL A   1      38.904  34.065  36.654  1.00  0.00     0.040 A 
ATOM     71  C   UNL A   1      37.756  32.122  37.492  1.00  0.00     0.040 A 
ATOM     72  F   UNL A   1      37.914  30.082  36.345  1.00  0.00    -0.206 F 
ATOM     73  C   UNL A   1      38.089  33.469  37.615  1.00  0.00     0.006 A 
ENDBRANCH  45  66
BRANCH  57  74
ATOM     74  C   UNL A   1      44.517  27.742  34.551  1.00  0.00     0.057 A 
ATOM     75  C   UNL A   1      44.423  26.599  35.355  1.00  0.00     0.134 A 
ATOM     76  C   UNL A   1      45.703  28.484  34.615  1.00  0.00     0.134 A 
ATOM     77  F   UNL A   1      43.307  25.854  35.352  1.00  0.00    -0.206 F 
ATOM     78  C   UNL A   1      45.462  26.221  36.208  1.00  0.00     0.040 A 
ATOM     79  C   UNL A   1      46.758  28.102  35.443  1.00  0.00     0.040 A 
ATOM     80  F   UNL A   1      45.859  29.586  33.866  1.00  0.00    -0.206 F 
ATOM     81  C   UNL A   1      46.636  26.971  36.248  1.00  0.00     0.006 A 
ENDBRANCH  57  74
ENDBRANCH  31  32
ENDBRANCH  24  26
ENDBRANCH  23  24
ENDBRANCH  22  23
ENDBRANCH  21  22
ENDBRANCH  20  21
ENDBRANCH   1  20
TORSDOF 17
ENDMDL
