MODEL 1
REMARK VINA RESULT:     -12.3      0.000      0.000
REMARK SMILES O=C(COc1ccc(/C=N/NC(=O)c2cc3cc([N+](=O)[O-])ccc3o2)cc1)OCCOC(=O)c1ccc(-c2c3nc(c(-c4c(F)cccc4F)c4ccc([nH]4)c(-c4c(F)cccc4F)c4nc(c(-c5c(F)cccc5F)c5ccc2[nH]5)C=C4)C=C3)cc1
REMARK SMILES IDX 1 1 2 2 3 3 4 4 5 5 6 6 27 7 7 8 26 9 8 10 9 11 10 12 11 13
REMARK SMILES IDX 12 14 13 16 14 17 15 18 25 19 16 20 24 21 17 22 23 23 18 24
REMARK SMILES IDX 22 25 19 26 20 27 21 28 28 29 29 30 30 31 31 32 32 33 33 34
REMARK SMILES IDX 34 35 35 36 87 37 36 38 86 39 37 40 38 41 39 42 80 43 40 44
REMARK SMILES IDX 85 45 79 46 81 47 41 48 84 49 78 50 77 51 42 53 68 54 51 55
REMARK SMILES IDX 67 56 52 57 55 58 66 59 82 60 53 61 54 62 65 64 83 65 56 66
REMARK SMILES IDX 43 67 44 68 49 69 45 70 46 71 48 72 50 73 47 74 69 75 70 76
REMARK SMILES IDX 75 77 71 78 72 79 74 80 76 81 73 82 57 83 58 84 63 85 59 86
REMARK SMILES IDX 60 87 62 88 64 89 61 90
REMARK H PARENT 11 15 81 52 55 63
REMARK Flexibility Score: inf
ROOT
ATOM      1  O   UNL A   1      34.551  35.308  28.965  1.00  0.00    -0.248 OA
ATOM      2  C   UNL A   1      34.400  34.098  29.126  1.00  0.00     0.344 C 
ENDROOT
BRANCH   2   3
ATOM      3  C   UNL A   1      34.681  33.112  28.000  1.00  0.00     0.351 C 
BRANCH   3   4
ATOM      4  O   UNL A   1      35.177  31.857  28.452  1.00  0.00    -0.482 OA
BRANCH   4   5
ATOM      5  C   UNL A   1      34.493  30.846  27.838  1.00  0.00     0.120 A 
ATOM      6  C   UNL A   1      33.159  31.061  27.505  1.00  0.00     0.047 A 
ATOM      7  C   UNL A   1      35.116  29.624  27.576  1.00  0.00     0.047 A 
ATOM      8  C   UNL A   1      32.447  30.050  26.869  1.00  0.00     0.013 A 
ATOM      9  C   UNL A   1      34.406  28.613  26.937  1.00  0.00     0.013 A 
ATOM     10  C   UNL A   1      33.072  28.829  26.587  1.00  0.00    -0.005 A 
BRANCH  10  11
ATOM     11  C   UNL A   1      32.298  27.703  26.029  1.00  0.00     0.141 C 
ATOM     12  N   UNL A   1      31.250  27.273  26.643  1.00  0.00    -0.180 NA
BRANCH  12  13
ATOM     13  N   UNL A   1      30.637  26.107  26.294  1.00  0.00    -0.240 N 
ATOM     14  C   UNL A   1      30.477  25.510  25.062  1.00  0.00     0.307 C 
ATOM     15  H   UNL A   1      30.243  25.608  27.047  1.00  0.00     0.194 HD
ATOM     16  O   UNL A   1      30.777  24.318  24.960  1.00  0.00    -0.264 OA
BRANCH  14  17
ATOM     17  C   UNL A   1      29.812  26.197  23.978  1.00  0.00     0.194 A 
ATOM     18  C   UNL A   1      28.521  26.700  23.906  1.00  0.00     0.065 A 
ATOM     19  O   UNL A   1      30.621  26.900  23.120  1.00  0.00    -0.451 OA
ATOM     20  C   UNL A   1      28.631  27.952  23.241  1.00  0.00     0.028 A 
ATOM     21  C   UNL A   1      29.937  28.024  22.774  1.00  0.00     0.135 A 
ATOM     22  C   UNL A   1      27.804  29.084  23.126  1.00  0.00     0.097 A 
ATOM     23  C   UNL A   1      30.500  29.145  22.170  1.00  0.00     0.055 A 
ATOM     24  C   UNL A   1      28.393  30.271  22.649  1.00  0.00     0.270 A 
ATOM     25  C   UNL A   1      29.711  30.300  22.159  1.00  0.00     0.089 A 
BRANCH  24  26
ATOM     26  N   UNL A   1      27.649  31.529  22.784  1.00  0.00     0.062 N 
ATOM     27  O   UNL A   1      26.903  31.654  23.766  1.00  0.00    -0.258 OA
ATOM     28  O   UNL A   1      27.833  32.402  21.923  1.00  0.00    -0.258 OA
ENDBRANCH  24  26
ENDBRANCH  14  17
ENDBRANCH  12  13
ENDBRANCH  10  11
ENDBRANCH   4   5
ENDBRANCH   3   4
ENDBRANCH   2   3
BRANCH   2  29
ATOM     29  O   UNL A   1      34.027  33.607  30.332  1.00  0.00    -0.460 OA
BRANCH  29  30
ATOM     30  C   UNL A   1      34.476  34.153  31.591  1.00  0.00     0.274 C 
BRANCH  30  31
ATOM     31  C   UNL A   1      34.475  33.074  32.677  1.00  0.00     0.275 C 
BRANCH  31  32
ATOM     32  O   UNL A   1      35.387  32.017  32.319  1.00  0.00    -0.458 OA
BRANCH  32  33
ATOM     33  C   UNL A   1      36.532  31.942  33.043  1.00  0.00     0.338 C 
ATOM     34  O   UNL A   1      36.654  32.117  34.242  1.00  0.00    -0.246 OA
BRANCH  33  35
ATOM     35  C   UNL A   1      37.598  31.397  32.171  1.00  0.00     0.060 A 
ATOM     36  C   UNL A   1      38.718  30.806  32.771  1.00  0.00     0.016 A 
ATOM     37  C   UNL A   1      37.481  31.429  30.779  1.00  0.00     0.016 A 
ATOM     38  C   UNL A   1      39.736  30.266  31.980  1.00  0.00     0.010 A 
ATOM     39  C   UNL A   1      38.503  30.900  29.988  1.00  0.00     0.010 A 
ATOM     40  C   UNL A   1      39.646  30.339  30.583  1.00  0.00    -0.014 A 
BRANCH  40  41
ATOM     41  C   UNL A   1      40.805  29.995  29.725  1.00  0.00     0.031 A 
ATOM     42  C   UNL A   1      40.891  28.604  29.166  1.00  0.00     0.074 A 
ATOM     43  C   UNL A   1      41.795  30.875  29.496  1.00  0.00     0.049 A 
ATOM     44  N   UNL A   1      41.859  28.035  28.497  1.00  0.00    -0.248 NA
ATOM     45  C   UNL A   1      39.729  27.734  29.410  1.00  0.00     0.031 C 
ATOM     46  C   UNL A   1      41.827  32.258  29.966  1.00  0.00     0.029 A 
ATOM     47  N   UNL A   1      42.985  30.716  28.830  1.00  0.00    -0.354 N 
ATOM     48  C   UNL A   1      41.430  26.739  28.247  1.00  0.00     0.074 A 
ATOM     49  C   UNL A   1      40.124  26.598  28.856  1.00  0.00     0.031 C 
ATOM     50  C   UNL A   1      42.998  32.813  29.603  1.00  0.00     0.029 A 
ATOM     51  C   UNL A   1      43.804  31.815  28.899  1.00  0.00     0.049 A 
ATOM     52  H   UNL A   1      43.228  29.890  28.350  1.00  0.00     0.167 HD
ATOM     53  C   UNL A   1      42.064  25.754  27.569  1.00  0.00     0.037 A 
ATOM     54  C   UNL A   1      45.071  31.985  28.470  1.00  0.00     0.037 A 
ATOM     55  C   UNL A   1      43.362  25.887  26.968  1.00  0.00     0.049 A 
ATOM     56  C   UNL A   1      45.782  30.857  27.770  1.00  0.00     0.074 A 
ATOM     57  C   UNL A   1      44.066  24.957  26.223  1.00  0.00     0.029 A 
ATOM     58  N   UNL A   1      44.157  27.018  27.056  1.00  0.00    -0.354 N 
ATOM     59  N   UNL A   1      45.348  29.651  27.490  1.00  0.00    -0.248 NA
ATOM     60  C   UNL A   1      47.162  31.112  27.326  1.00  0.00     0.031 C 
ATOM     61  C   UNL A   1      45.310  25.510  25.901  1.00  0.00     0.029 A 
ATOM     62  C   UNL A   1      45.361  26.799  26.407  1.00  0.00     0.049 A 
ATOM     63  H   UNL A   1      43.905  27.853  27.512  1.00  0.00     0.167 HD
ATOM     64  C   UNL A   1      46.386  29.017  26.818  1.00  0.00     0.074 A 
ATOM     65  C   UNL A   1      47.472  29.969  26.728  1.00  0.00     0.031 C 
ATOM     66  C   UNL A   1      46.431  27.758  26.316  1.00  0.00     0.037 A 
BRANCH  53  67
ATOM     67  C   UNL A   1      41.361  24.434  27.471  1.00  0.00     0.057 A 
ATOM     68  C   UNL A   1      41.731  23.340  28.264  1.00  0.00     0.134 A 
ATOM     69  C   UNL A   1      40.300  24.258  26.575  1.00  0.00     0.134 A 
ATOM     70  F   UNL A   1      42.752  23.441  29.128  1.00  0.00    -0.206 F 
ATOM     71  C   UNL A   1      41.087  22.108  28.148  1.00  0.00     0.040 A 
ATOM     72  C   UNL A   1      39.633  23.038  26.468  1.00  0.00     0.040 A 
ATOM     73  F   UNL A   1      39.897  25.268  25.789  1.00  0.00    -0.206 F 
ATOM     74  C   UNL A   1      40.031  21.956  27.251  1.00  0.00     0.006 A 
ENDBRANCH  53  67
BRANCH  54  75
ATOM     75  C   UNL A   1      45.765  33.273  28.714  1.00  0.00     0.057 A 
ATOM     76  C   UNL A   1      46.512  33.485  29.878  1.00  0.00     0.134 A 
ATOM     77  C   UNL A   1      45.684  34.328  27.797  1.00  0.00     0.134 A 
ATOM     78  F   UNL A   1      46.604  32.522  30.806  1.00  0.00    -0.206 F 
ATOM     79  C   UNL A   1      47.146  34.704  30.126  1.00  0.00     0.040 A 
ATOM     80  C   UNL A   1      46.328  35.544  28.022  1.00  0.00     0.040 A 
ATOM     81  F   UNL A   1      44.980  34.185  26.663  1.00  0.00    -0.206 F 
ATOM     82  C   UNL A   1      47.058  35.736  29.194  1.00  0.00     0.006 A 
ENDBRANCH  54  75
BRANCH  66  83
ATOM     83  C   UNL A   1      47.679  27.337  25.597  1.00  0.00     0.057 A 
ATOM     84  C   UNL A   1      48.752  26.742  26.269  1.00  0.00     0.134 A 
ATOM     85  C   UNL A   1      47.771  27.460  24.204  1.00  0.00     0.134 A 
ATOM     86  F   UNL A   1      48.728  26.606  27.603  1.00  0.00    -0.206 F 
ATOM     87  C   UNL A   1      49.879  26.286  25.581  1.00  0.00     0.040 A 
ATOM     88  C   UNL A   1      48.883  26.990  23.503  1.00  0.00     0.040 A 
ATOM     89  F   UNL A   1      46.773  28.014  23.502  1.00  0.00    -0.206 F 
ATOM     90  C   UNL A   1      49.941  26.402  24.193  1.00  0.00     0.006 A 
ENDBRANCH  66  83
ENDBRANCH  40  41
ENDBRANCH  33  35
ENDBRANCH  32  33
ENDBRANCH  31  32
ENDBRANCH  30  31
ENDBRANCH  29  30
ENDBRANCH   2  29
TORSDOF 17
ENDMDL
MODEL 2
REMARK VINA RESULT:     -12.3      2.306      6.928
REMARK SMILES O=C(COc1ccc(/C=N/NC(=O)c2cc3cc([N+](=O)[O-])ccc3o2)cc1)OCCOC(=O)c1ccc(-c2c3nc(c(-c4c(F)cccc4F)c4ccc([nH]4)c(-c4c(F)cccc4F)c4nc(c(-c5c(F)cccc5F)c5ccc2[nH]5)C=C4)C=C3)cc1
REMARK SMILES IDX 1 1 2 2 3 3 4 4 5 5 6 6 27 7 7 8 26 9 8 10 9 11 10 12 11 13
REMARK SMILES IDX 12 14 13 16 14 17 15 18 25 19 16 20 24 21 17 22 23 23 18 24
REMARK SMILES IDX 22 25 19 26 20 27 21 28 28 29 29 30 30 31 31 32 32 33 33 34
REMARK SMILES IDX 34 35 35 36 87 37 36 38 86 39 37 40 38 41 39 42 80 43 40 44
REMARK SMILES IDX 85 45 79 46 81 47 41 48 84 49 78 50 77 51 42 53 68 54 51 55
REMARK SMILES IDX 67 56 52 57 55 58 66 59 82 60 53 61 54 62 65 64 83 65 56 66
REMARK SMILES IDX 43 67 44 68 49 69 45 70 46 71 48 72 50 73 47 74 69 75 70 76
REMARK SMILES IDX 75 77 71 78 72 79 74 80 76 81 73 82 57 83 58 84 63 85 59 86
REMARK SMILES IDX 60 87 62 88 64 89 61 90
REMARK H PARENT 11 15 81 52 55 63
REMARK Flexibility Score: inf
ROOT
ATOM      1  O   UNL A   1      34.861  33.312  27.327  1.00  0.00    -0.248 OA
ATOM      2  C   UNL A   1      34.269  32.520  28.058  1.00  0.00     0.344 C 
ENDROOT
BRANCH   2   3
ATOM      3  C   UNL A   1      33.517  31.328  27.482  1.00  0.00     0.351 C 
BRANCH   3   4
ATOM      4  O   UNL A   1      34.353  30.213  27.189  1.00  0.00    -0.482 OA
BRANCH   4   5
ATOM      5  C   UNL A   1      33.581  29.142  26.839  1.00  0.00     0.120 A 
ATOM      6  C   UNL A   1      32.259  29.114  27.271  1.00  0.00     0.047 A 
ATOM      7  C   UNL A   1      34.119  28.095  26.089  1.00  0.00     0.047 A 
ATOM      8  C   UNL A   1      31.451  28.038  26.917  1.00  0.00     0.013 A 
ATOM      9  C   UNL A   1      33.312  27.020  25.730  1.00  0.00     0.013 A 
ATOM     10  C   UNL A   1      31.981  26.994  26.148  1.00  0.00    -0.005 A 
BRANCH  10  11
ATOM     11  C   UNL A   1      31.178  25.787  25.871  1.00  0.00     0.141 C 
ATOM     12  N   UNL A   1      30.118  25.544  26.562  1.00  0.00    -0.180 NA
BRANCH  12  13
ATOM     13  N   UNL A   1      29.474  24.344  26.498  1.00  0.00    -0.240 N 
ATOM     14  C   UNL A   1      29.774  23.132  27.083  1.00  0.00     0.307 C 
ATOM     15  H   UNL A   1      28.661  24.342  25.943  1.00  0.00     0.194 HD
ATOM     16  O   UNL A   1      28.871  22.550  27.688  1.00  0.00    -0.264 OA
BRANCH  14  17
ATOM     17  C   UNL A   1      31.040  22.477  26.844  1.00  0.00     0.194 A 
ATOM     18  C   UNL A   1      31.499  21.822  25.711  1.00  0.00     0.065 A 
ATOM     19  O   UNL A   1      32.112  22.954  27.557  1.00  0.00    -0.451 OA
ATOM     20  C   UNL A   1      32.861  22.206  25.567  1.00  0.00     0.028 A 
ATOM     21  C   UNL A   1      33.188  22.894  26.728  1.00  0.00     0.135 A 
ATOM     22  C   UNL A   1      33.790  22.171  24.512  1.00  0.00     0.097 A 
ATOM     23  C   UNL A   1      34.398  23.550  26.944  1.00  0.00     0.055 A 
ATOM     24  C   UNL A   1      34.958  22.944  24.651  1.00  0.00     0.270 A 
ATOM     25  C   UNL A   1      35.270  23.606  25.852  1.00  0.00     0.089 A 
BRANCH  24  26
ATOM     26  N   UNL A   1      35.804  23.159  23.470  1.00  0.00     0.062 N 
ATOM     27  O   UNL A   1      37.032  23.144  23.633  1.00  0.00    -0.258 OA
ATOM     28  O   UNL A   1      35.239  23.315  22.378  1.00  0.00    -0.258 OA
ENDBRANCH  24  26
ENDBRANCH  14  17
ENDBRANCH  12  13
ENDBRANCH  10  11
ENDBRANCH   4   5
ENDBRANCH   3   4
ENDBRANCH   2   3
BRANCH   2  29
ATOM     29  O   UNL A   1      34.316  32.661  29.404  1.00  0.00    -0.460 OA
BRANCH  29  30
ATOM     30  C   UNL A   1      34.334  33.940  30.074  1.00  0.00     0.274 C 
BRANCH  30  31
ATOM     31  C   UNL A   1      34.450  33.753  31.588  1.00  0.00     0.275 C 
BRANCH  31  32
ATOM     32  O   UNL A   1      34.932  32.428  31.883  1.00  0.00    -0.458 OA
BRANCH  32  33
ATOM     33  C   UNL A   1      35.992  32.348  32.727  1.00  0.00     0.338 C 
ATOM     34  O   UNL A   1      36.013  32.647  33.908  1.00  0.00    -0.246 OA
BRANCH  33  35
ATOM     35  C   UNL A   1      37.086  31.629  32.034  1.00  0.00     0.060 A 
ATOM     36  C   UNL A   1      37.959  30.841  32.796  1.00  0.00     0.016 A 
ATOM     37  C   UNL A   1      37.228  31.694  30.645  1.00  0.00     0.016 A 
ATOM     38  C   UNL A   1      38.993  30.136  32.174  1.00  0.00     0.010 A 
ATOM     39  C   UNL A   1      38.268  30.998  30.025  1.00  0.00     0.010 A 
ATOM     40  C   UNL A   1      39.169  30.236  30.788  1.00  0.00    -0.014 A 
BRANCH  40  41
ATOM     41  C   UNL A   1      40.385  29.699  30.132  1.00  0.00     0.031 A 
ATOM     42  C   UNL A   1      41.528  30.637  29.869  1.00  0.00     0.074 A 
ATOM     43  C   UNL A   1      40.455  28.421  29.720  1.00  0.00     0.049 A 
ATOM     44  N   UNL A   1      42.636  30.433  29.207  1.00  0.00    -0.248 NA
ATOM     45  C   UNL A   1      41.391  31.996  30.419  1.00  0.00     0.031 C 
ATOM     46  C   UNL A   1      39.425  27.406  29.926  1.00  0.00     0.029 A 
ATOM     47  N   UNL A   1      41.434  27.772  29.009  1.00  0.00    -0.354 N 
ATOM     48  C   UNL A   1      43.325  31.637  29.250  1.00  0.00     0.074 A 
ATOM     49  C   UNL A   1      42.500  32.573  29.984  1.00  0.00     0.031 C 
ATOM     50  C   UNL A   1      39.813  26.267  29.323  1.00  0.00     0.029 A 
ATOM     51  C   UNL A   1      41.103  26.484  28.668  1.00  0.00     0.049 A 
ATOM     52  H   UNL A   1      42.292  28.192  28.767  1.00  0.00     0.167 HD
ATOM     53  C   UNL A   1      44.538  31.938  28.729  1.00  0.00     0.037 A 
ATOM     54  C   UNL A   1      41.753  25.596  27.891  1.00  0.00     0.037 A 
ATOM     55  C   UNL A   1      45.358  31.014  27.995  1.00  0.00     0.049 A 
ATOM     56  C   UNL A   1      43.074  25.968  27.270  1.00  0.00     0.074 A 
ATOM     57  C   UNL A   1      46.620  31.215  27.466  1.00  0.00     0.029 A 
ATOM     58  N   UNL A   1      44.988  29.718  27.674  1.00  0.00    -0.354 N 
ATOM     59  N   UNL A   1      43.743  27.092  27.361  1.00  0.00    -0.248 NA
ATOM     60  C   UNL A   1      43.729  24.949  26.434  1.00  0.00     0.031 C 
ATOM     61  C   UNL A   1      46.996  30.053  26.783  1.00  0.00     0.029 A 
ATOM     62  C   UNL A   1      45.985  29.116  26.925  1.00  0.00     0.049 A 
ATOM     63  H   UNL A   1      44.143  29.288  27.940  1.00  0.00     0.167 HD
ATOM     64  C   UNL A   1      44.905  26.906  26.621  1.00  0.00     0.074 A 
ATOM     65  C   UNL A   1      44.854  25.562  26.089  1.00  0.00     0.031 C 
ATOM     66  C   UNL A   1      45.926  27.773  26.408  1.00  0.00     0.037 A 
BRANCH  53  67
ATOM     67  C   UNL A   1      45.030  33.340  28.916  1.00  0.00     0.057 A 
ATOM     68  C   UNL A   1      45.813  33.707  30.019  1.00  0.00     0.134 A 
ATOM     69  C   UNL A   1      44.719  34.334  27.981  1.00  0.00     0.134 A 
ATOM     70  F   UNL A   1      46.129  32.804  30.959  1.00  0.00    -0.206 F 
ATOM     71  C   UNL A   1      46.246  35.021  30.197  1.00  0.00     0.040 A 
ATOM     72  C   UNL A   1      45.166  35.645  28.137  1.00  0.00     0.040 A 
ATOM     73  F   UNL A   1      43.973  34.045  26.903  1.00  0.00    -0.206 F 
ATOM     74  C   UNL A   1      45.926  35.994  29.251  1.00  0.00     0.006 A 
ENDBRANCH  53  67
BRANCH  54  75
ATOM     75  C   UNL A   1      41.150  24.265  27.631  1.00  0.00     0.057 A 
ATOM     76  C   UNL A   1      41.629  23.115  28.269  1.00  0.00     0.134 A 
ATOM     77  C   UNL A   1      40.092  24.110  26.728  1.00  0.00     0.134 A 
ATOM     78  F   UNL A   1      42.658  23.197  29.124  1.00  0.00    -0.206 F 
ATOM     79  C   UNL A   1      41.083  21.856  28.010  1.00  0.00     0.040 A 
ATOM     80  C   UNL A   1      39.524  22.861  26.474  1.00  0.00     0.040 A 
ATOM     81  F   UNL A   1      39.591  25.176  26.084  1.00  0.00    -0.206 F 
ATOM     82  C   UNL A   1      40.024  21.728  27.113  1.00  0.00     0.006 A 
ENDBRANCH  54  75
BRANCH  66  83
ATOM     83  C   UNL A   1      47.089  27.294  25.590  1.00  0.00     0.057 A 
ATOM     84  C   UNL A   1      47.187  27.564  24.220  1.00  0.00     0.134 A 
ATOM     85  C   UNL A   1      48.158  26.625  26.199  1.00  0.00     0.134 A 
ATOM     86  F   UNL A   1      46.192  28.192  23.577  1.00  0.00    -0.206 F 
ATOM     87  C   UNL A   1      48.308  27.178  23.481  1.00  0.00     0.040 A 
ATOM     88  C   UNL A   1      49.293  26.253  25.475  1.00  0.00     0.040 A 
ATOM     89  F   UNL A   1      48.129  26.345  27.510  1.00  0.00    -0.206 F 
ATOM     90  C   UNL A   1      49.369  26.529  24.112  1.00  0.00     0.006 A 
ENDBRANCH  66  83
ENDBRANCH  40  41
ENDBRANCH  33  35
ENDBRANCH  32  33
ENDBRANCH  31  32
ENDBRANCH  30  31
ENDBRANCH  29  30
ENDBRANCH   2  29
TORSDOF 17
ENDMDL
MODEL 3
REMARK VINA RESULT:     -12.3      4.875     10.406
REMARK SMILES O=C(COc1ccc(/C=N/NC(=O)c2cc3cc([N+](=O)[O-])ccc3o2)cc1)OCCOC(=O)c1ccc(-c2c3nc(c(-c4c(F)cccc4F)c4ccc([nH]4)c(-c4c(F)cccc4F)c4nc(c(-c5c(F)cccc5F)c5ccc2[nH]5)C=C4)C=C3)cc1
REMARK SMILES IDX 1 1 2 2 3 3 4 4 5 5 6 6 27 7 7 8 26 9 8 10 9 11 10 12 11 13
REMARK SMILES IDX 12 14 13 16 14 17 15 18 25 19 16 20 24 21 17 22 23 23 18 24
REMARK SMILES IDX 22 25 19 26 20 27 21 28 28 29 29 30 30 31 31 32 32 33 33 34
REMARK SMILES IDX 34 35 35 36 87 37 36 38 86 39 37 40 38 41 39 42 80 43 40 44
REMARK SMILES IDX 85 45 79 46 81 47 41 48 84 49 78 50 77 51 42 53 68 54 51 55
REMARK SMILES IDX 67 56 52 57 55 58 66 59 82 60 53 61 54 62 65 64 83 65 56 66
REMARK SMILES IDX 43 67 44 68 49 69 45 70 46 71 48 72 50 73 47 74 69 75 70 76
REMARK SMILES IDX 75 77 71 78 72 79 74 80 76 81 73 82 57 83 58 84 63 85 59 86
REMARK SMILES IDX 60 87 62 88 64 89 61 90
REMARK H PARENT 11 15 81 52 55 63
REMARK Flexibility Score: inf
ROOT
ATOM      1  O   UNL A   1      41.118  19.928  28.015  1.00  0.00    -0.248 OA
ATOM      2  C   UNL A   1      41.424  20.118  26.838  1.00  0.00     0.344 C 
ENDROOT
BRANCH   2   3
ATOM      3  C   UNL A   1      41.224  21.477  26.182  1.00  0.00     0.351 C 
BRANCH   3   4
ATOM      4  O   UNL A   1      40.464  22.385  26.973  1.00  0.00    -0.482 OA
BRANCH   4   5
ATOM      5  C   UNL A   1      39.231  22.560  26.412  1.00  0.00     0.120 A 
ATOM      6  C   UNL A   1      38.654  21.485  25.743  1.00  0.00     0.047 A 
ATOM      7  C   UNL A   1      38.583  23.794  26.491  1.00  0.00     0.047 A 
ATOM      8  C   UNL A   1      37.394  21.637  25.173  1.00  0.00     0.013 A 
ATOM      9  C   UNL A   1      37.322  23.947  25.926  1.00  0.00     0.013 A 
ATOM     10  C   UNL A   1      36.731  22.868  25.266  1.00  0.00    -0.005 A 
BRANCH  10  11
ATOM     11  C   UNL A   1      35.453  23.085  24.561  1.00  0.00     0.141 C 
ATOM     12  N   UNL A   1      35.386  22.927  23.284  1.00  0.00    -0.180 NA
BRANCH  12  13
ATOM     13  N   UNL A   1      34.300  23.328  22.564  1.00  0.00    -0.240 N 
ATOM     14  C   UNL A   1      32.957  23.299  22.873  1.00  0.00     0.307 C 
ATOM     15  H   UNL A   1      34.510  23.700  21.677  1.00  0.00     0.194 HD
ATOM     16  O   UNL A   1      32.308  24.333  22.704  1.00  0.00    -0.264 OA
BRANCH  14  17
ATOM     17  C   UNL A   1      32.292  22.059  23.205  1.00  0.00     0.194 A 
ATOM     18  C   UNL A   1      32.042  20.947  22.415  1.00  0.00     0.065 A 
ATOM     19  O   UNL A   1      32.350  21.675  24.522  1.00  0.00    -0.451 OA
ATOM     20  C   UNL A   1      32.292  19.819  23.245  1.00  0.00     0.028 A 
ATOM     21  C   UNL A   1      32.470  20.321  24.527  1.00  0.00     0.135 A 
ATOM     22  C   UNL A   1      32.534  18.454  23.007  1.00  0.00     0.097 A 
ATOM     23  C   UNL A   1      32.859  19.559  25.626  1.00  0.00     0.055 A 
ATOM     24  C   UNL A   1      33.064  17.697  24.069  1.00  0.00     0.270 A 
ATOM     25  C   UNL A   1      33.206  18.229  25.362  1.00  0.00     0.089 A 
BRANCH  24  26
ATOM     26  N   UNL A   1      33.592  16.357  23.781  1.00  0.00     0.062 N 
ATOM     27  O   UNL A   1      34.270  16.214  22.754  1.00  0.00    -0.258 OA
ATOM     28  O   UNL A   1      33.353  15.456  24.599  1.00  0.00    -0.258 OA
ENDBRANCH  24  26
ENDBRANCH  14  17
ENDBRANCH  12  13
ENDBRANCH  10  11
ENDBRANCH   4   5
ENDBRANCH   3   4
ENDBRANCH   2   3
BRANCH   2  29
ATOM     29  O   UNL A   1      41.998  19.130  26.111  1.00  0.00    -0.460 OA
BRANCH  29  30
ATOM     30  C   UNL A   1      42.878  18.132  26.670  1.00  0.00     0.274 C 
BRANCH  30  31
ATOM     31  C   UNL A   1      44.165  18.028  25.849  1.00  0.00     0.275 C 
BRANCH  31  32
ATOM     32  O   UNL A   1      43.951  18.567  24.530  1.00  0.00    -0.458 OA
BRANCH  32  33
ATOM     33  C   UNL A   1      44.993  19.236  23.978  1.00  0.00     0.338 C 
ATOM     34  O   UNL A   1      45.757  18.828  23.121  1.00  0.00    -0.246 OA
BRANCH  33  35
ATOM     35  C   UNL A   1      44.933  20.646  24.430  1.00  0.00     0.060 A 
ATOM     36  C   UNL A   1      44.571  21.633  23.504  1.00  0.00     0.016 A 
ATOM     37  C   UNL A   1      45.190  20.989  25.761  1.00  0.00     0.016 A 
ATOM     38  C   UNL A   1      44.489  22.971  23.900  1.00  0.00     0.010 A 
ATOM     39  C   UNL A   1      45.119  22.327  26.153  1.00  0.00     0.010 A 
ATOM     40  C   UNL A   1      44.792  23.327  25.221  1.00  0.00    -0.014 A 
BRANCH  40  41
ATOM     41  C   UNL A   1      44.946  24.749  25.612  1.00  0.00     0.031 A 
ATOM     42  C   UNL A   1      46.316  25.360  25.555  1.00  0.00     0.074 A 
ATOM     43  C   UNL A   1      43.906  25.468  26.070  1.00  0.00     0.049 A 
ATOM     44  N   UNL A   1      46.720  26.537  25.958  1.00  0.00    -0.248 NA
ATOM     45  C   UNL A   1      47.377  24.521  24.975  1.00  0.00     0.031 C 
ATOM     46  C   UNL A   1      42.526  25.000  26.161  1.00  0.00     0.029 A 
ATOM     47  N   UNL A   1      43.866  26.744  26.575  1.00  0.00    -0.354 N 
ATOM     48  C   UNL A   1      48.081  26.577  25.691  1.00  0.00     0.074 A 
ATOM     49  C   UNL A   1      48.439  25.300  25.112  1.00  0.00     0.031 C 
ATOM     50  C   UNL A   1      41.777  25.966  26.724  1.00  0.00     0.029 A 
ATOM     51  C   UNL A   1      42.632  27.106  27.054  1.00  0.00     0.049 A 
ATOM     52  H   UNL A   1      44.649  27.342  26.592  1.00  0.00     0.167 HD
ATOM     53  C   UNL A   1      48.955  27.588  25.905  1.00  0.00     0.037 A 
ATOM     54  C   UNL A   1      42.246  28.217  27.713  1.00  0.00     0.037 A 
ATOM     55  C   UNL A   1      48.606  28.856  26.484  1.00  0.00     0.049 A 
ATOM     56  C   UNL A   1      43.247  29.306  27.996  1.00  0.00     0.074 A 
ATOM     57  C   UNL A   1      49.415  29.957  26.701  1.00  0.00     0.029 A 
ATOM     58  N   UNL A   1      47.344  29.184  26.954  1.00  0.00    -0.354 N 
ATOM     59  N   UNL A   1      44.521  29.359  27.691  1.00  0.00    -0.248 NA
ATOM     60  C   UNL A   1      42.757  30.492  28.716  1.00  0.00     0.031 C 
ATOM     61  C   UNL A   1      48.653  30.937  27.345  1.00  0.00     0.029 A 
ATOM     62  C   UNL A   1      47.359  30.461  27.490  1.00  0.00     0.049 A 
ATOM     63  H   UNL A   1      46.555  28.598  26.912  1.00  0.00     0.167 HD
ATOM     64  C   UNL A   1      44.976  30.587  28.156  1.00  0.00     0.074 A 
ATOM     65  C   UNL A   1      43.843  31.252  28.762  1.00  0.00     0.031 C 
ATOM     66  C   UNL A   1      46.222  31.116  28.082  1.00  0.00     0.037 A 
BRANCH  53  67
ATOM     67  C   UNL A   1      50.385  27.341  25.531  1.00  0.00     0.057 A 
ATOM     68  C   UNL A   1      50.844  27.507  24.218  1.00  0.00     0.134 A 
ATOM     69  C   UNL A   1      51.313  26.936  26.498  1.00  0.00     0.134 A 
ATOM     70  F   UNL A   1      50.000  27.876  23.244  1.00  0.00    -0.206 F 
ATOM     71  C   UNL A   1      52.172  27.250  23.875  1.00  0.00     0.040 A 
ATOM     72  C   UNL A   1      52.647  26.700  26.171  1.00  0.00     0.040 A 
ATOM     73  F   UNL A   1      50.935  26.760  27.774  1.00  0.00    -0.206 F 
ATOM     74  C   UNL A   1      53.079  26.850  24.855  1.00  0.00     0.006 A 
ENDBRANCH  53  67
BRANCH  54  75
ATOM     75  C   UNL A   1      40.843  28.347  28.178  1.00  0.00     0.057 A 
ATOM     76  C   UNL A   1      40.458  27.912  29.451  1.00  0.00     0.134 A 
ATOM     77  C   UNL A   1      39.853  28.896  27.355  1.00  0.00     0.134 A 
ATOM     78  F   UNL A   1      41.356  27.354  30.274  1.00  0.00    -0.206 F 
ATOM     79  C   UNL A   1      39.134  28.009  29.885  1.00  0.00     0.040 A 
ATOM     80  C   UNL A   1      38.530  29.016  27.783  1.00  0.00     0.040 A 
ATOM     81  F   UNL A   1      40.161  29.329  26.122  1.00  0.00    -0.206 F 
ATOM     82  C   UNL A   1      38.167  28.566  29.051  1.00  0.00     0.006 A 
ENDBRANCH  54  75
BRANCH  66  83
ATOM     83  C   UNL A   1      46.430  32.493  28.640  1.00  0.00     0.057 A 
ATOM     84  C   UNL A   1      46.263  33.640  27.856  1.00  0.00     0.134 A 
ATOM     85  C   UNL A   1      46.722  32.673  29.999  1.00  0.00     0.134 A 
ATOM     86  F   UNL A   1      45.992  33.535  26.546  1.00  0.00    -0.206 F 
ATOM     87  C   UNL A   1      46.385  34.920  28.401  1.00  0.00     0.040 A 
ATOM     88  C   UNL A   1      46.827  33.947  30.560  1.00  0.00     0.040 A 
ATOM     89  F   UNL A   1      46.886  31.614  30.806  1.00  0.00    -0.206 F 
ATOM     90  C   UNL A   1      46.659  35.074  29.760  1.00  0.00     0.006 A 
ENDBRANCH  66  83
ENDBRANCH  40  41
ENDBRANCH  33  35
ENDBRANCH  32  33
ENDBRANCH  31  32
ENDBRANCH  30  31
ENDBRANCH  29  30
ENDBRANCH   2  29
TORSDOF 17
ENDMDL
