MODEL 1
REMARK VINA RESULT:     -12.0      0.000      0.000
REMARK SMILES C[C@](Nc1ccc(C(N)=O)nn1)(C(=O)OCCOC(=O)c1ccc(-c2c3nc(c(-c4c(F)cccc4F)c4ccc([nH]4)c(-c4c(F)cccc4F)c4nc(c(-c5c(F)cccc5F)c5ccc2[nH]5)C=C4)C=C3)cc1)c1ccccc1
REMARK SMILES IDX 16 1 15 2 13 3 14 4 2 5 1 6 75 7 76 8 80 9 77 10 79 11 78 12
REMARK SMILES IDX 3 13 4 15 5 16 12 17 6 18 11 19 7 20 8 21 9 22 10 23 17 26
REMARK SMILES IDX 18 27 19 28 20 29 21 30 22 31 74 32 23 33 73 34 24 35 25 36
REMARK SMILES IDX 26 37 67 38 27 39 72 40 66 41 68 42 28 43 71 44 65 45 64 46
REMARK SMILES IDX 29 48 55 49 38 50 54 51 39 52 42 53 53 54 69 55 40 56 41 57
REMARK SMILES IDX 52 59 70 60 43 61 30 62 31 63 36 64 32 65 33 66 35 67 37 68
REMARK SMILES IDX 34 69 56 70 57 71 62 72 58 73 59 74 61 75 63 76 60 77 44 78
REMARK SMILES IDX 45 79 50 80 46 81 47 82 49 83 51 84 48 85
REMARK H PARENT 3 14 9 24 9 25 68 47 42 58
REMARK Flexibility Score: inf
ROOT
ATOM      1  C   UNL A   1      31.576  28.011  26.721  1.00  0.00     0.274 C 
ENDROOT
BRANCH   1   2
ATOM      2  O   UNL A   1      32.813  27.311  26.434  1.00  0.00    -0.460 OA
BRANCH   2   3
ATOM      3  C   UNL A   1      32.635  26.096  25.837  1.00  0.00     0.336 C 
ATOM      4  O   UNL A   1      32.104  25.140  26.404  1.00  0.00    -0.249 OA
BRANCH   3   5
ATOM      5  C   UNL A   1      33.232  25.967  24.404  1.00  0.00     0.160 C 
ATOM      6  C   UNL A   1      33.920  27.343  24.192  1.00  0.00     0.053 C 
BRANCH   5   7
ATOM      7  C   UNL A   1      34.175  24.744  24.397  1.00  0.00    -0.012 A 
ATOM      8  C   UNL A   1      35.168  24.563  25.379  1.00  0.00     0.007 A 
ATOM      9  C   UNL A   1      34.165  23.862  23.292  1.00  0.00     0.007 A 
ATOM     10  C   UNL A   1      36.193  23.631  25.188  1.00  0.00     0.000 A 
ATOM     11  C   UNL A   1      35.199  22.943  23.101  1.00  0.00     0.000 A 
ATOM     12  C   UNL A   1      36.225  22.844  24.038  1.00  0.00     0.000 A 
ENDBRANCH   5   7
BRANCH   5  13
ATOM     13  N   UNL A   1      32.244  25.841  23.296  1.00  0.00    -0.350 N 
ATOM     14  H   UNL A   1      32.431  25.170  22.601  1.00  0.00     0.163 HD
BRANCH  13  15
ATOM     15  C   UNL A   1      31.082  26.590  23.160  1.00  0.00     0.149 A 
ATOM     16  C   UNL A   1      29.897  26.316  23.843  1.00  0.00     0.051 A 
ATOM     17  N   UNL A   1      31.084  27.665  22.344  1.00  0.00    -0.132 NA
ATOM     18  C   UNL A   1      28.787  27.148  23.780  1.00  0.00     0.040 A 
ATOM     19  N   UNL A   1      29.944  28.472  22.189  1.00  0.00    -0.143 NA
ATOM     20  C   UNL A   1      28.844  28.217  22.928  1.00  0.00     0.150 A 
BRANCH  20  21
ATOM     21  C   UNL A   1      27.618  29.031  22.747  1.00  0.00     0.269 C 
ATOM     22  N   UNL A   1      27.654  29.979  21.766  1.00  0.00    -0.364 N 
ATOM     23  O   UNL A   1      26.594  28.804  23.379  1.00  0.00    -0.268 OA
ATOM     24  H   UNL A   1      28.489  30.143  21.270  1.00  0.00     0.160 HD
ATOM     25  H   UNL A   1      26.846  30.499  21.553  1.00  0.00     0.160 HD
ENDBRANCH  20  21
ENDBRANCH  13  15
ENDBRANCH   5  13
ENDBRANCH   3   5
ENDBRANCH   2   3
ENDBRANCH   1   2
BRANCH   1  26
ATOM     26  C   UNL A   1      31.409  29.286  25.889  1.00  0.00     0.275 C 
BRANCH  26  27
ATOM     27  O   UNL A   1      32.660  29.985  25.784  1.00  0.00    -0.458 OA
BRANCH  27  28
ATOM     28  C   UNL A   1      32.925  30.900  26.745  1.00  0.00     0.338 C 
ATOM     29  O   UNL A   1      32.142  31.732  27.190  1.00  0.00    -0.246 OA
BRANCH  28  30
ATOM     30  C   UNL A   1      34.308  30.738  27.259  1.00  0.00     0.060 A 
ATOM     31  C   UNL A   1      34.873  29.478  27.407  1.00  0.00     0.016 A 
ATOM     32  C   UNL A   1      35.022  31.851  27.712  1.00  0.00     0.016 A 
ATOM     33  C   UNL A   1      36.070  29.328  28.109  1.00  0.00     0.010 A 
ATOM     34  C   UNL A   1      36.276  31.693  28.331  1.00  0.00     0.010 A 
ATOM     35  C   UNL A   1      36.805  30.418  28.595  1.00  0.00    -0.014 A 
BRANCH  35  36
ATOM     36  C   UNL A   1      38.055  30.228  29.416  1.00  0.00     0.031 A 
ATOM     37  C   UNL A   1      39.212  29.403  28.884  1.00  0.00     0.074 A 
ATOM     38  C   UNL A   1      38.222  30.803  30.629  1.00  0.00     0.049 A 
ATOM     39  N   UNL A   1      40.202  28.844  29.538  1.00  0.00    -0.248 NA
ATOM     40  C   UNL A   1      39.258  29.165  27.431  1.00  0.00     0.031 C 
ATOM     41  C   UNL A   1      37.280  31.702  31.296  1.00  0.00     0.029 A 
ATOM     42  N   UNL A   1      39.267  30.713  31.527  1.00  0.00    -0.354 N 
ATOM     43  C   UNL A   1      40.914  28.101  28.601  1.00  0.00     0.074 A 
ATOM     44  C   UNL A   1      40.274  28.319  27.322  1.00  0.00     0.031 C 
ATOM     45  C   UNL A   1      37.811  32.136  32.446  1.00  0.00     0.029 A 
ATOM     46  C   UNL A   1      39.052  31.415  32.691  1.00  0.00     0.049 A 
ATOM     47  H   UNL A   1      40.086  30.197  31.352  1.00  0.00     0.167 HD
ATOM     48  C   UNL A   1      41.988  27.297  28.795  1.00  0.00     0.037 A 
ATOM     49  C   UNL A   1      39.702  31.418  33.872  1.00  0.00     0.037 A 
ATOM     50  C   UNL A   1      42.706  27.172  30.037  1.00  0.00     0.049 A 
ATOM     51  C   UNL A   1      40.862  30.492  34.087  1.00  0.00     0.074 A 
ATOM     52  C   UNL A   1      43.832  26.412  30.310  1.00  0.00     0.029 A 
ATOM     53  N   UNL A   1      42.392  27.849  31.203  1.00  0.00    -0.354 N 
ATOM     54  N   UNL A   1      41.434  29.678  33.237  1.00  0.00    -0.248 NA
ATOM     55  C   UNL A   1      41.427  30.444  35.444  1.00  0.00     0.031 C 
ATOM     56  C   UNL A   1      44.181  26.605  31.651  1.00  0.00     0.029 A 
ATOM     57  C   UNL A   1      43.290  27.510  32.202  1.00  0.00     0.049 A 
ATOM     58  H   UNL A   1      41.641  28.477  31.308  1.00  0.00     0.167 HD
ATOM     59  C   UNL A   1      42.411  29.006  33.959  1.00  0.00     0.074 A 
ATOM     60  C   UNL A   1      42.380  29.532  35.307  1.00  0.00     0.031 C 
ATOM     61  C   UNL A   1      43.245  28.024  33.543  1.00  0.00     0.037 A 
BRANCH  48  62
ATOM     62  C   UNL A   1      42.442  26.431  27.656  1.00  0.00     0.057 A 
ATOM     63  C   UNL A   1      41.938  25.146  27.438  1.00  0.00     0.134 A 
ATOM     64  C   UNL A   1      43.327  26.952  26.700  1.00  0.00     0.134 A 
ATOM     65  F   UNL A   1      41.092  24.589  28.317  1.00  0.00    -0.206 F 
ATOM     66  C   UNL A   1      42.302  24.405  26.310  1.00  0.00     0.040 A 
ATOM     67  C   UNL A   1      43.683  26.230  25.561  1.00  0.00     0.040 A 
ATOM     68  F   UNL A   1      43.836  28.185  26.846  1.00  0.00    -0.206 F 
ATOM     69  C   UNL A   1      43.168  24.951  25.363  1.00  0.00     0.006 A 
ENDBRANCH  48  62
BRANCH  49  70
ATOM     70  C   UNL A   1      39.173  32.230  34.999  1.00  0.00     0.057 A 
ATOM     71  C   UNL A   1      38.264  31.697  35.917  1.00  0.00     0.134 A 
ATOM     72  C   UNL A   1      39.577  33.560  35.184  1.00  0.00     0.134 A 
ATOM     73  F   UNL A   1      37.812  30.444  35.772  1.00  0.00    -0.206 F 
ATOM     74  C   UNL A   1      37.778  32.456  36.984  1.00  0.00     0.040 A 
ATOM     75  C   UNL A   1      39.127  34.317  36.265  1.00  0.00     0.040 A 
ATOM     76  F   UNL A   1      40.441  34.130  34.333  1.00  0.00    -0.206 F 
ATOM     77  C   UNL A   1      38.221  33.766  37.167  1.00  0.00     0.006 A 
ENDBRANCH  49  70
BRANCH  61  78
ATOM     78  C   UNL A   1      44.190  27.456  34.556  1.00  0.00     0.057 A 
ATOM     79  C   UNL A   1      43.869  26.304  35.285  1.00  0.00     0.134 A 
ATOM     80  C   UNL A   1      45.437  28.048  34.791  1.00  0.00     0.134 A 
ATOM     81  F   UNL A   1      42.683  25.702  35.116  1.00  0.00    -0.206 F 
ATOM     82  C   UNL A   1      44.751  25.768  36.224  1.00  0.00     0.040 A 
ATOM     83  C   UNL A   1      46.335  27.512  35.714  1.00  0.00     0.040 A 
ATOM     84  F   UNL A   1      45.803  29.152  34.122  1.00  0.00    -0.206 F 
ATOM     85  C   UNL A   1      45.991  26.371  36.436  1.00  0.00     0.006 A 
ENDBRANCH  61  78
ENDBRANCH  35  36
ENDBRANCH  28  30
ENDBRANCH  27  28
ENDBRANCH  26  27
ENDBRANCH   1  26
TORSDOF 15
ENDMDL
MODEL 2
REMARK VINA RESULT:     -11.8      4.876      9.504
REMARK SMILES C[C@](Nc1ccc(C(N)=O)nn1)(C(=O)OCCOC(=O)c1ccc(-c2c3nc(c(-c4c(F)cccc4F)c4ccc([nH]4)c(-c4c(F)cccc4F)c4nc(c(-c5c(F)cccc5F)c5ccc2[nH]5)C=C4)C=C3)cc1)c1ccccc1
REMARK SMILES IDX 16 1 15 2 13 3 14 4 2 5 1 6 75 7 76 8 80 9 77 10 79 11 78 12
REMARK SMILES IDX 3 13 4 15 5 16 12 17 6 18 11 19 7 20 8 21 9 22 10 23 17 26
REMARK SMILES IDX 18 27 19 28 20 29 21 30 22 31 74 32 23 33 73 34 24 35 25 36
REMARK SMILES IDX 26 37 67 38 27 39 72 40 66 41 68 42 28 43 71 44 65 45 64 46
REMARK SMILES IDX 29 48 55 49 38 50 54 51 39 52 42 53 53 54 69 55 40 56 41 57
REMARK SMILES IDX 52 59 70 60 43 61 30 62 31 63 36 64 32 65 33 66 35 67 37 68
REMARK SMILES IDX 34 69 56 70 57 71 62 72 58 73 59 74 61 75 63 76 60 77 44 78
REMARK SMILES IDX 45 79 50 80 46 81 47 82 49 83 51 84 48 85
REMARK H PARENT 3 14 9 24 9 25 68 47 42 58
REMARK Flexibility Score: inf
ROOT
ATOM      1  C   UNL A   1      36.660  22.705  23.689  1.00  0.00     0.274 C 
ENDROOT
BRANCH   1   2
ATOM      2  O   UNL A   1      35.218  22.847  23.643  1.00  0.00    -0.460 OA
BRANCH   2   3
ATOM      3  C   UNL A   1      34.638  22.994  24.871  1.00  0.00     0.336 C 
ATOM      4  O   UNL A   1      35.051  23.787  25.718  1.00  0.00    -0.249 OA
BRANCH   3   5
ATOM      5  C   UNL A   1      33.459  22.020  25.169  1.00  0.00     0.160 C 
ATOM      6  C   UNL A   1      33.929  21.292  26.457  1.00  0.00     0.053 C 
BRANCH   5   7
ATOM      7  C   UNL A   1      32.176  22.868  25.314  1.00  0.00    -0.012 A 
ATOM      8  C   UNL A   1      31.929  23.990  24.500  1.00  0.00     0.007 A 
ATOM      9  C   UNL A   1      31.298  22.626  26.396  1.00  0.00     0.007 A 
ATOM     10  C   UNL A   1      30.932  24.909  24.842  1.00  0.00     0.000 A 
ATOM     11  C   UNL A   1      30.314  23.554  26.740  1.00  0.00     0.000 A 
ATOM     12  C   UNL A   1      30.146  24.707  25.976  1.00  0.00     0.000 A 
ENDBRANCH   5   7
BRANCH   5  13
ATOM     13  N   UNL A   1      33.234  20.944  24.163  1.00  0.00    -0.350 N 
ATOM     14  H   UNL A   1      33.078  21.224  23.233  1.00  0.00     0.163 HD
BRANCH  13  15
ATOM     15  C   UNL A   1      33.226  19.580  24.426  1.00  0.00     0.149 A 
ATOM     16  C   UNL A   1      34.324  18.744  24.226  1.00  0.00     0.051 A 
ATOM     17  N   UNL A   1      32.109  19.014  24.928  1.00  0.00    -0.132 NA
ATOM     18  C   UNL A   1      34.328  17.409  24.607  1.00  0.00     0.040 A 
ATOM     19  N   UNL A   1      32.054  17.644  25.237  1.00  0.00    -0.143 NA
ATOM     20  C   UNL A   1      33.164  16.888  25.101  1.00  0.00     0.150 A 
BRANCH  20  21
ATOM     21  C   UNL A   1      33.113  15.433  25.380  1.00  0.00     0.269 C 
ATOM     22  N   UNL A   1      31.875  14.888  25.559  1.00  0.00    -0.364 N 
ATOM     23  O   UNL A   1      34.121  14.736  25.360  1.00  0.00    -0.268 OA
ATOM     24  H   UNL A   1      31.079  15.467  25.572  1.00  0.00     0.160 HD
ATOM     25  H   UNL A   1      31.777  13.915  25.676  1.00  0.00     0.160 HD
ENDBRANCH  20  21
ENDBRANCH  13  15
ENDBRANCH   5  13
ENDBRANCH   3   5
ENDBRANCH   2   3
ENDBRANCH   1   2
BRANCH   1  26
ATOM     26  C   UNL A   1      37.109  21.407  24.368  1.00  0.00     0.275 C 
BRANCH  26  27
ATOM     27  O   UNL A   1      37.537  21.666  25.715  1.00  0.00    -0.458 OA
BRANCH  27  28
ATOM     28  C   UNL A   1      38.847  21.461  25.983  1.00  0.00     0.338 C 
ATOM     29  O   UNL A   1      39.492  20.452  25.721  1.00  0.00    -0.246 OA
BRANCH  28  30
ATOM     30  C   UNL A   1      39.452  22.667  26.602  1.00  0.00     0.060 A 
ATOM     31  C   UNL A   1      39.032  23.941  26.245  1.00  0.00     0.016 A 
ATOM     32  C   UNL A   1      40.538  22.538  27.473  1.00  0.00     0.016 A 
ATOM     33  C   UNL A   1      39.766  25.058  26.651  1.00  0.00     0.010 A 
ATOM     34  C   UNL A   1      41.208  23.677  27.955  1.00  0.00     0.010 A 
ATOM     35  C   UNL A   1      40.872  24.966  27.508  1.00  0.00    -0.014 A 
BRANCH  35  36
ATOM     36  C   UNL A   1      41.693  26.176  27.872  1.00  0.00     0.031 A 
ATOM     37  C   UNL A   1      41.115  27.268  28.753  1.00  0.00     0.074 A 
ATOM     38  C   UNL A   1      42.976  26.331  27.471  1.00  0.00     0.049 A 
ATOM     39  N   UNL A   1      41.509  28.511  28.900  1.00  0.00    -0.248 NA
ATOM     40  C   UNL A   1      39.936  26.924  29.565  1.00  0.00     0.031 C 
ATOM     41  C   UNL A   1      43.759  25.371  26.693  1.00  0.00     0.029 A 
ATOM     42  N   UNL A   1      43.859  27.373  27.674  1.00  0.00    -0.354 N 
ATOM     43  C   UNL A   1      40.566  29.120  29.723  1.00  0.00     0.074 A 
ATOM     44  C   UNL A   1      39.607  28.100  30.087  1.00  0.00     0.031 C 
ATOM     45  C   UNL A   1      45.010  25.825  26.547  1.00  0.00     0.029 A 
ATOM     46  C   UNL A   1      45.080  27.184  27.066  1.00  0.00     0.049 A 
ATOM     47  H   UNL A   1      43.638  28.174  28.201  1.00  0.00     0.167 HD
ATOM     48  C   UNL A   1      40.498  30.414  30.121  1.00  0.00     0.037 A 
ATOM     49  C   UNL A   1      46.111  28.022  26.843  1.00  0.00     0.037 A 
ATOM     50  C   UNL A   1      41.513  31.405  29.868  1.00  0.00     0.049 A 
ATOM     51  C   UNL A   1      46.005  29.461  27.250  1.00  0.00     0.074 A 
ATOM     52  C   UNL A   1      41.544  32.730  30.272  1.00  0.00     0.029 A 
ATOM     53  N   UNL A   1      42.689  31.173  29.178  1.00  0.00    -0.354 N 
ATOM     54  N   UNL A   1      45.040  30.065  27.895  1.00  0.00    -0.248 NA
ATOM     55  C   UNL A   1      47.107  30.346  26.843  1.00  0.00     0.031 C 
ATOM     56  C   UNL A   1      42.726  33.309  29.799  1.00  0.00     0.029 A 
ATOM     57  C   UNL A   1      43.445  32.334  29.128  1.00  0.00     0.049 A 
ATOM     58  H   UNL A   1      42.952  30.311  28.781  1.00  0.00     0.167 HD
ATOM     59  C   UNL A   1      45.407  31.403  27.954  1.00  0.00     0.074 A 
ATOM     60  C   UNL A   1      46.699  31.517  27.312  1.00  0.00     0.031 C 
ATOM     61  C   UNL A   1      44.720  32.446  28.477  1.00  0.00     0.037 A 
BRANCH  48  62
ATOM     62  C   UNL A   1      39.260  30.874  30.833  1.00  0.00     0.057 A 
ATOM     63  C   UNL A   1      39.152  30.892  32.227  1.00  0.00     0.134 A 
ATOM     64  C   UNL A   1      38.195  31.411  30.094  1.00  0.00     0.134 A 
ATOM     65  F   UNL A   1      40.133  30.389  32.991  1.00  0.00    -0.206 F 
ATOM     66  C   UNL A   1      38.026  31.423  32.862  1.00  0.00     0.040 A 
ATOM     67  C   UNL A   1      37.075  31.961  30.716  1.00  0.00     0.040 A 
ATOM     68  F   UNL A   1      38.243  31.435  28.753  1.00  0.00    -0.206 F 
ATOM     69  C   UNL A   1      36.989  31.969  32.106  1.00  0.00     0.006 A 
ENDBRANCH  48  62
BRANCH  49  70
ATOM     70  C   UNL A   1      47.286  27.548  26.065  1.00  0.00     0.057 A 
ATOM     71  C   UNL A   1      47.310  27.615  24.669  1.00  0.00     0.134 A 
ATOM     72  C   UNL A   1      48.417  27.025  26.708  1.00  0.00     0.134 A 
ATOM     73  F   UNL A   1      46.245  28.071  23.995  1.00  0.00    -0.206 F 
ATOM     74  C   UNL A   1      48.420  27.183  23.939  1.00  0.00     0.040 A 
ATOM     75  C   UNL A   1      49.545  26.623  25.994  1.00  0.00     0.040 A 
ATOM     76  F   UNL A   1      48.451  26.928  28.045  1.00  0.00    -0.206 F 
ATOM     77  C   UNL A   1      49.547  26.698  24.603  1.00  0.00     0.006 A 
ENDBRANCH  49  70
BRANCH  61  78
ATOM     78  C   UNL A   1      45.353  33.799  28.376  1.00  0.00     0.057 A 
ATOM     79  C   UNL A   1      45.040  34.671  27.325  1.00  0.00     0.134 A 
ATOM     80  C   UNL A   1      46.261  34.245  29.343  1.00  0.00     0.134 A 
ATOM     81  F   UNL A   1      44.189  34.294  26.359  1.00  0.00    -0.206 F 
ATOM     82  C   UNL A   1      45.622  35.936  27.233  1.00  0.00     0.040 A 
ATOM     83  C   UNL A   1      46.836  35.514  29.271  1.00  0.00     0.040 A 
ATOM     84  F   UNL A   1      46.597  33.456  30.375  1.00  0.00    -0.206 F 
ATOM     85  C   UNL A   1      46.519  36.362  28.211  1.00  0.00     0.006 A 
ENDBRANCH  61  78
ENDBRANCH  35  36
ENDBRANCH  28  30
ENDBRANCH  27  28
ENDBRANCH  26  27
ENDBRANCH   1  26
TORSDOF 15
ENDMDL
MODEL 3
REMARK VINA RESULT:     -11.8      1.885      3.342
REMARK SMILES C[C@](Nc1ccc(C(N)=O)nn1)(C(=O)OCCOC(=O)c1ccc(-c2c3nc(c(-c4c(F)cccc4F)c4ccc([nH]4)c(-c4c(F)cccc4F)c4nc(c(-c5c(F)cccc5F)c5ccc2[nH]5)C=C4)C=C3)cc1)c1ccccc1
REMARK SMILES IDX 16 1 15 2 13 3 14 4 2 5 1 6 75 7 76 8 80 9 77 10 79 11 78 12
REMARK SMILES IDX 3 13 4 15 5 16 12 17 6 18 11 19 7 20 8 21 9 22 10 23 17 26
REMARK SMILES IDX 18 27 19 28 20 29 21 30 22 31 74 32 23 33 73 34 24 35 25 36
REMARK SMILES IDX 26 37 67 38 27 39 72 40 66 41 68 42 28 43 71 44 65 45 64 46
REMARK SMILES IDX 29 48 55 49 38 50 54 51 39 52 42 53 53 54 69 55 40 56 41 57
REMARK SMILES IDX 52 59 70 60 43 61 30 62 31 63 36 64 32 65 33 66 35 67 37 68
REMARK SMILES IDX 34 69 56 70 57 71 62 72 58 73 59 74 61 75 63 76 60 77 44 78
REMARK SMILES IDX 45 79 50 80 46 81 47 82 49 83 51 84 48 85
REMARK H PARENT 3 14 9 24 9 25 68 47 42 58
REMARK Flexibility Score: inf
ROOT
ATOM      1  C   UNL A   1      31.484  27.587  25.237  1.00  0.00     0.274 C 
ENDROOT
BRANCH   1   2
ATOM      2  O   UNL A   1      32.254  26.366  25.381  1.00  0.00    -0.460 OA
BRANCH   2   3
ATOM      3  C   UNL A   1      33.227  26.211  24.435  1.00  0.00     0.336 C 
ATOM      4  O   UNL A   1      33.984  27.121  24.096  1.00  0.00    -0.249 OA
BRANCH   3   5
ATOM      5  C   UNL A   1      33.260  24.817  23.740  1.00  0.00     0.160 C 
ATOM      6  C   UNL A   1      33.198  25.182  22.232  1.00  0.00     0.053 C 
BRANCH   5   7
ATOM      7  C   UNL A   1      34.548  24.097  24.197  1.00  0.00    -0.012 A 
ATOM      8  C   UNL A   1      35.039  24.212  25.512  1.00  0.00     0.007 A 
ATOM      9  C   UNL A   1      35.356  23.438  23.242  1.00  0.00     0.007 A 
ATOM     10  C   UNL A   1      36.343  23.812  25.820  1.00  0.00     0.000 A 
ATOM     11  C   UNL A   1      36.662  23.054  23.552  1.00  0.00     0.000 A 
ATOM     12  C   UNL A   1      37.163  23.262  24.835  1.00  0.00     0.000 A 
ENDBRANCH   5   7
BRANCH   5  13
ATOM     13  N   UNL A   1      32.083  23.939  23.986  1.00  0.00    -0.350 N 
ATOM     14  H   UNL A   1      31.222  24.380  24.165  1.00  0.00     0.163 HD
BRANCH  13  15
ATOM     15  C   UNL A   1      32.096  22.550  23.986  1.00  0.00     0.149 A 
ATOM     16  C   UNL A   1      32.159  21.774  22.828  1.00  0.00     0.051 A 
ATOM     17  N   UNL A   1      32.071  21.892  25.164  1.00  0.00    -0.132 NA
ATOM     18  C   UNL A   1      32.290  20.392  22.859  1.00  0.00     0.040 A 
ATOM     19  N   UNL A   1      32.108  20.488  25.222  1.00  0.00    -0.143 NA
ATOM     20  C   UNL A   1      32.249  19.779  24.082  1.00  0.00     0.150 A 
BRANCH  20  21
ATOM     21  C   UNL A   1      32.246  18.297  24.120  1.00  0.00     0.269 C 
ATOM     22  N   UNL A   1      32.478  17.655  22.938  1.00  0.00    -0.364 N 
ATOM     23  O   UNL A   1      32.134  17.679  25.171  1.00  0.00    -0.268 OA
ATOM     24  H   UNL A   1      32.565  18.173  22.105  1.00  0.00     0.160 HD
ATOM     25  H   UNL A   1      32.559  16.675  22.918  1.00  0.00     0.160 HD
ENDBRANCH  20  21
ENDBRANCH  13  15
ENDBRANCH   5  13
ENDBRANCH   3   5
ENDBRANCH   2   3
ENDBRANCH   1   2
BRANCH   1  26
ATOM     26  C   UNL A   1      31.763  28.599  26.353  1.00  0.00     0.275 C 
BRANCH  26  27
ATOM     27  O   UNL A   1      32.546  29.695  25.853  1.00  0.00    -0.458 OA
BRANCH  27  28
ATOM     28  C   UNL A   1      32.822  30.690  26.727  1.00  0.00     0.338 C 
ATOM     29  O   UNL A   1      32.040  31.549  27.118  1.00  0.00    -0.246 OA
BRANCH  28  30
ATOM     30  C   UNL A   1      34.217  30.583  27.223  1.00  0.00     0.060 A 
ATOM     31  C   UNL A   1      34.842  29.348  27.340  1.00  0.00     0.016 A 
ATOM     32  C   UNL A   1      34.885  31.720  27.689  1.00  0.00     0.016 A 
ATOM     33  C   UNL A   1      36.053  29.241  28.026  1.00  0.00     0.010 A 
ATOM     34  C   UNL A   1      36.152  31.609  28.290  1.00  0.00     0.010 A 
ATOM     35  C   UNL A   1      36.742  30.356  28.525  1.00  0.00    -0.014 A 
BRANCH  35  36
ATOM     36  C   UNL A   1      38.010  30.210  29.327  1.00  0.00     0.031 A 
ATOM     37  C   UNL A   1      39.187  29.424  28.779  1.00  0.00     0.074 A 
ATOM     38  C   UNL A   1      38.174  30.790  30.538  1.00  0.00     0.049 A 
ATOM     39  N   UNL A   1      40.205  28.900  29.418  1.00  0.00    -0.248 NA
ATOM     40  C   UNL A   1      39.220  29.187  27.326  1.00  0.00     0.031 C 
ATOM     41  C   UNL A   1      37.212  31.657  31.218  1.00  0.00     0.029 A 
ATOM     42  N   UNL A   1      39.235  30.737  31.421  1.00  0.00    -0.354 N 
ATOM     43  C   UNL A   1      40.929  28.182  28.472  1.00  0.00     0.074 A 
ATOM     44  C   UNL A   1      40.264  28.377  27.202  1.00  0.00     0.031 C 
ATOM     45  C   UNL A   1      37.743  32.109  32.360  1.00  0.00     0.029 A 
ATOM     46  C   UNL A   1      39.012  31.433  32.588  1.00  0.00     0.049 A 
ATOM     47  H   UNL A   1      40.069  30.249  31.234  1.00  0.00     0.167 HD
ATOM     48  C   UNL A   1      42.033  27.416  28.651  1.00  0.00     0.037 A 
ATOM     49  C   UNL A   1      39.679  31.458  33.759  1.00  0.00     0.037 A 
ATOM     50  C   UNL A   1      42.772  27.316  29.883  1.00  0.00     0.049 A 
ATOM     51  C   UNL A   1      40.873  30.573  33.958  1.00  0.00     0.074 A 
ATOM     52  C   UNL A   1      43.927  26.596  30.139  1.00  0.00     0.029 A 
ATOM     53  N   UNL A   1      42.452  27.982  31.053  1.00  0.00    -0.354 N 
ATOM     54  N   UNL A   1      41.461  29.778  33.100  1.00  0.00    -0.248 NA
ATOM     55  C   UNL A   1      41.458  30.545  35.307  1.00  0.00     0.031 C 
ATOM     56  C   UNL A   1      44.288  26.801  31.475  1.00  0.00     0.029 A 
ATOM     57  C   UNL A   1      43.375  27.675  32.039  1.00  0.00     0.049 A 
ATOM     58  H   UNL A   1      41.681  28.584  31.168  1.00  0.00     0.167 HD
ATOM     59  C   UNL A   1      42.470  29.141  33.808  1.00  0.00     0.074 A 
ATOM     60  C   UNL A   1      42.440  29.667  35.156  1.00  0.00     0.031 C 
ATOM     61  C   UNL A   1      43.332  28.188  33.380  1.00  0.00     0.037 A 
BRANCH  48  62
ATOM     62  C   UNL A   1      42.500  26.565  27.506  1.00  0.00     0.057 A 
ATOM     63  C   UNL A   1      42.030  25.266  27.289  1.00  0.00     0.134 A 
ATOM     64  C   UNL A   1      43.360  27.112  26.542  1.00  0.00     0.134 A 
ATOM     65  F   UNL A   1      41.209  24.684  28.175  1.00  0.00    -0.206 F 
ATOM     66  C   UNL A   1      42.404  24.538  26.156  1.00  0.00     0.040 A 
ATOM     67  C   UNL A   1      43.725  26.403  25.398  1.00  0.00     0.040 A 
ATOM     68  F   UNL A   1      43.836  28.359  26.686  1.00  0.00    -0.206 F 
ATOM     69  C   UNL A   1      43.245  25.110  25.202  1.00  0.00     0.006 A 
ENDBRANCH  48  62
BRANCH  49  70
ATOM     70  C   UNL A   1      39.138  32.253  34.894  1.00  0.00     0.057 A 
ATOM     71  C   UNL A   1      38.312  31.672  35.860  1.00  0.00     0.134 A 
ATOM     72  C   UNL A   1      39.447  33.612  35.037  1.00  0.00     0.134 A 
ATOM     73  F   UNL A   1      37.952  30.386  35.759  1.00  0.00    -0.206 F 
ATOM     74  C   UNL A   1      37.817  32.415  36.934  1.00  0.00     0.040 A 
ATOM     75  C   UNL A   1      38.987  34.357  36.122  1.00  0.00     0.040 A 
ATOM     76  F   UNL A   1      40.228  34.228  34.137  1.00  0.00    -0.206 F 
ATOM     77  C   UNL A   1      38.166  33.759  37.074  1.00  0.00     0.006 A 
ENDBRANCH  49  70
BRANCH  61  78
ATOM     78  C   UNL A   1      44.310  27.654  34.380  1.00  0.00     0.057 A 
ATOM     79  C   UNL A   1      45.512  28.320  34.649  1.00  0.00     0.134 A 
ATOM     80  C   UNL A   1      44.042  26.481  35.095  1.00  0.00     0.134 A 
ATOM     81  F   UNL A   1      45.832  29.440  33.984  1.00  0.00    -0.206 F 
ATOM     82  C   UNL A   1      46.422  27.829  35.585  1.00  0.00     0.040 A 
ATOM     83  C   UNL A   1      44.936  25.989  36.046  1.00  0.00     0.040 A 
ATOM     84  F   UNL A   1      42.906  25.799  34.884  1.00  0.00    -0.206 F 
ATOM     85  C   UNL A   1      46.132  26.661  36.290  1.00  0.00     0.006 A 
ENDBRANCH  61  78
ENDBRANCH  35  36
ENDBRANCH  28  30
ENDBRANCH  27  28
ENDBRANCH  26  27
ENDBRANCH   1  26
TORSDOF 15
ENDMDL
