MODEL 1
REMARK VINA RESULT:     -10.5      0.000      0.000
REMARK SMILES CCC1(CC)CCN(c2nc(C(C)C)c(C(=O)OCCOC(=O)c3ccc(-c4c5nc(c(-c6c(F)cccc6F)c6ccc([nH]6)c(-c6c(F)cccc6F)c6nc(c(-c7c(F)cccc7F)c7ccc4[nH]7)C=C6)C=C5)cc3)s2)C1
REMARK SMILES IDX 19 1 18 2 16 3 17 4 15 5 9 6 10 7 78 8 11 9 8 10 3 11 6 12
REMARK SMILES IDX 79 13 7 14 2 15 1 16 4 17 5 18 12 19 13 20 14 21 20 22 21 23
REMARK SMILES IDX 22 24 23 25 24 26 25 27 77 28 26 29 76 30 27 31 28 32 29 33
REMARK SMILES IDX 70 34 30 35 75 36 69 37 71 38 31 39 74 40 68 41 67 42 32 44
REMARK SMILES IDX 58 45 41 46 57 47 42 48 45 49 56 50 72 51 43 52 44 53 55 55
REMARK SMILES IDX 73 56 46 57 33 58 34 59 39 60 35 61 36 62 38 63 40 64 37 65
REMARK SMILES IDX 59 66 60 67 65 68 61 69 62 70 64 71 66 72 63 73 47 74 48 75
REMARK SMILES IDX 53 76 49 77 50 78 52 79 54 80 51 81
REMARK H PARENT 71 43 45 54
REMARK Flexibility Score: inf
ROOT
ATOM      1  C   UNL A   1      34.588  33.623  30.176  1.00  0.00     0.275 C 
ENDROOT
BRANCH   1   2
ATOM      2  O   UNL A   1      34.331  32.395  29.464  1.00  0.00    -0.458 OA
BRANCH   2   3
ATOM      3  C   UNL A   1      34.755  32.308  28.171  1.00  0.00     0.350 C 
ATOM      4  O   UNL A   1      35.438  33.165  27.626  1.00  0.00    -0.245 OA
BRANCH   3   5
ATOM      5  C   UNL A   1      34.363  31.041  27.584  1.00  0.00     0.137 A 
ATOM      6  C   UNL A   1      33.112  29.376  26.295  1.00  0.00     0.186 A 
ATOM      7  N   UNL A   1      34.280  28.892  26.654  1.00  0.00    -0.224 NA
ATOM      8  S   UNL A   1      32.752  30.902  26.981  1.00  0.00    -0.089 S 
ATOM      9  C   UNL A   1      35.003  29.818  27.425  1.00  0.00     0.071 A 
BRANCH   6  10
ATOM     10  N   UNL A   1      32.177  28.743  25.549  1.00  0.00    -0.347 N 
ATOM     11  C   UNL A   1      31.210  27.662  23.649  1.00  0.00    -0.011 C 
ATOM     12  C   UNL A   1      31.281  26.691  24.850  1.00  0.00     0.030 C 
ATOM     13  C   UNL A   1      32.222  28.762  24.091  1.00  0.00     0.126 C 
ATOM     14  C   UNL A   1      31.488  27.582  26.070  1.00  0.00     0.119 C 
BRANCH  11  15
ATOM     15  C   UNL A   1      29.757  28.205  23.500  1.00  0.00     0.005 C 
ATOM     16  C   UNL A   1      29.542  29.259  22.417  1.00  0.00     0.004 C 
ENDBRANCH  11  15
BRANCH  11  17
ATOM     17  C   UNL A   1      31.696  26.954  22.355  1.00  0.00     0.005 C 
ATOM     18  C   UNL A   1      33.161  26.522  22.361  1.00  0.00     0.004 C 
ENDBRANCH  11  17
ENDBRANCH   6  10
BRANCH   9  19
ATOM     19  C   UNL A   1      36.309  29.333  28.019  1.00  0.00     0.034 C 
ATOM     20  C   UNL A   1      37.544  30.026  27.446  1.00  0.00     0.014 C 
ATOM     21  C   UNL A   1      36.302  29.349  29.553  1.00  0.00     0.014 C 
ENDBRANCH   9  19
ENDBRANCH   3   5
ENDBRANCH   2   3
ENDBRANCH   1   2
BRANCH   1  22
ATOM     22  C   UNL A   1      34.437  33.425  31.687  1.00  0.00     0.275 C 
BRANCH  22  23
ATOM     23  O   UNL A   1      35.202  32.290  32.130  1.00  0.00    -0.458 OA
BRANCH  23  24
ATOM     24  C   UNL A   1      36.410  32.591  32.659  1.00  0.00     0.338 C 
ATOM     25  O   UNL A   1      36.639  33.121  33.733  1.00  0.00    -0.246 OA
BRANCH  24  26
ATOM     26  C   UNL A   1      37.460  31.990  31.828  1.00  0.00     0.060 A 
ATOM     27  C   UNL A   1      38.176  30.941  32.395  1.00  0.00     0.016 A 
ATOM     28  C   UNL A   1      37.803  32.481  30.572  1.00  0.00     0.016 A 
ATOM     29  C   UNL A   1      39.260  30.380  31.736  1.00  0.00     0.010 A 
ATOM     30  C   UNL A   1      38.881  31.900  29.891  1.00  0.00     0.010 A 
ATOM     31  C   UNL A   1      39.626  30.856  30.476  1.00  0.00    -0.014 A 
BRANCH  31  32
ATOM     32  C   UNL A   1      40.830  30.295  29.813  1.00  0.00     0.031 A 
ATOM     33  C   UNL A   1      42.043  31.159  29.624  1.00  0.00     0.074 A 
ATOM     34  C   UNL A   1      40.848  29.006  29.427  1.00  0.00     0.049 A 
ATOM     35  N   UNL A   1      43.147  30.907  28.968  1.00  0.00    -0.248 NA
ATOM     36  C   UNL A   1      42.007  32.489  30.253  1.00  0.00     0.031 C 
ATOM     37  C   UNL A   1      39.760  28.047  29.624  1.00  0.00     0.029 A 
ATOM     38  N   UNL A   1      41.821  28.278  28.790  1.00  0.00    -0.354 N 
ATOM     39  C   UNL A   1      43.919  32.056  29.073  1.00  0.00     0.074 A 
ATOM     40  C   UNL A   1      43.153  33.013  29.843  1.00  0.00     0.031 C 
ATOM     41  C   UNL A   1      40.129  26.856  29.129  1.00  0.00     0.029 A 
ATOM     42  C   UNL A   1      41.447  26.985  28.518  1.00  0.00     0.049 A 
ATOM     43  H   UNL A   1      42.702  28.646  28.552  1.00  0.00     0.167 HD
ATOM     44  C   UNL A   1      45.155  32.288  28.570  1.00  0.00     0.037 A 
ATOM     45  C   UNL A   1      42.078  26.024  27.816  1.00  0.00     0.037 A 
ATOM     46  C   UNL A   1      45.918  31.316  27.829  1.00  0.00     0.049 A 
ATOM     47  C   UNL A   1      43.419  26.329  27.208  1.00  0.00     0.074 A 
ATOM     48  C   UNL A   1      47.181  31.448  27.279  1.00  0.00     0.029 A 
ATOM     49  N   UNL A   1      45.486  30.031  27.537  1.00  0.00    -0.354 N 
ATOM     50  N   UNL A   1      44.128  27.429  27.282  1.00  0.00    -0.248 NA
ATOM     51  C   UNL A   1      44.041  25.264  26.411  1.00  0.00     0.031 C 
ATOM     52  C   UNL A   1      47.493  30.258  26.614  1.00  0.00     0.029 A 
ATOM     53  C   UNL A   1      46.450  29.365  26.796  1.00  0.00     0.049 A 
ATOM     54  H   UNL A   1      44.623  29.647  27.815  1.00  0.00     0.167 HD
ATOM     55  C   UNL A   1      45.290  27.182  26.563  1.00  0.00     0.074 A 
ATOM     56  C   UNL A   1      45.196  25.822  26.075  1.00  0.00     0.031 C 
ATOM     57  C   UNL A   1      46.340  28.007  26.326  1.00  0.00     0.037 A 
BRANCH  44  58
ATOM     58  C   UNL A   1      45.738  33.657  28.768  1.00  0.00     0.057 A 
ATOM     59  C   UNL A   1      46.559  33.972  29.858  1.00  0.00     0.134 A 
ATOM     60  C   UNL A   1      45.488  34.674  27.836  1.00  0.00     0.134 A 
ATOM     61  F   UNL A   1      46.826  33.051  30.797  1.00  0.00    -0.206 F 
ATOM     62  C   UNL A   1      47.089  35.253  30.028  1.00  0.00     0.040 A 
ATOM     63  C   UNL A   1      46.035  35.950  27.980  1.00  0.00     0.040 A 
ATOM     64  F   UNL A   1      44.714  34.441  26.765  1.00  0.00    -0.206 F 
ATOM     65  C   UNL A   1      46.832  36.245  29.083  1.00  0.00     0.006 A 
ENDBRANCH  44  58
BRANCH  45  66
ATOM     66  C   UNL A   1      41.432  24.700  27.616  1.00  0.00     0.057 A 
ATOM     67  C   UNL A   1      40.410  24.524  26.679  1.00  0.00     0.134 A 
ATOM     68  C   UNL A   1      41.816  23.581  28.368  1.00  0.00     0.134 A 
ATOM     69  F   UNL A   1      39.980  25.561  25.945  1.00  0.00    -0.206 F 
ATOM     70  C   UNL A   1      39.782  23.289  26.503  1.00  0.00     0.040 A 
ATOM     71  C   UNL A   1      41.218  22.335  28.183  1.00  0.00     0.040 A 
ATOM     72  F   UNL A   1      42.790  23.681  29.285  1.00  0.00    -0.206 F 
ATOM     73  C   UNL A   1      40.192  22.187  27.253  1.00  0.00     0.006 A 
ENDBRANCH  45  66
BRANCH  57  74
ATOM     74  C   UNL A   1      47.487  27.444  25.540  1.00  0.00     0.057 A 
ATOM     75  C   UNL A   1      47.568  27.574  24.147  1.00  0.00     0.134 A 
ATOM     76  C   UNL A   1      48.542  26.793  26.191  1.00  0.00     0.134 A 
ATOM     77  F   UNL A   1      46.583  28.174  23.463  1.00  0.00    -0.206 F 
ATOM     78  C   UNL A   1      48.645  27.053  23.429  1.00  0.00     0.040 A 
ATOM     79  C   UNL A   1      49.639  26.295  25.487  1.00  0.00     0.040 A 
ATOM     80  F   UNL A   1      48.532  26.643  27.525  1.00  0.00    -0.206 F 
ATOM     81  C   UNL A   1      49.689  26.419  24.101  1.00  0.00     0.006 A 
ENDBRANCH  57  74
ENDBRANCH  31  32
ENDBRANCH  24  26
ENDBRANCH  23  24
ENDBRANCH  22  23
ENDBRANCH   1  22
TORSDOF 15
ENDMDL
MODEL 2
REMARK VINA RESULT:     -10.2      0.554      1.784
REMARK SMILES CCC1(CC)CCN(c2nc(C(C)C)c(C(=O)OCCOC(=O)c3ccc(-c4c5nc(c(-c6c(F)cccc6F)c6ccc([nH]6)c(-c6c(F)cccc6F)c6nc(c(-c7c(F)cccc7F)c7ccc4[nH]7)C=C6)C=C5)cc3)s2)C1
REMARK SMILES IDX 19 1 18 2 16 3 17 4 15 5 9 6 10 7 78 8 11 9 8 10 3 11 6 12
REMARK SMILES IDX 79 13 7 14 2 15 1 16 4 17 5 18 12 19 13 20 14 21 20 22 21 23
REMARK SMILES IDX 22 24 23 25 24 26 25 27 77 28 26 29 76 30 27 31 28 32 29 33
REMARK SMILES IDX 70 34 30 35 75 36 69 37 71 38 31 39 74 40 68 41 67 42 32 44
REMARK SMILES IDX 58 45 41 46 57 47 42 48 45 49 56 50 72 51 43 52 44 53 55 55
REMARK SMILES IDX 73 56 46 57 33 58 34 59 39 60 35 61 36 62 38 63 40 64 37 65
REMARK SMILES IDX 59 66 60 67 65 68 61 69 62 70 64 71 66 72 63 73 47 74 48 75
REMARK SMILES IDX 53 76 49 77 50 78 52 79 54 80 51 81
REMARK H PARENT 71 43 45 54
REMARK Flexibility Score: inf
ROOT
ATOM      1  C   UNL A   1      34.581  33.527  30.477  1.00  0.00     0.275 C 
ENDROOT
BRANCH   1   2
ATOM      2  O   UNL A   1      33.887  32.795  29.446  1.00  0.00    -0.458 OA
BRANCH   2   3
ATOM      3  C   UNL A   1      34.458  32.743  28.209  1.00  0.00     0.350 C 
ATOM      4  O   UNL A   1      35.000  33.702  27.674  1.00  0.00    -0.245 OA
BRANCH   3   5
ATOM      5  C   UNL A   1      34.408  31.395  27.675  1.00  0.00     0.137 A 
ATOM      6  C   UNL A   1      33.684  29.440  26.389  1.00  0.00     0.186 A 
ATOM      7  N   UNL A   1      34.882  29.238  26.892  1.00  0.00    -0.224 NA
ATOM      8  S   UNL A   1      32.938  30.882  26.930  1.00  0.00    -0.089 S 
ATOM      9  C   UNL A   1      35.305  30.334  27.663  1.00  0.00     0.071 A 
BRANCH   6  10
ATOM     10  N   UNL A   1      32.991  28.586  25.602  1.00  0.00    -0.347 N 
ATOM     11  C   UNL A   1      31.186  27.760  24.270  1.00  0.00    -0.011 C 
ATOM     12  C   UNL A   1      32.464  27.918  23.415  1.00  0.00     0.030 C 
ATOM     13  C   UNL A   1      31.537  28.645  25.503  1.00  0.00     0.126 C 
ATOM     14  C   UNL A   1      33.605  28.017  24.421  1.00  0.00     0.119 C 
BRANCH  11  15
ATOM     15  C   UNL A   1      30.988  26.260  24.642  1.00  0.00     0.005 C 
ATOM     16  C   UNL A   1      29.927  25.964  25.698  1.00  0.00     0.004 C 
ENDBRANCH  11  15
BRANCH  11  17
ATOM     17  C   UNL A   1      29.957  28.333  23.512  1.00  0.00     0.005 C 
ATOM     18  C   UNL A   1      30.286  29.176  22.283  1.00  0.00     0.004 C 
ENDBRANCH  11  17
ENDBRANCH   6  10
BRANCH   9  19
ATOM     19  C   UNL A   1      36.611  30.172  28.412  1.00  0.00     0.034 C 
ATOM     20  C   UNL A   1      36.497  29.327  29.680  1.00  0.00     0.014 C 
ATOM     21  C   UNL A   1      37.755  29.698  27.508  1.00  0.00     0.014 C 
ENDBRANCH   9  19
ENDBRANCH   3   5
ENDBRANCH   2   3
ENDBRANCH   1   2
BRANCH   1  22
ATOM     22  C   UNL A   1      34.412  32.851  31.841  1.00  0.00     0.275 C 
BRANCH  22  23
ATOM     23  O   UNL A   1      35.439  31.866  32.050  1.00  0.00    -0.458 OA
BRANCH  23  24
ATOM     24  C   UNL A   1      36.456  32.265  32.847  1.00  0.00     0.338 C 
ATOM     25  O   UNL A   1      36.378  32.789  33.945  1.00  0.00    -0.246 OA
BRANCH  24  26
ATOM     26  C   UNL A   1      37.723  31.785  32.283  1.00  0.00     0.060 A 
ATOM     27  C   UNL A   1      38.062  32.265  31.022  1.00  0.00     0.016 A 
ATOM     28  C   UNL A   1      38.519  30.832  32.911  1.00  0.00     0.016 A 
ATOM     29  C   UNL A   1      39.180  31.788  30.354  1.00  0.00     0.010 A 
ATOM     30  C   UNL A   1      39.664  30.367  32.252  1.00  0.00     0.010 A 
ATOM     31  C   UNL A   1      39.994  30.831  30.962  1.00  0.00    -0.014 A 
BRANCH  31  32
ATOM     32  C   UNL A   1      41.147  30.279  30.210  1.00  0.00     0.031 A 
ATOM     33  C   UNL A   1      42.373  31.122  30.007  1.00  0.00     0.074 A 
ATOM     34  C   UNL A   1      41.111  29.013  29.755  1.00  0.00     0.049 A 
ATOM     35  N   UNL A   1      43.436  30.878  29.284  1.00  0.00    -0.248 NA
ATOM     36  C   UNL A   1      42.404  32.415  30.707  1.00  0.00     0.031 C 
ATOM     37  C   UNL A   1      40.008  28.071  29.956  1.00  0.00     0.029 A 
ATOM     38  N   UNL A   1      42.032  28.297  29.032  1.00  0.00    -0.354 N 
ATOM     39  C   UNL A   1      44.243  32.001  29.411  1.00  0.00     0.074 A 
ATOM     40  C   UNL A   1      43.543  32.932  30.268  1.00  0.00     0.031 C 
ATOM     41  C   UNL A   1      40.320  26.900  29.379  1.00  0.00     0.029 A 
ATOM     42  C   UNL A   1      41.610  27.030  28.710  1.00  0.00     0.049 A 
ATOM     43  H   UNL A   1      42.910  28.656  28.770  1.00  0.00     0.167 HD
ATOM     44  C   UNL A   1      45.459  32.230  28.859  1.00  0.00     0.037 A 
ATOM     45  C   UNL A   1      42.179  26.094  27.927  1.00  0.00     0.037 A 
ATOM     46  C   UNL A   1      46.158  31.282  28.029  1.00  0.00     0.049 A 
ATOM     47  C   UNL A   1      43.496  26.399  27.269  1.00  0.00     0.074 A 
ATOM     48  C   UNL A   1      47.395  31.412  27.425  1.00  0.00     0.029 A 
ATOM     49  N   UNL A   1      45.678  30.025  27.691  1.00  0.00    -0.354 N 
ATOM     50  N   UNL A   1      44.238  27.475  27.366  1.00  0.00    -0.248 NA
ATOM     51  C   UNL A   1      44.050  25.364  26.385  1.00  0.00     0.031 C 
ATOM     52  C   UNL A   1      47.642  30.253  26.682  1.00  0.00     0.029 A 
ATOM     53  C   UNL A   1      46.585  29.377  26.868  1.00  0.00     0.049 A 
ATOM     54  H   UNL A   1      44.819  29.648  27.992  1.00  0.00     0.167 HD
ATOM     55  C   UNL A   1      45.356  27.239  26.577  1.00  0.00     0.074 A 
ATOM     56  C   UNL A   1      45.201  25.911  26.022  1.00  0.00     0.031 C 
ATOM     57  C   UNL A   1      46.415  28.051  26.332  1.00  0.00     0.037 A 
BRANCH  44  58
ATOM     58  C   UNL A   1      46.088  33.571  29.101  1.00  0.00     0.057 A 
ATOM     59  C   UNL A   1      45.862  34.668  28.260  1.00  0.00     0.134 A 
ATOM     60  C   UNL A   1      46.920  33.772  30.211  1.00  0.00     0.134 A 
ATOM     61  F   UNL A   1      45.090  34.542  27.170  1.00  0.00    -0.206 F 
ATOM     62  C   UNL A   1      46.461  35.907  28.499  1.00  0.00     0.040 A 
ATOM     63  C   UNL A   1      47.501  35.013  30.477  1.00  0.00     0.040 A 
ATOM     64  F   UNL A   1      47.176  32.766  31.061  1.00  0.00    -0.206 F 
ATOM     65  C   UNL A   1      47.277  36.084  29.614  1.00  0.00     0.006 A 
ENDBRANCH  44  58
BRANCH  45  66
ATOM     66  C   UNL A   1      41.488  24.800  27.689  1.00  0.00     0.057 A 
ATOM     67  C   UNL A   1      40.443  24.691  26.766  1.00  0.00     0.134 A 
ATOM     68  C   UNL A   1      41.851  23.641  28.389  1.00  0.00     0.134 A 
ATOM     69  F   UNL A   1      40.032  25.769  26.082  1.00  0.00    -0.206 F 
ATOM     70  C   UNL A   1      39.774  23.484  26.556  1.00  0.00     0.040 A 
ATOM     71  C   UNL A   1      41.211  22.421  28.168  1.00  0.00     0.040 A 
ATOM     72  F   UNL A   1      42.845  23.675  29.290  1.00  0.00    -0.206 F 
ATOM     73  C   UNL A   1      40.163  22.342  27.254  1.00  0.00     0.006 A 
ENDBRANCH  45  66
BRANCH  57  74
ATOM     74  C   UNL A   1      47.506  27.503  25.460  1.00  0.00     0.057 A 
ATOM     75  C   UNL A   1      48.610  26.822  25.991  1.00  0.00     0.134 A 
ATOM     76  C   UNL A   1      47.433  27.630  24.067  1.00  0.00     0.134 A 
ATOM     77  F   UNL A   1      48.746  26.679  27.317  1.00  0.00    -0.206 F 
ATOM     78  C   UNL A   1      49.613  26.309  25.167  1.00  0.00     0.040 A 
ATOM     79  C   UNL A   1      48.415  27.095  23.232  1.00  0.00     0.040 A 
ATOM     80  F   UNL A   1      46.398  28.263  23.493  1.00  0.00    -0.206 F 
ATOM     81  C   UNL A   1      49.512  26.438  23.784  1.00  0.00     0.006 A 
ENDBRANCH  57  74
ENDBRANCH  31  32
ENDBRANCH  24  26
ENDBRANCH  23  24
ENDBRANCH  22  23
ENDBRANCH   1  22
TORSDOF 15
ENDMDL
MODEL 3
REMARK VINA RESULT:     -10.2      5.562     10.078
REMARK SMILES CCC1(CC)CCN(c2nc(C(C)C)c(C(=O)OCCOC(=O)c3ccc(-c4c5nc(c(-c6c(F)cccc6F)c6ccc([nH]6)c(-c6c(F)cccc6F)c6nc(c(-c7c(F)cccc7F)c7ccc4[nH]7)C=C6)C=C5)cc3)s2)C1
REMARK SMILES IDX 19 1 18 2 16 3 17 4 15 5 9 6 10 7 78 8 11 9 8 10 3 11 6 12
REMARK SMILES IDX 79 13 7 14 2 15 1 16 4 17 5 18 12 19 13 20 14 21 20 22 21 23
REMARK SMILES IDX 22 24 23 25 24 26 25 27 77 28 26 29 76 30 27 31 28 32 29 33
REMARK SMILES IDX 70 34 30 35 75 36 69 37 71 38 31 39 74 40 68 41 67 42 32 44
REMARK SMILES IDX 58 45 41 46 57 47 42 48 45 49 56 50 72 51 43 52 44 53 55 55
REMARK SMILES IDX 73 56 46 57 33 58 34 59 39 60 35 61 36 62 38 63 40 64 37 65
REMARK SMILES IDX 59 66 60 67 65 68 61 69 62 70 64 71 66 72 63 73 47 74 48 75
REMARK SMILES IDX 53 76 49 77 50 78 52 79 54 80 51 81
REMARK H PARENT 71 43 45 54
REMARK Flexibility Score: inf
ROOT
ATOM      1  C   UNL A   1      42.849  21.607  25.739  1.00  0.00     0.275 C 
ENDROOT
BRANCH   1   2
ATOM      2  O   UNL A   1      41.536  22.205  25.745  1.00  0.00    -0.458 OA
BRANCH   2   3
ATOM      3  C   UNL A   1      40.486  21.431  26.141  1.00  0.00     0.350 C 
ATOM      4  O   UNL A   1      40.607  20.276  26.528  1.00  0.00    -0.245 OA
BRANCH   3   5
ATOM      5  C   UNL A   1      39.250  22.190  26.120  1.00  0.00     0.137 A 
ATOM      6  C   UNL A   1      36.876  22.741  25.873  1.00  0.00     0.186 A 
ATOM      7  N   UNL A   1      37.511  23.718  26.480  1.00  0.00    -0.224 NA
ATOM      8  S   UNL A   1      37.904  21.505  25.285  1.00  0.00    -0.089 S 
ATOM      9  C   UNL A   1      38.883  23.440  26.603  1.00  0.00     0.071 A 
BRANCH   6  10
ATOM     10  N   UNL A   1      35.552  22.693  25.600  1.00  0.00    -0.347 N 
ATOM     11  C   UNL A   1      33.473  21.796  24.835  1.00  0.00    -0.011 C 
ATOM     12  C   UNL A   1      33.412  22.092  26.351  1.00  0.00     0.030 C 
ATOM     13  C   UNL A   1      35.012  21.790  24.591  1.00  0.00     0.126 C 
ATOM     14  C   UNL A   1      34.582  23.032  26.619  1.00  0.00     0.119 C 
BRANCH  11  15
ATOM     15  C   UNL A   1      32.744  22.929  24.051  1.00  0.00     0.005 C 
ATOM     16  C   UNL A   1      31.427  23.418  24.648  1.00  0.00     0.004 C 
ENDBRANCH  11  15
BRANCH  11  17
ATOM     17  C   UNL A   1      32.861  20.402  24.533  1.00  0.00     0.005 C 
ATOM     18  C   UNL A   1      32.303  20.227  23.122  1.00  0.00     0.004 C 
ENDBRANCH  11  17
ENDBRANCH   6  10
BRANCH   9  19
ATOM     19  C   UNL A   1      39.753  24.547  27.161  1.00  0.00     0.034 C 
ATOM     20  C   UNL A   1      40.315  25.488  26.098  1.00  0.00     0.014 C 
ATOM     21  C   UNL A   1      39.074  25.312  28.304  1.00  0.00     0.014 C 
ENDBRANCH   9  19
ENDBRANCH   3   5
ENDBRANCH   2   3
ENDBRANCH   1   2
BRANCH   1  22
ATOM     22  C   UNL A   1      43.768  22.305  24.733  1.00  0.00     0.275 C 
BRANCH  22  23
ATOM     23  O   UNL A   1      43.777  23.727  24.956  1.00  0.00    -0.458 OA
BRANCH  23  24
ATOM     24  C   UNL A   1      44.665  24.151  25.884  1.00  0.00     0.338 C 
ATOM     25  O   UNL A   1      45.879  24.050  25.851  1.00  0.00    -0.246 OA
BRANCH  24  26
ATOM     26  C   UNL A   1      43.960  24.962  26.884  1.00  0.00     0.060 A 
ATOM     27  C   UNL A   1      44.027  26.342  26.724  1.00  0.00     0.016 A 
ATOM     28  C   UNL A   1      43.326  24.411  27.994  1.00  0.00     0.016 A 
ATOM     29  C   UNL A   1      43.491  27.197  27.676  1.00  0.00     0.010 A 
ATOM     30  C   UNL A   1      42.759  25.270  28.944  1.00  0.00     0.010 A 
ATOM     31  C   UNL A   1      42.852  26.669  28.799  1.00  0.00    -0.014 A 
BRANCH  31  32
ATOM     32  C   UNL A   1      42.344  27.593  29.843  1.00  0.00     0.031 A 
ATOM     33  C   UNL A   1      43.053  27.683  31.163  1.00  0.00     0.074 A 
ATOM     34  C   UNL A   1      41.282  28.380  29.588  1.00  0.00     0.049 A 
ATOM     35  N   UNL A   1      42.710  28.331  32.246  1.00  0.00    -0.248 NA
ATOM     36  C   UNL A   1      44.317  26.939  31.282  1.00  0.00     0.031 C 
ATOM     37  C   UNL A   1      40.556  28.438  28.318  1.00  0.00     0.029 A 
ATOM     38  N   UNL A   1      40.630  29.287  30.386  1.00  0.00    -0.354 N 
ATOM     39  C   UNL A   1      43.691  28.043  33.185  1.00  0.00     0.074 A 
ATOM     40  C   UNL A   1      44.637  27.151  32.550  1.00  0.00     0.031 C 
ATOM     41  C   UNL A   1      39.566  29.339  28.419  1.00  0.00     0.029 A 
ATOM     42  C   UNL A   1      39.544  29.869  29.778  1.00  0.00     0.049 A 
ATOM     43  H   UNL A   1      40.913  29.500  31.304  1.00  0.00     0.167 HD
ATOM     44  C   UNL A   1      43.790  28.485  34.462  1.00  0.00     0.037 A 
ATOM     45  C   UNL A   1      38.610  30.702  30.275  1.00  0.00     0.037 A 
ATOM     46  C   UNL A   1      42.856  29.396  35.073  1.00  0.00     0.049 A 
ATOM     47  C   UNL A   1      38.703  31.123  31.715  1.00  0.00     0.074 A 
ATOM     48  C   UNL A   1      42.867  29.909  36.358  1.00  0.00     0.029 A 
ATOM     49  N   UNL A   1      41.744  29.930  34.438  1.00  0.00    -0.354 N 
ATOM     50  N   UNL A   1      39.615  30.820  32.607  1.00  0.00    -0.248 NA
ATOM     51  C   UNL A   1      37.632  31.992  32.221  1.00  0.00     0.031 C 
ATOM     52  C   UNL A   1      41.735  30.716  36.514  1.00  0.00     0.029 A 
ATOM     53  C   UNL A   1      41.049  30.751  35.311  1.00  0.00     0.049 A 
ATOM     54  H   UNL A   1      41.487  29.752  33.504  1.00  0.00     0.167 HD
ATOM     55  C   UNL A   1      39.243  31.479  33.771  1.00  0.00     0.074 A 
ATOM     56  C   UNL A   1      38.031  32.211  33.466  1.00  0.00     0.031 C 
ATOM     57  C   UNL A   1      39.848  31.477  34.985  1.00  0.00     0.037 A 
BRANCH  44  58
ATOM     58  C   UNL A   1      44.923  27.956  35.293  1.00  0.00     0.057 A 
ATOM     59  C   UNL A   1      46.160  28.607  35.375  1.00  0.00     0.134 A 
ATOM     60  C   UNL A   1      44.762  26.781  36.041  1.00  0.00     0.134 A 
ATOM     61  F   UNL A   1      46.388  29.727  34.672  1.00  0.00    -0.206 F 
ATOM     62  C   UNL A   1      47.204  28.096  36.150  1.00  0.00     0.040 A 
ATOM     63  C   UNL A   1      45.788  26.277  36.842  1.00  0.00     0.040 A 
ATOM     64  F   UNL A   1      43.601  26.109  36.013  1.00  0.00    -0.206 F 
ATOM     65  C   UNL A   1      47.017  26.931  36.892  1.00  0.00     0.006 A 
ENDBRANCH  44  58
BRANCH  45  66
ATOM     66  C   UNL A   1      37.487  31.160  29.416  1.00  0.00     0.057 A 
ATOM     67  C   UNL A   1      37.480  32.437  28.847  1.00  0.00     0.134 A 
ATOM     68  C   UNL A   1      36.387  30.332  29.153  1.00  0.00     0.134 A 
ATOM     69  F   UNL A   1      38.492  33.286  29.080  1.00  0.00    -0.206 F 
ATOM     70  C   UNL A   1      36.417  32.881  28.058  1.00  0.00     0.040 A 
ATOM     71  C   UNL A   1      35.331  30.752  28.344  1.00  0.00     0.040 A 
ATOM     72  F   UNL A   1      36.330  29.095  29.669  1.00  0.00    -0.206 F 
ATOM     73  C   UNL A   1      35.340  32.034  27.799  1.00  0.00     0.006 A 
ENDBRANCH  45  66
BRANCH  57  74
ATOM     74  C   UNL A   1      39.231  32.327  36.056  1.00  0.00     0.057 A 
ATOM     75  C   UNL A   1      38.276  31.820  36.948  1.00  0.00     0.134 A 
ATOM     76  C   UNL A   1      39.624  33.661  36.220  1.00  0.00     0.134 A 
ATOM     77  F   UNL A   1      37.847  30.554  36.836  1.00  0.00    -0.206 F 
ATOM     78  C   UNL A   1      37.717  32.618  37.947  1.00  0.00     0.040 A 
ATOM     79  C   UNL A   1      39.094  34.460  37.233  1.00  0.00     0.040 A 
ATOM     80  F   UNL A   1      40.541  34.206  35.405  1.00  0.00    -0.206 F 
ATOM     81  C   UNL A   1      38.133  33.940  38.096  1.00  0.00     0.006 A 
ENDBRANCH  57  74
ENDBRANCH  31  32
ENDBRANCH  24  26
ENDBRANCH  23  24
ENDBRANCH  22  23
ENDBRANCH   1  22
TORSDOF 15
ENDMDL
