MODEL 1
REMARK VINA RESULT:     -10.4      0.000      0.000
REMARK SMILES CCNC(=O)NC(=O)[C@@H](C)[N@H+](C)CC(=O)OCCOC(=O)c1ccc(-c2c3nc(c(-c4c(F)cccc4F)c4ccc([nH]4)c(-c4c(F)cccc4F)c4nc(c(-c5c(F)cccc5F)c5ccc2[nH]5)C=C4)C=C3)cc1
REMARK SMILES IDX 17 1 16 2 14 3 15 4 13 5 11 6 12 7 9 9 10 10 7 11 3 12 4 13
REMARK SMILES IDX 5 15 6 16 8 18 2 19 1 20 18 21 19 22 20 23 21 24 22 25 23 26
REMARK SMILES IDX 75 27 24 28 74 29 25 30 26 31 27 32 68 33 28 34 73 35 67 36
REMARK SMILES IDX 69 37 29 38 72 39 66 40 65 41 30 43 56 44 39 45 55 46 40 47
REMARK SMILES IDX 43 48 54 49 70 50 41 51 42 52 53 54 71 55 44 56 31 57 32 58
REMARK SMILES IDX 37 59 33 60 34 61 36 62 38 63 35 64 57 65 58 66 63 67 59 68
REMARK SMILES IDX 60 69 62 70 64 71 61 72 45 73 46 74 51 75 47 76 48 77 50 78
REMARK SMILES IDX 52 79 49 80
REMARK H PARENT 11 8 3 14 6 17 69 42 43 53
REMARK Flexibility Score: inf
ROOT
ATOM      1  C   UNL A   1      44.435  25.266  25.305  1.00  0.00     0.274 C 
ENDROOT
BRANCH   1   2
ATOM      2  O   UNL A   1      45.372  24.998  26.382  1.00  0.00    -0.458 OA
BRANCH   2   3
ATOM      3  C   UNL A   1      45.517  23.680  26.728  1.00  0.00     0.361 C 
ATOM      4  O   UNL A   1      45.199  23.244  27.833  1.00  0.00    -0.245 OA
BRANCH   3   5
ATOM      5  C   UNL A   1      46.021  22.742  25.599  1.00  0.00     0.386 C 
BRANCH   5   6
ATOM      6  N   UNL A   1      44.997  21.785  25.054  1.00  0.00    -0.318 N 
ATOM      7  C   UNL A   1      44.825  22.112  23.627  1.00  0.00     0.333 C 
ATOM      8  H   UNL A   1      44.129  21.891  25.579  1.00  0.00     0.349 HD
BRANCH   6   9
ATOM      9  C   UNL A   1      45.391  20.340  25.213  1.00  0.00     0.271 C 
ATOM     10  C   UNL A   1      46.775  19.969  24.625  1.00  0.00     0.086 C 
BRANCH   9  11
ATOM     11  C   UNL A   1      44.434  19.314  24.561  1.00  0.00     0.285 C 
ATOM     12  N   UNL A   1      42.541  19.821  27.149  1.00  0.00    -0.338 N 
ATOM     13  C   UNL A   1      42.947  18.870  26.286  1.00  0.00     0.321 C 
ATOM     14  H   UNL A   1      42.379  19.493  28.064  1.00  0.00     0.165 HD
ATOM     15  O   UNL A   1      43.099  17.710  26.665  1.00  0.00    -0.248 OA
ATOM     16  N   UNL A   1      43.145  19.190  25.000  1.00  0.00    -0.273 N 
ATOM     17  H   UNL A   1      42.385  19.332  24.390  1.00  0.00     0.175 HD
ATOM     18  O   UNL A   1      44.786  18.659  23.574  1.00  0.00    -0.268 OA
BRANCH  12  19
ATOM     19  C   UNL A   1      42.299  21.234  26.976  1.00  0.00     0.114 C 
ATOM     20  C   UNL A   1      41.272  21.769  27.959  1.00  0.00     0.027 C 
ENDBRANCH  12  19
ENDBRANCH   9  11
ENDBRANCH   6   9
ENDBRANCH   5   6
ENDBRANCH   3   5
ENDBRANCH   2   3
ENDBRANCH   1   2
BRANCH   1  21
ATOM     21  C   UNL A   1      43.005  24.807  25.667  1.00  0.00     0.275 C 
BRANCH  21  22
ATOM     22  O   UNL A   1      42.055  25.732  25.093  1.00  0.00    -0.458 OA
BRANCH  22  23
ATOM     23  C   UNL A   1      42.307  27.069  25.172  1.00  0.00     0.338 C 
ATOM     24  O   UNL A   1      42.666  27.785  24.251  1.00  0.00    -0.246 OA
BRANCH  23  25
ATOM     25  C   UNL A   1      41.947  27.567  26.540  1.00  0.00     0.060 A 
ATOM     26  C   UNL A   1      42.489  28.757  27.020  1.00  0.00     0.016 A 
ATOM     27  C   UNL A   1      41.132  26.818  27.398  1.00  0.00     0.016 A 
ATOM     28  C   UNL A   1      42.302  29.150  28.346  1.00  0.00     0.010 A 
ATOM     29  C   UNL A   1      40.817  27.301  28.687  1.00  0.00     0.010 A 
ATOM     30  C   UNL A   1      41.373  28.499  29.166  1.00  0.00    -0.014 A 
BRANCH  30  31
ATOM     31  C   UNL A   1      40.878  29.179  30.407  1.00  0.00     0.031 A 
ATOM     32  C   UNL A   1      39.699  30.115  30.408  1.00  0.00     0.074 A 
ATOM     33  C   UNL A   1      41.544  28.982  31.568  1.00  0.00     0.049 A 
ATOM     34  N   UNL A   1      39.331  30.976  31.328  1.00  0.00    -0.248 NA
ATOM     35  C   UNL A   1      38.818  30.085  29.233  1.00  0.00     0.031 C 
ATOM     36  C   UNL A   1      42.684  28.077  31.754  1.00  0.00     0.029 A 
ATOM     37  N   UNL A   1      41.367  29.529  32.819  1.00  0.00    -0.354 N 
ATOM     38  C   UNL A   1      38.215  31.631  30.822  1.00  0.00     0.074 A 
ATOM     39  C   UNL A   1      37.948  31.047  29.521  1.00  0.00     0.031 C 
ATOM     40  C   UNL A   1      43.064  28.087  33.034  1.00  0.00     0.029 A 
ATOM     41  C   UNL A   1      42.302  29.107  33.736  1.00  0.00     0.049 A 
ATOM     42  H   UNL A   1      40.644  30.161  33.035  1.00  0.00     0.167 HD
ATOM     43  C   UNL A   1      37.496  32.635  31.385  1.00  0.00     0.037 A 
ATOM     44  C   UNL A   1      42.594  29.534  34.978  1.00  0.00     0.037 A 
ATOM     45  C   UNL A   1      37.741  33.183  32.700  1.00  0.00     0.049 A 
ATOM     46  C   UNL A   1      41.831  30.683  35.554  1.00  0.00     0.074 A 
ATOM     47  C   UNL A   1      37.069  34.207  33.349  1.00  0.00     0.029 A 
ATOM     48  N   UNL A   1      38.725  32.744  33.574  1.00  0.00    -0.354 N 
ATOM     49  N   UNL A   1      40.843  31.360  35.025  1.00  0.00    -0.248 NA
ATOM     50  C   UNL A   1      42.243  31.149  36.884  1.00  0.00     0.031 C 
ATOM     51  C   UNL A   1      37.668  34.410  34.597  1.00  0.00     0.029 A 
ATOM     52  C   UNL A   1      38.685  33.483  34.747  1.00  0.00     0.049 A 
ATOM     53  H   UNL A   1      39.359  32.013  33.389  1.00  0.00     0.167 HD
ATOM     54  C   UNL A   1      40.509  32.328  35.958  1.00  0.00     0.074 A 
ATOM     55  C   UNL A   1      41.388  32.140  37.094  1.00  0.00     0.031 C 
ATOM     56  C   UNL A   1      39.560  33.289  35.873  1.00  0.00     0.037 A 
BRANCH  43  57
ATOM     57  C   UNL A   1      36.399  33.260  30.570  1.00  0.00     0.057 A 
ATOM     58  C   UNL A   1      36.655  34.165  29.535  1.00  0.00     0.134 A 
ATOM     59  C   UNL A   1      35.063  32.887  30.782  1.00  0.00     0.134 A 
ATOM     60  F   UNL A   1      37.908  34.567  29.279  1.00  0.00    -0.206 F 
ATOM     61  C   UNL A   1      35.623  34.691  28.752  1.00  0.00     0.040 A 
ATOM     62  C   UNL A   1      34.026  33.387  29.993  1.00  0.00     0.040 A 
ATOM     63  F   UNL A   1      34.747  32.011  31.749  1.00  0.00    -0.206 F 
ATOM     64  C   UNL A   1      34.305  34.296  28.976  1.00  0.00     0.006 A 
ENDBRANCH  43  57
BRANCH  44  65
ATOM     65  C   UNL A   1      43.724  28.913  35.715  1.00  0.00     0.057 A 
ATOM     66  C   UNL A   1      43.523  27.811  36.550  1.00  0.00     0.134 A 
ATOM     67  C   UNL A   1      45.037  29.379  35.564  1.00  0.00     0.134 A 
ATOM     68  F   UNL A   1      42.286  27.335  36.755  1.00  0.00    -0.206 F 
ATOM     69  C   UNL A   1      44.587  27.189  37.204  1.00  0.00     0.040 A 
ATOM     70  C   UNL A   1      46.114  28.748  36.185  1.00  0.00     0.040 A 
ATOM     71  F   UNL A   1      45.295  30.429  34.770  1.00  0.00    -0.206 F 
ATOM     72  C   UNL A   1      45.890  27.650  37.012  1.00  0.00     0.006 A 
ENDBRANCH  44  65
BRANCH  56  73
ATOM     73  C   UNL A   1      39.399  34.186  37.064  1.00  0.00     0.057 A 
ATOM     74  C   UNL A   1      38.683  33.782  38.198  1.00  0.00     0.134 A 
ATOM     75  C   UNL A   1      39.975  35.461  37.077  1.00  0.00     0.134 A 
ATOM     76  F   UNL A   1      38.090  32.579  38.237  1.00  0.00    -0.206 F 
ATOM     77  C   UNL A   1      38.533  34.626  39.300  1.00  0.00     0.040 A 
ATOM     78  C   UNL A   1      39.848  36.305  38.180  1.00  0.00     0.040 A 
ATOM     79  F   UNL A   1      40.670  35.905  36.020  1.00  0.00    -0.206 F 
ATOM     80  C   UNL A   1      39.122  35.889  39.295  1.00  0.00     0.006 A 
ENDBRANCH  56  73
ENDBRANCH  30  31
ENDBRANCH  23  25
ENDBRANCH  22  23
ENDBRANCH  21  22
ENDBRANCH   1  21
TORSDOF 15
ENDMDL
MODEL 2
REMARK VINA RESULT:     -10.3      5.522      9.669
REMARK SMILES CCNC(=O)NC(=O)[C@@H](C)[N@H+](C)CC(=O)OCCOC(=O)c1ccc(-c2c3nc(c(-c4c(F)cccc4F)c4ccc([nH]4)c(-c4c(F)cccc4F)c4nc(c(-c5c(F)cccc5F)c5ccc2[nH]5)C=C4)C=C3)cc1
REMARK SMILES IDX 17 1 16 2 14 3 15 4 13 5 11 6 12 7 9 9 10 10 7 11 3 12 4 13
REMARK SMILES IDX 5 15 6 16 8 18 2 19 1 20 18 21 19 22 20 23 21 24 22 25 23 26
REMARK SMILES IDX 75 27 24 28 74 29 25 30 26 31 27 32 68 33 28 34 73 35 67 36
REMARK SMILES IDX 69 37 29 38 72 39 66 40 65 41 30 43 56 44 39 45 55 46 40 47
REMARK SMILES IDX 43 48 54 49 70 50 41 51 42 52 53 54 71 55 44 56 31 57 32 58
REMARK SMILES IDX 37 59 33 60 34 61 36 62 38 63 35 64 57 65 58 66 63 67 59 68
REMARK SMILES IDX 60 69 62 70 64 71 61 72 45 73 46 74 51 75 47 76 48 77 50 78
REMARK SMILES IDX 52 79 49 80
REMARK H PARENT 11 8 3 14 6 17 69 42 43 53
REMARK Flexibility Score: inf
ROOT
ATOM      1  C   UNL A   1      32.288  29.083  25.243  1.00  0.00     0.274 C 
ENDROOT
BRANCH   1   2
ATOM      2  O   UNL A   1      32.368  29.005  23.795  1.00  0.00    -0.458 OA
BRANCH   2   3
ATOM      3  C   UNL A   1      33.433  28.304  23.296  1.00  0.00     0.361 C 
ATOM      4  O   UNL A   1      34.391  28.849  22.751  1.00  0.00    -0.245 OA
BRANCH   3   5
ATOM      5  C   UNL A   1      33.405  26.773  23.547  1.00  0.00     0.386 C 
BRANCH   5   6
ATOM      6  N   UNL A   1      32.154  26.071  23.097  1.00  0.00    -0.318 N 
ATOM      7  C   UNL A   1      32.448  25.480  21.779  1.00  0.00     0.333 C 
ATOM      8  H   UNL A   1      31.390  26.747  23.052  1.00  0.00     0.349 HD
BRANCH   6   9
ATOM      9  C   UNL A   1      31.693  25.005  24.055  1.00  0.00     0.271 C 
ATOM     10  C   UNL A   1      30.653  24.010  23.479  1.00  0.00     0.086 C 
BRANCH   9  11
ATOM     11  C   UNL A   1      31.021  25.518  25.351  1.00  0.00     0.285 C 
ATOM     12  N   UNL A   1      32.771  23.235  26.855  1.00  0.00    -0.338 N 
ATOM     13  C   UNL A   1      31.579  23.862  26.877  1.00  0.00     0.321 C 
ATOM     14  H   UNL A   1      32.734  22.289  27.129  1.00  0.00     0.165 HD
ATOM     15  O   UNL A   1      30.562  23.254  27.207  1.00  0.00    -0.248 OA
ATOM     16  N   UNL A   1      31.517  25.166  26.576  1.00  0.00    -0.273 N 
ATOM     17  H   UNL A   1      31.818  25.850  27.217  1.00  0.00     0.175 HD
ATOM     18  O   UNL A   1      30.090  26.329  25.303  1.00  0.00    -0.268 OA
BRANCH  12  19
ATOM     19  C   UNL A   1      34.093  23.698  26.503  1.00  0.00     0.114 C 
ATOM     20  C   UNL A   1      34.587  23.094  25.199  1.00  0.00     0.027 C 
ENDBRANCH  12  19
ENDBRANCH   9  11
ENDBRANCH   6   9
ENDBRANCH   5   6
ENDBRANCH   3   5
ENDBRANCH   2   3
ENDBRANCH   1   2
BRANCH   1  21
ATOM     21  C   UNL A   1      31.748  30.453  25.711  1.00  0.00     0.275 C 
BRANCH  21  22
ATOM     22  O   UNL A   1      32.198  30.698  27.063  1.00  0.00    -0.458 OA
BRANCH  22  23
ATOM     23  C   UNL A   1      32.945  31.809  27.318  1.00  0.00     0.338 C 
ATOM     24  O   UNL A   1      32.554  32.963  27.251  1.00  0.00    -0.246 OA
BRANCH  23  25
ATOM     25  C   UNL A   1      34.293  31.399  27.828  1.00  0.00     0.060 A 
ATOM     26  C   UNL A   1      35.275  32.359  28.065  1.00  0.00     0.016 A 
ATOM     27  C   UNL A   1      34.632  30.051  27.999  1.00  0.00     0.016 A 
ATOM     28  C   UNL A   1      36.585  31.988  28.377  1.00  0.00     0.010 A 
ATOM     29  C   UNL A   1      35.913  29.689  28.469  1.00  0.00     0.010 A 
ATOM     30  C   UNL A   1      36.899  30.663  28.700  1.00  0.00    -0.014 A 
BRANCH  30  31
ATOM     31  C   UNL A   1      38.173  30.363  29.432  1.00  0.00     0.031 A 
ATOM     32  C   UNL A   1      39.234  29.448  28.880  1.00  0.00     0.074 A 
ATOM     33  C   UNL A   1      38.360  30.898  30.661  1.00  0.00     0.049 A 
ATOM     34  N   UNL A   1      40.241  28.884  29.504  1.00  0.00    -0.248 NA
ATOM     35  C   UNL A   1      39.161  29.124  27.450  1.00  0.00     0.031 C 
ATOM     36  C   UNL A   1      37.451  31.835  31.329  1.00  0.00     0.029 A 
ATOM     37  N   UNL A   1      39.374  30.732  31.577  1.00  0.00    -0.354 N 
ATOM     38  C   UNL A   1      40.888  28.093  28.562  1.00  0.00     0.074 A 
ATOM     39  C   UNL A   1      40.172  28.271  27.313  1.00  0.00     0.031 C 
ATOM     40  C   UNL A   1      37.966  32.201  32.506  1.00  0.00     0.029 A 
ATOM     41  C   UNL A   1      39.164  31.416  32.752  1.00  0.00     0.049 A 
ATOM     42  H   UNL A   1      40.170  30.178  31.407  1.00  0.00     0.167 HD
ATOM     43  C   UNL A   1      41.963  27.283  28.733  1.00  0.00     0.037 A 
ATOM     44  C   UNL A   1      39.796  31.370  33.939  1.00  0.00     0.037 A 
ATOM     45  C   UNL A   1      42.697  27.142  29.970  1.00  0.00     0.049 A 
ATOM     46  C   UNL A   1      40.938  30.425  34.123  1.00  0.00     0.074 A 
ATOM     47  C   UNL A   1      43.794  26.339  30.237  1.00  0.00     0.029 A 
ATOM     48  N   UNL A   1      42.420  27.831  31.142  1.00  0.00    -0.354 N 
ATOM     49  N   UNL A   1      41.476  29.608  33.253  1.00  0.00    -0.248 NA
ATOM     50  C   UNL A   1      41.541  30.369  35.461  1.00  0.00     0.031 C 
ATOM     51  C   UNL A   1      44.157  26.514  31.577  1.00  0.00     0.029 A 
ATOM     52  C   UNL A   1      43.315  27.460  32.134  1.00  0.00     0.049 A 
ATOM     53  H   UNL A   1      41.694  28.486  31.252  1.00  0.00     0.167 HD
ATOM     54  C   UNL A   1      42.485  28.945  33.934  1.00  0.00     0.074 A 
ATOM     55  C   UNL A   1      42.496  29.467  35.285  1.00  0.00     0.031 C 
ATOM     56  C   UNL A   1      43.322  27.985  33.475  1.00  0.00     0.037 A 
BRANCH  43  57
ATOM     57  C   UNL A   1      42.395  26.432  27.572  1.00  0.00     0.057 A 
ATOM     58  C   UNL A   1      41.894  25.144  27.358  1.00  0.00     0.134 A 
ATOM     59  C   UNL A   1      43.278  26.947  26.611  1.00  0.00     0.134 A 
ATOM     60  F   UNL A   1      41.049  24.588  28.238  1.00  0.00    -0.206 F 
ATOM     61  C   UNL A   1      42.268  24.391  26.240  1.00  0.00     0.040 A 
ATOM     62  C   UNL A   1      43.641  26.214  25.479  1.00  0.00     0.040 A 
ATOM     63  F   UNL A   1      43.785  28.182  26.746  1.00  0.00    -0.206 F 
ATOM     64  C   UNL A   1      43.138  24.930  25.294  1.00  0.00     0.006 A 
ENDBRANCH  43  57
BRANCH  44  65
ATOM     65  C   UNL A   1      39.290  32.196  35.066  1.00  0.00     0.057 A 
ATOM     66  C   UNL A   1      39.725  33.511  35.250  1.00  0.00     0.134 A 
ATOM     67  C   UNL A   1      38.325  31.703  35.955  1.00  0.00     0.134 A 
ATOM     68  F   UNL A   1      40.665  34.030  34.447  1.00  0.00    -0.206 F 
ATOM     69  C   UNL A   1      39.215  34.309  36.275  1.00  0.00     0.040 A 
ATOM     70  C   UNL A   1      37.782  32.500  36.962  1.00  0.00     0.040 A 
ATOM     71  F   UNL A   1      37.861  30.450  35.825  1.00  0.00    -0.206 F 
ATOM     72  C   UNL A   1      38.231  33.808  37.126  1.00  0.00     0.006 A 
ENDBRANCH  44  65
BRANCH  56  73
ATOM     73  C   UNL A   1      44.348  27.468  34.437  1.00  0.00     0.057 A 
ATOM     74  C   UNL A   1      45.592  28.094  34.595  1.00  0.00     0.134 A 
ATOM     75  C   UNL A   1      44.083  26.340  35.221  1.00  0.00     0.134 A 
ATOM     76  F   UNL A   1      45.912  29.167  33.856  1.00  0.00    -0.206 F 
ATOM     77  C   UNL A   1      46.544  27.602  35.490  1.00  0.00     0.040 A 
ATOM     78  C   UNL A   1      45.020  25.851  36.133  1.00  0.00     0.040 A 
ATOM     79  F   UNL A   1      42.912  25.697  35.115  1.00  0.00    -0.206 F 
ATOM     80  C   UNL A   1      46.256  26.481  36.266  1.00  0.00     0.006 A 
ENDBRANCH  56  73
ENDBRANCH  30  31
ENDBRANCH  23  25
ENDBRANCH  22  23
ENDBRANCH  21  22
ENDBRANCH   1  21
TORSDOF 15
ENDMDL
MODEL 3
REMARK VINA RESULT:     -10.2      5.419      9.758
REMARK SMILES CCNC(=O)NC(=O)[C@@H](C)[N@H+](C)CC(=O)OCCOC(=O)c1ccc(-c2c3nc(c(-c4c(F)cccc4F)c4ccc([nH]4)c(-c4c(F)cccc4F)c4nc(c(-c5c(F)cccc5F)c5ccc2[nH]5)C=C4)C=C3)cc1
REMARK SMILES IDX 17 1 16 2 14 3 15 4 13 5 11 6 12 7 9 9 10 10 7 11 3 12 4 13
REMARK SMILES IDX 5 15 6 16 8 18 2 19 1 20 18 21 19 22 20 23 21 24 22 25 23 26
REMARK SMILES IDX 75 27 24 28 74 29 25 30 26 31 27 32 68 33 28 34 73 35 67 36
REMARK SMILES IDX 69 37 29 38 72 39 66 40 65 41 30 43 56 44 39 45 55 46 40 47
REMARK SMILES IDX 43 48 54 49 70 50 41 51 42 52 53 54 71 55 44 56 31 57 32 58
REMARK SMILES IDX 37 59 33 60 34 61 36 62 38 63 35 64 57 65 58 66 63 67 59 68
REMARK SMILES IDX 60 69 62 70 64 71 61 72 45 73 46 74 51 75 47 76 48 77 50 78
REMARK SMILES IDX 52 79 49 80
REMARK H PARENT 11 8 3 14 6 17 69 42 43 53
REMARK Flexibility Score: inf
ROOT
ATOM      1  C   UNL A   1      31.591  29.725  25.726  1.00  0.00     0.274 C 
ENDROOT
BRANCH   1   2
ATOM      2  O   UNL A   1      31.975  28.807  26.785  1.00  0.00    -0.458 OA
BRANCH   2   3
ATOM      3  C   UNL A   1      32.582  27.649  26.375  1.00  0.00     0.361 C 
ATOM      4  O   UNL A   1      33.804  27.519  26.331  1.00  0.00    -0.245 OA
BRANCH   3   5
ATOM      5  C   UNL A   1      31.628  26.467  26.059  1.00  0.00     0.386 C 
BRANCH   5   6
ATOM      6  N   UNL A   1      32.302  25.148  25.803  1.00  0.00    -0.318 N 
ATOM      7  C   UNL A   1      31.554  24.132  26.565  1.00  0.00     0.333 C 
ATOM      8  H   UNL A   1      33.277  25.209  26.099  1.00  0.00     0.349 HD
BRANCH   6   9
ATOM      9  C   UNL A   1      32.346  24.777  24.344  1.00  0.00     0.271 C 
ATOM     10  C   UNL A   1      32.165  23.268  24.045  1.00  0.00     0.086 C 
BRANCH   9  11
ATOM     11  C   UNL A   1      33.657  25.136  23.605  1.00  0.00     0.285 C 
ATOM     12  N   UNL A   1      31.766  26.904  21.646  1.00  0.00    -0.338 N 
ATOM     13  C   UNL A   1      32.865  26.126  21.661  1.00  0.00     0.321 C 
ATOM     14  H   UNL A   1      31.236  26.839  20.818  1.00  0.00     0.165 HD
ATOM     15  O   UNL A   1      33.130  25.404  20.701  1.00  0.00    -0.248 OA
ATOM     16  N   UNL A   1      33.691  26.175  22.715  1.00  0.00    -0.273 N 
ATOM     17  H   UNL A   1      34.303  26.935  22.846  1.00  0.00     0.175 HD
ATOM     18  O   UNL A   1      34.715  24.557  23.874  1.00  0.00    -0.268 OA
BRANCH  12  19
ATOM     19  C   UNL A   1      31.223  27.818  22.625  1.00  0.00     0.114 C 
ATOM     20  C   UNL A   1      29.780  27.497  22.976  1.00  0.00     0.027 C 
ENDBRANCH  12  19
ENDBRANCH   9  11
ENDBRANCH   6   9
ENDBRANCH   5   6
ENDBRANCH   3   5
ENDBRANCH   2   3
ENDBRANCH   1   2
BRANCH   1  21
ATOM     21  C   UNL A   1      31.676  31.196  26.190  1.00  0.00     0.275 C 
BRANCH  21  22
ATOM     22  O   UNL A   1      32.436  31.260  27.417  1.00  0.00    -0.458 OA
BRANCH  22  23
ATOM     23  C   UNL A   1      33.289  32.304  27.610  1.00  0.00     0.338 C 
ATOM     24  O   UNL A   1      33.000  33.487  27.531  1.00  0.00    -0.246 OA
BRANCH  23  25
ATOM     25  C   UNL A   1      34.619  31.787  28.071  1.00  0.00     0.060 A 
ATOM     26  C   UNL A   1      35.692  32.660  28.240  1.00  0.00     0.016 A 
ATOM     27  C   UNL A   1      34.845  30.418  28.260  1.00  0.00     0.016 A 
ATOM     28  C   UNL A   1      36.976  32.180  28.503  1.00  0.00     0.010 A 
ATOM     29  C   UNL A   1      36.110  29.953  28.682  1.00  0.00     0.010 A 
ATOM     30  C   UNL A   1      37.188  30.840  28.844  1.00  0.00    -0.014 A 
BRANCH  30  31
ATOM     31  C   UNL A   1      38.462  30.443  29.528  1.00  0.00     0.031 A 
ATOM     32  C   UNL A   1      39.462  29.505  28.904  1.00  0.00     0.074 A 
ATOM     33  C   UNL A   1      38.706  30.907  30.774  1.00  0.00     0.049 A 
ATOM     34  N   UNL A   1      40.455  28.863  29.473  1.00  0.00    -0.248 NA
ATOM     35  C   UNL A   1      39.338  29.255  27.462  1.00  0.00     0.031 C 
ATOM     36  C   UNL A   1      37.862  31.854  31.511  1.00  0.00     0.029 A 
ATOM     37  N   UNL A   1      39.732  30.649  31.654  1.00  0.00    -0.354 N 
ATOM     38  C   UNL A   1      41.038  28.088  28.478  1.00  0.00     0.074 A 
ATOM     39  C   UNL A   1      40.301  28.362  27.258  1.00  0.00     0.031 C 
ATOM     40  C   UNL A   1      38.423  32.137  32.689  1.00  0.00     0.029 A 
ATOM     41  C   UNL A   1      39.586  31.284  32.865  1.00  0.00     0.049 A 
ATOM     42  H   UNL A   1      40.495  30.065  31.437  1.00  0.00     0.167 HD
ATOM     43  C   UNL A   1      42.075  27.220  28.581  1.00  0.00     0.037 A 
ATOM     44  C   UNL A   1      40.244  31.149  34.032  1.00  0.00     0.037 A 
ATOM     45  C   UNL A   1      42.831  26.983  29.790  1.00  0.00     0.049 A 
ATOM     46  C   UNL A   1      41.342  30.141  34.140  1.00  0.00     0.074 A 
ATOM     47  C   UNL A   1      43.893  26.115  29.989  1.00  0.00     0.029 A 
ATOM     48  N   UNL A   1      42.618  27.626  31.000  1.00  0.00    -0.354 N 
ATOM     49  N   UNL A   1      41.817  29.343  33.218  1.00  0.00    -0.248 NA
ATOM     50  C   UNL A   1      41.973  29.992  35.457  1.00  0.00     0.031 C 
ATOM     51  C   UNL A   1      44.298  26.207  31.325  1.00  0.00     0.029 A 
ATOM     52  C   UNL A   1      43.518  27.165  31.949  1.00  0.00     0.049 A 
ATOM     53  H   UNL A   1      41.929  28.311  31.161  1.00  0.00     0.167 HD
ATOM     54  C   UNL A   1      42.808  28.600  33.839  1.00  0.00     0.074 A 
ATOM     55  C   UNL A   1      42.878  29.054  35.212  1.00  0.00     0.031 C 
ATOM     56  C   UNL A   1      43.584  27.623  33.312  1.00  0.00     0.037 A 
BRANCH  43  57
ATOM     57  C   UNL A   1      42.436  26.406  27.370  1.00  0.00     0.057 A 
ATOM     58  C   UNL A   1      43.366  26.844  26.421  1.00  0.00     0.134 A 
ATOM     59  C   UNL A   1      41.892  25.125  27.193  1.00  0.00     0.134 A 
ATOM     60  F   UNL A   1      43.923  28.059  26.527  1.00  0.00    -0.206 F 
ATOM     61  C   UNL A   1      43.729  26.046  25.332  1.00  0.00     0.040 A 
ATOM     62  C   UNL A   1      42.263  24.310  26.122  1.00  0.00     0.040 A 
ATOM     63  F   UNL A   1      41.005  24.636  28.074  1.00  0.00    -0.206 F 
ATOM     64  C   UNL A   1      43.182  24.773  25.185  1.00  0.00     0.006 A 
ENDBRANCH  43  57
BRANCH  44  65
ATOM     65  C   UNL A   1      39.808  31.943  35.209  1.00  0.00     0.057 A 
ATOM     66  C   UNL A   1      40.379  33.186  35.495  1.00  0.00     0.134 A 
ATOM     67  C   UNL A   1      38.777  31.497  36.048  1.00  0.00     0.134 A 
ATOM     68  F   UNL A   1      41.386  33.654  34.744  1.00  0.00    -0.206 F 
ATOM     69  C   UNL A   1      39.938  33.960  36.569  1.00  0.00     0.040 A 
ATOM     70  C   UNL A   1      38.303  32.274  37.103  1.00  0.00     0.040 A 
ATOM     71  F   UNL A   1      38.183  30.315  35.821  1.00  0.00    -0.206 F 
ATOM     72  C   UNL A   1      38.888  33.510  37.369  1.00  0.00     0.006 A 
ENDBRANCH  44  65
BRANCH  56  73
ATOM     73  C   UNL A   1      44.606  27.011  34.221  1.00  0.00     0.057 A 
ATOM     74  C   UNL A   1      45.887  27.560  34.365  1.00  0.00     0.134 A 
ATOM     75  C   UNL A   1      44.301  25.867  34.968  1.00  0.00     0.134 A 
ATOM     76  F   UNL A   1      46.247  28.643  33.661  1.00  0.00    -0.206 F 
ATOM     77  C   UNL A   1      46.835  26.979  35.210  1.00  0.00     0.040 A 
ATOM     78  C   UNL A   1      45.234  25.290  35.829  1.00  0.00     0.040 A 
ATOM     79  F   UNL A   1      43.092  25.295  34.872  1.00  0.00    -0.206 F 
ATOM     80  C   UNL A   1      46.507  25.844  35.949  1.00  0.00     0.006 A 
ENDBRANCH  56  73
ENDBRANCH  30  31
ENDBRANCH  23  25
ENDBRANCH  22  23
ENDBRANCH  21  22
ENDBRANCH   1  21
TORSDOF 15
ENDMDL
