MODEL 1
REMARK VINA RESULT:     -11.6      0.000      0.000
REMARK SMILES CC[N@@H+](C)Cc1cc2c(cc1Cl)C=C(C(=O)OCCOC(=O)c1ccc(-c3c4nc(c(-c5c(F)cccc5F)c5ccc([nH]5)c(-c5c(F)cccc5F)c5nc(c(-c6c(F)cccc6F)c6ccc3[nH]6)C=C5)C=C4)cc1)[C@@H](C(F)(F)F)O2
REMARK SMILES IDX 18 1 17 2 15 3 16 4 14 5 6 6 7 7 11 8 8 9 10 10 12 11 9 12
REMARK SMILES IDX 82 13 13 14 77 15 5 16 3 17 4 18 2 20 1 21 78 22 79 23 80 24
REMARK SMILES IDX 81 25 19 26 20 27 21 28 22 29 23 30 24 31 76 32 25 33 75 34
REMARK SMILES IDX 26 35 27 36 28 37 69 38 29 39 74 40 68 41 70 42 30 43 73 44
REMARK SMILES IDX 67 45 66 46 31 48 57 49 40 50 56 51 41 52 44 53 55 54 71 55
REMARK SMILES IDX 42 56 43 57 54 59 72 60 45 61 32 62 33 63 38 64 34 65 35 66
REMARK SMILES IDX 37 67 39 68 36 69 58 70 59 71 64 72 60 73 61 74 63 75 65 76
REMARK SMILES IDX 62 77 46 78 47 79 52 80 48 81 49 82 51 83 53 84 50 85
REMARK H PARENT 3 19 70 47 44 58
REMARK Flexibility Score: inf
ROOT
ATOM      1  C   UNL A   1      31.672  28.248  24.503  1.00  0.00     0.275 C 
ENDROOT
BRANCH   1   2
ATOM      2  O   UNL A   1      32.443  27.344  25.324  1.00  0.00    -0.459 OA
BRANCH   2   3
ATOM      3  C   UNL A   1      31.710  26.624  26.202  1.00  0.00     0.338 C 
ATOM      4  O   UNL A   1      30.976  27.072  27.068  1.00  0.00    -0.246 OA
BRANCH   3   5
ATOM      5  C   UNL A   1      31.832  25.178  25.949  1.00  0.00     0.087 C 
ATOM      6  C   UNL A   1      33.884  20.693  24.949  1.00  0.00     0.029 A 
ATOM      7  C   UNL A   1      32.549  21.177  24.978  1.00  0.00     0.058 A 
ATOM      8  C   UNL A   1      34.922  21.597  25.219  1.00  0.00     0.050 A 
ATOM      9  C   UNL A   1      32.269  22.502  25.316  1.00  0.00     0.128 A 
ATOM     10  C   UNL A   1      34.634  22.886  25.649  1.00  0.00     0.033 A 
ATOM     11  Cl  UNL A   1      36.594  21.246  24.974  1.00  0.00    -0.084 Cl
ATOM     12  C   UNL A   1      33.314  23.326  25.707  1.00  0.00     0.019 A 
ATOM     13  O   UNL A   1      30.968  22.935  25.280  1.00  0.00    -0.475 OA
ATOM     14  C   UNL A   1      33.050  24.672  26.145  1.00  0.00     0.027 C 
ATOM     15  C   UNL A   1      30.733  24.386  25.303  1.00  0.00     0.316 C 
BRANCH   6  16
ATOM     16  C   UNL A   1      34.136  19.226  24.645  1.00  0.00     0.300 C 
BRANCH  16  17
ATOM     17  N   UNL A   1      32.951  18.373  24.413  1.00  0.00    -0.334 N 
ATOM     18  C   UNL A   1      32.605  17.554  25.574  1.00  0.00     0.333 C 
ATOM     19  H   UNL A   1      32.211  19.056  24.256  1.00  0.00     0.348 HD
BRANCH  17  20
ATOM     20  C   UNL A   1      32.987  17.549  23.197  1.00  0.00     0.258 C 
ATOM     21  C   UNL A   1      34.201  16.626  23.117  1.00  0.00     0.071 C 
ENDBRANCH  17  20
ENDBRANCH  16  17
ENDBRANCH   6  16
BRANCH  15  22
ATOM     22  C   UNL A   1      30.466  24.908  23.881  1.00  0.00     0.430 C 
ATOM     23  F   UNL A   1      29.948  23.945  23.084  1.00  0.00    -0.167 F 
ATOM     24  F   UNL A   1      29.569  25.925  23.895  1.00  0.00    -0.167 F 
ATOM     25  F   UNL A   1      31.589  25.371  23.284  1.00  0.00    -0.167 F 
ENDBRANCH  15  22
ENDBRANCH   3   5
ENDBRANCH   2   3
ENDBRANCH   1   2
BRANCH   1  26
ATOM     26  C   UNL A   1      31.646  29.661  25.092  1.00  0.00     0.275 C 
BRANCH  26  27
ATOM     27  O   UNL A   1      32.955  30.057  25.545  1.00  0.00    -0.458 OA
BRANCH  27  28
ATOM     28  C   UNL A   1      32.984  30.801  26.673  1.00  0.00     0.338 C 
ATOM     29  O   UNL A   1      32.070  31.455  27.155  1.00  0.00    -0.246 OA
BRANCH  28  30
ATOM     30  C   UNL A   1      34.305  30.708  27.313  1.00  0.00     0.060 A 
ATOM     31  C   UNL A   1      34.998  31.855  27.690  1.00  0.00     0.016 A 
ATOM     32  C   UNL A   1      34.791  29.458  27.680  1.00  0.00     0.016 A 
ATOM     33  C   UNL A   1      36.188  31.735  28.420  1.00  0.00     0.010 A 
ATOM     34  C   UNL A   1      35.875  29.352  28.548  1.00  0.00     0.010 A 
ATOM     35  C   UNL A   1      36.626  30.483  28.895  1.00  0.00    -0.014 A 
BRANCH  35  36
ATOM     36  C   UNL A   1      37.883  30.328  29.692  1.00  0.00     0.031 A 
ATOM     37  C   UNL A   1      39.089  29.639  29.086  1.00  0.00     0.074 A 
ATOM     38  C   UNL A   1      37.951  30.755  30.971  1.00  0.00     0.049 A 
ATOM     39  N   UNL A   1      40.227  29.309  29.644  1.00  0.00    -0.248 NA
ATOM     40  C   UNL A   1      38.979  29.219  27.680  1.00  0.00     0.031 C 
ATOM     41  C   UNL A   1      36.859  31.377  31.724  1.00  0.00     0.029 A 
ATOM     42  N   UNL A   1      38.994  30.735  31.867  1.00  0.00    -0.354 N 
ATOM     43  C   UNL A   1      40.932  28.594  28.680  1.00  0.00     0.074 A 
ATOM     44  C   UNL A   1      40.069  28.483  27.526  1.00  0.00     0.031 C 
ATOM     45  C   UNL A   1      37.307  31.734  32.938  1.00  0.00     0.029 A 
ATOM     46  C   UNL A   1      38.701  31.324  33.074  1.00  0.00     0.049 A 
ATOM     47  H   UNL A   1      39.870  30.333  31.663  1.00  0.00     0.167 HD
ATOM     48  C   UNL A   1      42.195  28.106  28.723  1.00  0.00     0.037 A 
ATOM     49  C   UNL A   1      39.468  31.520  34.165  1.00  0.00     0.037 A 
ATOM     50  C   UNL A   1      43.099  28.301  29.823  1.00  0.00     0.049 A 
ATOM     51  C   UNL A   1      40.890  31.032  34.168  1.00  0.00     0.074 A 
ATOM     52  C   UNL A   1      44.428  27.929  29.926  1.00  0.00     0.029 A 
ATOM     53  N   UNL A   1      42.769  28.946  31.006  1.00  0.00    -0.354 N 
ATOM     54  N   UNL A   1      41.551  30.405  33.227  1.00  0.00    -0.248 NA
ATOM     55  C   UNL A   1      41.674  31.283  35.388  1.00  0.00     0.031 C 
ATOM     56  C   UNL A   1      44.900  28.336  31.178  1.00  0.00     0.029 A 
ATOM     57  C   UNL A   1      43.871  28.984  31.843  1.00  0.00     0.049 A 
ATOM     58  H   UNL A   1      41.884  29.320  31.218  1.00  0.00     0.167 HD
ATOM     59  C   UNL A   1      42.831  30.206  33.729  1.00  0.00     0.074 A 
ATOM     60  C   UNL A   1      42.859  30.792  35.054  1.00  0.00     0.031 C 
ATOM     61  C   UNL A   1      43.888  29.591  33.147  1.00  0.00     0.037 A 
BRANCH  48  62
ATOM     62  C   UNL A   1      42.683  27.343  27.525  1.00  0.00     0.057 A 
ATOM     63  C   UNL A   1      43.273  28.008  26.444  1.00  0.00     0.134 A 
ATOM     64  C   UNL A   1      42.560  25.949  27.435  1.00  0.00     0.134 A 
ATOM     65  F   UNL A   1      43.411  29.342  26.456  1.00  0.00    -0.206 F 
ATOM     66  C   UNL A   1      43.736  27.314  25.324  1.00  0.00     0.040 A 
ATOM     67  C   UNL A   1      43.046  25.241  26.335  1.00  0.00     0.040 A 
ATOM     68  F   UNL A   1      42.013  25.249  28.441  1.00  0.00    -0.206 F 
ATOM     69  C   UNL A   1      43.634  25.925  25.273  1.00  0.00     0.006 A 
ENDBRANCH  48  62
BRANCH  49  70
ATOM     70  C   UNL A   1      38.924  32.250  35.338  1.00  0.00     0.057 A 
ATOM     71  C   UNL A   1      38.982  33.644  35.431  1.00  0.00     0.134 A 
ATOM     72  C   UNL A   1      38.314  31.558  36.391  1.00  0.00     0.134 A 
ATOM     73  F   UNL A   1      39.558  34.364  34.457  1.00  0.00    -0.206 F 
ATOM     74  C   UNL A   1      38.457  34.325  36.531  1.00  0.00     0.040 A 
ATOM     75  C   UNL A   1      37.765  32.226  37.487  1.00  0.00     0.040 A 
ATOM     76  F   UNL A   1      38.210  30.221  36.349  1.00  0.00    -0.206 F 
ATOM     77  C   UNL A   1      37.840  33.616  37.560  1.00  0.00     0.006 A 
ENDBRANCH  49  70
BRANCH  61  78
ATOM     78  C   UNL A   1      45.173  29.554  33.915  1.00  0.00     0.057 A 
ATOM     79  C   UNL A   1      46.123  30.572  33.762  1.00  0.00     0.134 A 
ATOM     80  C   UNL A   1      45.493  28.488  34.762  1.00  0.00     0.134 A 
ATOM     81  F   UNL A   1      45.877  31.617  32.958  1.00  0.00    -0.206 F 
ATOM     82  C   UNL A   1      47.351  30.526  34.420  1.00  0.00     0.040 A 
ATOM     83  C   UNL A   1      46.711  28.440  35.442  1.00  0.00     0.040 A 
ATOM     84  F   UNL A   1      44.618  27.490  34.959  1.00  0.00    -0.206 F 
ATOM     85  C   UNL A   1      47.647  29.458  35.266  1.00  0.00     0.006 A 
ENDBRANCH  61  78
ENDBRANCH  35  36
ENDBRANCH  28  30
ENDBRANCH  27  28
ENDBRANCH  26  27
ENDBRANCH   1  26
TORSDOF 15
ENDMDL
MODEL 2
REMARK VINA RESULT:     -11.5      0.218      1.614
REMARK SMILES CC[N@@H+](C)Cc1cc2c(cc1Cl)C=C(C(=O)OCCOC(=O)c1ccc(-c3c4nc(c(-c5c(F)cccc5F)c5ccc([nH]5)c(-c5c(F)cccc5F)c5nc(c(-c6c(F)cccc6F)c6ccc3[nH]6)C=C5)C=C4)cc1)[C@@H](C(F)(F)F)O2
REMARK SMILES IDX 18 1 17 2 15 3 16 4 14 5 6 6 7 7 11 8 8 9 10 10 12 11 9 12
REMARK SMILES IDX 82 13 13 14 77 15 5 16 3 17 4 18 2 20 1 21 78 22 79 23 80 24
REMARK SMILES IDX 81 25 19 26 20 27 21 28 22 29 23 30 24 31 76 32 25 33 75 34
REMARK SMILES IDX 26 35 27 36 28 37 69 38 29 39 74 40 68 41 70 42 30 43 73 44
REMARK SMILES IDX 67 45 66 46 31 48 57 49 40 50 56 51 41 52 44 53 55 54 71 55
REMARK SMILES IDX 42 56 43 57 54 59 72 60 45 61 32 62 33 63 38 64 34 65 35 66
REMARK SMILES IDX 37 67 39 68 36 69 58 70 59 71 64 72 60 73 61 74 63 75 65 76
REMARK SMILES IDX 62 77 46 78 47 79 52 80 48 81 49 82 51 83 53 84 50 85
REMARK H PARENT 3 19 70 47 44 58
REMARK Flexibility Score: inf
ROOT
ATOM      1  C   UNL A   1      31.799  28.169  24.604  1.00  0.00     0.275 C 
ENDROOT
BRANCH   1   2
ATOM      2  O   UNL A   1      32.474  27.216  25.454  1.00  0.00    -0.459 OA
BRANCH   2   3
ATOM      3  C   UNL A   1      31.649  26.483  26.234  1.00  0.00     0.338 C 
ATOM      4  O   UNL A   1      30.830  26.917  27.029  1.00  0.00    -0.246 OA
BRANCH   3   5
ATOM      5  C   UNL A   1      31.789  25.042  25.964  1.00  0.00     0.087 C 
ATOM      6  C   UNL A   1      33.906  20.581  24.992  1.00  0.00     0.029 A 
ATOM      7  C   UNL A   1      32.569  21.060  24.961  1.00  0.00     0.058 A 
ATOM      8  C   UNL A   1      34.926  21.483  25.330  1.00  0.00     0.050 A 
ATOM      9  C   UNL A   1      32.267  22.378  25.307  1.00  0.00     0.128 A 
ATOM     10  C   UNL A   1      34.611  22.764  25.767  1.00  0.00     0.033 A 
ATOM     11  Cl  UNL A   1      36.609  21.141  25.164  1.00  0.00    -0.084 Cl
ATOM     12  C   UNL A   1      33.288  23.198  25.766  1.00  0.00     0.019 A 
ATOM     13  O   UNL A   1      30.968  22.808  25.213  1.00  0.00    -0.475 OA
ATOM     14  C   UNL A   1      32.997  24.535  26.212  1.00  0.00     0.027 C 
ATOM     15  C   UNL A   1      30.727  24.258  25.248  1.00  0.00     0.316 C 
BRANCH   6  16
ATOM     16  C   UNL A   1      34.179  19.120  24.676  1.00  0.00     0.300 C 
BRANCH  16  17
ATOM     17  N   UNL A   1      33.006  18.246  24.464  1.00  0.00    -0.334 N 
ATOM     18  C   UNL A   1      32.734  17.373  25.605  1.00  0.00     0.333 C 
ATOM     19  H   UNL A   1      32.242  18.915  24.369  1.00  0.00     0.348 HD
BRANCH  17  20
ATOM     20  C   UNL A   1      33.004  17.473  23.215  1.00  0.00     0.258 C 
ATOM     21  C   UNL A   1      32.335  18.194  22.047  1.00  0.00     0.071 C 
ENDBRANCH  17  20
ENDBRANCH  16  17
ENDBRANCH   6  16
BRANCH  15  22
ATOM     22  C   UNL A   1      30.531  24.804  23.824  1.00  0.00     0.430 C 
ATOM     23  F   UNL A   1      30.015  23.866  22.996  1.00  0.00    -0.167 F 
ATOM     24  F   UNL A   1      29.665  25.847  23.817  1.00  0.00    -0.167 F 
ATOM     25  F   UNL A   1      31.689  25.239  23.277  1.00  0.00    -0.167 F 
ENDBRANCH  15  22
ENDBRANCH   3   5
ENDBRANCH   2   3
ENDBRANCH   1   2
BRANCH   1  26
ATOM     26  C   UNL A   1      31.603  29.514  25.310  1.00  0.00     0.275 C 
BRANCH  26  27
ATOM     27  O   UNL A   1      32.869  30.154  25.567  1.00  0.00    -0.458 OA
BRANCH  27  28
ATOM     28  C   UNL A   1      32.922  30.921  26.677  1.00  0.00     0.338 C 
ATOM     29  O   UNL A   1      32.028  31.612  27.147  1.00  0.00    -0.246 OA
BRANCH  28  30
ATOM     30  C   UNL A   1      34.242  30.805  27.316  1.00  0.00     0.060 A 
ATOM     31  C   UNL A   1      34.934  31.938  27.736  1.00  0.00     0.016 A 
ATOM     32  C   UNL A   1      34.728  29.543  27.638  1.00  0.00     0.016 A 
ATOM     33  C   UNL A   1      36.123  31.791  28.464  1.00  0.00     0.010 A 
ATOM     34  C   UNL A   1      35.810  29.405  28.503  1.00  0.00     0.010 A 
ATOM     35  C   UNL A   1      36.560  30.524  28.893  1.00  0.00    -0.014 A 
BRANCH  35  36
ATOM     36  C   UNL A   1      37.815  30.339  29.686  1.00  0.00     0.031 A 
ATOM     37  C   UNL A   1      39.008  29.635  29.071  1.00  0.00     0.074 A 
ATOM     38  C   UNL A   1      37.893  30.754  30.968  1.00  0.00     0.049 A 
ATOM     39  N   UNL A   1      40.142  29.280  29.624  1.00  0.00    -0.248 NA
ATOM     40  C   UNL A   1      38.889  29.228  27.662  1.00  0.00     0.031 C 
ATOM     41  C   UNL A   1      36.814  31.388  31.729  1.00  0.00     0.029 A 
ATOM     42  N   UNL A   1      38.937  30.708  31.862  1.00  0.00    -0.354 N 
ATOM     43  C   UNL A   1      40.832  28.561  28.653  1.00  0.00     0.074 A 
ATOM     44  C   UNL A   1      39.965  28.476  27.500  1.00  0.00     0.031 C 
ATOM     45  C   UNL A   1      37.270  31.727  32.945  1.00  0.00     0.029 A 
ATOM     46  C   UNL A   1      38.657  31.292  33.075  1.00  0.00     0.049 A 
ATOM     47  H   UNL A   1      39.806  30.292  31.653  1.00  0.00     0.167 HD
ATOM     48  C   UNL A   1      42.086  28.051  28.689  1.00  0.00     0.037 A 
ATOM     49  C   UNL A   1      39.429  31.464  34.166  1.00  0.00     0.037 A 
ATOM     50  C   UNL A   1      42.995  28.221  29.790  1.00  0.00     0.049 A 
ATOM     51  C   UNL A   1      40.843  30.953  34.162  1.00  0.00     0.074 A 
ATOM     52  C   UNL A   1      44.318  27.825  29.887  1.00  0.00     0.029 A 
ATOM     53  N   UNL A   1      42.679  28.861  30.978  1.00  0.00    -0.354 N 
ATOM     54  N   UNL A   1      41.491  30.322  33.214  1.00  0.00    -0.248 NA
ATOM     55  C   UNL A   1      41.633  31.179  35.382  1.00  0.00     0.031 C 
ATOM     56  C   UNL A   1      44.799  28.213  31.141  1.00  0.00     0.029 A 
ATOM     57  C   UNL A   1      43.783  28.872  31.813  1.00  0.00     0.049 A 
ATOM     58  H   UNL A   1      41.801  29.249  31.195  1.00  0.00     0.167 HD
ATOM     59  C   UNL A   1      42.768  30.097  33.713  1.00  0.00     0.074 A 
ATOM     60  C   UNL A   1      42.809  30.670  35.042  1.00  0.00     0.031 C 
ATOM     61  C   UNL A   1      43.813  29.468  33.123  1.00  0.00     0.037 A 
BRANCH  48  62
ATOM     62  C   UNL A   1      42.558  27.290  27.484  1.00  0.00     0.057 A 
ATOM     63  C   UNL A   1      42.412  25.899  27.413  1.00  0.00     0.134 A 
ATOM     64  C   UNL A   1      43.167  27.930  26.396  1.00  0.00     0.134 A 
ATOM     65  F   UNL A   1      41.850  25.220  28.425  1.00  0.00    -0.206 F 
ATOM     66  C   UNL A   1      42.841  25.175  26.299  1.00  0.00     0.040 A 
ATOM     67  C   UNL A   1      43.573  27.221  25.263  1.00  0.00     0.040 A 
ATOM     68  F   UNL A   1      43.328  29.262  26.394  1.00  0.00    -0.206 F 
ATOM     69  C   UNL A   1      43.413  25.838  25.215  1.00  0.00     0.006 A 
ENDBRANCH  48  62
BRANCH  49  70
ATOM     70  C   UNL A   1      38.900  32.194  35.346  1.00  0.00     0.057 A 
ATOM     71  C   UNL A   1      38.305  31.525  36.421  1.00  0.00     0.134 A 
ATOM     72  C   UNL A   1      38.998  33.588  35.428  1.00  0.00     0.134 A 
ATOM     73  F   UNL A   1      38.178  30.191  36.401  1.00  0.00    -0.206 F 
ATOM     74  C   UNL A   1      37.821  32.217  37.534  1.00  0.00     0.040 A 
ATOM     75  C   UNL A   1      38.538  34.291  36.543  1.00  0.00     0.040 A 
ATOM     76  F   UNL A   1      39.577  34.283  34.437  1.00  0.00    -0.206 F 
ATOM     77  C   UNL A   1      37.944  33.604  37.600  1.00  0.00     0.006 A 
ENDBRANCH  49  70
BRANCH  61  78
ATOM     78  C   UNL A   1      45.099  29.402  33.888  1.00  0.00     0.057 A 
ATOM     79  C   UNL A   1      45.359  28.333  34.753  1.00  0.00     0.134 A 
ATOM     80  C   UNL A   1      46.053  30.423  33.809  1.00  0.00     0.134 A 
ATOM     81  F   UNL A   1      44.479  27.327  34.878  1.00  0.00    -0.206 F 
ATOM     82  C   UNL A   1      46.522  28.284  35.521  1.00  0.00     0.040 A 
ATOM     83  C   UNL A   1      47.230  30.375  34.557  1.00  0.00     0.040 A 
ATOM     84  F   UNL A   1      45.866  31.467  32.988  1.00  0.00    -0.206 F 
ATOM     85  C   UNL A   1      47.463  29.307  35.422  1.00  0.00     0.006 A 
ENDBRANCH  61  78
ENDBRANCH  35  36
ENDBRANCH  28  30
ENDBRANCH  27  28
ENDBRANCH  26  27
ENDBRANCH   1  26
TORSDOF 15
ENDMDL
MODEL 3
REMARK VINA RESULT:     -11.4      0.805      6.258
REMARK SMILES CC[N@@H+](C)Cc1cc2c(cc1Cl)C=C(C(=O)OCCOC(=O)c1ccc(-c3c4nc(c(-c5c(F)cccc5F)c5ccc([nH]5)c(-c5c(F)cccc5F)c5nc(c(-c6c(F)cccc6F)c6ccc3[nH]6)C=C5)C=C4)cc1)[C@@H](C(F)(F)F)O2
REMARK SMILES IDX 18 1 17 2 15 3 16 4 14 5 6 6 7 7 11 8 8 9 10 10 12 11 9 12
REMARK SMILES IDX 82 13 13 14 77 15 5 16 3 17 4 18 2 20 1 21 78 22 79 23 80 24
REMARK SMILES IDX 81 25 19 26 20 27 21 28 22 29 23 30 24 31 76 32 25 33 75 34
REMARK SMILES IDX 26 35 27 36 28 37 69 38 29 39 74 40 68 41 70 42 30 43 73 44
REMARK SMILES IDX 67 45 66 46 31 48 57 49 40 50 56 51 41 52 44 53 55 54 71 55
REMARK SMILES IDX 42 56 43 57 54 59 72 60 45 61 32 62 33 63 38 64 34 65 35 66
REMARK SMILES IDX 37 67 39 68 36 69 58 70 59 71 64 72 60 73 61 74 63 75 65 76
REMARK SMILES IDX 62 77 46 78 47 79 52 80 48 81 49 82 51 83 53 84 50 85
REMARK H PARENT 3 19 70 47 44 58
REMARK Flexibility Score: inf
ROOT
ATOM      1  C   UNL A   1      32.300  28.267  24.781  1.00  0.00     0.275 C 
ENDROOT
BRANCH   1   2
ATOM      2  O   UNL A   1      32.794  27.306  25.741  1.00  0.00    -0.459 OA
BRANCH   2   3
ATOM      3  C   UNL A   1      31.829  26.605  26.376  1.00  0.00     0.338 C 
ATOM      4  O   UNL A   1      30.925  27.069  27.053  1.00  0.00    -0.246 OA
BRANCH   3   5
ATOM      5  C   UNL A   1      31.937  25.163  26.097  1.00  0.00     0.087 C 
ATOM      6  C   UNL A   1      33.951  20.668  25.066  1.00  0.00     0.029 A 
ATOM      7  C   UNL A   1      32.623  21.172  25.063  1.00  0.00     0.058 A 
ATOM      8  C   UNL A   1      34.994  21.550  25.388  1.00  0.00     0.050 A 
ATOM      9  C   UNL A   1      32.353  22.494  25.421  1.00  0.00     0.128 A 
ATOM     10  C   UNL A   1      34.712  22.834  25.836  1.00  0.00     0.033 A 
ATOM     11  Cl  UNL A   1      36.667  21.177  25.188  1.00  0.00    -0.084 Cl
ATOM     12  C   UNL A   1      33.398  23.293  25.862  1.00  0.00     0.019 A 
ATOM     13  O   UNL A   1      31.060  22.948  25.353  1.00  0.00    -0.475 OA
ATOM     14  C   UNL A   1      33.140  24.633  26.320  1.00  0.00     0.027 C 
ATOM     15  C   UNL A   1      30.847  24.402  25.399  1.00  0.00     0.316 C 
BRANCH   6  16
ATOM     16  C   UNL A   1      34.191  19.204  24.739  1.00  0.00     0.300 C 
BRANCH  16  17
ATOM     17  N   UNL A   1      33.017  18.404  24.330  1.00  0.00    -0.334 N 
ATOM     18  C   UNL A   1      32.537  17.517  25.389  1.00  0.00     0.333 C 
ATOM     19  H   UNL A   1      32.311  19.118  24.151  1.00  0.00     0.348 HD
BRANCH  17  20
ATOM     20  C   UNL A   1      33.156  17.666  23.068  1.00  0.00     0.258 C 
ATOM     21  C   UNL A   1      32.166  18.101  21.990  1.00  0.00     0.071 C 
ENDBRANCH  17  20
ENDBRANCH  16  17
ENDBRANCH   6  16
BRANCH  15  22
ATOM     22  C   UNL A   1      30.633  24.958  23.981  1.00  0.00     0.430 C 
ATOM     23  F   UNL A   1      29.858  26.067  23.992  1.00  0.00    -0.167 F 
ATOM     24  F   UNL A   1      31.812  25.313  23.413  1.00  0.00    -0.167 F 
ATOM     25  F   UNL A   1      30.046  24.058  23.160  1.00  0.00    -0.167 F 
ENDBRANCH  15  22
ENDBRANCH   3   5
ENDBRANCH   2   3
ENDBRANCH   1   2
BRANCH   1  26
ATOM     26  C   UNL A   1      32.731  29.692  25.137  1.00  0.00     0.275 C 
BRANCH  26  27
ATOM     27  O   UNL A   1      32.467  29.981  26.525  1.00  0.00    -0.458 OA
BRANCH  27  28
ATOM     28  C   UNL A   1      33.035  31.109  27.005  1.00  0.00     0.338 C 
ATOM     29  O   UNL A   1      32.555  32.234  27.020  1.00  0.00    -0.246 OA
BRANCH  28  30
ATOM     30  C   UNL A   1      34.361  30.814  27.570  1.00  0.00     0.060 A 
ATOM     31  C   UNL A   1      35.244  31.841  27.891  1.00  0.00     0.016 A 
ATOM     32  C   UNL A   1      34.668  29.506  27.923  1.00  0.00     0.016 A 
ATOM     33  C   UNL A   1      36.442  31.540  28.553  1.00  0.00     0.010 A 
ATOM     34  C   UNL A   1      35.772  29.235  28.729  1.00  0.00     0.010 A 
ATOM     35  C   UNL A   1      36.708  30.238  29.018  1.00  0.00    -0.014 A 
BRANCH  35  36
ATOM     36  C   UNL A   1      37.970  29.891  29.743  1.00  0.00     0.031 A 
ATOM     37  C   UNL A   1      38.198  30.390  31.156  1.00  0.00     0.074 A 
ATOM     38  C   UNL A   1      38.941  29.172  29.141  1.00  0.00     0.049 A 
ATOM     39  N   UNL A   1      39.265  30.294  31.911  1.00  0.00    -0.248 NA
ATOM     40  C   UNL A   1      37.100  31.143  31.783  1.00  0.00     0.031 C 
ATOM     41  C   UNL A   1      38.907  28.675  27.764  1.00  0.00     0.029 A 
ATOM     42  N   UNL A   1      40.152  28.728  29.618  1.00  0.00    -0.354 N 
ATOM     43  C   UNL A   1      38.984  31.022  33.063  1.00  0.00     0.074 A 
ATOM     44  C   UNL A   1      37.675  31.607  32.881  1.00  0.00     0.031 C 
ATOM     45  C   UNL A   1      40.010  27.944  27.531  1.00  0.00     0.029 A 
ATOM     46  C   UNL A   1      40.855  27.960  28.720  1.00  0.00     0.049 A 
ATOM     47  H   UNL A   1      40.486  28.942  30.520  1.00  0.00     0.167 HD
ATOM     48  C   UNL A   1      39.720  31.165  34.191  1.00  0.00     0.037 A 
ATOM     49  C   UNL A   1      42.042  27.334  28.841  1.00  0.00     0.037 A 
ATOM     50  C   UNL A   1      40.974  30.503  34.426  1.00  0.00     0.049 A 
ATOM     51  C   UNL A   1      42.813  27.446  30.126  1.00  0.00     0.074 A 
ATOM     52  C   UNL A   1      41.752  30.507  35.571  1.00  0.00     0.029 A 
ATOM     53  N   UNL A   1      41.623  29.699  33.503  1.00  0.00    -0.354 N 
ATOM     54  N   UNL A   1      42.505  28.098  31.220  1.00  0.00    -0.248 NA
ATOM     55  C   UNL A   1      44.098  26.733  30.194  1.00  0.00     0.031 C 
ATOM     56  C   UNL A   1      42.880  29.715  35.336  1.00  0.00     0.029 A 
ATOM     57  C   UNL A   1      42.791  29.199  34.053  1.00  0.00     0.049 A 
ATOM     58  H   UNL A   1      41.301  29.511  32.592  1.00  0.00     0.167 HD
ATOM     59  C   UNL A   1      43.542  27.857  32.111  1.00  0.00     0.074 A 
ATOM     60  C   UNL A   1      44.484  26.987  31.436  1.00  0.00     0.031 C 
ATOM     61  C   UNL A   1      43.703  28.317  33.375  1.00  0.00     0.037 A 
BRANCH  48  62
ATOM     62  C   UNL A   1      39.164  32.047  35.273  1.00  0.00     0.057 A 
ATOM     63  C   UNL A   1      39.425  33.423  35.278  1.00  0.00     0.134 A 
ATOM     64  C   UNL A   1      38.380  31.535  36.315  1.00  0.00     0.134 A 
ATOM     65  F   UNL A   1      40.180  33.978  34.318  1.00  0.00    -0.206 F 
ATOM     66  C   UNL A   1      38.913  34.259  36.273  1.00  0.00     0.040 A 
ATOM     67  C   UNL A   1      37.838  32.365  37.298  1.00  0.00     0.040 A 
ATOM     68  F   UNL A   1      38.083  30.228  36.364  1.00  0.00    -0.206 F 
ATOM     69  C   UNL A   1      38.107  33.732  37.280  1.00  0.00     0.006 A 
ENDBRANCH  48  62
BRANCH  49  70
ATOM     70  C   UNL A   1      42.563  26.502  27.726  1.00  0.00     0.057 A 
ATOM     71  C   UNL A   1      42.293  25.133  27.638  1.00  0.00     0.134 A 
ATOM     72  C   UNL A   1      43.335  27.074  26.707  1.00  0.00     0.134 A 
ATOM     73  F   UNL A   1      41.564  24.524  28.585  1.00  0.00    -0.206 F 
ATOM     74  C   UNL A   1      42.777  24.359  26.580  1.00  0.00     0.040 A 
ATOM     75  C   UNL A   1      43.806  26.319  25.633  1.00  0.00     0.040 A 
ATOM     76  F   UNL A   1      43.610  28.387  26.726  1.00  0.00    -0.206 F 
ATOM     77  C   UNL A   1      43.529  24.955  25.569  1.00  0.00     0.006 A 
ENDBRANCH  49  70
BRANCH  61  78
ATOM     78  C   UNL A   1      44.915  27.858  34.127  1.00  0.00     0.057 A 
ATOM     79  C   UNL A   1      44.872  26.696  34.906  1.00  0.00     0.134 A 
ATOM     80  C   UNL A   1      46.105  28.595  34.121  1.00  0.00     0.134 A 
ATOM     81  F   UNL A   1      43.758  25.951  34.958  1.00  0.00    -0.206 F 
ATOM     82  C   UNL A   1      45.970  26.286  35.662  1.00  0.00     0.040 A 
ATOM     83  C   UNL A   1      47.217  28.183  34.857  1.00  0.00     0.040 A 
ATOM     84  F   UNL A   1      46.211  29.710  33.383  1.00  0.00    -0.206 F 
ATOM     85  C   UNL A   1      47.148  27.030  35.637  1.00  0.00     0.006 A 
ENDBRANCH  61  78
ENDBRANCH  35  36
ENDBRANCH  28  30
ENDBRANCH  27  28
ENDBRANCH  26  27
ENDBRANCH   1  26
TORSDOF 15
ENDMDL
