MODEL 1
REMARK VINA RESULT:     -10.3      0.000      0.000
REMARK SMILES Cc1nsc(NCC(C)C)c1C(=O)OCCOC(=O)c1ccc(-c2c3nc(c(-c4c(F)cccc4F)c4ccc([nH]4)c(-c4c(F)cccc4F)c4nc(c(-c5c(F)cccc5F)c5ccc2[nH]5)C=C4)C=C3)cc1
REMARK SMILES IDX 15 1 14 2 12 3 13 4 11 5 1 6 2 7 3 8 4 9 5 10 6 11 7 13 8 14
REMARK SMILES IDX 9 15 10 16 16 17 17 18 18 19 19 20 20 21 21 22 73 23 22 24
REMARK SMILES IDX 72 25 23 26 24 27 25 28 66 29 26 30 71 31 65 32 67 33 27 34
REMARK SMILES IDX 70 35 64 36 63 37 28 39 54 40 37 41 53 42 38 43 41 44 52 45
REMARK SMILES IDX 68 46 39 47 40 48 51 50 69 51 42 52 29 53 30 54 35 55 31 56
REMARK SMILES IDX 32 57 34 58 36 59 33 60 55 61 56 62 61 63 57 64 58 65 60 66
REMARK SMILES IDX 62 67 59 68 43 69 44 70 49 71 45 72 46 73 48 74 50 75 47 76
REMARK H PARENT 6 12 67 38 41 49
REMARK Flexibility Score: inf
ROOT
ATOM      1  C   UNL A   1      36.654  21.664  25.325  1.00  0.00     0.275 C 
ENDROOT
BRANCH   1   2
ATOM      2  O   UNL A   1      35.514  21.122  26.019  1.00  0.00    -0.458 OA
BRANCH   2   3
ATOM      3  C   UNL A   1      34.326  21.792  25.871  1.00  0.00     0.343 C 
ATOM      4  O   UNL A   1      33.995  22.735  26.572  1.00  0.00    -0.246 OA
BRANCH   3   5
ATOM      5  C   UNL A   1      33.549  21.334  24.715  1.00  0.00     0.117 A 
ATOM      6  C   UNL A   1      33.310  23.587  23.392  1.00  0.00     0.069 C 
ATOM      7  C   UNL A   1      33.089  22.127  23.597  1.00  0.00     0.068 A 
ATOM      8  N   UNL A   1      32.392  21.480  22.664  1.00  0.00    -0.195 NA
ATOM      9  S   UNL A   1      32.198  19.913  23.127  1.00  0.00    -0.018 S 
ATOM     10  C   UNL A   1      33.076  20.023  24.601  1.00  0.00     0.124 A 
BRANCH  10  11
ATOM     11  N   UNL A   1      33.259  19.017  25.501  1.00  0.00    -0.375 N 
ATOM     12  H   UNL A   1      33.477  19.276  26.425  1.00  0.00     0.161 HD
BRANCH  11  13
ATOM     13  C   UNL A   1      33.163  17.594  25.220  1.00  0.00     0.116 C 
BRANCH  13  14
ATOM     14  C   UNL A   1      34.447  17.103  24.522  1.00  0.00     0.002 C 
ATOM     15  C   UNL A   1      35.117  15.946  25.270  1.00  0.00     0.009 C 
ATOM     16  C   UNL A   1      34.142  16.669  23.086  1.00  0.00     0.009 C 
ENDBRANCH  13  14
ENDBRANCH  11  13
ENDBRANCH  10  11
ENDBRANCH   3   5
ENDBRANCH   2   3
ENDBRANCH   1   2
BRANCH   1  17
ATOM     17  C   UNL A   1      37.733  20.607  25.112  1.00  0.00     0.275 C 
BRANCH  17  18
ATOM     18  O   UNL A   1      39.030  21.169  25.306  1.00  0.00    -0.458 OA
BRANCH  18  19
ATOM     19  C   UNL A   1      39.974  20.282  25.688  1.00  0.00     0.338 C 
ATOM     20  O   UNL A   1      39.914  19.064  25.597  1.00  0.00    -0.246 OA
BRANCH  19  21
ATOM     21  C   UNL A   1      41.035  20.972  26.423  1.00  0.00     0.060 A 
ATOM     22  C   UNL A   1      40.940  20.950  27.818  1.00  0.00     0.016 A 
ATOM     23  C   UNL A   1      41.834  21.899  25.741  1.00  0.00     0.016 A 
ATOM     24  C   UNL A   1      41.447  22.018  28.522  1.00  0.00     0.010 A 
ATOM     25  C   UNL A   1      42.330  22.968  26.442  1.00  0.00     0.010 A 
ATOM     26  C   UNL A   1      42.038  23.059  27.804  1.00  0.00    -0.014 A 
BRANCH  26  27
ATOM     27  C   UNL A   1      42.344  24.286  28.508  1.00  0.00     0.031 A 
ATOM     28  C   UNL A   1      41.358  25.374  28.314  1.00  0.00     0.074 A 
ATOM     29  C   UNL A   1      43.362  24.318  29.390  1.00  0.00     0.049 A 
ATOM     30  N   UNL A   1      41.572  26.605  27.985  1.00  0.00    -0.248 NA
ATOM     31  C   UNL A   1      39.931  25.013  28.399  1.00  0.00     0.031 C 
ATOM     32  C   UNL A   1      44.205  23.204  29.844  1.00  0.00     0.029 A 
ATOM     33  N   UNL A   1      43.761  25.341  30.185  1.00  0.00    -0.354 N 
ATOM     34  C   UNL A   1      40.321  27.215  27.968  1.00  0.00     0.074 A 
ATOM     35  C   UNL A   1      39.343  26.169  28.105  1.00  0.00     0.031 C 
ATOM     36  C   UNL A   1      44.824  23.560  30.991  1.00  0.00     0.029 A 
ATOM     37  C   UNL A   1      44.498  24.944  31.289  1.00  0.00     0.049 A 
ATOM     38  H   UNL A   1      43.548  26.283  29.994  1.00  0.00     0.167 HD
ATOM     39  C   UNL A   1      40.173  28.564  28.020  1.00  0.00     0.037 A 
ATOM     40  C   UNL A   1      44.701  25.676  32.412  1.00  0.00     0.037 A 
ATOM     41  C   UNL A   1      41.377  29.248  27.643  1.00  0.00     0.049 A 
ATOM     42  C   UNL A   1      44.398  27.095  32.077  1.00  0.00     0.074 A 
ATOM     43  C   UNL A   1      42.123  29.301  26.481  1.00  0.00     0.029 A 
ATOM     44  N   UNL A   1      42.191  29.738  28.635  1.00  0.00    -0.354 N 
ATOM     45  N   UNL A   1      45.123  27.824  31.271  1.00  0.00    -0.248 NA
ATOM     46  C   UNL A   1      43.031  27.562  32.269  1.00  0.00     0.031 C 
ATOM     47  C   UNL A   1      43.477  29.358  26.914  1.00  0.00     0.029 A 
ATOM     48  C   UNL A   1      43.474  29.376  28.309  1.00  0.00     0.049 A 
ATOM     49  H   UNL A   1      41.908  30.250  29.427  1.00  0.00     0.167 HD
ATOM     50  C   UNL A   1      44.209  28.580  30.547  1.00  0.00     0.074 A 
ATOM     51  C   UNL A   1      42.944  28.440  31.265  1.00  0.00     0.031 C 
ATOM     52  C   UNL A   1      44.482  29.008  29.278  1.00  0.00     0.037 A 
BRANCH  39  53
ATOM     53  C   UNL A   1      39.015  29.251  28.684  1.00  0.00     0.057 A 
ATOM     54  C   UNL A   1      38.835  29.134  30.071  1.00  0.00     0.134 A 
ATOM     55  C   UNL A   1      37.924  29.799  27.977  1.00  0.00     0.134 A 
ATOM     56  F   UNL A   1      39.793  28.607  30.847  1.00  0.00    -0.206 F 
ATOM     57  C   UNL A   1      37.636  29.487  30.701  1.00  0.00     0.040 A 
ATOM     58  C   UNL A   1      36.744  30.204  28.601  1.00  0.00     0.040 A 
ATOM     59  F   UNL A   1      37.909  29.879  26.640  1.00  0.00    -0.206 F 
ATOM     60  C   UNL A   1      36.584  30.021  29.966  1.00  0.00     0.006 A 
ENDBRANCH  39  53
BRANCH  40  61
ATOM     61  C   UNL A   1      44.812  25.168  33.800  1.00  0.00     0.057 A 
ATOM     62  C   UNL A   1      43.675  24.903  34.574  1.00  0.00     0.134 A 
ATOM     63  C   UNL A   1      46.034  24.721  34.339  1.00  0.00     0.134 A 
ATOM     64  F   UNL A   1      42.456  25.235  34.126  1.00  0.00    -0.206 F 
ATOM     65  C   UNL A   1      43.750  24.239  35.807  1.00  0.00     0.040 A 
ATOM     66  C   UNL A   1      46.127  24.075  35.575  1.00  0.00     0.040 A 
ATOM     67  F   UNL A   1      47.180  24.819  33.650  1.00  0.00    -0.206 F 
ATOM     68  C   UNL A   1      44.979  23.822  36.312  1.00  0.00     0.006 A 
ENDBRANCH  40  61
BRANCH  52  69
ATOM     69  C   UNL A   1      45.876  28.808  28.749  1.00  0.00     0.057 A 
ATOM     70  C   UNL A   1      46.929  29.702  28.995  1.00  0.00     0.134 A 
ATOM     71  C   UNL A   1      46.212  27.595  28.140  1.00  0.00     0.134 A 
ATOM     72  F   UNL A   1      46.729  30.834  29.680  1.00  0.00    -0.206 F 
ATOM     73  C   UNL A   1      48.243  29.427  28.611  1.00  0.00     0.040 A 
ATOM     74  C   UNL A   1      47.528  27.291  27.783  1.00  0.00     0.040 A 
ATOM     75  F   UNL A   1      45.273  26.657  27.937  1.00  0.00    -0.206 F 
ATOM     76  C   UNL A   1      48.548  28.211  28.008  1.00  0.00     0.006 A 
ENDBRANCH  52  69
ENDBRANCH  26  27
ENDBRANCH  19  21
ENDBRANCH  18  19
ENDBRANCH  17  18
ENDBRANCH   1  17
TORSDOF 14
ENDMDL
MODEL 2
REMARK VINA RESULT:     -10.3      5.411      9.499
REMARK SMILES Cc1nsc(NCC(C)C)c1C(=O)OCCOC(=O)c1ccc(-c2c3nc(c(-c4c(F)cccc4F)c4ccc([nH]4)c(-c4c(F)cccc4F)c4nc(c(-c5c(F)cccc5F)c5ccc2[nH]5)C=C4)C=C3)cc1
REMARK SMILES IDX 15 1 14 2 12 3 13 4 11 5 1 6 2 7 3 8 4 9 5 10 6 11 7 13 8 14
REMARK SMILES IDX 9 15 10 16 16 17 17 18 18 19 19 20 20 21 21 22 73 23 22 24
REMARK SMILES IDX 72 25 23 26 24 27 25 28 66 29 26 30 71 31 65 32 67 33 27 34
REMARK SMILES IDX 70 35 64 36 63 37 28 39 54 40 37 41 53 42 38 43 41 44 52 45
REMARK SMILES IDX 68 46 39 47 40 48 51 50 69 51 42 52 29 53 30 54 35 55 31 56
REMARK SMILES IDX 32 57 34 58 36 59 33 60 55 61 56 62 61 63 57 64 58 65 60 66
REMARK SMILES IDX 62 67 59 68 43 69 44 70 49 71 45 72 46 73 48 74 50 75 47 76
REMARK H PARENT 6 12 67 38 41 49
REMARK Flexibility Score: inf
ROOT
ATOM      1  C   UNL A   1      36.873  33.076  32.533  1.00  0.00     0.275 C 
ENDROOT
BRANCH   1   2
ATOM      2  O   UNL A   1      36.118  33.743  31.504  1.00  0.00    -0.458 OA
BRANCH   2   3
ATOM      3  C   UNL A   1      34.752  33.628  31.570  1.00  0.00     0.343 C 
ATOM      4  O   UNL A   1      34.156  33.268  32.573  1.00  0.00    -0.246 OA
BRANCH   3   5
ATOM      5  C   UNL A   1      34.078  34.091  30.353  1.00  0.00     0.117 A 
ATOM      6  C   UNL A   1      32.892  36.244  31.268  1.00  0.00     0.069 C 
ATOM      7  C   UNL A   1      33.243  35.261  30.203  1.00  0.00     0.068 A 
ATOM      8  N   UNL A   1      32.735  35.471  28.989  1.00  0.00    -0.195 NA
ATOM      9  S   UNL A   1      33.180  34.234  28.000  1.00  0.00    -0.018 S 
ATOM     10  C   UNL A   1      34.108  33.367  29.157  1.00  0.00     0.124 A 
BRANCH  10  11
ATOM     11  N   UNL A   1      34.742  32.179  28.948  1.00  0.00    -0.375 N 
ATOM     12  H   UNL A   1      35.133  31.734  29.734  1.00  0.00     0.161 HD
BRANCH  11  13
ATOM     13  C   UNL A   1      34.894  31.508  27.667  1.00  0.00     0.116 C 
BRANCH  13  14
ATOM     14  C   UNL A   1      34.034  30.229  27.632  1.00  0.00     0.002 C 
ATOM     15  C   UNL A   1      32.727  30.422  26.858  1.00  0.00     0.009 C 
ATOM     16  C   UNL A   1      34.823  29.072  27.015  1.00  0.00     0.009 C 
ENDBRANCH  13  14
ENDBRANCH  11  13
ENDBRANCH  10  11
ENDBRANCH   3   5
ENDBRANCH   2   3
ENDBRANCH   1   2
BRANCH   1  17
ATOM     17  C   UNL A   1      37.763  31.982  31.952  1.00  0.00     0.275 C 
BRANCH  17  18
ATOM     18  O   UNL A   1      37.302  31.592  30.660  1.00  0.00    -0.458 OA
BRANCH  18  19
ATOM     19  C   UNL A   1      36.722  30.374  30.614  1.00  0.00     0.338 C 
ATOM     20  O   UNL A   1      35.694  30.030  31.180  1.00  0.00    -0.246 OA
BRANCH  19  21
ATOM     21  C   UNL A   1      37.608  29.428  29.934  1.00  0.00     0.060 A 
ATOM     22  C   UNL A   1      38.107  28.376  30.708  1.00  0.00     0.016 A 
ATOM     23  C   UNL A   1      38.195  29.809  28.720  1.00  0.00     0.016 A 
ATOM     24  C   UNL A   1      39.347  27.868  30.395  1.00  0.00     0.010 A 
ATOM     25  C   UNL A   1      39.434  29.309  28.414  1.00  0.00     0.010 A 
ATOM     26  C   UNL A   1      40.031  28.423  29.313  1.00  0.00    -0.014 A 
BRANCH  26  27
ATOM     27  C   UNL A   1      41.424  28.071  29.132  1.00  0.00     0.031 A 
ATOM     28  C   UNL A   1      41.652  26.772  28.457  1.00  0.00     0.074 A 
ATOM     29  C   UNL A   1      42.386  28.970  29.417  1.00  0.00     0.049 A 
ATOM     30  N   UNL A   1      42.419  25.799  28.822  1.00  0.00    -0.248 NA
ATOM     31  C   UNL A   1      40.834  26.479  27.266  1.00  0.00     0.031 C 
ATOM     32  C   UNL A   1      42.226  30.373  29.821  1.00  0.00     0.029 A 
ATOM     33  N   UNL A   1      43.727  28.854  29.257  1.00  0.00    -0.354 N 
ATOM     34  C   UNL A   1      42.299  24.830  27.831  1.00  0.00     0.074 A 
ATOM     35  C   UNL A   1      41.224  25.243  26.969  1.00  0.00     0.031 C 
ATOM     36  C   UNL A   1      43.395  31.022  29.627  1.00  0.00     0.029 A 
ATOM     37  C   UNL A   1      44.394  30.065  29.184  1.00  0.00     0.049 A 
ATOM     38  H   UNL A   1      44.187  27.985  29.199  1.00  0.00     0.167 HD
ATOM     39  C   UNL A   1      43.210  23.834  27.678  1.00  0.00     0.037 A 
ATOM     40  C   UNL A   1      45.634  30.259  28.671  1.00  0.00     0.037 A 
ATOM     41  C   UNL A   1      43.992  23.640  28.866  1.00  0.00     0.049 A 
ATOM     42  C   UNL A   1      46.307  28.931  28.626  1.00  0.00     0.074 A 
ATOM     43  C   UNL A   1      43.688  23.262  30.160  1.00  0.00     0.029 A 
ATOM     44  N   UNL A   1      45.250  24.188  28.921  1.00  0.00    -0.354 N 
ATOM     45  N   UNL A   1      46.670  28.263  29.688  1.00  0.00    -0.248 NA
ATOM     46  C   UNL A   1      46.156  28.133  27.416  1.00  0.00     0.031 C 
ATOM     47  C   UNL A   1      44.556  24.033  30.983  1.00  0.00     0.029 A 
ATOM     48  C   UNL A   1      45.362  24.801  30.143  1.00  0.00     0.049 A 
ATOM     49  H   UNL A   1      45.938  24.149  28.218  1.00  0.00     0.167 HD
ATOM     50  C   UNL A   1      46.395  26.933  29.390  1.00  0.00     0.074 A 
ATOM     51  C   UNL A   1      46.163  26.906  27.948  1.00  0.00     0.031 C 
ATOM     52  C   UNL A   1      46.090  26.030  30.368  1.00  0.00     0.037 A 
BRANCH  39  53
ATOM     53  C   UNL A   1      43.572  23.232  26.352  1.00  0.00     0.057 A 
ATOM     54  C   UNL A   1      43.441  21.848  26.154  1.00  0.00     0.134 A 
ATOM     55  C   UNL A   1      44.295  23.920  25.354  1.00  0.00     0.134 A 
ATOM     56  F   UNL A   1      42.795  21.084  27.046  1.00  0.00    -0.206 F 
ATOM     57  C   UNL A   1      44.033  21.191  25.069  1.00  0.00     0.040 A 
ATOM     58  C   UNL A   1      44.844  23.283  24.241  1.00  0.00     0.040 A 
ATOM     59  F   UNL A   1      44.588  25.224  25.457  1.00  0.00    -0.206 F 
ATOM     60  C   UNL A   1      44.739  21.907  24.109  1.00  0.00     0.006 A 
ENDBRANCH  39  53
BRANCH  40  61
ATOM     61  C   UNL A   1      46.117  31.448  27.928  1.00  0.00     0.057 A 
ATOM     62  C   UNL A   1      45.387  31.987  26.861  1.00  0.00     0.134 A 
ATOM     63  C   UNL A   1      47.202  32.224  28.378  1.00  0.00     0.134 A 
ATOM     64  F   UNL A   1      44.300  31.356  26.393  1.00  0.00    -0.206 F 
ATOM     65  C   UNL A   1      45.719  33.218  26.276  1.00  0.00     0.040 A 
ATOM     66  C   UNL A   1      47.556  33.443  27.794  1.00  0.00     0.040 A 
ATOM     67  F   UNL A   1      47.914  31.870  29.458  1.00  0.00    -0.206 F 
ATOM     68  C   UNL A   1      46.807  33.951  26.742  1.00  0.00     0.006 A 
ENDBRANCH  40  61
BRANCH  52  69
ATOM     69  C   UNL A   1      46.247  26.460  31.802  1.00  0.00     0.057 A 
ATOM     70  C   UNL A   1      45.228  27.088  32.534  1.00  0.00     0.134 A 
ATOM     71  C   UNL A   1      47.380  26.062  32.518  1.00  0.00     0.134 A 
ATOM     72  F   UNL A   1      44.058  27.396  31.965  1.00  0.00    -0.206 F 
ATOM     73  C   UNL A   1      45.349  27.353  33.900  1.00  0.00     0.040 A 
ATOM     74  C   UNL A   1      47.500  26.289  33.891  1.00  0.00     0.040 A 
ATOM     75  F   UNL A   1      48.368  25.391  31.903  1.00  0.00    -0.206 F 
ATOM     76  C   UNL A   1      46.488  26.945  34.585  1.00  0.00     0.006 A 
ENDBRANCH  52  69
ENDBRANCH  26  27
ENDBRANCH  19  21
ENDBRANCH  18  19
ENDBRANCH  17  18
ENDBRANCH   1  17
TORSDOF 14
ENDMDL
MODEL 3
REMARK VINA RESULT:     -10.2      5.264      9.969
REMARK SMILES Cc1nsc(NCC(C)C)c1C(=O)OCCOC(=O)c1ccc(-c2c3nc(c(-c4c(F)cccc4F)c4ccc([nH]4)c(-c4c(F)cccc4F)c4nc(c(-c5c(F)cccc5F)c5ccc2[nH]5)C=C4)C=C3)cc1
REMARK SMILES IDX 15 1 14 2 12 3 13 4 11 5 1 6 2 7 3 8 4 9 5 10 6 11 7 13 8 14
REMARK SMILES IDX 9 15 10 16 16 17 17 18 18 19 19 20 20 21 21 22 73 23 22 24
REMARK SMILES IDX 72 25 23 26 24 27 25 28 66 29 26 30 71 31 65 32 67 33 27 34
REMARK SMILES IDX 70 35 64 36 63 37 28 39 54 40 37 41 53 42 38 43 41 44 52 45
REMARK SMILES IDX 68 46 39 47 40 48 51 50 69 51 42 52 29 53 30 54 35 55 31 56
REMARK SMILES IDX 32 57 34 58 36 59 33 60 55 61 56 62 61 63 57 64 58 65 60 66
REMARK SMILES IDX 62 67 59 68 43 69 44 70 49 71 45 72 46 73 48 74 50 75 47 76
REMARK H PARENT 6 12 67 38 41 49
REMARK Flexibility Score: inf
ROOT
ATOM      1  C   UNL A   1      35.508  34.642  28.852  1.00  0.00     0.275 C 
ENDROOT
BRANCH   1   2
ATOM      2  O   UNL A   1      35.773  34.117  30.166  1.00  0.00    -0.458 OA
BRANCH   2   3
ATOM      3  C   UNL A   1      34.683  33.848  30.955  1.00  0.00     0.343 C 
ATOM      4  O   UNL A   1      34.191  32.736  31.063  1.00  0.00    -0.246 OA
BRANCH   3   5
ATOM      5  C   UNL A   1      34.243  35.006  31.739  1.00  0.00     0.117 A 
ATOM      6  C   UNL A   1      32.528  36.077  30.067  1.00  0.00     0.069 C 
ATOM      7  C   UNL A   1      33.278  36.011  31.354  1.00  0.00     0.068 A 
ATOM      8  N   UNL A   1      33.045  36.975  32.243  1.00  0.00    -0.195 NA
ATOM      9  S   UNL A   1      34.028  36.755  33.544  1.00  0.00    -0.018 S 
ATOM     10  C   UNL A   1      34.797  35.324  32.982  1.00  0.00     0.124 A 
BRANCH  10  11
ATOM     11  N   UNL A   1      35.781  34.638  33.628  1.00  0.00    -0.375 N 
ATOM     12  H   UNL A   1      36.620  35.121  33.809  1.00  0.00     0.161 HD
BRANCH  11  13
ATOM     13  C   UNL A   1      35.706  33.257  34.074  1.00  0.00     0.116 C 
BRANCH  13  14
ATOM     14  C   UNL A   1      36.986  32.497  33.670  1.00  0.00     0.002 C 
ATOM     15  C   UNL A   1      36.688  31.226  32.870  1.00  0.00     0.009 C 
ATOM     16  C   UNL A   1      37.911  33.405  32.856  1.00  0.00     0.009 C 
ENDBRANCH  13  14
ENDBRANCH  11  13
ENDBRANCH  10  11
ENDBRANCH   3   5
ENDBRANCH   2   3
ENDBRANCH   1   2
BRANCH   1  17
ATOM     17  C   UNL A   1      35.011  33.555  27.905  1.00  0.00     0.275 C 
BRANCH  17  18
ATOM     18  O   UNL A   1      36.016  32.562  27.708  1.00  0.00    -0.458 OA
BRANCH  18  19
ATOM     19  C   UNL A   1      35.655  31.315  28.082  1.00  0.00     0.338 C 
ATOM     20  O   UNL A   1      34.608  30.744  27.812  1.00  0.00    -0.246 OA
BRANCH  19  21
ATOM     21  C   UNL A   1      36.623  30.786  29.044  1.00  0.00     0.060 A 
ATOM     22  C   UNL A   1      37.789  31.535  29.229  1.00  0.00     0.016 A 
ATOM     23  C   UNL A   1      36.528  29.441  29.423  1.00  0.00     0.016 A 
ATOM     24  C   UNL A   1      38.946  30.867  29.561  1.00  0.00     0.010 A 
ATOM     25  C   UNL A   1      37.683  28.775  29.745  1.00  0.00     0.010 A 
ATOM     26  C   UNL A   1      38.887  29.481  29.707  1.00  0.00    -0.014 A 
BRANCH  26  27
ATOM     27  C   UNL A   1      40.133  28.751  29.808  1.00  0.00     0.031 A 
ATOM     28  C   UNL A   1      40.653  28.602  31.187  1.00  0.00     0.074 A 
ATOM     29  C   UNL A   1      40.638  28.132  28.724  1.00  0.00     0.049 A 
ATOM     30  N   UNL A   1      41.842  28.849  31.630  1.00  0.00    -0.248 NA
ATOM     31  C   UNL A   1      39.688  28.223  32.235  1.00  0.00     0.031 C 
ATOM     32  C   UNL A   1      40.034  27.998  27.391  1.00  0.00     0.029 A 
ATOM     33  N   UNL A   1      41.746  27.356  28.631  1.00  0.00    -0.354 N 
ATOM     34  C   UNL A   1      41.820  28.515  32.980  1.00  0.00     0.074 A 
ATOM     35  C   UNL A   1      40.448  28.257  33.326  1.00  0.00     0.031 C 
ATOM     36  C   UNL A   1      40.653  26.998  26.726  1.00  0.00     0.029 A 
ATOM     37  C   UNL A   1      41.745  26.498  27.544  1.00  0.00     0.049 A 
ATOM     38  H   UNL A   1      42.486  27.399  29.279  1.00  0.00     0.167 HD
ATOM     39  C   UNL A   1      42.957  28.298  33.691  1.00  0.00     0.037 A 
ATOM     40  C   UNL A   1      42.511  25.387  27.409  1.00  0.00     0.037 A 
ATOM     41  C   UNL A   1      44.104  28.876  33.050  1.00  0.00     0.049 A 
ATOM     42  C   UNL A   1      43.633  25.502  28.381  1.00  0.00     0.074 A 
ATOM     43  C   UNL A   1      44.467  30.169  32.725  1.00  0.00     0.029 A 
ATOM     44  N   UNL A   1      44.928  28.059  32.316  1.00  0.00    -0.354 N 
ATOM     45  N   UNL A   1      44.595  26.379  28.282  1.00  0.00    -0.248 NA
ATOM     46  C   UNL A   1      43.434  24.952  29.716  1.00  0.00     0.031 C 
ATOM     47  C   UNL A   1      45.138  30.061  31.475  1.00  0.00     0.029 A 
ATOM     48  C   UNL A   1      45.179  28.709  31.134  1.00  0.00     0.049 A 
ATOM     49  H   UNL A   1      45.271  27.177  32.586  1.00  0.00     0.167 HD
ATOM     50  C   UNL A   1      44.843  26.793  29.586  1.00  0.00     0.074 A 
ATOM     51  C   UNL A   1      44.160  25.817  30.431  1.00  0.00     0.031 C 
ATOM     52  C   UNL A   1      45.325  28.042  29.859  1.00  0.00     0.037 A 
BRANCH  39  53
ATOM     53  C   UNL A   1      43.059  27.318  34.824  1.00  0.00     0.057 A 
ATOM     54  C   UNL A   1      43.172  25.946  34.552  1.00  0.00     0.134 A 
ATOM     55  C   UNL A   1      42.780  27.649  36.167  1.00  0.00     0.134 A 
ATOM     56  F   UNL A   1      43.412  25.508  33.308  1.00  0.00    -0.206 F 
ATOM     57  C   UNL A   1      42.970  24.971  35.537  1.00  0.00     0.040 A 
ATOM     58  C   UNL A   1      42.630  26.688  37.167  1.00  0.00     0.040 A 
ATOM     59  F   UNL A   1      42.546  28.909  36.557  1.00  0.00    -0.206 F 
ATOM     60  C   UNL A   1      42.695  25.340  36.849  1.00  0.00     0.006 A 
ENDBRANCH  39  53
BRANCH  40  61
ATOM     61  C   UNL A   1      42.134  24.120  26.738  1.00  0.00     0.057 A 
ATOM     62  C   UNL A   1      43.016  23.462  25.871  1.00  0.00     0.134 A 
ATOM     63  C   UNL A   1      40.977  23.399  27.094  1.00  0.00     0.134 A 
ATOM     64  F   UNL A   1      44.174  24.037  25.516  1.00  0.00    -0.206 F 
ATOM     65  C   UNL A   1      42.761  22.171  25.385  1.00  0.00     0.040 A 
ATOM     66  C   UNL A   1      40.700  22.120  26.603  1.00  0.00     0.040 A 
ATOM     67  F   UNL A   1      40.107  23.873  27.997  1.00  0.00    -0.206 F 
ATOM     68  C   UNL A   1      41.600  21.496  25.750  1.00  0.00     0.006 A 
ENDBRANCH  40  61
BRANCH  52  69
ATOM     69  C   UNL A   1      45.767  28.898  28.704  1.00  0.00     0.057 A 
ATOM     70  C   UNL A   1      44.909  29.777  28.024  1.00  0.00     0.134 A 
ATOM     71  C   UNL A   1      47.127  28.983  28.393  1.00  0.00     0.134 A 
ATOM     72  F   UNL A   1      43.612  29.856  28.337  1.00  0.00    -0.206 F 
ATOM     73  C   UNL A   1      45.373  30.661  27.047  1.00  0.00     0.040 A 
ATOM     74  C   UNL A   1      47.610  29.888  27.444  1.00  0.00     0.040 A 
ATOM     75  F   UNL A   1      48.021  28.227  29.052  1.00  0.00    -0.206 F 
ATOM     76  C   UNL A   1      46.732  30.723  26.760  1.00  0.00     0.006 A 
ENDBRANCH  52  69
ENDBRANCH  26  27
ENDBRANCH  19  21
ENDBRANCH  18  19
ENDBRANCH  17  18
ENDBRANCH   1  17
TORSDOF 14
ENDMDL
