MODEL 1
REMARK VINA RESULT:     -12.6      0.000      0.000
REMARK SMILES Cc1ccnc(C(=O)c2[nH]c3cc(Cl)c(F)cc3c2CC(=O)OCCOC(=O)c2ccc(-c3c4nc(c(-c5c(F)cccc5F)c5ccc([nH]5)c(-c5c(F)cccc5F)c5nc(c(-c6c(F)cccc6F)c6ccc3[nH]6)C=C5)C=C4)cc2)c1
REMARK SMILES IDX 24 1 23 2 21 3 22 4 20 5 19 6 9 7 10 8 11 9 18 11 12 12
REMARK SMILES IDX 17 13 13 14 15 15 14 16 16 17 7 18 8 19 6 20 1 21 2 22 3 23
REMARK SMILES IDX 83 24 4 25 5 26 25 27 26 28 27 29 28 30 29 31 30 32 82 33
REMARK SMILES IDX 31 34 81 35 32 36 33 37 34 38 75 39 35 40 80 41 74 42 76 43
REMARK SMILES IDX 36 44 79 45 73 46 72 47 37 49 63 50 46 51 62 52 47 53 50 54
REMARK SMILES IDX 61 55 77 56 48 57 49 58 60 60 78 61 51 62 38 63 39 64 44 65
REMARK SMILES IDX 40 66 41 67 43 68 45 69 42 70 64 71 65 72 70 73 66 74 67 75
REMARK SMILES IDX 69 76 71 77 68 78 52 79 53 80 58 81 54 82 55 83 57 84 59 85
REMARK SMILES IDX 56 86
REMARK H PARENT 10 10 76 48 50 59
REMARK Flexibility Score: inf
ROOT
ATOM      1  C   UNL A   1      33.754  29.886  26.836  1.00  0.00     0.274 C 
ENDROOT
BRANCH   1   2
ATOM      2  O   UNL A   1      32.995  28.896  27.586  1.00  0.00    -0.462 OA
BRANCH   2   3
ATOM      3  C   UNL A   1      31.816  28.567  27.011  1.00  0.00     0.310 C 
ATOM      4  O   UNL A   1      30.992  27.841  27.570  1.00  0.00    -0.252 OA
BRANCH   3   5
ATOM      5  C   UNL A   1      31.556  28.994  25.596  1.00  0.00     0.161 C 
BRANCH   5   6
ATOM      6  C   UNL A   1      31.344  28.143  24.365  1.00  0.00     0.000 A 
ATOM      7  C   UNL A   1      30.276  27.967  23.471  1.00  0.00     0.093 A 
ATOM      8  N   UNL A   1      30.518  26.810  22.761  1.00  0.00    -0.351 N 
ATOM      9  C   UNL A   1      31.703  26.237  23.115  1.00  0.00     0.048 A 
ATOM     10  H   UNL A   1      29.908  26.442  22.080  1.00  0.00     0.167 HD
ATOM     11  C   UNL A   1      32.243  27.025  24.122  1.00  0.00     0.007 A 
ATOM     12  C   UNL A   1      32.297  25.057  22.651  1.00  0.00     0.050 A 
ATOM     13  C   UNL A   1      33.433  26.577  24.740  1.00  0.00     0.051 A 
ATOM     14  C   UNL A   1      33.490  24.659  23.257  1.00  0.00     0.078 A 
ATOM     15  C   UNL A   1      34.040  25.403  24.293  1.00  0.00     0.142 A 
ATOM     16  Cl  UNL A   1      34.264  23.223  22.708  1.00  0.00    -0.081 Cl
ATOM     17  F   UNL A   1      35.168  25.005  24.900  1.00  0.00    -0.205 F 
BRANCH   7  18
ATOM     18  C   UNL A   1      28.989  28.608  23.215  1.00  0.00     0.227 C 
ATOM     19  O   UNL A   1      27.945  28.015  23.478  1.00  0.00    -0.285 OA
BRANCH  18  20
ATOM     20  C   UNL A   1      28.962  29.910  22.450  1.00  0.00     0.113 A 
ATOM     21  C   UNL A   1      29.095  33.574  23.311  1.00  0.00     0.044 C 
ATOM     22  C   UNL A   1      28.910  32.306  22.537  1.00  0.00    -0.047 A 
ATOM     23  C   UNL A   1      28.197  32.285  21.335  1.00  0.00     0.023 A 
ATOM     24  C   UNL A   1      29.325  31.093  23.088  1.00  0.00     0.036 A 
ATOM     25  C   UNL A   1      27.973  31.061  20.714  1.00  0.00     0.112 A 
ATOM     26  N   UNL A   1      28.377  29.874  21.219  1.00  0.00    -0.253 NA
ENDBRANCH  18  20
ENDBRANCH   7  18
ENDBRANCH   5   6
ENDBRANCH   3   5
ENDBRANCH   2   3
ENDBRANCH   1   2
BRANCH   1  27
ATOM     27  C   UNL A   1      33.621  31.329  27.360  1.00  0.00     0.275 C 
BRANCH  27  28
ATOM     28  O   UNL A   1      34.407  31.592  28.528  1.00  0.00    -0.458 OA
BRANCH  28  29
ATOM     29  C   UNL A   1      35.687  31.948  28.264  1.00  0.00     0.338 C 
ATOM     30  O   UNL A   1      36.008  32.891  27.571  1.00  0.00    -0.246 OA
BRANCH  29  31
ATOM     31  C   UNL A   1      36.623  31.364  29.225  1.00  0.00     0.060 A 
ATOM     32  C   UNL A   1      37.926  31.819  29.174  1.00  0.00     0.016 A 
ATOM     33  C   UNL A   1      36.308  30.061  29.649  1.00  0.00     0.016 A 
ATOM     34  C   UNL A   1      38.902  30.856  29.120  1.00  0.00     0.010 A 
ATOM     35  C   UNL A   1      37.301  29.104  29.645  1.00  0.00     0.010 A 
ATOM     36  C   UNL A   1      38.565  29.489  29.238  1.00  0.00    -0.014 A 
BRANCH  36  37
ATOM     37  C   UNL A   1      39.677  28.564  29.279  1.00  0.00     0.031 A 
ATOM     38  C   UNL A   1      40.052  28.380  30.690  1.00  0.00     0.074 A 
ATOM     39  C   UNL A   1      40.396  28.015  28.287  1.00  0.00     0.049 A 
ATOM     40  N   UNL A   1      40.958  29.068  31.295  1.00  0.00    -0.248 NA
ATOM     41  C   UNL A   1      39.145  27.631  31.566  1.00  0.00     0.031 C 
ATOM     42  C   UNL A   1      40.142  27.866  26.858  1.00  0.00     0.029 A 
ATOM     43  N   UNL A   1      41.627  27.449  28.438  1.00  0.00    -0.354 N 
ATOM     44  C   UNL A   1      40.833  28.749  32.630  1.00  0.00     0.074 A 
ATOM     45  C   UNL A   1      39.613  27.993  32.761  1.00  0.00     0.031 C 
ATOM     46  C   UNL A   1      41.103  27.075  26.311  1.00  0.00     0.029 A 
ATOM     47  C   UNL A   1      42.129  26.820  27.312  1.00  0.00     0.049 A 
ATOM     48  H   UNL A   1      42.124  27.486  29.287  1.00  0.00     0.167 HD
ATOM     49  C   UNL A   1      41.876  28.962  33.466  1.00  0.00     0.037 A 
ATOM     50  C   UNL A   1      43.311  26.154  27.242  1.00  0.00     0.037 A 
ATOM     51  C   UNL A   1      42.780  29.956  32.928  1.00  0.00     0.049 A 
ATOM     52  C   UNL A   1      44.190  26.710  28.305  1.00  0.00     0.074 A 
ATOM     53  C   UNL A   1      42.658  31.296  32.603  1.00  0.00     0.029 A 
ATOM     54  N   UNL A   1      43.894  29.515  32.255  1.00  0.00    -0.354 N 
ATOM     55  N   UNL A   1      44.698  27.910  28.266  1.00  0.00    -0.248 NA
ATOM     56  C   UNL A   1      44.138  26.095  29.623  1.00  0.00     0.031 C 
ATOM     57  C   UNL A   1      43.415  31.465  31.405  1.00  0.00     0.029 A 
ATOM     58  C   UNL A   1      43.996  30.236  31.091  1.00  0.00     0.049 A 
ATOM     59  H   UNL A   1      44.511  28.807  32.554  1.00  0.00     0.167 HD
ATOM     60  C   UNL A   1      44.618  28.367  29.573  1.00  0.00     0.074 A 
ATOM     61  C   UNL A   1      44.337  27.180  30.377  1.00  0.00     0.031 C 
ATOM     62  C   UNL A   1      44.516  29.700  29.853  1.00  0.00     0.037 A 
BRANCH  49  63
ATOM     63  C   UNL A   1      42.265  27.952  34.507  1.00  0.00     0.057 A 
ATOM     64  C   UNL A   1      42.816  26.732  34.088  1.00  0.00     0.134 A 
ATOM     65  C   UNL A   1      41.853  27.996  35.858  1.00  0.00     0.134 A 
ATOM     66  F   UNL A   1      43.238  26.563  32.828  1.00  0.00    -0.206 F 
ATOM     67  C   UNL A   1      42.865  25.613  34.926  1.00  0.00     0.040 A 
ATOM     68  C   UNL A   1      41.942  26.900  36.713  1.00  0.00     0.040 A 
ATOM     69  F   UNL A   1      41.247  29.056  36.404  1.00  0.00    -0.206 F 
ATOM     70  C   UNL A   1      42.417  25.691  36.238  1.00  0.00     0.006 A 
ENDBRANCH  49  63
BRANCH  50  71
ATOM     71  C   UNL A   1      43.606  24.844  26.615  1.00  0.00     0.057 A 
ATOM     72  C   UNL A   1      42.925  23.685  27.024  1.00  0.00     0.134 A 
ATOM     73  C   UNL A   1      44.298  24.755  25.397  1.00  0.00     0.134 A 
ATOM     74  F   UNL A   1      42.205  23.681  28.155  1.00  0.00    -0.206 F 
ATOM     75  C   UNL A   1      42.894  22.522  26.243  1.00  0.00     0.040 A 
ATOM     76  C   UNL A   1      44.276  23.598  24.609  1.00  0.00     0.040 A 
ATOM     77  F   UNL A   1      44.935  25.818  24.885  1.00  0.00    -0.206 F 
ATOM     78  C   UNL A   1      43.558  22.482  25.021  1.00  0.00     0.006 A 
ENDBRANCH  50  71
BRANCH  62  79
ATOM     79  C   UNL A   1      44.742  30.672  28.726  1.00  0.00     0.057 A 
ATOM     80  C   UNL A   1      43.785  30.990  27.750  1.00  0.00     0.134 A 
ATOM     81  C   UNL A   1      45.925  31.421  28.716  1.00  0.00     0.134 A 
ATOM     82  F   UNL A   1      42.589  30.385  27.727  1.00  0.00    -0.206 F 
ATOM     83  C   UNL A   1      44.009  31.986  26.793  1.00  0.00     0.040 A 
ATOM     84  C   UNL A   1      46.148  32.440  27.786  1.00  0.00     0.040 A 
ATOM     85  F   UNL A   1      46.870  31.205  29.644  1.00  0.00    -0.206 F 
ATOM     86  C   UNL A   1      45.191  32.721  26.815  1.00  0.00     0.006 A 
ENDBRANCH  62  79
ENDBRANCH  36  37
ENDBRANCH  29  31
ENDBRANCH  28  29
ENDBRANCH  27  28
ENDBRANCH   1  27
TORSDOF 14
ENDMDL
MODEL 2
REMARK VINA RESULT:     -12.5      1.502      2.159
REMARK SMILES Cc1ccnc(C(=O)c2[nH]c3cc(Cl)c(F)cc3c2CC(=O)OCCOC(=O)c2ccc(-c3c4nc(c(-c5c(F)cccc5F)c5ccc([nH]5)c(-c5c(F)cccc5F)c5nc(c(-c6c(F)cccc6F)c6ccc3[nH]6)C=C5)C=C4)cc2)c1
REMARK SMILES IDX 24 1 23 2 21 3 22 4 20 5 19 6 9 7 10 8 11 9 18 11 12 12
REMARK SMILES IDX 17 13 13 14 15 15 14 16 16 17 7 18 8 19 6 20 1 21 2 22 3 23
REMARK SMILES IDX 83 24 4 25 5 26 25 27 26 28 27 29 28 30 29 31 30 32 82 33
REMARK SMILES IDX 31 34 81 35 32 36 33 37 34 38 75 39 35 40 80 41 74 42 76 43
REMARK SMILES IDX 36 44 79 45 73 46 72 47 37 49 63 50 46 51 62 52 47 53 50 54
REMARK SMILES IDX 61 55 77 56 48 57 49 58 60 60 78 61 51 62 38 63 39 64 44 65
REMARK SMILES IDX 40 66 41 67 43 68 45 69 42 70 64 71 65 72 70 73 66 74 67 75
REMARK SMILES IDX 69 76 71 77 68 78 52 79 53 80 58 81 54 82 55 83 57 84 59 85
REMARK SMILES IDX 56 86
REMARK H PARENT 10 10 76 48 50 59
REMARK Flexibility Score: inf
ROOT
ATOM      1  C   UNL A   1      32.922  30.286  27.025  1.00  0.00     0.274 C 
ENDROOT
BRANCH   1   2
ATOM      2  O   UNL A   1      33.370  28.919  27.250  1.00  0.00    -0.462 OA
BRANCH   2   3
ATOM      3  C   UNL A   1      33.767  28.286  26.122  1.00  0.00     0.310 C 
ATOM      4  O   UNL A   1      34.105  28.898  25.108  1.00  0.00    -0.252 OA
BRANCH   3   5
ATOM      5  C   UNL A   1      33.669  26.789  26.061  1.00  0.00     0.161 C 
BRANCH   5   6
ATOM      6  C   UNL A   1      33.875  25.866  24.882  1.00  0.00     0.000 A 
ATOM      7  C   UNL A   1      33.573  25.946  23.513  1.00  0.00     0.093 A 
ATOM      8  N   UNL A   1      33.666  24.673  22.994  1.00  0.00    -0.351 N 
ATOM      9  C   UNL A   1      34.046  23.767  23.939  1.00  0.00     0.048 A 
ATOM     10  H   UNL A   1      33.479  24.445  22.054  1.00  0.00     0.167 HD
ATOM     11  C   UNL A   1      34.173  24.464  25.133  1.00  0.00     0.007 A 
ATOM     12  C   UNL A   1      34.233  22.384  23.826  1.00  0.00     0.050 A 
ATOM     13  C   UNL A   1      34.457  23.720  26.301  1.00  0.00     0.051 A 
ATOM     14  C   UNL A   1      34.548  21.682  24.990  1.00  0.00     0.078 A 
ATOM     15  C   UNL A   1      34.644  22.341  26.209  1.00  0.00     0.142 A 
ATOM     16  Cl  UNL A   1      34.801  19.982  24.895  1.00  0.00    -0.081 Cl
ATOM     17  F   UNL A   1      34.913  21.663  27.336  1.00  0.00    -0.205 F 
BRANCH   7  18
ATOM     18  C   UNL A   1      33.093  26.971  22.591  1.00  0.00     0.227 C 
ATOM     19  O   UNL A   1      33.810  27.349  21.666  1.00  0.00    -0.285 OA
BRANCH  18  20
ATOM     20  C   UNL A   1      31.802  27.688  22.903  1.00  0.00     0.113 A 
ATOM     21  C   UNL A   1      28.291  26.690  23.832  1.00  0.00     0.044 C 
ATOM     22  C   UNL A   1      29.462  27.517  23.401  1.00  0.00    -0.047 A 
ATOM     23  C   UNL A   1      29.287  28.749  22.765  1.00  0.00     0.023 A 
ATOM     24  C   UNL A   1      30.751  26.992  23.496  1.00  0.00     0.036 A 
ATOM     25  C   UNL A   1      30.409  29.424  22.298  1.00  0.00     0.112 A 
ATOM     26  N   UNL A   1      31.670  28.945  22.391  1.00  0.00    -0.253 NA
ENDBRANCH  18  20
ENDBRANCH   7  18
ENDBRANCH   5   6
ENDBRANCH   3   5
ENDBRANCH   2   3
ENDBRANCH   1   2
BRANCH   1  27
ATOM     27  C   UNL A   1      33.767  31.364  27.732  1.00  0.00     0.275 C 
BRANCH  27  28
ATOM     28  O   UNL A   1      35.175  31.234  27.500  1.00  0.00    -0.458 OA
BRANCH  28  29
ATOM     29  C   UNL A   1      35.933  32.109  28.203  1.00  0.00     0.338 C 
ATOM     30  O   UNL A   1      35.709  33.299  28.286  1.00  0.00    -0.246 OA
BRANCH  29  31
ATOM     31  C   UNL A   1      36.776  31.429  29.188  1.00  0.00     0.060 A 
ATOM     32  C   UNL A   1      38.086  31.855  29.279  1.00  0.00     0.016 A 
ATOM     33  C   UNL A   1      36.403  30.105  29.478  1.00  0.00     0.016 A 
ATOM     34  C   UNL A   1      39.046  30.875  29.228  1.00  0.00     0.010 A 
ATOM     35  C   UNL A   1      37.376  29.127  29.478  1.00  0.00     0.010 A 
ATOM     36  C   UNL A   1      38.676  29.512  29.208  1.00  0.00    -0.014 A 
BRANCH  36  37
ATOM     37  C   UNL A   1      39.764  28.560  29.265  1.00  0.00     0.031 A 
ATOM     38  C   UNL A   1      40.123  28.377  30.681  1.00  0.00     0.074 A 
ATOM     39  C   UNL A   1      40.477  27.986  28.283  1.00  0.00     0.049 A 
ATOM     40  N   UNL A   1      41.041  29.047  31.287  1.00  0.00    -0.248 NA
ATOM     41  C   UNL A   1      39.191  27.658  31.554  1.00  0.00     0.031 C 
ATOM     42  C   UNL A   1      40.230  27.833  26.853  1.00  0.00     0.029 A 
ATOM     43  N   UNL A   1      41.692  27.390  28.448  1.00  0.00    -0.354 N 
ATOM     44  C   UNL A   1      40.897  28.742  32.624  1.00  0.00     0.074 A 
ATOM     45  C   UNL A   1      39.658  28.017  32.750  1.00  0.00     0.031 C 
ATOM     46  C   UNL A   1      41.176  27.013  26.320  1.00  0.00     0.029 A 
ATOM     47  C   UNL A   1      42.187  26.740  27.331  1.00  0.00     0.049 A 
ATOM     48  H   UNL A   1      42.183  27.421  29.301  1.00  0.00     0.167 HD
ATOM     49  C   UNL A   1      41.939  28.934  33.467  1.00  0.00     0.037 A 
ATOM     50  C   UNL A   1      43.352  26.044  27.276  1.00  0.00     0.037 A 
ATOM     51  C   UNL A   1      42.871  29.901  32.929  1.00  0.00     0.049 A 
ATOM     52  C   UNL A   1      44.237  26.586  28.342  1.00  0.00     0.074 A 
ATOM     53  C   UNL A   1      42.786  31.242  32.593  1.00  0.00     0.029 A 
ATOM     54  N   UNL A   1      43.980  29.427  32.268  1.00  0.00    -0.354 N 
ATOM     55  N   UNL A   1      44.775  27.772  28.299  1.00  0.00    -0.248 NA
ATOM     56  C   UNL A   1      44.158  25.982  29.664  1.00  0.00     0.031 C 
ATOM     57  C   UNL A   1      43.556  31.383  31.400  1.00  0.00     0.029 A 
ATOM     58  C   UNL A   1      44.109  30.137  31.100  1.00  0.00     0.049 A 
ATOM     59  H   UNL A   1      44.576  28.707  32.578  1.00  0.00     0.167 HD
ATOM     60  C   UNL A   1      44.696  28.242  29.601  1.00  0.00     0.074 A 
ATOM     61  C   UNL A   1      44.379  27.068  30.411  1.00  0.00     0.031 C 
ATOM     62  C   UNL A   1      44.626  29.578  29.870  1.00  0.00     0.037 A 
BRANCH  49  63
ATOM     63  C   UNL A   1      42.293  27.923  34.519  1.00  0.00     0.057 A 
ATOM     64  C   UNL A   1      42.814  26.685  34.113  1.00  0.00     0.134 A 
ATOM     65  C   UNL A   1      41.875  27.990  35.866  1.00  0.00     0.134 A 
ATOM     66  F   UNL A   1      43.239  26.495  32.856  1.00  0.00    -0.206 F 
ATOM     67  C   UNL A   1      42.828  25.572  34.960  1.00  0.00     0.040 A 
ATOM     68  C   UNL A   1      41.929  26.899  36.731  1.00  0.00     0.040 A 
ATOM     69  F   UNL A   1      41.295  29.070  36.400  1.00  0.00    -0.206 F 
ATOM     70  C   UNL A   1      42.373  25.674  36.269  1.00  0.00     0.006 A 
ENDBRANCH  49  63
BRANCH  50  71
ATOM     71  C   UNL A   1      43.619  24.723  26.661  1.00  0.00     0.057 A 
ATOM     72  C   UNL A   1      42.990  23.565  27.150  1.00  0.00     0.134 A 
ATOM     73  C   UNL A   1      44.218  24.612  25.396  1.00  0.00     0.134 A 
ATOM     74  F   UNL A   1      42.359  23.580  28.333  1.00  0.00    -0.206 F 
ATOM     75  C   UNL A   1      42.918  22.382  26.403  1.00  0.00     0.040 A 
ATOM     76  C   UNL A   1      44.155  23.434  24.641  1.00  0.00     0.040 A 
ATOM     77  F   UNL A   1      44.797  25.669  24.810  1.00  0.00    -0.206 F 
ATOM     78  C   UNL A   1      43.487  22.320  25.135  1.00  0.00     0.006 A 
ENDBRANCH  50  71
BRANCH  62  79
ATOM     79  C   UNL A   1      44.885  30.536  28.738  1.00  0.00     0.057 A 
ATOM     80  C   UNL A   1      43.919  30.934  27.800  1.00  0.00     0.134 A 
ATOM     81  C   UNL A   1      46.122  31.190  28.685  1.00  0.00     0.134 A 
ATOM     82  F   UNL A   1      42.679  30.426  27.821  1.00  0.00    -0.206 F 
ATOM     83  C   UNL A   1      44.185  31.915  26.838  1.00  0.00     0.040 A 
ATOM     84  C   UNL A   1      46.389  32.192  27.749  1.00  0.00     0.040 A 
ATOM     85  F   UNL A   1      47.082  30.894  29.575  1.00  0.00    -0.206 F 
ATOM     86  C   UNL A   1      45.421  32.554  26.816  1.00  0.00     0.006 A 
ENDBRANCH  62  79
ENDBRANCH  36  37
ENDBRANCH  29  31
ENDBRANCH  28  29
ENDBRANCH  27  28
ENDBRANCH   1  27
TORSDOF 14
ENDMDL
MODEL 3
REMARK VINA RESULT:     -12.3      1.980      3.806
REMARK SMILES Cc1ccnc(C(=O)c2[nH]c3cc(Cl)c(F)cc3c2CC(=O)OCCOC(=O)c2ccc(-c3c4nc(c(-c5c(F)cccc5F)c5ccc([nH]5)c(-c5c(F)cccc5F)c5nc(c(-c6c(F)cccc6F)c6ccc3[nH]6)C=C5)C=C4)cc2)c1
REMARK SMILES IDX 24 1 23 2 21 3 22 4 20 5 19 6 9 7 10 8 11 9 18 11 12 12
REMARK SMILES IDX 17 13 13 14 15 15 14 16 16 17 7 18 8 19 6 20 1 21 2 22 3 23
REMARK SMILES IDX 83 24 4 25 5 26 25 27 26 28 27 29 28 30 29 31 30 32 82 33
REMARK SMILES IDX 31 34 81 35 32 36 33 37 34 38 75 39 35 40 80 41 74 42 76 43
REMARK SMILES IDX 36 44 79 45 73 46 72 47 37 49 63 50 46 51 62 52 47 53 50 54
REMARK SMILES IDX 61 55 77 56 48 57 49 58 60 60 78 61 51 62 38 63 39 64 44 65
REMARK SMILES IDX 40 66 41 67 43 68 45 69 42 70 64 71 65 72 70 73 66 74 67 75
REMARK SMILES IDX 69 76 71 77 68 78 52 79 53 80 58 81 54 82 55 83 57 84 59 85
REMARK SMILES IDX 56 86
REMARK H PARENT 10 10 76 48 50 59
REMARK Flexibility Score: inf
ROOT
ATOM      1  C   UNL A   1      33.004  30.527  26.617  1.00  0.00     0.274 C 
ENDROOT
BRANCH   1   2
ATOM      2  O   UNL A   1      32.657  29.202  27.112  1.00  0.00    -0.462 OA
BRANCH   2   3
ATOM      3  C   UNL A   1      33.487  28.226  26.679  1.00  0.00     0.310 C 
ATOM      4  O   UNL A   1      34.679  28.192  26.988  1.00  0.00    -0.252 OA
BRANCH   3   5
ATOM      5  C   UNL A   1      32.971  27.225  25.687  1.00  0.00     0.161 C 
BRANCH   5   6
ATOM      6  C   UNL A   1      31.549  26.784  25.427  1.00  0.00     0.000 A 
ATOM      7  C   UNL A   1      30.870  25.559  25.531  1.00  0.00     0.093 A 
ATOM      8  N   UNL A   1      29.692  25.679  24.825  1.00  0.00    -0.351 N 
ATOM      9  C   UNL A   1      29.544  26.924  24.293  1.00  0.00     0.048 A 
ATOM     10  H   UNL A   1      29.037  24.951  24.718  1.00  0.00     0.167 HD
ATOM     11  C   UNL A   1      30.685  27.642  24.630  1.00  0.00     0.007 A 
ATOM     12  C   UNL A   1      28.511  27.440  23.501  1.00  0.00     0.050 A 
ATOM     13  C   UNL A   1      30.823  28.944  24.098  1.00  0.00     0.051 A 
ATOM     14  C   UNL A   1      28.660  28.741  23.020  1.00  0.00     0.078 A 
ATOM     15  C   UNL A   1      29.805  29.474  23.305  1.00  0.00     0.142 A 
ATOM     16  Cl  UNL A   1      27.407  29.421  22.054  1.00  0.00    -0.081 Cl
ATOM     17  F   UNL A   1      29.967  30.713  22.815  1.00  0.00    -0.205 F 
BRANCH   7  18
ATOM     18  C   UNL A   1      31.152  24.232  26.071  1.00  0.00     0.227 C 
ATOM     19  O   UNL A   1      31.378  24.093  27.271  1.00  0.00    -0.285 OA
BRANCH  18  20
ATOM     20  C   UNL A   1      31.353  23.083  25.113  1.00  0.00     0.113 A 
ATOM     21  C   UNL A   1      32.786  19.604  25.298  1.00  0.00     0.044 C 
ATOM     22  C   UNL A   1      32.245  20.886  24.747  1.00  0.00    -0.047 A 
ATOM     23  C   UNL A   1      32.441  21.243  23.409  1.00  0.00     0.023 A 
ATOM     24  C   UNL A   1      31.662  21.818  25.606  1.00  0.00     0.036 A 
ATOM     25  C   UNL A   1      32.002  22.490  22.980  1.00  0.00     0.112 A 
ATOM     26  N   UNL A   1      31.421  23.405  23.789  1.00  0.00    -0.253 NA
ENDBRANCH  18  20
ENDBRANCH   7  18
ENDBRANCH   5   6
ENDBRANCH   3   5
ENDBRANCH   2   3
ENDBRANCH   1   2
BRANCH   1  27
ATOM     27  C   UNL A   1      33.767  31.409  27.625  1.00  0.00     0.275 C 
BRANCH  27  28
ATOM     28  O   UNL A   1      35.191  31.346  27.481  1.00  0.00    -0.458 OA
BRANCH  28  29
ATOM     29  C   UNL A   1      35.864  32.215  28.272  1.00  0.00     0.338 C 
ATOM     30  O   UNL A   1      35.562  33.380  28.425  1.00  0.00    -0.246 OA
BRANCH  29  31
ATOM     31  C   UNL A   1      36.712  31.521  29.242  1.00  0.00     0.060 A 
ATOM     32  C   UNL A   1      38.019  31.959  29.346  1.00  0.00     0.016 A 
ATOM     33  C   UNL A   1      36.353  30.188  29.503  1.00  0.00     0.016 A 
ATOM     34  C   UNL A   1      38.988  30.990  29.274  1.00  0.00     0.010 A 
ATOM     35  C   UNL A   1      37.335  29.220  29.483  1.00  0.00     0.010 A 
ATOM     36  C   UNL A   1      38.632  29.624  29.223  1.00  0.00    -0.014 A 
BRANCH  36  37
ATOM     37  C   UNL A   1      39.730  28.682  29.262  1.00  0.00     0.031 A 
ATOM     38  C   UNL A   1      40.097  28.481  30.672  1.00  0.00     0.074 A 
ATOM     39  C   UNL A   1      40.443  28.130  28.267  1.00  0.00     0.049 A 
ATOM     40  N   UNL A   1      41.011  29.150  31.285  1.00  0.00    -0.248 NA
ATOM     41  C   UNL A   1      39.176  27.739  31.539  1.00  0.00     0.031 C 
ATOM     42  C   UNL A   1      40.192  27.996  26.837  1.00  0.00     0.029 A 
ATOM     43  N   UNL A   1      41.666  27.544  28.418  1.00  0.00    -0.354 N 
ATOM     44  C   UNL A   1      40.876  28.824  32.617  1.00  0.00     0.074 A 
ATOM     45  C   UNL A   1      39.645  28.085  32.738  1.00  0.00     0.031 C 
ATOM     46  C   UNL A   1      41.143  27.194  26.287  1.00  0.00     0.029 A 
ATOM     47  C   UNL A   1      42.161  26.915  27.289  1.00  0.00     0.049 A 
ATOM     48  H   UNL A   1      42.159  27.567  29.269  1.00  0.00     0.167 HD
ATOM     49  C   UNL A   1      41.920  29.014  33.459  1.00  0.00     0.037 A 
ATOM     50  C   UNL A   1      43.334  26.232  27.218  1.00  0.00     0.037 A 
ATOM     51  C   UNL A   1      42.840  29.998  32.931  1.00  0.00     0.049 A 
ATOM     52  C   UNL A   1      44.217  26.766  28.288  1.00  0.00     0.074 A 
ATOM     53  C   UNL A   1      42.740  31.342  32.616  1.00  0.00     0.029 A 
ATOM     54  N   UNL A   1      43.950  29.545  32.259  1.00  0.00    -0.354 N 
ATOM     55  N   UNL A   1      44.744  27.958  28.261  1.00  0.00    -0.248 NA
ATOM     56  C   UNL A   1      44.151  26.142  29.601  1.00  0.00     0.031 C 
ATOM     57  C   UNL A   1      43.504  31.509  31.422  1.00  0.00     0.029 A 
ATOM     58  C   UNL A   1      44.067  30.274  31.101  1.00  0.00     0.049 A 
ATOM     59  H   UNL A   1      44.555  28.826  32.554  1.00  0.00     0.167 HD
ATOM     60  C   UNL A   1      44.666  28.407  29.571  1.00  0.00     0.074 A 
ATOM     61  C   UNL A   1      44.364  27.218  30.364  1.00  0.00     0.031 C 
ATOM     62  C   UNL A   1      44.584  29.739  29.860  1.00  0.00     0.037 A 
BRANCH  49  63
ATOM     63  C   UNL A   1      42.289  27.990  34.494  1.00  0.00     0.057 A 
ATOM     64  C   UNL A   1      42.855  26.779  34.069  1.00  0.00     0.134 A 
ATOM     65  C   UNL A   1      41.847  28.013  35.835  1.00  0.00     0.134 A 
ATOM     66  F   UNL A   1      43.307  26.631  32.816  1.00  0.00    -0.206 F 
ATOM     67  C   UNL A   1      42.890  25.648  34.891  1.00  0.00     0.040 A 
ATOM     68  C   UNL A   1      41.922  26.904  36.676  1.00  0.00     0.040 A 
ATOM     69  F   UNL A   1      41.224  29.062  36.382  1.00  0.00    -0.206 F 
ATOM     70  C   UNL A   1      42.412  25.705  36.194  1.00  0.00     0.006 A 
ENDBRANCH  49  63
BRANCH  50  71
ATOM     71  C   UNL A   1      43.610  24.923  26.582  1.00  0.00     0.057 A 
ATOM     72  C   UNL A   1      42.878  23.780  26.946  1.00  0.00     0.134 A 
ATOM     73  C   UNL A   1      44.347  24.829  25.391  1.00  0.00     0.134 A 
ATOM     74  F   UNL A   1      42.114  23.783  28.048  1.00  0.00    -0.206 F 
ATOM     75  C   UNL A   1      42.840  22.630  26.146  1.00  0.00     0.040 A 
ATOM     76  C   UNL A   1      44.319  23.685  24.583  1.00  0.00     0.040 A 
ATOM     77  F   UNL A   1      45.037  25.878  24.920  1.00  0.00    -0.206 F 
ATOM     78  C   UNL A   1      43.549  22.588  24.950  1.00  0.00     0.006 A 
ENDBRANCH  50  71
BRANCH  62  79
ATOM     79  C   UNL A   1      44.828  30.716  28.742  1.00  0.00     0.057 A 
ATOM     80  C   UNL A   1      43.879  31.058  27.766  1.00  0.00     0.134 A 
ATOM     81  C   UNL A   1      46.023  31.445  28.741  1.00  0.00     0.134 A 
ATOM     82  F   UNL A   1      42.672  30.474  27.736  1.00  0.00    -0.206 F 
ATOM     83  C   UNL A   1      44.122  32.058  26.817  1.00  0.00     0.040 A 
ATOM     84  C   UNL A   1      46.266  32.467  27.819  1.00  0.00     0.040 A 
ATOM     85  F   UNL A   1      46.963  31.206  29.668  1.00  0.00    -0.206 F 
ATOM     86  C   UNL A   1      45.316  32.773  26.848  1.00  0.00     0.006 A 
ENDBRANCH  62  79
ENDBRANCH  36  37
ENDBRANCH  29  31
ENDBRANCH  28  29
ENDBRANCH  27  28
ENDBRANCH   1  27
TORSDOF 14
ENDMDL
