MODEL 1
REMARK VINA RESULT:     -11.7      0.000      0.000
REMARK SMILES O=C(OCCOC(=O)c1cc(-c2ccc(Cl)cc2)nc2c3c(C4CC4)cc(C(F)(F)F)nc3nn12)c1ccc(-c2c3nc(c(-c4c(F)cccc4F)c4ccc([nH]4)c(-c4c(F)cccc4F)c4nc(c(-c5c(F)cccc5F)c5ccc2[nH]5)C=C4)C=C3)cc1
REMARK SMILES IDX 4 1 3 2 2 3 1 4 36 5 37 6 89 7 38 8 88 9 39 10 40 11 41 12
REMARK SMILES IDX 82 13 42 14 87 15 81 16 83 17 43 18 86 19 80 20 79 21 44 23
REMARK SMILES IDX 70 24 53 25 69 26 54 27 57 28 68 29 84 30 55 31 56 32 67 34
REMARK SMILES IDX 85 35 58 36 45 37 46 38 51 39 47 40 48 41 50 42 52 43 49 44
REMARK SMILES IDX 71 45 72 46 77 47 73 48 74 49 76 50 78 51 75 52 59 53 60 54
REMARK SMILES IDX 65 55 61 56 62 57 64 58 66 59 63 60 5 61 6 62 7 63 8 64 9 65
REMARK SMILES IDX 10 66 35 67 11 68 20 69 34 70 19 71 21 72 33 73 22 74 32 75
REMARK SMILES IDX 26 76 27 77 12 78 13 79 18 80 14 81 17 82 15 83 16 84 23 85
REMARK SMILES IDX 24 86 25 87 28 88 29 89 30 90 31 91
REMARK H PARENT 83 22 57 33
REMARK Flexibility Score: inf
ROOT
ATOM      1  C   UNL A   1      43.757  19.450  25.018  1.00  0.00     0.275 C 
ENDROOT
BRANCH   1   2
ATOM      2  O   UNL A   1      44.179  20.821  24.936  1.00  0.00    -0.458 OA
BRANCH   2   3
ATOM      3  C   UNL A   1      45.337  21.353  25.385  1.00  0.00     0.338 C 
ATOM      4  O   UNL A   1      46.399  20.813  25.075  1.00  0.00    -0.246 OA
BRANCH   3   5
ATOM      5  C   UNL A   1      45.417  22.591  26.217  1.00  0.00     0.060 A 
ATOM      6  C   UNL A   1      46.568  23.338  26.496  1.00  0.00     0.016 A 
ATOM      7  C   UNL A   1      44.186  23.092  26.663  1.00  0.00     0.016 A 
ATOM      8  C   UNL A   1      46.504  24.544  27.190  1.00  0.00     0.010 A 
ATOM      9  C   UNL A   1      44.117  24.296  27.359  1.00  0.00     0.010 A 
ATOM     10  C   UNL A   1      45.274  25.045  27.605  1.00  0.00    -0.014 A 
BRANCH  10  11
ATOM     11  C   UNL A   1      45.231  26.408  28.177  1.00  0.00     0.031 A 
ATOM     12  C   UNL A   1      45.866  26.517  29.523  1.00  0.00     0.074 A 
ATOM     13  C   UNL A   1      45.131  27.493  27.377  1.00  0.00     0.049 A 
ATOM     14  N   UNL A   1      47.162  26.530  29.624  1.00  0.00    -0.248 NA
ATOM     15  C   UNL A   1      45.187  26.267  30.793  1.00  0.00     0.031 C 
ATOM     16  C   UNL A   1      45.546  27.478  25.965  1.00  0.00     0.029 A 
ATOM     17  N   UNL A   1      44.903  28.824  27.646  1.00  0.00    -0.354 N 
ATOM     18  C   UNL A   1      47.487  26.172  30.914  1.00  0.00     0.074 A 
ATOM     19  C   UNL A   1      46.230  26.088  31.627  1.00  0.00     0.031 C 
ATOM     20  C   UNL A   1      45.737  28.747  25.557  1.00  0.00     0.029 A 
ATOM     21  C   UNL A   1      45.344  29.669  26.624  1.00  0.00     0.049 A 
ATOM     22  H   UNL A   1      44.475  29.146  28.472  1.00  0.00     0.167 HD
ATOM     23  C   UNL A   1      48.774  25.919  31.265  1.00  0.00     0.037 A 
ATOM     24  C   UNL A   1      45.976  30.857  26.834  1.00  0.00     0.037 A 
ATOM     25  C   UNL A   1      49.721  25.948  30.182  1.00  0.00     0.049 A 
ATOM     26  C   UNL A   1      47.269  30.408  27.466  1.00  0.00     0.074 A 
ATOM     27  C   UNL A   1      50.365  25.039  29.370  1.00  0.00     0.029 A 
ATOM     28  N   UNL A   1      50.125  27.175  29.715  1.00  0.00    -0.354 N 
ATOM     29  N   UNL A   1      48.289  29.889  26.841  1.00  0.00    -0.248 NA
ATOM     30  C   UNL A   1      47.298  30.243  28.919  1.00  0.00     0.031 C 
ATOM     31  C   UNL A   1      50.732  25.772  28.195  1.00  0.00     0.029 A 
ATOM     32  C   UNL A   1      50.248  27.070  28.354  1.00  0.00     0.049 A 
ATOM     33  H   UNL A   1      50.294  27.980  30.256  1.00  0.00     0.167 HD
ATOM     34  C   UNL A   1      48.955  29.108  27.789  1.00  0.00     0.074 A 
ATOM     35  C   UNL A   1      48.325  29.415  29.057  1.00  0.00     0.031 C 
ATOM     36  C   UNL A   1      49.847  28.129  27.454  1.00  0.00     0.037 A 
BRANCH  23  37
ATOM     37  C   UNL A   1      49.292  25.774  32.635  1.00  0.00     0.057 A 
ATOM     38  C   UNL A   1      49.978  24.655  33.101  1.00  0.00     0.134 A 
ATOM     39  C   UNL A   1      49.339  26.945  33.408  1.00  0.00     0.134 A 
ATOM     40  F   UNL A   1      49.986  23.513  32.397  1.00  0.00    -0.206 F 
ATOM     41  C   UNL A   1      50.732  24.719  34.278  1.00  0.00     0.040 A 
ATOM     42  C   UNL A   1      50.099  27.028  34.569  1.00  0.00     0.040 A 
ATOM     43  F   UNL A   1      48.698  28.051  32.994  1.00  0.00    -0.206 F 
ATOM     44  C   UNL A   1      50.812  25.913  35.000  1.00  0.00     0.006 A 
ENDBRANCH  23  37
BRANCH  24  45
ATOM     45  C   UNL A   1      45.162  31.984  27.383  1.00  0.00     0.057 A 
ATOM     46  C   UNL A   1      44.389  31.918  28.550  1.00  0.00     0.134 A 
ATOM     47  C   UNL A   1      45.184  33.235  26.738  1.00  0.00     0.134 A 
ATOM     48  F   UNL A   1      44.401  30.829  29.331  1.00  0.00    -0.206 F 
ATOM     49  C   UNL A   1      43.565  32.972  28.961  1.00  0.00     0.040 A 
ATOM     50  C   UNL A   1      44.385  34.306  27.150  1.00  0.00     0.040 A 
ATOM     51  F   UNL A   1      45.993  33.448  25.688  1.00  0.00    -0.206 F 
ATOM     52  C   UNL A   1      43.547  34.165  28.247  1.00  0.00     0.006 A 
ENDBRANCH  24  45
BRANCH  36  53
ATOM     53  C   UNL A   1      50.171  28.057  25.998  1.00  0.00     0.057 A 
ATOM     54  C   UNL A   1      51.243  28.766  25.435  1.00  0.00     0.134 A 
ATOM     55  C   UNL A   1      49.430  27.232  25.145  1.00  0.00     0.134 A 
ATOM     56  F   UNL A   1      52.019  29.563  26.187  1.00  0.00    -0.206 F 
ATOM     57  C   UNL A   1      51.550  28.669  24.076  1.00  0.00     0.040 A 
ATOM     58  C   UNL A   1      49.748  27.101  23.793  1.00  0.00     0.040 A 
ATOM     59  F   UNL A   1      48.380  26.536  25.613  1.00  0.00    -0.206 F 
ATOM     60  C   UNL A   1      50.808  27.826  23.253  1.00  0.00     0.006 A 
ENDBRANCH  36  53
ENDBRANCH  10  11
ENDBRANCH   3   5
ENDBRANCH   2   3
ENDBRANCH   1   2
BRANCH   1  61
ATOM     61  C   UNL A   1      42.480  19.307  25.863  1.00  0.00     0.275 C 
BRANCH  61  62
ATOM     62  O   UNL A   1      41.625  20.463  25.749  1.00  0.00    -0.457 OA
BRANCH  62  63
ATOM     63  C   UNL A   1      40.752  20.675  26.762  1.00  0.00     0.357 C 
ATOM     64  O   UNL A   1      40.762  20.097  27.845  1.00  0.00    -0.244 OA
BRANCH  63  65
ATOM     65  C   UNL A   1      39.852  21.805  26.466  1.00  0.00     0.154 A 
ATOM     66  C   UNL A   1      40.329  23.028  26.751  1.00  0.00     0.065 A 
ATOM     67  N   UNL A   1      38.567  21.655  25.948  1.00  0.00    -0.205 N 
ATOM     68  C   UNL A   1      39.410  24.162  26.465  1.00  0.00     0.075 A 
ATOM     69  C   UNL A   1      37.725  22.782  25.798  1.00  0.00     0.166 A 
ATOM     70  N   UNL A   1      37.947  20.508  25.575  1.00  0.00    -0.145 NA
ATOM     71  N   UNL A   1      38.183  24.053  26.044  1.00  0.00    -0.228 NA
ATOM     72  C   UNL A   1      36.497  22.275  25.421  1.00  0.00     0.069 A 
ATOM     73  C   UNL A   1      36.708  20.874  25.276  1.00  0.00     0.184 A 
ATOM     74  C   UNL A   1      35.286  22.964  25.225  1.00  0.00    -0.028 A 
ATOM     75  N   UNL A   1      35.728  20.023  24.893  1.00  0.00    -0.222 NA
ATOM     76  C   UNL A   1      34.288  22.040  24.845  1.00  0.00     0.038 A 
ATOM     77  C   UNL A   1      34.522  20.642  24.696  1.00  0.00     0.147 A 
BRANCH  68  78
ATOM     78  C   UNL A   1      39.990  25.494  26.722  1.00  0.00     0.000 A 
ATOM     79  C   UNL A   1      39.519  26.245  27.802  1.00  0.00     0.012 A 
ATOM     80  C   UNL A   1      41.028  25.970  25.914  1.00  0.00     0.012 A 
ATOM     81  C   UNL A   1      40.108  27.479  28.088  1.00  0.00     0.021 A 
ATOM     82  C   UNL A   1      41.606  27.210  26.199  1.00  0.00     0.021 A 
ATOM     83  C   UNL A   1      41.149  27.955  27.287  1.00  0.00     0.041 A 
ATOM     84  Cl  UNL A   1      41.877  29.471  27.650  1.00  0.00    -0.084 Cl
ENDBRANCH  68  78
BRANCH  74  85
ATOM     85  C   UNL A   1      35.110  24.434  25.457  1.00  0.00     0.020 C 
ATOM     86  C   UNL A   1      34.254  25.300  24.558  1.00  0.00     0.009 C 
ATOM     87  C   UNL A   1      33.759  24.935  25.924  1.00  0.00     0.009 C 
ENDBRANCH  74  85
BRANCH  77  88
ATOM     88  C   UNL A   1      33.348  19.750  24.296  1.00  0.00     0.433 C 
ATOM     89  F   UNL A   1      32.597  20.283  23.291  1.00  0.00    -0.165 F 
ATOM     90  F   UNL A   1      33.736  18.514  23.868  1.00  0.00    -0.165 F 
ATOM     91  F   UNL A   1      32.470  19.519  25.318  1.00  0.00    -0.165 F 
ENDBRANCH  77  88
ENDBRANCH  63  65
ENDBRANCH  62  63
ENDBRANCH  61  62
ENDBRANCH   1  61
TORSDOF 14
ENDMDL
MODEL 2
REMARK VINA RESULT:     -11.7      4.541      6.965
REMARK SMILES O=C(OCCOC(=O)c1cc(-c2ccc(Cl)cc2)nc2c3c(C4CC4)cc(C(F)(F)F)nc3nn12)c1ccc(-c2c3nc(c(-c4c(F)cccc4F)c4ccc([nH]4)c(-c4c(F)cccc4F)c4nc(c(-c5c(F)cccc5F)c5ccc2[nH]5)C=C4)C=C3)cc1
REMARK SMILES IDX 4 1 3 2 2 3 1 4 36 5 37 6 89 7 38 8 88 9 39 10 40 11 41 12
REMARK SMILES IDX 82 13 42 14 87 15 81 16 83 17 43 18 86 19 80 20 79 21 44 23
REMARK SMILES IDX 70 24 53 25 69 26 54 27 57 28 68 29 84 30 55 31 56 32 67 34
REMARK SMILES IDX 85 35 58 36 45 37 46 38 51 39 47 40 48 41 50 42 52 43 49 44
REMARK SMILES IDX 71 45 72 46 77 47 73 48 74 49 76 50 78 51 75 52 59 53 60 54
REMARK SMILES IDX 65 55 61 56 62 57 64 58 66 59 63 60 5 61 6 62 7 63 8 64 9 65
REMARK SMILES IDX 10 66 35 67 11 68 20 69 34 70 19 71 21 72 33 73 22 74 32 75
REMARK SMILES IDX 26 76 27 77 12 78 13 79 18 80 14 81 17 82 15 83 16 84 23 85
REMARK SMILES IDX 24 86 25 87 28 88 29 89 30 90 31 91
REMARK H PARENT 83 22 57 33
REMARK Flexibility Score: inf
ROOT
ATOM      1  C   UNL A   1      49.164  26.985  25.237  1.00  0.00     0.275 C 
ENDROOT
BRANCH   1   2
ATOM      2  O   UNL A   1      49.371  25.646  25.716  1.00  0.00    -0.458 OA
BRANCH   2   3
ATOM      3  C   UNL A   1      48.995  25.132  26.909  1.00  0.00     0.338 C 
ATOM      4  O   UNL A   1      49.802  24.452  27.544  1.00  0.00    -0.246 OA
BRANCH   3   5
ATOM      5  C   UNL A   1      47.658  25.367  27.531  1.00  0.00     0.060 A 
ATOM      6  C   UNL A   1      46.652  24.414  27.733  1.00  0.00     0.016 A 
ATOM      7  C   UNL A   1      47.458  26.652  28.052  1.00  0.00     0.016 A 
ATOM      8  C   UNL A   1      45.486  24.723  28.431  1.00  0.00     0.010 A 
ATOM      9  C   UNL A   1      46.294  26.966  28.748  1.00  0.00     0.010 A 
ATOM     10  C   UNL A   1      45.310  25.995  28.966  1.00  0.00    -0.014 A 
BRANCH  10  11
ATOM     11  C   UNL A   1      44.147  26.227  29.849  1.00  0.00     0.031 A 
ATOM     12  C   UNL A   1      44.232  25.514  31.157  1.00  0.00     0.074 A 
ATOM     13  C   UNL A   1      43.394  27.344  29.726  1.00  0.00     0.049 A 
ATOM     14  N   UNL A   1      45.014  25.970  32.089  1.00  0.00    -0.248 NA
ATOM     15  C   UNL A   1      43.782  24.144  31.396  1.00  0.00     0.031 C 
ATOM     16  C   UNL A   1      43.905  28.581  29.114  1.00  0.00     0.029 A 
ATOM     17  N   UNL A   1      42.192  27.715  30.284  1.00  0.00    -0.354 N 
ATOM     18  C   UNL A   1      45.271  24.938  32.965  1.00  0.00     0.074 A 
ATOM     19  C   UNL A   1      44.429  23.841  32.538  1.00  0.00     0.031 C 
ATOM     20  C   UNL A   1      43.127  29.608  29.505  1.00  0.00     0.029 A 
ATOM     21  C   UNL A   1      41.997  29.100  30.285  1.00  0.00     0.049 A 
ATOM     22  H   UNL A   1      41.538  27.074  30.646  1.00  0.00     0.167 HD
ATOM     23  C   UNL A   1      46.209  25.065  33.939  1.00  0.00     0.037 A 
ATOM     24  C   UNL A   1      41.452  29.794  31.322  1.00  0.00     0.037 A 
ATOM     25  C   UNL A   1      46.963  26.290  33.906  1.00  0.00     0.049 A 
ATOM     26  C   UNL A   1      42.494  29.611  32.395  1.00  0.00     0.074 A 
ATOM     27  C   UNL A   1      48.196  26.714  33.459  1.00  0.00     0.029 A 
ATOM     28  N   UNL A   1      46.360  27.428  34.384  1.00  0.00    -0.354 N 
ATOM     29  N   UNL A   1      43.634  30.241  32.473  1.00  0.00    -0.248 NA
ATOM     30  C   UNL A   1      42.391  28.432  33.254  1.00  0.00     0.031 C 
ATOM     31  C   UNL A   1      48.066  28.128  33.269  1.00  0.00     0.029 A 
ATOM     32  C   UNL A   1      46.748  28.464  33.574  1.00  0.00     0.049 A 
ATOM     33  H   UNL A   1      45.761  27.489  35.163  1.00  0.00     0.167 HD
ATOM     34  C   UNL A   1      44.484  29.396  33.190  1.00  0.00     0.074 A 
ATOM     35  C   UNL A   1      43.640  28.327  33.687  1.00  0.00     0.031 C 
ATOM     36  C   UNL A   1      45.844  29.520  33.177  1.00  0.00     0.037 A 
BRANCH  23  37
ATOM     37  C   UNL A   1      46.410  24.158  35.081  1.00  0.00     0.057 A 
ATOM     38  C   UNL A   1      45.482  23.965  36.102  1.00  0.00     0.134 A 
ATOM     39  C   UNL A   1      47.466  23.241  34.968  1.00  0.00     0.134 A 
ATOM     40  F   UNL A   1      44.440  24.796  36.249  1.00  0.00    -0.206 F 
ATOM     41  C   UNL A   1      45.578  22.857  36.953  1.00  0.00     0.040 A 
ATOM     42  C   UNL A   1      47.563  22.127  35.793  1.00  0.00     0.040 A 
ATOM     43  F   UNL A   1      48.380  23.385  33.993  1.00  0.00    -0.206 F 
ATOM     44  C   UNL A   1      46.605  21.924  36.782  1.00  0.00     0.006 A 
ENDBRANCH  23  37
BRANCH  24  45
ATOM     45  C   UNL A   1      39.991  29.613  31.581  1.00  0.00     0.057 A 
ATOM     46  C   UNL A   1      39.334  28.375  31.625  1.00  0.00     0.134 A 
ATOM     47  C   UNL A   1      39.189  30.737  31.852  1.00  0.00     0.134 A 
ATOM     48  F   UNL A   1      40.013  27.224  31.526  1.00  0.00    -0.206 F 
ATOM     49  C   UNL A   1      37.946  28.270  31.769  1.00  0.00     0.040 A 
ATOM     50  C   UNL A   1      37.804  30.647  32.023  1.00  0.00     0.040 A 
ATOM     51  F   UNL A   1      39.738  31.956  31.966  1.00  0.00    -0.206 F 
ATOM     52  C   UNL A   1      37.174  29.412  31.949  1.00  0.00     0.006 A 
ENDBRANCH  24  45
BRANCH  36  53
ATOM     53  C   UNL A   1      46.349  30.726  32.455  1.00  0.00     0.057 A 
ATOM     54  C   UNL A   1      46.713  30.689  31.101  1.00  0.00     0.134 A 
ATOM     55  C   UNL A   1      46.436  31.960  33.109  1.00  0.00     0.134 A 
ATOM     56  F   UNL A   1      46.639  29.549  30.393  1.00  0.00    -0.206 F 
ATOM     57  C   UNL A   1      47.159  31.831  30.432  1.00  0.00     0.040 A 
ATOM     58  C   UNL A   1      46.848  33.115  32.442  1.00  0.00     0.040 A 
ATOM     59  F   UNL A   1      46.119  32.066  34.410  1.00  0.00    -0.206 F 
ATOM     60  C   UNL A   1      47.218  33.051  31.100  1.00  0.00     0.006 A 
ENDBRANCH  36  53
ENDBRANCH  10  11
ENDBRANCH   3   5
ENDBRANCH   2   3
ENDBRANCH   1   2
BRANCH   1  61
ATOM     61  C   UNL A   1      48.235  27.003  24.013  1.00  0.00     0.275 C 
BRANCH  61  62
ATOM     62  O   UNL A   1      46.959  26.392  24.293  1.00  0.00    -0.457 OA
BRANCH  62  63
ATOM     63  C   UNL A   1      45.981  27.208  24.752  1.00  0.00     0.357 C 
ATOM     64  O   UNL A   1      46.017  28.435  24.747  1.00  0.00    -0.244 OA
BRANCH  63  65
ATOM     65  C   UNL A   1      44.783  26.442  25.139  1.00  0.00     0.154 A 
ATOM     66  C   UNL A   1      43.780  27.152  25.681  1.00  0.00     0.065 A 
ATOM     67  N   UNL A   1      44.667  25.060  24.995  1.00  0.00    -0.205 N 
ATOM     68  C   UNL A   1      42.579  26.370  26.084  1.00  0.00     0.075 A 
ATOM     69  C   UNL A   1      43.528  24.386  25.495  1.00  0.00     0.166 A 
ATOM     70  N   UNL A   1      45.561  24.203  24.442  1.00  0.00    -0.145 NA
ATOM     71  N   UNL A   1      42.466  25.075  26.024  1.00  0.00    -0.228 NA
ATOM     72  C   UNL A   1      43.800  23.041  25.336  1.00  0.00     0.069 A 
ATOM     73  C   UNL A   1      45.053  22.998  24.658  1.00  0.00     0.184 A 
ATOM     74  C   UNL A   1      43.033  21.937  25.748  1.00  0.00    -0.028 A 
ATOM     75  N   UNL A   1      45.651  21.837  24.302  1.00  0.00    -0.222 NA
ATOM     76  C   UNL A   1      43.699  20.749  25.375  1.00  0.00     0.038 A 
ATOM     77  C   UNL A   1      44.948  20.726  24.689  1.00  0.00     0.147 A 
BRANCH  68  78
ATOM     78  C   UNL A   1      41.470  27.189  26.610  1.00  0.00     0.000 A 
ATOM     79  C   UNL A   1      40.526  26.597  27.454  1.00  0.00     0.012 A 
ATOM     80  C   UNL A   1      41.398  28.550  26.294  1.00  0.00     0.012 A 
ATOM     81  C   UNL A   1      39.511  27.382  28.004  1.00  0.00     0.021 A 
ATOM     82  C   UNL A   1      40.373  29.328  26.840  1.00  0.00     0.021 A 
ATOM     83  C   UNL A   1      39.439  28.742  27.696  1.00  0.00     0.041 A 
ATOM     84  Cl  UNL A   1      38.191  29.706  28.385  1.00  0.00    -0.084 Cl
ENDBRANCH  68  78
BRANCH  74  85
ATOM     85  C   UNL A   1      41.751  22.046  26.516  1.00  0.00     0.020 C 
ATOM     86  C   UNL A   1      41.203  20.904  27.346  1.00  0.00     0.009 C 
ATOM     87  C   UNL A   1      41.816  22.089  28.029  1.00  0.00     0.009 C 
ENDBRANCH  74  85
BRANCH  77  88
ATOM     88  C   UNL A   1      45.569  19.370  24.359  1.00  0.00     0.433 C 
ATOM     89  F   UNL A   1      46.928  19.421  24.261  1.00  0.00    -0.165 F 
ATOM     90  F   UNL A   1      45.289  18.412  25.288  1.00  0.00    -0.165 F 
ATOM     91  F   UNL A   1      45.140  18.854  23.168  1.00  0.00    -0.165 F 
ENDBRANCH  77  88
ENDBRANCH  63  65
ENDBRANCH  62  63
ENDBRANCH  61  62
ENDBRANCH   1  61
TORSDOF 14
ENDMDL
MODEL 3
REMARK VINA RESULT:     -11.5      1.347      2.092
REMARK SMILES O=C(OCCOC(=O)c1cc(-c2ccc(Cl)cc2)nc2c3c(C4CC4)cc(C(F)(F)F)nc3nn12)c1ccc(-c2c3nc(c(-c4c(F)cccc4F)c4ccc([nH]4)c(-c4c(F)cccc4F)c4nc(c(-c5c(F)cccc5F)c5ccc2[nH]5)C=C4)C=C3)cc1
REMARK SMILES IDX 4 1 3 2 2 3 1 4 36 5 37 6 89 7 38 8 88 9 39 10 40 11 41 12
REMARK SMILES IDX 82 13 42 14 87 15 81 16 83 17 43 18 86 19 80 20 79 21 44 23
REMARK SMILES IDX 70 24 53 25 69 26 54 27 57 28 68 29 84 30 55 31 56 32 67 34
REMARK SMILES IDX 85 35 58 36 45 37 46 38 51 39 47 40 48 41 50 42 52 43 49 44
REMARK SMILES IDX 71 45 72 46 77 47 73 48 74 49 76 50 78 51 75 52 59 53 60 54
REMARK SMILES IDX 65 55 61 56 62 57 64 58 66 59 63 60 5 61 6 62 7 63 8 64 9 65
REMARK SMILES IDX 10 66 35 67 11 68 20 69 34 70 19 71 21 72 33 73 22 74 32 75
REMARK SMILES IDX 26 76 27 77 12 78 13 79 18 80 14 81 17 82 15 83 16 84 23 85
REMARK SMILES IDX 24 86 25 87 28 88 29 89 30 90 31 91
REMARK H PARENT 83 22 57 33
REMARK Flexibility Score: inf
ROOT
ATOM      1  C   UNL A   1      43.966  19.555  25.251  1.00  0.00     0.275 C 
ENDROOT
BRANCH   1   2
ATOM      2  O   UNL A   1      44.201  20.965  25.096  1.00  0.00    -0.458 OA
BRANCH   2   3
ATOM      3  C   UNL A   1      45.277  21.669  25.511  1.00  0.00     0.338 C 
ATOM      4  O   UNL A   1      46.403  21.231  25.273  1.00  0.00    -0.246 OA
BRANCH   3   5
ATOM      5  C   UNL A   1      45.190  22.980  26.221  1.00  0.00     0.060 A 
ATOM      6  C   UNL A   1      46.215  23.616  26.932  1.00  0.00     0.016 A 
ATOM      7  C   UNL A   1      43.982  23.671  26.054  1.00  0.00     0.016 A 
ATOM      8  C   UNL A   1      46.052  24.896  27.457  1.00  0.00     0.010 A 
ATOM      9  C   UNL A   1      43.814  24.949  26.579  1.00  0.00     0.010 A 
ATOM     10  C   UNL A   1      44.858  25.582  27.263  1.00  0.00    -0.014 A 
BRANCH  10  11
ATOM     11  C   UNL A   1      44.790  27.000  27.678  1.00  0.00     0.031 A 
ATOM     12  C   UNL A   1      44.822  27.197  29.157  1.00  0.00     0.074 A 
ATOM     13  C   UNL A   1      45.197  27.987  26.848  1.00  0.00     0.049 A 
ATOM     14  N   UNL A   1      45.946  27.076  29.799  1.00  0.00    -0.248 NA
ATOM     15  C   UNL A   1      43.651  27.178  30.031  1.00  0.00     0.031 C 
ATOM     16  C   UNL A   1      46.149  27.757  25.749  1.00  0.00     0.029 A 
ATOM     17  N   UNL A   1      45.083  29.357  26.914  1.00  0.00    -0.354 N 
ATOM     18  C   UNL A   1      45.652  26.839  31.123  1.00  0.00     0.074 A 
ATOM     19  C   UNL A   1      44.217  26.983  31.238  1.00  0.00     0.031 C 
ATOM     20  C   UNL A   1      46.682  28.939  25.386  1.00  0.00     0.029 A 
ATOM     21  C   UNL A   1      46.029  30.020  26.127  1.00  0.00     0.049 A 
ATOM     22  H   UNL A   1      44.406  29.822  27.458  1.00  0.00     0.167 HD
ATOM     23  C   UNL A   1      46.625  26.487  32.003  1.00  0.00     0.037 A 
ATOM     24  C   UNL A   1      46.691  31.146  26.513  1.00  0.00     0.037 A 
ATOM     25  C   UNL A   1      47.926  26.280  31.426  1.00  0.00     0.049 A 
ATOM     26  C   UNL A   1      47.523  30.633  27.661  1.00  0.00     0.074 A 
ATOM     27  C   UNL A   1      48.702  25.214  31.021  1.00  0.00     0.029 A 
ATOM     28  N   UNL A   1      48.668  27.389  31.101  1.00  0.00    -0.354 N 
ATOM     29  N   UNL A   1      48.619  29.931  27.561  1.00  0.00    -0.248 NA
ATOM     30  C   UNL A   1      46.924  30.639  28.996  1.00  0.00     0.031 C 
ATOM     31  C   UNL A   1      49.627  25.757  30.071  1.00  0.00     0.029 A 
ATOM     32  C   UNL A   1      49.324  27.111  29.931  1.00  0.00     0.049 A 
ATOM     33  H   UNL A   1      48.720  28.229  31.614  1.00  0.00     0.167 HD
ATOM     34  C   UNL A   1      48.707  29.199  28.748  1.00  0.00     0.074 A 
ATOM     35  C   UNL A   1      47.664  29.724  29.607  1.00  0.00     0.031 C 
ATOM     36  C   UNL A   1      49.497  28.093  28.884  1.00  0.00     0.037 A 
BRANCH  23  37
ATOM     37  C   UNL A   1      46.503  26.449  33.469  1.00  0.00     0.057 A 
ATOM     38  C   UNL A   1      46.667  27.556  34.299  1.00  0.00     0.134 A 
ATOM     39  C   UNL A   1      45.912  25.299  34.015  1.00  0.00     0.134 A 
ATOM     40  F   UNL A   1      47.208  28.690  33.830  1.00  0.00    -0.206 F 
ATOM     41  C   UNL A   1      46.207  27.531  35.621  1.00  0.00     0.040 A 
ATOM     42  C   UNL A   1      45.433  25.267  35.319  1.00  0.00     0.040 A 
ATOM     43  F   UNL A   1      45.727  24.210  33.249  1.00  0.00    -0.206 F 
ATOM     44  C   UNL A   1      45.567  26.395  36.123  1.00  0.00     0.006 A 
ENDBRANCH  23  37
BRANCH  24  45
ATOM     45  C   UNL A   1      45.905  32.414  26.595  1.00  0.00     0.057 A 
ATOM     46  C   UNL A   1      44.614  32.523  27.130  1.00  0.00     0.134 A 
ATOM     47  C   UNL A   1      46.485  33.620  26.158  1.00  0.00     0.134 A 
ATOM     48  F   UNL A   1      44.011  31.475  27.709  1.00  0.00    -0.206 F 
ATOM     49  C   UNL A   1      43.884  33.716  27.086  1.00  0.00     0.040 A 
ATOM     50  C   UNL A   1      45.778  34.826  26.131  1.00  0.00     0.040 A 
ATOM     51  F   UNL A   1      47.764  33.654  25.751  1.00  0.00    -0.206 F 
ATOM     52  C   UNL A   1      44.461  34.869  26.566  1.00  0.00     0.006 A 
ENDBRANCH  24  45
BRANCH  36  53
ATOM     53  C   UNL A   1      50.378  27.812  27.711  1.00  0.00     0.057 A 
ATOM     54  C   UNL A   1      49.989  26.953  26.673  1.00  0.00     0.134 A 
ATOM     55  C   UNL A   1      51.622  28.442  27.590  1.00  0.00     0.134 A 
ATOM     56  F   UNL A   1      48.802  26.325  26.699  1.00  0.00    -0.206 F 
ATOM     57  C   UNL A   1      50.813  26.720  25.569  1.00  0.00     0.040 A 
ATOM     58  C   UNL A   1      52.438  28.244  26.476  1.00  0.00     0.040 A 
ATOM     59  F   UNL A   1      52.065  29.266  28.555  1.00  0.00    -0.206 F 
ATOM     60  C   UNL A   1      52.038  27.375  25.464  1.00  0.00     0.006 A 
ENDBRANCH  36  53
ENDBRANCH  10  11
ENDBRANCH   3   5
ENDBRANCH   2   3
ENDBRANCH   1   2
BRANCH   1  61
ATOM     61  C   UNL A   1      42.545  19.279  25.768  1.00  0.00     0.275 C 
BRANCH  61  62
ATOM     62  O   UNL A   1      41.724  20.464  25.751  1.00  0.00    -0.457 OA
BRANCH  62  63
ATOM     63  C   UNL A   1      40.798  20.576  26.733  1.00  0.00     0.357 C 
ATOM     64  O   UNL A   1      40.777  19.922  27.772  1.00  0.00    -0.244 OA
BRANCH  63  65
ATOM     65  C   UNL A   1      39.875  21.696  26.473  1.00  0.00     0.154 A 
ATOM     66  C   UNL A   1      40.328  22.919  26.794  1.00  0.00     0.065 A 
ATOM     67  N   UNL A   1      38.591  21.537  25.953  1.00  0.00    -0.205 N 
ATOM     68  C   UNL A   1      39.385  24.043  26.545  1.00  0.00     0.075 A 
ATOM     69  C   UNL A   1      37.727  22.651  25.839  1.00  0.00     0.166 A 
ATOM     70  N   UNL A   1      37.994  20.389  25.547  1.00  0.00    -0.145 NA
ATOM     71  N   UNL A   1      38.160  23.922  26.123  1.00  0.00    -0.228 NA
ATOM     72  C   UNL A   1      36.508  22.131  25.450  1.00  0.00     0.069 A 
ATOM     73  C   UNL A   1      36.747  20.739  25.261  1.00  0.00     0.184 A 
ATOM     74  C   UNL A   1      35.284  22.801  25.277  1.00  0.00    -0.028 A 
ATOM     75  N   UNL A   1      35.783  19.881  24.854  1.00  0.00    -0.222 NA
ATOM     76  C   UNL A   1      34.303  21.869  24.871  1.00  0.00     0.038 A 
ATOM     77  C   UNL A   1      34.564  20.481  24.679  1.00  0.00     0.147 A 
BRANCH  68  78
ATOM     78  C   UNL A   1      39.940  25.377  26.842  1.00  0.00     0.000 A 
ATOM     79  C   UNL A   1      39.704  25.950  28.095  1.00  0.00     0.012 A 
ATOM     80  C   UNL A   1      40.725  26.035  25.889  1.00  0.00     0.012 A 
ATOM     81  C   UNL A   1      40.279  27.185  28.404  1.00  0.00     0.021 A 
ATOM     82  C   UNL A   1      41.288  27.274  26.200  1.00  0.00     0.021 A 
ATOM     83  C   UNL A   1      41.069  27.841  27.457  1.00  0.00     0.041 A 
ATOM     84  Cl  UNL A   1      41.782  29.357  27.847  1.00  0.00    -0.084 Cl
ENDBRANCH  68  78
BRANCH  74  85
ATOM     85  C   UNL A   1      35.079  24.259  25.554  1.00  0.00     0.020 C 
ATOM     86  C   UNL A   1      34.144  25.118  24.729  1.00  0.00     0.009 C 
ATOM     87  C   UNL A   1      33.744  24.708  26.113  1.00  0.00     0.009 C 
ENDBRANCH  74  85
BRANCH  77  88
ATOM     88  C   UNL A   1      33.408  19.578  24.253  1.00  0.00     0.433 C 
ATOM     89  F   UNL A   1      32.595  19.234  25.292  1.00  0.00    -0.165 F 
ATOM     90  F   UNL A   1      32.603  20.147  23.311  1.00  0.00    -0.165 F 
ATOM     91  F   UNL A   1      33.818  18.393  23.709  1.00  0.00    -0.165 F 
ENDBRANCH  77  88
ENDBRANCH  63  65
ENDBRANCH  62  63
ENDBRANCH  61  62
ENDBRANCH   1  61
TORSDOF 14
ENDMDL
