MODEL 1
REMARK VINA RESULT:     -11.7      0.000      0.000
REMARK SMILES O=C(CCc1ccc(S(=O)(=O)Nc2cccc(I)c2)cc1)OCCOC(=O)c1ccc(-c2c3nc(c(-c4c(F)cccc4F)c4ccc([nH]4)c(-c4c(F)cccc4F)c4nc(c(-c5c(F)cccc5F)c5ccc2[nH]5)C=C4)C=C3)cc1
REMARK SMILES IDX 22 1 2 2 1 3 3 4 4 5 5 6 6 7 21 8 7 9 20 10 8 11 9 12 10 13
REMARK SMILES IDX 11 14 12 15 13 17 14 18 19 19 15 20 17 21 16 22 18 23 23 24
REMARK SMILES IDX 24 25 25 26 26 27 27 28 28 29 29 30 81 31 30 32 80 33 31 34
REMARK SMILES IDX 32 35 33 36 74 37 34 38 79 39 73 40 75 41 35 42 78 43 72 44
REMARK SMILES IDX 71 45 36 47 62 48 45 49 61 50 46 51 49 52 60 53 76 54 47 55
REMARK SMILES IDX 48 56 59 58 77 59 50 60 37 61 38 62 43 63 39 64 40 65 42 66
REMARK SMILES IDX 44 67 41 68 63 69 64 70 69 71 65 72 66 73 68 74 70 75 67 76
REMARK SMILES IDX 51 77 52 78 57 79 53 80 54 81 56 82 58 83 55 84
REMARK H PARENT 12 16 75 46 49 57
REMARK Flexibility Score: inf
ROOT
ATOM      1  O   UNL A   1      43.746  20.377  24.907  1.00  0.00    -0.462 OA
ENDROOT
BRANCH   1   2
ATOM      2  C   UNL A   1      43.904  19.094  25.327  1.00  0.00     0.306 C 
ATOM      3  O   UNL A   1      44.871  18.425  24.978  1.00  0.00    -0.252 OA
BRANCH   2   4
ATOM      4  C   UNL A   1      42.736  18.477  26.066  1.00  0.00     0.127 C 
BRANCH   4   5
ATOM      5  C   UNL A   1      42.122  19.387  27.132  1.00  0.00     0.047 C 
BRANCH   5   6
ATOM      6  C   UNL A   1      40.982  20.235  26.615  1.00  0.00    -0.047 A 
ATOM      7  C   UNL A   1      39.994  19.670  25.798  1.00  0.00     0.005 A 
ATOM      8  C   UNL A   1      40.876  21.590  26.962  1.00  0.00     0.005 A 
ATOM      9  C   UNL A   1      38.853  20.403  25.451  1.00  0.00     0.022 A 
ATOM     10  C   UNL A   1      39.738  22.322  26.622  1.00  0.00     0.022 A 
ATOM     11  C   UNL A   1      38.698  21.710  25.922  1.00  0.00     0.087 A 
BRANCH  11  12
ATOM     12  S   UNL A   1      37.216  22.628  25.547  1.00  0.00     0.261 S 
ATOM     13  O   UNL A   1      37.208  23.811  26.377  1.00  0.00    -0.201 OA
ATOM     14  O   UNL A   1      37.130  22.730  24.104  1.00  0.00    -0.201 OA
BRANCH  12  15
ATOM     15  N   UNL A   1      35.957  21.610  25.982  1.00  0.00    -0.280 N 
ATOM     16  H   UNL A   1      36.080  21.085  26.807  1.00  0.00     0.180 HD
BRANCH  15  17
ATOM     17  C   UNL A   1      34.728  21.420  25.289  1.00  0.00     0.050 A 
ATOM     18  C   UNL A   1      34.398  20.112  24.911  1.00  0.00     0.027 A 
ATOM     19  C   UNL A   1      33.872  22.458  24.921  1.00  0.00     0.041 A 
ATOM     20  C   UNL A   1      33.200  19.839  24.244  1.00  0.00     0.003 A 
ATOM     21  C   UNL A   1      32.656  22.179  24.292  1.00  0.00     0.015 A 
ATOM     22  C   UNL A   1      32.313  20.872  23.953  1.00  0.00     0.015 A 
ATOM     23  I   UNL A   1      31.315  23.726  23.921  1.00  0.00    -0.044 I 
ENDBRANCH  15  17
ENDBRANCH  12  15
ENDBRANCH  11  12
ENDBRANCH   5   6
ENDBRANCH   4   5
ENDBRANCH   2   4
ENDBRANCH   1   2
BRANCH   1  24
ATOM     24  C   UNL A   1      44.917  21.164  24.626  1.00  0.00     0.274 C 
BRANCH  24  25
ATOM     25  C   UNL A   1      44.613  22.477  23.895  1.00  0.00     0.275 C 
BRANCH  25  26
ATOM     26  O   UNL A   1      43.829  23.370  24.695  1.00  0.00    -0.458 OA
BRANCH  26  27
ATOM     27  C   UNL A   1      44.498  24.489  25.068  1.00  0.00     0.338 C 
ATOM     28  O   UNL A   1      45.563  24.887  24.626  1.00  0.00    -0.246 OA
BRANCH  27  29
ATOM     29  C   UNL A   1      43.654  25.288  25.976  1.00  0.00     0.060 A 
ATOM     30  C   UNL A   1      44.094  26.579  26.285  1.00  0.00     0.016 A 
ATOM     31  C   UNL A   1      42.476  24.785  26.538  1.00  0.00     0.016 A 
ATOM     32  C   UNL A   1      43.399  27.345  27.216  1.00  0.00     0.010 A 
ATOM     33  C   UNL A   1      41.776  25.559  27.470  1.00  0.00     0.010 A 
ATOM     34  C   UNL A   1      42.263  26.822  27.850  1.00  0.00    -0.014 A 
BRANCH  34  35
ATOM     35  C   UNL A   1      41.713  27.537  29.028  1.00  0.00     0.031 A 
ATOM     36  C   UNL A   1      42.440  27.434  30.343  1.00  0.00     0.074 A 
ATOM     37  C   UNL A   1      40.635  28.332  28.916  1.00  0.00     0.049 A 
ATOM     38  N   UNL A   1      42.210  28.058  31.470  1.00  0.00    -0.248 NA
ATOM     39  C   UNL A   1      43.581  26.506  30.391  1.00  0.00     0.031 C 
ATOM     40  C   UNL A   1      39.859  28.539  27.695  1.00  0.00     0.029 A 
ATOM     41  N   UNL A   1      40.020  29.131  29.848  1.00  0.00    -0.354 N 
ATOM     42  C   UNL A   1      43.183  27.609  32.354  1.00  0.00     0.074 A 
ATOM     43  C   UNL A   1      43.972  26.622  31.650  1.00  0.00     0.031 C 
ATOM     44  C   UNL A   1      38.876  29.421  27.949  1.00  0.00     0.029 A 
ATOM     45  C   UNL A   1      38.946  29.829  29.352  1.00  0.00     0.049 A 
ATOM     46  H   UNL A   1      40.320  29.198  30.783  1.00  0.00     0.167 HD
ATOM     47  C   UNL A   1      43.414  27.995  33.631  1.00  0.00     0.037 A 
ATOM     48  C   UNL A   1      38.119  30.701  29.960  1.00  0.00     0.037 A 
ATOM     49  C   UNL A   1      42.628  28.972  34.337  1.00  0.00     0.049 A 
ATOM     50  C   UNL A   1      38.353  31.061  31.405  1.00  0.00     0.074 A 
ATOM     51  C   UNL A   1      42.796  29.446  35.627  1.00  0.00     0.029 A 
ATOM     52  N   UNL A   1      41.514  29.614  33.817  1.00  0.00    -0.354 N 
ATOM     53  N   UNL A   1      39.310  30.673  32.214  1.00  0.00    -0.248 NA
ATOM     54  C   UNL A   1      37.392  31.990  32.018  1.00  0.00     0.031 C 
ATOM     55  C   UNL A   1      41.751  30.335  35.905  1.00  0.00     0.029 A 
ATOM     56  C   UNL A   1      40.966  30.456  34.770  1.00  0.00     0.049 A 
ATOM     57  H   UNL A   1      41.166  29.489  32.905  1.00  0.00     0.167 HD
ATOM     58  C   UNL A   1      39.090  31.339  33.414  1.00  0.00     0.074 A 
ATOM     59  C   UNL A   1      37.913  32.163  33.225  1.00  0.00     0.031 C 
ATOM     60  C   UNL A   1      39.800  31.278  34.568  1.00  0.00     0.037 A 
BRANCH  47  61
ATOM     61  C   UNL A   1      44.554  27.336  34.353  1.00  0.00     0.057 A 
ATOM     62  C   UNL A   1      45.848  27.876  34.343  1.00  0.00     0.134 A 
ATOM     63  C   UNL A   1      44.353  26.153  35.075  1.00  0.00     0.134 A 
ATOM     64  F   UNL A   1      46.111  28.998  33.657  1.00  0.00    -0.206 F 
ATOM     65  C   UNL A   1      46.906  27.247  35.002  1.00  0.00     0.040 A 
ATOM     66  C   UNL A   1      45.397  25.530  35.760  1.00  0.00     0.040 A 
ATOM     67  F   UNL A   1      43.139  25.585  35.129  1.00  0.00    -0.206 F 
ATOM     68  C   UNL A   1      46.680  26.073  35.717  1.00  0.00     0.006 A 
ENDBRANCH  47  61
BRANCH  48  69
ATOM     69  C   UNL A   1      36.998  31.318  29.206  1.00  0.00     0.057 A 
ATOM     70  C   UNL A   1      35.837  30.595  28.913  1.00  0.00     0.134 A 
ATOM     71  C   UNL A   1      37.076  32.633  28.732  1.00  0.00     0.134 A 
ATOM     72  F   UNL A   1      35.713  29.323  29.319  1.00  0.00    -0.206 F 
ATOM     73  C   UNL A   1      34.802  31.147  28.155  1.00  0.00     0.040 A 
ATOM     74  C   UNL A   1      36.039  33.206  27.995  1.00  0.00     0.040 A 
ATOM     75  F   UNL A   1      38.163  33.379  28.979  1.00  0.00    -0.206 F 
ATOM     76  C   UNL A   1      34.901  32.460  27.698  1.00  0.00     0.006 A 
ENDBRANCH  48  69
BRANCH  60  77
ATOM     77  C   UNL A   1      39.352  32.155  35.702  1.00  0.00     0.057 A 
ATOM     78  C   UNL A   1      38.451  31.709  36.677  1.00  0.00     0.134 A 
ATOM     79  C   UNL A   1      39.857  33.455  35.839  1.00  0.00     0.134 A 
ATOM     80  F   UNL A   1      37.921  30.479  36.601  1.00  0.00    -0.206 F 
ATOM     81  C   UNL A   1      38.047  32.532  37.731  1.00  0.00     0.040 A 
ATOM     82  C   UNL A   1      39.483  34.277  36.902  1.00  0.00     0.040 A 
ATOM     83  F   UNL A   1      40.733  33.944  34.946  1.00  0.00    -0.206 F 
ATOM     84  C   UNL A   1      38.569  33.819  37.848  1.00  0.00     0.006 A 
ENDBRANCH  60  77
ENDBRANCH  34  35
ENDBRANCH  27  29
ENDBRANCH  26  27
ENDBRANCH  25  26
ENDBRANCH  24  25
ENDBRANCH   1  24
TORSDOF 16
ENDMDL
MODEL 2
REMARK VINA RESULT:     -11.6      5.279     11.258
REMARK SMILES O=C(CCc1ccc(S(=O)(=O)Nc2cccc(I)c2)cc1)OCCOC(=O)c1ccc(-c2c3nc(c(-c4c(F)cccc4F)c4ccc([nH]4)c(-c4c(F)cccc4F)c4nc(c(-c5c(F)cccc5F)c5ccc2[nH]5)C=C4)C=C3)cc1
REMARK SMILES IDX 22 1 2 2 1 3 3 4 4 5 5 6 6 7 21 8 7 9 20 10 8 11 9 12 10 13
REMARK SMILES IDX 11 14 12 15 13 17 14 18 19 19 15 20 17 21 16 22 18 23 23 24
REMARK SMILES IDX 24 25 25 26 26 27 27 28 28 29 29 30 81 31 30 32 80 33 31 34
REMARK SMILES IDX 32 35 33 36 74 37 34 38 79 39 73 40 75 41 35 42 78 43 72 44
REMARK SMILES IDX 71 45 36 47 62 48 45 49 61 50 46 51 49 52 60 53 76 54 47 55
REMARK SMILES IDX 48 56 59 58 77 59 50 60 37 61 38 62 43 63 39 64 40 65 42 66
REMARK SMILES IDX 44 67 41 68 63 69 64 70 69 71 65 72 66 73 68 74 70 75 67 76
REMARK SMILES IDX 51 77 52 78 57 79 53 80 54 81 56 82 58 83 55 84
REMARK H PARENT 12 16 75 46 49 57
REMARK Flexibility Score: inf
ROOT
ATOM      1  O   UNL A   1      33.161  34.869  31.283  1.00  0.00    -0.462 OA
ENDROOT
BRANCH   1   2
ATOM      2  C   UNL A   1      32.935  35.987  30.543  1.00  0.00     0.306 C 
ATOM      3  O   UNL A   1      32.562  37.032  31.068  1.00  0.00    -0.252 OA
BRANCH   2   4
ATOM      4  C   UNL A   1      32.965  35.820  29.039  1.00  0.00     0.127 C 
BRANCH   4   5
ATOM      5  C   UNL A   1      34.174  35.037  28.524  1.00  0.00     0.047 C 
BRANCH   5   6
ATOM      6  C   UNL A   1      33.868  33.586  28.225  1.00  0.00    -0.047 A 
ATOM      7  C   UNL A   1      32.632  33.223  27.673  1.00  0.00     0.005 A 
ATOM      8  C   UNL A   1      34.818  32.584  28.468  1.00  0.00     0.005 A 
ATOM      9  C   UNL A   1      32.404  31.911  27.243  1.00  0.00     0.022 A 
ATOM     10  C   UNL A   1      34.596  31.275  28.037  1.00  0.00     0.022 A 
ATOM     11  C   UNL A   1      33.415  30.954  27.367  1.00  0.00     0.087 A 
BRANCH  11  12
ATOM     12  S   UNL A   1      33.161  29.297  26.758  1.00  0.00     0.261 S 
ATOM     13  O   UNL A   1      34.433  28.611  26.800  1.00  0.00    -0.201 OA
ATOM     14  O   UNL A   1      32.003  28.762  27.445  1.00  0.00    -0.201 OA
BRANCH  12  15
ATOM     15  N   UNL A   1      32.665  29.494  25.168  1.00  0.00    -0.280 N 
ATOM     16  H   UNL A   1      33.215  30.088  24.606  1.00  0.00     0.180 HD
BRANCH  15  17
ATOM     17  C   UNL A   1      31.535  28.898  24.541  1.00  0.00     0.050 A 
ATOM     18  C   UNL A   1      31.390  27.510  24.663  1.00  0.00     0.027 A 
ATOM     19  C   UNL A   1      30.606  29.602  23.776  1.00  0.00     0.041 A 
ATOM     20  C   UNL A   1      30.296  26.850  24.093  1.00  0.00     0.003 A 
ATOM     21  C   UNL A   1      29.491  28.949  23.243  1.00  0.00     0.015 A 
ATOM     22  C   UNL A   1      29.330  27.574  23.400  1.00  0.00     0.015 A 
ATOM     23  I   UNL A   1      28.025  30.054  22.264  1.00  0.00    -0.044 I 
ENDBRANCH  15  17
ENDBRANCH  12  15
ENDBRANCH  11  12
ENDBRANCH   5   6
ENDBRANCH   4   5
ENDBRANCH   2   4
ENDBRANCH   1   2
BRANCH   1  24
ATOM     24  C   UNL A   1      34.185  34.900  32.292  1.00  0.00     0.274 C 
BRANCH  24  25
ATOM     25  C   UNL A   1      34.242  33.630  33.148  1.00  0.00     0.275 C 
BRANCH  25  26
ATOM     26  O   UNL A   1      35.038  32.606  32.540  1.00  0.00    -0.458 OA
BRANCH  26  27
ATOM     27  C   UNL A   1      36.163  32.311  33.237  1.00  0.00     0.338 C 
ATOM     28  O   UNL A   1      36.360  32.505  34.425  1.00  0.00    -0.246 OA
BRANCH  27  29
ATOM     29  C   UNL A   1      37.078  31.529  32.386  1.00  0.00     0.060 A 
ATOM     30  C   UNL A   1      38.249  31.047  32.982  1.00  0.00     0.016 A 
ATOM     31  C   UNL A   1      36.821  31.292  31.032  1.00  0.00     0.016 A 
ATOM     32  C   UNL A   1      39.203  30.392  32.209  1.00  0.00     0.010 A 
ATOM     33  C   UNL A   1      37.780  30.628  30.258  1.00  0.00     0.010 A 
ATOM     34  C   UNL A   1      38.996  30.220  30.833  1.00  0.00    -0.014 A 
BRANCH  34  35
ATOM     35  C   UNL A   1      40.137  29.780  29.992  1.00  0.00     0.031 A 
ATOM     36  C   UNL A   1      41.279  30.733  29.761  1.00  0.00     0.074 A 
ATOM     37  C   UNL A   1      40.200  28.526  29.512  1.00  0.00     0.049 A 
ATOM     38  N   UNL A   1      42.423  30.529  29.159  1.00  0.00    -0.248 NA
ATOM     39  C   UNL A   1      41.108  32.099  30.281  1.00  0.00     0.031 C 
ATOM     40  C   UNL A   1      39.175  27.499  29.688  1.00  0.00     0.029 A 
ATOM     41  N   UNL A   1      41.185  27.900  28.789  1.00  0.00    -0.354 N 
ATOM     42  C   UNL A   1      43.111  31.733  29.240  1.00  0.00     0.074 A 
ATOM     43  C   UNL A   1      42.237  32.677  29.901  1.00  0.00     0.031 C 
ATOM     44  C   UNL A   1      39.591  26.364  29.101  1.00  0.00     0.029 A 
ATOM     45  C   UNL A   1      40.904  26.588  28.496  1.00  0.00     0.049 A 
ATOM     46  H   UNL A   1      42.015  28.348  28.508  1.00  0.00     0.167 HD
ATOM     47  C   UNL A   1      44.365  32.024  28.821  1.00  0.00     0.037 A 
ATOM     48  C   UNL A   1      41.628  25.672  27.823  1.00  0.00     0.037 A 
ATOM     49  C   UNL A   1      45.236  31.090  28.158  1.00  0.00     0.049 A 
ATOM     50  C   UNL A   1      42.992  26.043  27.302  1.00  0.00     0.074 A 
ATOM     51  C   UNL A   1      46.533  31.284  27.714  1.00  0.00     0.029 A 
ATOM     52  N   UNL A   1      44.891  29.787  27.830  1.00  0.00    -0.354 N 
ATOM     53  N   UNL A   1      43.656  27.167  27.434  1.00  0.00    -0.248 NA
ATOM     54  C   UNL A   1      43.713  25.009  26.544  1.00  0.00     0.031 C 
ATOM     55  C   UNL A   1      46.953  30.116  27.068  1.00  0.00     0.029 A 
ATOM     56  C   UNL A   1      45.938  29.176  27.161  1.00  0.00     0.049 A 
ATOM     57  H   UNL A   1      44.030  29.361  28.042  1.00  0.00     0.167 HD
ATOM     58  C   UNL A   1      44.882  26.962  26.812  1.00  0.00     0.074 A 
ATOM     59  C   UNL A   1      44.875  25.603  26.311  1.00  0.00     0.031 C 
ATOM     60  C   UNL A   1      45.924  27.820  26.673  1.00  0.00     0.037 A 
BRANCH  47  61
ATOM     61  C   UNL A   1      44.858  33.424  29.049  1.00  0.00     0.057 A 
ATOM     62  C   UNL A   1      44.681  34.437  28.097  1.00  0.00     0.134 A 
ATOM     63  C   UNL A   1      45.509  33.765  30.242  1.00  0.00     0.134 A 
ATOM     64  F   UNL A   1      44.080  34.172  26.927  1.00  0.00    -0.206 F 
ATOM     65  C   UNL A   1      45.159  35.731  28.311  1.00  0.00     0.040 A 
ATOM     66  C   UNL A   1      45.967  35.061  30.478  1.00  0.00     0.040 A 
ATOM     67  F   UNL A   1      45.708  32.844  31.197  1.00  0.00    -0.206 F 
ATOM     68  C   UNL A   1      45.800  36.047  29.507  1.00  0.00     0.006 A 
ENDBRANCH  47  61
BRANCH  48  69
ATOM     69  C   UNL A   1      41.092  24.303  27.613  1.00  0.00     0.057 A 
ATOM     70  C   UNL A   1      41.598  23.209  28.325  1.00  0.00     0.134 A 
ATOM     71  C   UNL A   1      40.087  24.051  26.673  1.00  0.00     0.134 A 
ATOM     72  F   UNL A   1      42.579  23.383  29.223  1.00  0.00    -0.206 F 
ATOM     73  C   UNL A   1      41.141  21.910  28.093  1.00  0.00     0.040 A 
ATOM     74  C   UNL A   1      39.603  22.762  26.448  1.00  0.00     0.040 A 
ATOM     75  F   UNL A   1      39.560  25.056  25.958  1.00  0.00    -0.206 F 
ATOM     76  C   UNL A   1      40.136  21.686  27.154  1.00  0.00     0.006 A 
ENDBRANCH  48  69
BRANCH  60  77
ATOM     77  C   UNL A   1      47.157  27.304  25.988  1.00  0.00     0.057 A 
ATOM     78  C   UNL A   1      47.362  27.454  24.611  1.00  0.00     0.134 A 
ATOM     79  C   UNL A   1      48.171  26.678  26.726  1.00  0.00     0.134 A 
ATOM     80  F   UNL A   1      46.427  28.036  23.844  1.00  0.00    -0.206 F 
ATOM     81  C   UNL A   1      48.517  26.976  23.988  1.00  0.00     0.040 A 
ATOM     82  C   UNL A   1      49.341  26.221  26.119  1.00  0.00     0.040 A 
ATOM     83  F   UNL A   1      48.045  26.510  28.052  1.00  0.00    -0.206 F 
ATOM     84  C   UNL A   1      49.513  26.363  24.744  1.00  0.00     0.006 A 
ENDBRANCH  60  77
ENDBRANCH  34  35
ENDBRANCH  27  29
ENDBRANCH  26  27
ENDBRANCH  25  26
ENDBRANCH  24  25
ENDBRANCH   1  24
TORSDOF 16
ENDMDL
MODEL 3
REMARK VINA RESULT:     -11.4      5.013     10.678
REMARK SMILES O=C(CCc1ccc(S(=O)(=O)Nc2cccc(I)c2)cc1)OCCOC(=O)c1ccc(-c2c3nc(c(-c4c(F)cccc4F)c4ccc([nH]4)c(-c4c(F)cccc4F)c4nc(c(-c5c(F)cccc5F)c5ccc2[nH]5)C=C4)C=C3)cc1
REMARK SMILES IDX 22 1 2 2 1 3 3 4 4 5 5 6 6 7 21 8 7 9 20 10 8 11 9 12 10 13
REMARK SMILES IDX 11 14 12 15 13 17 14 18 19 19 15 20 17 21 16 22 18 23 23 24
REMARK SMILES IDX 24 25 25 26 26 27 27 28 28 29 29 30 81 31 30 32 80 33 31 34
REMARK SMILES IDX 32 35 33 36 74 37 34 38 79 39 73 40 75 41 35 42 78 43 72 44
REMARK SMILES IDX 71 45 36 47 62 48 45 49 61 50 46 51 49 52 60 53 76 54 47 55
REMARK SMILES IDX 48 56 59 58 77 59 50 60 37 61 38 62 43 63 39 64 40 65 42 66
REMARK SMILES IDX 44 67 41 68 63 69 64 70 69 71 65 72 66 73 68 74 70 75 67 76
REMARK SMILES IDX 51 77 52 78 57 79 53 80 54 81 56 82 58 83 55 84
REMARK H PARENT 12 16 75 46 49 57
REMARK Flexibility Score: inf
ROOT
ATOM      1  O   UNL A   1      34.704  34.119  30.638  1.00  0.00    -0.462 OA
ENDROOT
BRANCH   1   2
ATOM      2  C   UNL A   1      33.707  34.330  29.738  1.00  0.00     0.306 C 
ATOM      3  O   UNL A   1      32.691  34.945  30.046  1.00  0.00    -0.252 OA
BRANCH   2   4
ATOM      4  C   UNL A   1      33.823  33.597  28.418  1.00  0.00     0.127 C 
BRANCH   4   5
ATOM      5  C   UNL A   1      34.716  32.356  28.472  1.00  0.00     0.047 C 
BRANCH   5   6
ATOM      6  C   UNL A   1      34.124  31.158  27.764  1.00  0.00    -0.047 A 
ATOM      7  C   UNL A   1      32.821  31.212  27.250  1.00  0.00     0.005 A 
ATOM      8  C   UNL A   1      34.871  29.984  27.584  1.00  0.00     0.005 A 
ATOM      9  C   UNL A   1      32.327  30.173  26.454  1.00  0.00     0.022 A 
ATOM     10  C   UNL A   1      34.383  28.948  26.787  1.00  0.00     0.022 A 
ATOM     11  C   UNL A   1      33.137  29.070  26.170  1.00  0.00     0.087 A 
BRANCH  11  12
ATOM     12  S   UNL A   1      32.545  27.773  25.099  1.00  0.00     0.261 S 
ATOM     13  O   UNL A   1      31.100  27.795  25.136  1.00  0.00    -0.201 OA
ATOM     14  O   UNL A   1      33.261  27.894  23.845  1.00  0.00    -0.201 OA
BRANCH  12  15
ATOM     15  N   UNL A   1      33.117  26.354  25.786  1.00  0.00    -0.280 N 
ATOM     16  H   UNL A   1      33.320  26.382  26.749  1.00  0.00     0.180 HD
BRANCH  15  17
ATOM     17  C   UNL A   1      33.342  25.112  25.127  1.00  0.00     0.050 A 
ATOM     18  C   UNL A   1      32.218  24.418  24.661  1.00  0.00     0.027 A 
ATOM     19  C   UNL A   1      34.600  24.530  24.972  1.00  0.00     0.041 A 
ATOM     20  C   UNL A   1      32.357  23.200  23.987  1.00  0.00     0.003 A 
ATOM     21  C   UNL A   1      34.741  23.335  24.260  1.00  0.00     0.015 A 
ATOM     22  C   UNL A   1      33.623  22.666  23.764  1.00  0.00     0.015 A 
ATOM     23  I   UNL A   1      36.643  22.583  23.883  1.00  0.00    -0.044 I 
ENDBRANCH  15  17
ENDBRANCH  12  15
ENDBRANCH  11  12
ENDBRANCH   5   6
ENDBRANCH   4   5
ENDBRANCH   2   4
ENDBRANCH   1   2
BRANCH   1  24
ATOM     24  C   UNL A   1      34.553  34.634  31.973  1.00  0.00     0.274 C 
BRANCH  24  25
ATOM     25  C   UNL A   1      34.362  33.544  33.033  1.00  0.00     0.275 C 
BRANCH  25  26
ATOM     26  O   UNL A   1      35.035  32.329  32.685  1.00  0.00    -0.458 OA
BRANCH  26  27
ATOM     27  C   UNL A   1      36.253  32.201  33.266  1.00  0.00     0.338 C 
ATOM     28  O   UNL A   1      36.557  32.513  34.406  1.00  0.00    -0.246 OA
BRANCH  27  29
ATOM     29  C   UNL A   1      37.147  31.438  32.375  1.00  0.00     0.060 A 
ATOM     30  C   UNL A   1      38.253  30.814  32.963  1.00  0.00     0.016 A 
ATOM     31  C   UNL A   1      36.933  31.353  30.996  1.00  0.00     0.016 A 
ATOM     32  C   UNL A   1      39.191  30.167  32.163  1.00  0.00     0.010 A 
ATOM     33  C   UNL A   1      37.875  30.698  30.195  1.00  0.00     0.010 A 
ATOM     34  C   UNL A   1      39.032  30.145  30.770  1.00  0.00    -0.014 A 
BRANCH  34  35
ATOM     35  C   UNL A   1      40.174  29.704  29.931  1.00  0.00     0.031 A 
ATOM     36  C   UNL A   1      41.304  30.666  29.679  1.00  0.00     0.074 A 
ATOM     37  C   UNL A   1      40.249  28.443  29.471  1.00  0.00     0.049 A 
ATOM     38  N   UNL A   1      42.448  30.464  29.076  1.00  0.00    -0.248 NA
ATOM     39  C   UNL A   1      41.121  32.038  30.178  1.00  0.00     0.031 C 
ATOM     40  C   UNL A   1      39.235  27.408  29.668  1.00  0.00     0.029 A 
ATOM     41  N   UNL A   1      41.238  27.816  28.754  1.00  0.00    -0.354 N 
ATOM     42  C   UNL A   1      43.123  31.677  29.134  1.00  0.00     0.074 A 
ATOM     43  C   UNL A   1      42.241  32.621  29.784  1.00  0.00     0.031 C 
ATOM     44  C   UNL A   1      39.662  26.268  29.098  1.00  0.00     0.029 A 
ATOM     45  C   UNL A   1      40.970  26.497  28.483  1.00  0.00     0.049 A 
ATOM     46  H   UNL A   1      42.061  28.269  28.462  1.00  0.00     0.167 HD
ATOM     47  C   UNL A   1      44.372  31.975  28.704  1.00  0.00     0.037 A 
ATOM     48  C   UNL A   1      41.700  25.578  27.821  1.00  0.00     0.037 A 
ATOM     49  C   UNL A   1      45.250  31.040  28.053  1.00  0.00     0.049 A 
ATOM     50  C   UNL A   1      43.059  25.955  27.288  1.00  0.00     0.074 A 
ATOM     51  C   UNL A   1      46.543  31.241  27.600  1.00  0.00     0.029 A 
ATOM     52  N   UNL A   1      44.919  29.728  27.747  1.00  0.00    -0.354 N 
ATOM     53  N   UNL A   1      43.710  27.088  27.399  1.00  0.00    -0.248 NA
ATOM     54  C   UNL A   1      43.787  24.917  26.544  1.00  0.00     0.031 C 
ATOM     55  C   UNL A   1      46.973  30.067  26.971  1.00  0.00     0.029 A 
ATOM     56  C   UNL A   1      45.969  29.117  27.083  1.00  0.00     0.049 A 
ATOM     57  H   UNL A   1      44.063  29.296  27.970  1.00  0.00     0.167 HD
ATOM     58  C   UNL A   1      44.936  26.887  26.775  1.00  0.00     0.074 A 
ATOM     59  C   UNL A   1      44.941  25.520  26.296  1.00  0.00     0.031 C 
ATOM     60  C   UNL A   1      45.967  27.754  26.618  1.00  0.00     0.037 A 
BRANCH  47  61
ATOM     61  C   UNL A   1      44.851  33.384  28.908  1.00  0.00     0.057 A 
ATOM     62  C   UNL A   1      44.604  34.393  27.968  1.00  0.00     0.134 A 
ATOM     63  C   UNL A   1      45.559  33.736  30.064  1.00  0.00     0.134 A 
ATOM     64  F   UNL A   1      43.945  34.118  26.833  1.00  0.00    -0.206 F 
ATOM     65  C   UNL A   1      45.069  35.697  28.158  1.00  0.00     0.040 A 
ATOM     66  C   UNL A   1      46.004  35.041  30.277  1.00  0.00     0.040 A 
ATOM     67  F   UNL A   1      45.826  32.819  31.006  1.00  0.00    -0.206 F 
ATOM     68  C   UNL A   1      45.767  36.023  29.318  1.00  0.00     0.006 A 
ENDBRANCH  47  61
BRANCH  48  69
ATOM     69  C   UNL A   1      41.179  24.200  27.636  1.00  0.00     0.057 A 
ATOM     70  C   UNL A   1      41.686  23.127  28.377  1.00  0.00     0.134 A 
ATOM     71  C   UNL A   1      40.186  23.918  26.691  1.00  0.00     0.134 A 
ATOM     72  F   UNL A   1      42.656  23.329  29.282  1.00  0.00    -0.206 F 
ATOM     73  C   UNL A   1      41.243  21.819  28.170  1.00  0.00     0.040 A 
ATOM     74  C   UNL A   1      39.716  22.620  26.490  1.00  0.00     0.040 A 
ATOM     75  F   UNL A   1      39.659  24.903  25.948  1.00  0.00    -0.206 F 
ATOM     76  C   UNL A   1      40.250  21.565  27.225  1.00  0.00     0.006 A 
ENDBRANCH  48  69
BRANCH  60  77
ATOM     77  C   UNL A   1      47.203  27.241  25.936  1.00  0.00     0.057 A 
ATOM     78  C   UNL A   1      47.393  27.355  24.553  1.00  0.00     0.134 A 
ATOM     79  C   UNL A   1      48.235  26.653  26.681  1.00  0.00     0.134 A 
ATOM     80  F   UNL A   1      46.441  27.898  23.779  1.00  0.00    -0.206 F 
ATOM     81  C   UNL A   1      48.550  26.880  23.932  1.00  0.00     0.040 A 
ATOM     82  C   UNL A   1      49.408  26.200  26.076  1.00  0.00     0.040 A 
ATOM     83  F   UNL A   1      48.125  26.521  28.012  1.00  0.00    -0.206 F 
ATOM     84  C   UNL A   1      49.564  26.306  24.696  1.00  0.00     0.006 A 
ENDBRANCH  60  77
ENDBRANCH  34  35
ENDBRANCH  27  29
ENDBRANCH  26  27
ENDBRANCH  25  26
ENDBRANCH  24  25
ENDBRANCH   1  24
TORSDOF 16
ENDMDL
