MODEL 1
REMARK VINA RESULT:     -11.4      0.000      0.000
REMARK SMILES Cc1c(CC(=O)OCCOC(=O)c2ccc(-c3c4nc(c(-c5c(F)cccc5F)c5ccc([nH]5)c(-c5c(F)cccc5F)c5nc(c(-c6c(F)cccc6F)c6ccc3[nH]6)C=C5)C=C4)cc2)cc(-c2ccc(S(C)(=O)=O)cc2)n1-c1ccccc1
REMARK SMILES IDX 8 1 7 2 5 3 6 4 4 5 3 6 1 7 2 8 79 9 67 10 68 11 80 12 81 13
REMARK SMILES IDX 85 14 82 15 84 16 83 17 69 18 70 19 78 20 71 21 77 22 72 23
REMARK SMILES IDX 73 24 74 25 75 26 76 27 9 28 10 29 11 30 12 31 13 32 14 33
REMARK SMILES IDX 66 34 15 35 65 36 16 37 17 38 18 39 59 40 19 41 64 42 58 43
REMARK SMILES IDX 60 44 20 45 63 46 57 47 56 48 21 50 47 51 30 52 46 53 31 54
REMARK SMILES IDX 34 55 45 56 61 57 32 58 33 59 44 61 62 62 35 63 22 64 23 65
REMARK SMILES IDX 28 66 24 67 25 68 27 69 29 70 26 71 48 72 49 73 54 74 50 75
REMARK SMILES IDX 51 76 53 77 55 78 52 79 36 80 37 81 42 82 38 83 39 84 41 85
REMARK SMILES IDX 43 86 40 87
REMARK H PARENT 60 49 34 60
REMARK Flexibility Score: inf
ROOT
ATOM      1  C   UNL A   1      33.813  33.669  27.999  1.00  0.00     0.274 C 
ENDROOT
BRANCH   1   2
ATOM      2  O   UNL A   1      35.091  33.086  27.611  1.00  0.00    -0.462 OA
BRANCH   2   3
ATOM      3  C   UNL A   1      35.323  31.791  27.969  1.00  0.00     0.310 C 
ATOM      4  O   UNL A   1      36.451  31.330  28.136  1.00  0.00    -0.252 OA
BRANCH   3   5
ATOM      5  C   UNL A   1      34.080  30.951  28.244  1.00  0.00     0.160 C 
BRANCH   5   6
ATOM      6  C   UNL A   1      33.635  29.935  27.220  1.00  0.00    -0.015 A 
ATOM      7  C   UNL A   1      31.568  31.140  26.218  1.00  0.00     0.065 C 
ATOM      8  C   UNL A   1      32.564  30.032  26.345  1.00  0.00     0.024 A 
ATOM      9  N   UNL A   1      32.473  28.853  25.614  1.00  0.00    -0.314 N 
ATOM     10  C   UNL A   1      34.123  28.597  27.092  1.00  0.00     0.033 A 
ATOM     11  C   UNL A   1      33.370  27.925  26.138  1.00  0.00     0.053 A 
BRANCH   9  12
ATOM     12  C   UNL A   1      31.589  28.637  24.527  1.00  0.00     0.046 A 
ATOM     13  C   UNL A   1      31.843  29.229  23.285  1.00  0.00     0.026 A 
ATOM     14  C   UNL A   1      30.441  27.864  24.732  1.00  0.00     0.026 A 
ATOM     15  C   UNL A   1      30.935  29.047  22.243  1.00  0.00     0.002 A 
ATOM     16  C   UNL A   1      29.528  27.708  23.691  1.00  0.00     0.002 A 
ATOM     17  C   UNL A   1      29.775  28.296  22.450  1.00  0.00     0.000 A 
ENDBRANCH   9  12
BRANCH  11  18
ATOM     18  C   UNL A   1      33.489  26.531  25.683  1.00  0.00    -0.001 A 
ATOM     19  C   UNL A   1      34.138  26.214  24.479  1.00  0.00     0.011 A 
ATOM     20  C   UNL A   1      32.897  25.498  26.424  1.00  0.00     0.011 A 
ATOM     21  C   UNL A   1      34.163  24.899  24.003  1.00  0.00     0.021 A 
ATOM     22  C   UNL A   1      32.915  24.179  25.953  1.00  0.00     0.021 A 
ATOM     23  C   UNL A   1      33.536  23.890  24.735  1.00  0.00     0.067 A 
BRANCH  23  24
ATOM     24  S   UNL A   1      33.570  22.217  24.130  1.00  0.00     0.175 S 
ATOM     25  C   UNL A   1      32.417  21.347  25.160  1.00  0.00     0.163 C 
ATOM     26  O   UNL A   1      33.030  22.250  22.778  1.00  0.00    -0.224 OA
ATOM     27  O   UNL A   1      34.883  21.674  24.393  1.00  0.00    -0.224 OA
ENDBRANCH  23  24
ENDBRANCH  11  18
ENDBRANCH   5   6
ENDBRANCH   3   5
ENDBRANCH   2   3
ENDBRANCH   1   2
BRANCH   1  28
ATOM     28  C   UNL A   1      33.938  34.470  29.329  1.00  0.00     0.275 C 
BRANCH  28  29
ATOM     29  O   UNL A   1      33.941  33.756  30.627  1.00  0.00    -0.458 OA
BRANCH  29  30
ATOM     30  C   UNL A   1      35.000  33.942  31.474  1.00  0.00     0.338 C 
ATOM     31  O   UNL A   1      35.140  34.961  32.137  1.00  0.00    -0.246 OA
BRANCH  30  32
ATOM     32  C   UNL A   1      35.990  32.759  31.597  1.00  0.00     0.060 A 
ATOM     33  C   UNL A   1      37.302  32.971  31.197  1.00  0.00     0.016 A 
ATOM     34  C   UNL A   1      35.694  31.408  31.894  1.00  0.00     0.016 A 
ATOM     35  C   UNL A   1      38.261  31.899  31.143  1.00  0.00     0.010 A 
ATOM     36  C   UNL A   1      36.674  30.294  31.755  1.00  0.00     0.010 A 
ATOM     37  C   UNL A   1      38.012  30.490  31.362  1.00  0.00    -0.014 A 
BRANCH  37  38
ATOM     38  C   UNL A   1      39.159  29.432  30.787  1.00  0.00     0.031 A 
ATOM     39  C   UNL A   1      40.167  29.447  31.887  1.00  0.00     0.074 A 
ATOM     40  C   UNL A   1      39.634  28.689  29.686  1.00  0.00     0.049 A 
ATOM     41  N   UNL A   1      40.695  30.585  32.245  1.00  0.00    -0.248 NA
ATOM     42  C   UNL A   1      40.337  28.359  32.851  1.00  0.00     0.031 C 
ATOM     43  C   UNL A   1      39.140  28.689  28.297  1.00  0.00     0.029 A 
ATOM     44  N   UNL A   1      40.715  27.728  29.530  1.00  0.00    -0.354 N 
ATOM     45  C   UNL A   1      41.530  30.294  33.291  1.00  0.00     0.074 A 
ATOM     46  C   UNL A   1      41.080  28.994  33.765  1.00  0.00     0.031 C 
ATOM     47  C   UNL A   1      39.758  27.746  27.521  1.00  0.00     0.029 A 
ATOM     48  C   UNL A   1      40.787  27.013  28.264  1.00  0.00     0.049 A 
ATOM     49  H   UNL A   1      41.369  27.569  30.247  1.00  0.00     0.167 HD
ATOM     50  C   UNL A   1      42.804  30.763  33.162  1.00  0.00     0.037 A 
ATOM     51  C   UNL A   1      41.633  25.994  27.794  1.00  0.00     0.037 A 
ATOM     52  C   UNL A   1      43.730  29.720  32.826  1.00  0.00     0.049 A 
ATOM     53  C   UNL A   1      42.898  26.137  28.517  1.00  0.00     0.074 A 
ATOM     54  C   UNL A   1      43.910  28.433  33.291  1.00  0.00     0.029 A 
ATOM     55  N   UNL A   1      44.330  29.785  31.589  1.00  0.00    -0.354 N 
ATOM     56  N   UNL A   1      43.761  27.027  28.140  1.00  0.00    -0.248 NA
ATOM     57  C   UNL A   1      43.363  25.214  29.544  1.00  0.00     0.031 C 
ATOM     58  C   UNL A   1      44.191  27.662  32.145  1.00  0.00     0.029 A 
ATOM     59  C   UNL A   1      44.511  28.513  31.095  1.00  0.00     0.049 A 
ATOM     60  H   UNL A   1      44.590  30.615  31.127  1.00  0.00     0.167 HD
ATOM     61  C   UNL A   1      44.617  27.110  29.182  1.00  0.00     0.074 A 
ATOM     62  C   UNL A   1      44.507  25.831  29.861  1.00  0.00     0.031 C 
ATOM     63  C   UNL A   1      44.755  28.358  29.683  1.00  0.00     0.037 A 
BRANCH  50  64
ATOM     64  C   UNL A   1      42.853  32.172  32.638  1.00  0.00     0.057 A 
ATOM     65  C   UNL A   1      43.006  33.226  33.539  1.00  0.00     0.134 A 
ATOM     66  C   UNL A   1      42.535  32.509  31.308  1.00  0.00     0.134 A 
ATOM     67  F   UNL A   1      43.347  32.981  34.814  1.00  0.00    -0.206 F 
ATOM     68  C   UNL A   1      42.783  34.552  33.156  1.00  0.00     0.040 A 
ATOM     69  C   UNL A   1      42.257  33.821  30.926  1.00  0.00     0.040 A 
ATOM     70  F   UNL A   1      42.444  31.559  30.362  1.00  0.00    -0.206 F 
ATOM     71  C   UNL A   1      42.370  34.848  31.858  1.00  0.00     0.006 A 
ENDBRANCH  50  64
BRANCH  51  72
ATOM     72  C   UNL A   1      41.883  24.937  26.649  1.00  0.00     0.057 A 
ATOM     73  C   UNL A   1      42.746  25.214  25.523  1.00  0.00     0.134 A 
ATOM     74  C   UNL A   1      41.655  23.566  26.809  1.00  0.00     0.134 A 
ATOM     75  F   UNL A   1      43.051  26.463  25.147  1.00  0.00    -0.206 F 
ATOM     76  C   UNL A   1      43.403  24.241  24.738  1.00  0.00     0.040 A 
ATOM     77  C   UNL A   1      42.284  22.574  25.994  1.00  0.00     0.040 A 
ATOM     78  F   UNL A   1      40.880  23.126  27.806  1.00  0.00    -0.206 F 
ATOM     79  C   UNL A   1      43.189  22.904  24.986  1.00  0.00     0.006 A 
ENDBRANCH  51  72
BRANCH  63  80
ATOM     80  C   UNL A   1      44.951  29.487  28.677  1.00  0.00     0.057 A 
ATOM     81  C   UNL A   1      43.965  30.144  27.899  1.00  0.00     0.134 A 
ATOM     82  C   UNL A   1      46.271  29.877  28.411  1.00  0.00     0.134 A 
ATOM     83  F   UNL A   1      42.649  30.007  28.118  1.00  0.00    -0.206 F 
ATOM     84  C   UNL A   1      44.291  31.023  26.856  1.00  0.00     0.040 A 
ATOM     85  C   UNL A   1      46.602  30.804  27.417  1.00  0.00     0.040 A 
ATOM     86  F   UNL A   1      47.282  29.358  29.125  1.00  0.00    -0.206 F 
ATOM     87  C   UNL A   1      45.614  31.355  26.611  1.00  0.00     0.006 A 
ENDBRANCH  63  80
ENDBRANCH  37  38
ENDBRANCH  30  32
ENDBRANCH  29  30
ENDBRANCH  28  29
ENDBRANCH   1  28
TORSDOF 15
ENDMDL
MODEL 2
REMARK VINA RESULT:     -11.3      2.755      5.024
REMARK SMILES Cc1c(CC(=O)OCCOC(=O)c2ccc(-c3c4nc(c(-c5c(F)cccc5F)c5ccc([nH]5)c(-c5c(F)cccc5F)c5nc(c(-c6c(F)cccc6F)c6ccc3[nH]6)C=C5)C=C4)cc2)cc(-c2ccc(S(C)(=O)=O)cc2)n1-c1ccccc1
REMARK SMILES IDX 8 1 7 2 5 3 6 4 4 5 3 6 1 7 2 8 79 9 67 10 68 11 80 12 81 13
REMARK SMILES IDX 85 14 82 15 84 16 83 17 69 18 70 19 78 20 71 21 77 22 72 23
REMARK SMILES IDX 73 24 74 25 75 26 76 27 9 28 10 29 11 30 12 31 13 32 14 33
REMARK SMILES IDX 66 34 15 35 65 36 16 37 17 38 18 39 59 40 19 41 64 42 58 43
REMARK SMILES IDX 60 44 20 45 63 46 57 47 56 48 21 50 47 51 30 52 46 53 31 54
REMARK SMILES IDX 34 55 45 56 61 57 32 58 33 59 44 61 62 62 35 63 22 64 23 65
REMARK SMILES IDX 28 66 24 67 25 68 27 69 29 70 26 71 48 72 49 73 54 74 50 75
REMARK SMILES IDX 51 76 53 77 55 78 52 79 36 80 37 81 42 82 38 83 39 84 41 85
REMARK SMILES IDX 43 86 40 87
REMARK H PARENT 60 49 34 60
REMARK Flexibility Score: inf
ROOT
ATOM      1  C   UNL A   1      31.375  28.557  24.248  1.00  0.00     0.274 C 
ENDROOT
BRANCH   1   2
ATOM      2  O   UNL A   1      30.716  27.431  24.900  1.00  0.00    -0.462 OA
BRANCH   2   3
ATOM      3  C   UNL A   1      29.892  26.660  24.136  1.00  0.00     0.310 C 
ATOM      4  O   UNL A   1      28.667  26.659  24.256  1.00  0.00    -0.252 OA
BRANCH   3   5
ATOM      5  C   UNL A   1      30.577  25.848  23.041  1.00  0.00     0.160 C 
BRANCH   5   6
ATOM      6  C   UNL A   1      31.557  24.768  23.427  1.00  0.00    -0.015 A 
ATOM      7  C   UNL A   1      33.771  26.119  23.458  1.00  0.00     0.065 C 
ATOM      8  C   UNL A   1      32.924  24.897  23.618  1.00  0.00     0.024 A 
ATOM      9  N   UNL A   1      33.457  23.647  23.908  1.00  0.00    -0.314 N 
ATOM     10  C   UNL A   1      31.287  23.365  23.483  1.00  0.00     0.033 A 
ATOM     11  C   UNL A   1      32.470  22.681  23.730  1.00  0.00     0.053 A 
BRANCH   9  12
ATOM     12  C   UNL A   1      34.798  23.407  24.301  1.00  0.00     0.046 A 
ATOM     13  C   UNL A   1      35.724  22.908  23.379  1.00  0.00     0.026 A 
ATOM     14  C   UNL A   1      35.163  23.631  25.633  1.00  0.00     0.026 A 
ATOM     15  C   UNL A   1      37.023  22.629  23.797  1.00  0.00     0.002 A 
ATOM     16  C   UNL A   1      36.458  23.325  26.048  1.00  0.00     0.002 A 
ATOM     17  C   UNL A   1      37.386  22.828  25.131  1.00  0.00     0.000 A 
ENDBRANCH   9  12
BRANCH  11  18
ATOM     18  C   UNL A   1      32.690  21.231  23.854  1.00  0.00    -0.001 A 
ATOM     19  C   UNL A   1      33.433  20.698  24.919  1.00  0.00     0.011 A 
ATOM     20  C   UNL A   1      32.204  20.362  22.866  1.00  0.00     0.011 A 
ATOM     21  C   UNL A   1      33.721  19.331  24.978  1.00  0.00     0.021 A 
ATOM     22  C   UNL A   1      32.491  18.992  22.916  1.00  0.00     0.021 A 
ATOM     23  C   UNL A   1      33.261  18.486  23.966  1.00  0.00     0.067 A 
BRANCH  23  24
ATOM     24  S   UNL A   1      33.626  16.747  24.044  1.00  0.00     0.175 S 
ATOM     25  C   UNL A   1      35.072  16.639  25.067  1.00  0.00     0.163 C 
ATOM     26  O   UNL A   1      32.523  16.118  24.756  1.00  0.00    -0.224 OA
ATOM     27  O   UNL A   1      33.999  16.310  22.717  1.00  0.00    -0.224 OA
ENDBRANCH  23  24
ENDBRANCH  11  18
ENDBRANCH   5   6
ENDBRANCH   3   5
ENDBRANCH   2   3
ENDBRANCH   1   2
BRANCH   1  28
ATOM     28  C   UNL A   1      31.032  29.899  24.960  1.00  0.00     0.275 C 
BRANCH  28  29
ATOM     29  O   UNL A   1      32.035  30.553  25.832  1.00  0.00    -0.458 OA
BRANCH  29  30
ATOM     30  C   UNL A   1      32.526  29.856  26.903  1.00  0.00     0.338 C 
ATOM     31  O   UNL A   1      31.813  29.171  27.625  1.00  0.00    -0.246 OA
BRANCH  30  32
ATOM     32  C   UNL A   1      34.057  29.933  27.122  1.00  0.00     0.060 A 
ATOM     33  C   UNL A   1      34.843  28.952  26.536  1.00  0.00     0.016 A 
ATOM     34  C   UNL A   1      34.764  30.777  28.010  1.00  0.00     0.016 A 
ATOM     35  C   UNL A   1      36.256  28.857  26.794  1.00  0.00     0.010 A 
ATOM     36  C   UNL A   1      36.210  30.618  28.333  1.00  0.00     0.010 A 
ATOM     37  C   UNL A   1      37.027  29.636  27.740  1.00  0.00    -0.014 A 
BRANCH  37  38
ATOM     38  C   UNL A   1      38.508  29.022  28.178  1.00  0.00     0.031 A 
ATOM     39  C   UNL A   1      38.456  29.129  29.665  1.00  0.00     0.074 A 
ATOM     40  C   UNL A   1      39.790  28.613  27.753  1.00  0.00     0.049 A 
ATOM     41  N   UNL A   1      38.237  30.295  30.208  1.00  0.00    -0.248 NA
ATOM     42  C   UNL A   1      38.253  27.987  30.557  1.00  0.00     0.031 C 
ATOM     43  C   UNL A   1      40.382  28.702  26.405  1.00  0.00     0.029 A 
ATOM     44  N   UNL A   1      40.919  28.008  28.444  1.00  0.00    -0.354 N 
ATOM     45  C   UNL A   1      38.193  30.074  31.559  1.00  0.00     0.074 A 
ATOM     46  C   UNL A   1      37.959  28.643  31.686  1.00  0.00     0.031 C 
ATOM     47  C   UNL A   1      41.604  28.089  26.329  1.00  0.00     0.029 A 
ATOM     48  C   UNL A   1      42.027  27.546  27.622  1.00  0.00     0.049 A 
ATOM     49  H   UNL A   1      40.932  27.917  29.424  1.00  0.00     0.167 HD
ATOM     50  C   UNL A   1      39.007  30.876  32.303  1.00  0.00     0.037 A 
ATOM     51  C   UNL A   1      43.223  26.872  27.928  1.00  0.00     0.037 A 
ATOM     52  C   UNL A   1      40.174  30.180  32.763  1.00  0.00     0.049 A 
ATOM     53  C   UNL A   1      43.558  27.229  29.308  1.00  0.00     0.074 A 
ATOM     54  C   UNL A   1      40.371  28.930  33.313  1.00  0.00     0.029 A 
ATOM     55  N   UNL A   1      41.390  30.595  32.268  1.00  0.00    -0.354 N 
ATOM     56  N   UNL A   1      44.132  28.362  29.562  1.00  0.00    -0.248 NA
ATOM     57  C   UNL A   1      43.465  26.311  30.436  1.00  0.00     0.031 C 
ATOM     58  C   UNL A   1      41.559  28.450  32.724  1.00  0.00     0.029 A 
ATOM     59  C   UNL A   1      42.224  29.509  32.121  1.00  0.00     0.049 A 
ATOM     60  H   UNL A   1      41.628  31.525  32.053  1.00  0.00     0.167 HD
ATOM     61  C   UNL A   1      43.994  28.503  30.899  1.00  0.00     0.074 A 
ATOM     62  C   UNL A   1      43.848  27.149  31.405  1.00  0.00     0.031 C 
ATOM     63  C   UNL A   1      43.380  29.649  31.272  1.00  0.00     0.037 A 
BRANCH  50  64
ATOM     64  C   UNL A   1      38.969  32.312  31.859  1.00  0.00     0.057 A 
ATOM     65  C   UNL A   1      38.105  33.199  32.501  1.00  0.00     0.134 A 
ATOM     66  C   UNL A   1      39.597  32.770  30.684  1.00  0.00     0.134 A 
ATOM     67  F   UNL A   1      37.502  32.844  33.646  1.00  0.00    -0.206 F 
ATOM     68  C   UNL A   1      37.821  34.458  31.966  1.00  0.00     0.040 A 
ATOM     69  C   UNL A   1      39.281  34.001  30.111  1.00  0.00     0.040 A 
ATOM     70  F   UNL A   1      40.500  32.006  30.046  1.00  0.00    -0.206 F 
ATOM     71  C   UNL A   1      38.378  34.846  30.748  1.00  0.00     0.006 A 
ENDBRANCH  50  64
BRANCH  51  72
ATOM     72  C   UNL A   1      44.474  26.112  27.339  1.00  0.00     0.057 A 
ATOM     73  C   UNL A   1      45.680  26.807  26.947  1.00  0.00     0.134 A 
ATOM     74  C   UNL A   1      44.694  24.743  27.521  1.00  0.00     0.134 A 
ATOM     75  F   UNL A   1      45.690  28.116  26.661  1.00  0.00    -0.206 F 
ATOM     76  C   UNL A   1      46.967  26.232  26.875  1.00  0.00     0.040 A 
ATOM     77  C   UNL A   1      45.987  24.143  27.411  1.00  0.00     0.040 A 
ATOM     78  F   UNL A   1      43.686  23.944  27.889  1.00  0.00    -0.206 F 
ATOM     79  C   UNL A   1      47.131  24.889  27.130  1.00  0.00     0.006 A 
ENDBRANCH  51  72
BRANCH  63  80
ATOM     80  C   UNL A   1      43.848  30.933  30.596  1.00  0.00     0.057 A 
ATOM     81  C   UNL A   1      43.572  31.377  29.279  1.00  0.00     0.134 A 
ATOM     82  C   UNL A   1      44.732  31.744  31.320  1.00  0.00     0.134 A 
ATOM     83  F   UNL A   1      42.640  30.812  28.496  1.00  0.00    -0.206 F 
ATOM     84  C   UNL A   1      44.229  32.472  28.701  1.00  0.00     0.040 A 
ATOM     85  C   UNL A   1      45.342  32.878  30.773  1.00  0.00     0.040 A 
ATOM     86  F   UNL A   1      45.025  31.447  32.596  1.00  0.00    -0.206 F 
ATOM     87  C   UNL A   1      45.120  33.227  29.448  1.00  0.00     0.006 A 
ENDBRANCH  63  80
ENDBRANCH  37  38
ENDBRANCH  30  32
ENDBRANCH  29  30
ENDBRANCH  28  29
ENDBRANCH   1  28
TORSDOF 15
ENDMDL
MODEL 3
REMARK VINA RESULT:     -11.3      3.373      8.410
REMARK SMILES Cc1c(CC(=O)OCCOC(=O)c2ccc(-c3c4nc(c(-c5c(F)cccc5F)c5ccc([nH]5)c(-c5c(F)cccc5F)c5nc(c(-c6c(F)cccc6F)c6ccc3[nH]6)C=C5)C=C4)cc2)cc(-c2ccc(S(C)(=O)=O)cc2)n1-c1ccccc1
REMARK SMILES IDX 8 1 7 2 5 3 6 4 4 5 3 6 1 7 2 8 79 9 67 10 68 11 80 12 81 13
REMARK SMILES IDX 85 14 82 15 84 16 83 17 69 18 70 19 78 20 71 21 77 22 72 23
REMARK SMILES IDX 73 24 74 25 75 26 76 27 9 28 10 29 11 30 12 31 13 32 14 33
REMARK SMILES IDX 66 34 15 35 65 36 16 37 17 38 18 39 59 40 19 41 64 42 58 43
REMARK SMILES IDX 60 44 20 45 63 46 57 47 56 48 21 50 47 51 30 52 46 53 31 54
REMARK SMILES IDX 34 55 45 56 61 57 32 58 33 59 44 61 62 62 35 63 22 64 23 65
REMARK SMILES IDX 28 66 24 67 25 68 27 69 29 70 26 71 48 72 49 73 54 74 50 75
REMARK SMILES IDX 51 76 53 77 55 78 52 79 36 80 37 81 42 82 38 83 39 84 41 85
REMARK SMILES IDX 43 86 40 87
REMARK H PARENT 60 49 34 60
REMARK Flexibility Score: inf
ROOT
ATOM      1  C   UNL A   1      37.765  22.998  25.072  1.00  0.00     0.274 C 
ENDROOT
BRANCH   1   2
ATOM      2  O   UNL A   1      36.674  22.275  24.431  1.00  0.00    -0.462 OA
BRANCH   2   3
ATOM      3  C   UNL A   1      36.103  22.846  23.333  1.00  0.00     0.310 C 
ATOM      4  O   UNL A   1      36.750  23.222  22.356  1.00  0.00    -0.252 OA
BRANCH   3   5
ATOM      5  C   UNL A   1      34.579  22.915  23.343  1.00  0.00     0.160 C 
BRANCH   5   6
ATOM      6  C   UNL A   1      33.902  24.214  23.702  1.00  0.00    -0.015 A 
ATOM      7  C   UNL A   1      34.948  24.672  26.031  1.00  0.00     0.065 C 
ATOM      8  C   UNL A   1      34.077  24.969  24.852  1.00  0.00     0.024 A 
ATOM      9  N   UNL A   1      33.220  26.062  24.808  1.00  0.00    -0.314 N 
ATOM     10  C   UNL A   1      32.807  24.815  23.006  1.00  0.00     0.033 A 
ATOM     11  C   UNL A   1      32.363  25.921  23.719  1.00  0.00     0.053 A 
BRANCH   9  12
ATOM     12  C   UNL A   1      33.215  27.130  25.741  1.00  0.00     0.046 A 
ATOM     13  C   UNL A   1      34.238  28.084  25.724  1.00  0.00     0.026 A 
ATOM     14  C   UNL A   1      32.200  27.183  26.702  1.00  0.00     0.026 A 
ATOM     15  C   UNL A   1      34.244  29.096  26.682  1.00  0.00     0.002 A 
ATOM     16  C   UNL A   1      32.228  28.185  27.670  1.00  0.00     0.002 A 
ATOM     17  C   UNL A   1      33.246  29.140  27.659  1.00  0.00     0.000 A 
ENDBRANCH   9  12
BRANCH  11  18
ATOM     18  C   UNL A   1      31.255  26.838  23.406  1.00  0.00    -0.001 A 
ATOM     19  C   UNL A   1      31.490  28.074  22.783  1.00  0.00     0.011 A 
ATOM     20  C   UNL A   1      29.945  26.509  23.782  1.00  0.00     0.011 A 
ATOM     21  C   UNL A   1      30.447  28.982  22.577  1.00  0.00     0.021 A 
ATOM     22  C   UNL A   1      28.895  27.414  23.582  1.00  0.00     0.021 A 
ATOM     23  C   UNL A   1      29.156  28.653  22.993  1.00  0.00     0.067 A 
BRANCH  23  24
ATOM     24  S   UNL A   1      27.829  29.808  22.728  1.00  0.00     0.175 S 
ATOM     25  C   UNL A   1      28.033  30.345  21.049  1.00  0.00     0.163 C 
ATOM     26  O   UNL A   1      26.589  29.049  22.809  1.00  0.00    -0.224 OA
ATOM     27  O   UNL A   1      28.056  30.953  23.581  1.00  0.00    -0.224 OA
ENDBRANCH  23  24
ENDBRANCH  11  18
ENDBRANCH   5   6
ENDBRANCH   3   5
ENDBRANCH   2   3
ENDBRANCH   1   2
BRANCH   1  28
ATOM     28  C   UNL A   1      38.066  22.423  26.488  1.00  0.00     0.275 C 
BRANCH  28  29
ATOM     29  O   UNL A   1      39.426  21.936  26.817  1.00  0.00    -0.458 OA
BRANCH  29  30
ATOM     30  C   UNL A   1      40.495  22.745  26.542  1.00  0.00     0.338 C 
ATOM     31  O   UNL A   1      41.347  22.451  25.714  1.00  0.00    -0.246 OA
BRANCH  30  32
ATOM     32  C   UNL A   1      40.541  24.095  27.300  1.00  0.00     0.060 A 
ATOM     33  C   UNL A   1      39.374  24.534  27.908  1.00  0.00     0.016 A 
ATOM     34  C   UNL A   1      41.582  25.053  27.300  1.00  0.00     0.016 A 
ATOM     35  C   UNL A   1      39.278  25.835  28.516  1.00  0.00     0.010 A 
ATOM     36  C   UNL A   1      41.444  26.428  27.860  1.00  0.00     0.010 A 
ATOM     37  C   UNL A   1      40.273  26.887  28.491  1.00  0.00    -0.014 A 
BRANCH  37  38
ATOM     38  C   UNL A   1      39.742  28.422  28.848  1.00  0.00     0.031 A 
ATOM     39  C   UNL A   1      41.028  29.159  29.019  1.00  0.00     0.074 A 
ATOM     40  C   UNL A   1      38.648  29.242  29.197  1.00  0.00     0.049 A 
ATOM     41  N   UNL A   1      41.890  28.729  29.899  1.00  0.00    -0.248 NA
ATOM     42  C   UNL A   1      41.569  30.092  28.031  1.00  0.00     0.031 C 
ATOM     43  C   UNL A   1      37.261  28.843  29.500  1.00  0.00     0.029 A 
ATOM     44  N   UNL A   1      38.504  30.678  29.383  1.00  0.00    -0.354 N 
ATOM     45  C   UNL A   1      42.973  29.561  29.794  1.00  0.00     0.074 A 
ATOM     46  C   UNL A   1      42.821  30.194  28.492  1.00  0.00     0.031 C 
ATOM     47  C   UNL A   1      36.432  29.919  29.674  1.00  0.00     0.029 A 
ATOM     48  C   UNL A   1      37.153  31.190  29.560  1.00  0.00     0.049 A 
ATOM     49  H   UNL A   1      39.285  31.276  29.389  1.00  0.00     0.167 HD
ATOM     50  C   UNL A   1      43.396  30.111  30.967  1.00  0.00     0.037 A 
ATOM     51  C   UNL A   1      36.638  32.491  29.698  1.00  0.00     0.037 A 
ATOM     52  C   UNL A   1      43.018  31.491  31.082  1.00  0.00     0.049 A 
ATOM     53  C   UNL A   1      37.709  33.300  30.284  1.00  0.00     0.074 A 
ATOM     54  C   UNL A   1      43.050  32.553  30.202  1.00  0.00     0.029 A 
ATOM     55  N   UNL A   1      42.113  31.815  32.068  1.00  0.00    -0.354 N 
ATOM     56  N   UNL A   1      37.931  33.253  31.560  1.00  0.00    -0.248 NA
ATOM     57  C   UNL A   1      38.450  34.325  29.560  1.00  0.00     0.031 C 
ATOM     58  C   UNL A   1      41.848  33.256  30.428  1.00  0.00     0.029 A 
ATOM     59  C   UNL A   1      41.295  32.832  31.629  1.00  0.00     0.049 A 
ATOM     60  H   UNL A   1      42.060  31.387  32.953  1.00  0.00     0.167 HD
ATOM     61  C   UNL A   1      39.144  33.833  31.699  1.00  0.00     0.074 A 
ATOM     62  C   UNL A   1      39.282  34.696  30.539  1.00  0.00     0.031 C 
ATOM     63  C   UNL A   1      40.055  33.058  32.328  1.00  0.00     0.037 A 
BRANCH  50  64
ATOM     64  C   UNL A   1      43.422  29.119  32.097  1.00  0.00     0.057 A 
ATOM     65  C   UNL A   1      44.628  28.505  32.434  1.00  0.00     0.134 A 
ATOM     66  C   UNL A   1      42.254  28.608  32.698  1.00  0.00     0.134 A 
ATOM     67  F   UNL A   1      45.784  28.964  31.930  1.00  0.00    -0.206 F 
ATOM     68  C   UNL A   1      44.669  27.387  33.273  1.00  0.00     0.040 A 
ATOM     69  C   UNL A   1      42.275  27.463  33.492  1.00  0.00     0.040 A 
ATOM     70  F   UNL A   1      41.062  29.190  32.485  1.00  0.00    -0.206 F 
ATOM     71  C   UNL A   1      43.487  26.840  33.772  1.00  0.00     0.006 A 
ENDBRANCH  50  64
BRANCH  51  72
ATOM     72  C   UNL A   1      35.332  33.376  29.728  1.00  0.00     0.057 A 
ATOM     73  C   UNL A   1      34.730  33.815  30.967  1.00  0.00     0.134 A 
ATOM     74  C   UNL A   1      34.895  34.133  28.637  1.00  0.00     0.134 A 
ATOM     75  F   UNL A   1      34.960  33.194  32.132  1.00  0.00    -0.206 F 
ATOM     76  C   UNL A   1      33.901  34.947  31.116  1.00  0.00     0.040 A 
ATOM     77  C   UNL A   1      34.023  35.258  28.771  1.00  0.00     0.040 A 
ATOM     78  F   UNL A   1      35.353  33.868  27.408  1.00  0.00    -0.206 F 
ATOM     79  C   UNL A   1      33.557  35.693  30.012  1.00  0.00     0.006 A 
ENDBRANCH  51  72
BRANCH  63  80
ATOM     80  C   UNL A   1      39.599  32.349  33.599  1.00  0.00     0.057 A 
ATOM     81  C   UNL A   1      38.806  31.179  33.709  1.00  0.00     0.134 A 
ATOM     82  C   UNL A   1      39.918  32.965  34.817  1.00  0.00     0.134 A 
ATOM     83  F   UNL A   1      38.531  30.381  32.667  1.00  0.00    -0.206 F 
ATOM     84  C   UNL A   1      38.277  30.741  34.931  1.00  0.00     0.040 A 
ATOM     85  C   UNL A   1      39.449  32.496  36.049  1.00  0.00     0.040 A 
ATOM     86  F   UNL A   1      40.707  34.051  34.835  1.00  0.00    -0.206 F 
ATOM     87  C   UNL A   1      38.597  31.402  36.108  1.00  0.00     0.006 A 
ENDBRANCH  63  80
ENDBRANCH  37  38
ENDBRANCH  30  32
ENDBRANCH  29  30
ENDBRANCH  28  29
ENDBRANCH   1  28
TORSDOF 15
ENDMDL
