MODEL 1
REMARK VINA RESULT:     -11.8      0.000      0.000
REMARK SMILES Cc1ccc([C@H](CC2CCCC2)C(=O)OCCOC(=O)c2ccc(-c3c4nc(c(-c5c(F)cccc5F)c5ccc([nH]5)c(-c5c(F)cccc5F)c5nc(c(-c6c(F)cccc6F)c6ccc3[nH]6)C=C5)C=C4)cc2)cc1
REMARK SMILES IDX 16 1 15 2 13 3 14 4 6 5 5 6 1 7 2 8 3 9 76 10 4 11 75 12
REMARK SMILES IDX 7 13 8 14 9 15 12 16 10 17 11 18 17 19 18 20 19 21 20 22
REMARK SMILES IDX 21 23 22 24 74 25 23 26 73 27 24 28 25 29 26 30 67 31 27 32
REMARK SMILES IDX 72 33 66 34 68 35 28 36 71 37 65 38 64 39 29 41 55 42 38 43
REMARK SMILES IDX 54 44 39 45 42 46 53 47 69 48 40 49 41 50 52 52 70 53 43 54
REMARK SMILES IDX 30 55 31 56 36 57 32 58 33 59 35 60 37 61 34 62 56 63 57 64
REMARK SMILES IDX 62 65 58 66 59 67 61 68 63 69 60 70 44 71 45 72 50 73 46 74
REMARK SMILES IDX 47 75 49 76 51 77 48 78
REMARK H PARENT 68 40 42 51
REMARK Flexibility Score: inf
ROOT
ATOM      1  C   UNL A   1      37.791  22.130  25.297  1.00  0.00     0.274 C 
ENDROOT
BRANCH   1   2
ATOM      2  O   UNL A   1      37.042  23.317  24.935  1.00  0.00    -0.462 OA
BRANCH   2   3
ATOM      3  C   UNL A   1      36.260  23.168  23.824  1.00  0.00     0.313 C 
ATOM      4  O   UNL A   1      36.739  22.914  22.718  1.00  0.00    -0.252 OA
BRANCH   3   5
ATOM      5  C   UNL A   1      34.738  23.252  23.979  1.00  0.00     0.129 C 
BRANCH   5   6
ATOM      6  C   UNL A   1      34.000  24.587  24.192  1.00  0.00    -0.034 A 
ATOM      7  C   UNL A   1      33.423  28.843  24.913  1.00  0.00     0.044 C 
ATOM      8  C   UNL A   1      33.553  27.364  24.677  1.00  0.00    -0.051 A 
ATOM      9  C   UNL A   1      33.661  26.469  25.740  1.00  0.00     0.004 A 
ATOM     10  C   UNL A   1      33.513  26.834  23.387  1.00  0.00     0.004 A 
ATOM     11  C   UNL A   1      33.903  25.107  25.500  1.00  0.00     0.005 A 
ATOM     12  C   UNL A   1      33.666  25.455  23.162  1.00  0.00     0.005 A 
ENDBRANCH   5   6
BRANCH   5  13
ATOM     13  C   UNL A   1      34.117  22.204  24.934  1.00  0.00     0.023 C 
BRANCH  13  14
ATOM     14  C   UNL A   1      33.896  20.824  24.309  1.00  0.00    -0.010 C 
ATOM     15  C   UNL A   1      34.653  19.693  24.998  1.00  0.00     0.003 C 
ATOM     16  C   UNL A   1      32.451  20.338  24.456  1.00  0.00     0.003 C 
ATOM     17  C   UNL A   1      33.965  18.432  24.486  1.00  0.00     0.000 C 
ATOM     18  C   UNL A   1      32.528  18.844  24.161  1.00  0.00     0.000 C 
ENDBRANCH  13  14
ENDBRANCH   5  13
ENDBRANCH   3   5
ENDBRANCH   2   3
ENDBRANCH   1   2
BRANCH   1  19
ATOM     19  C   UNL A   1      39.073  22.192  26.155  1.00  0.00     0.275 C 
BRANCH  19  20
ATOM     20  O   UNL A   1      39.612  20.943  26.635  1.00  0.00    -0.458 OA
BRANCH  20  21
ATOM     21  C   UNL A   1      40.794  20.406  26.225  1.00  0.00     0.338 C 
ATOM     22  O   UNL A   1      40.862  19.328  25.648  1.00  0.00    -0.246 OA
BRANCH  21  23
ATOM     23  C   UNL A   1      42.006  21.138  26.634  1.00  0.00     0.060 A 
ATOM     24  C   UNL A   1      42.187  21.281  27.998  1.00  0.00     0.016 A 
ATOM     25  C   UNL A   1      42.633  22.001  25.739  1.00  0.00     0.016 A 
ATOM     26  C   UNL A   1      42.617  22.514  28.455  1.00  0.00     0.010 A 
ATOM     27  C   UNL A   1      43.006  23.252  26.211  1.00  0.00     0.010 A 
ATOM     28  C   UNL A   1      42.803  23.571  27.555  1.00  0.00    -0.014 A 
BRANCH  28  29
ATOM     29  C   UNL A   1      42.912  24.983  27.943  1.00  0.00     0.031 A 
ATOM     30  C   UNL A   1      41.714  25.861  27.822  1.00  0.00     0.074 A 
ATOM     31  C   UNL A   1      44.056  25.590  28.365  1.00  0.00     0.049 A 
ATOM     32  N   UNL A   1      41.739  27.155  27.764  1.00  0.00    -0.248 NA
ATOM     33  C   UNL A   1      40.372  25.302  27.643  1.00  0.00     0.031 C 
ATOM     34  C   UNL A   1      44.048  26.656  29.366  1.00  0.00     0.029 A 
ATOM     35  N   UNL A   1      45.425  25.427  28.068  1.00  0.00    -0.354 N 
ATOM     36  C   UNL A   1      40.432  27.571  27.868  1.00  0.00     0.074 A 
ATOM     37  C   UNL A   1      39.631  26.407  27.576  1.00  0.00     0.031 C 
ATOM     38  C   UNL A   1      45.277  27.164  29.498  1.00  0.00     0.029 A 
ATOM     39  C   UNL A   1      46.101  26.618  28.439  1.00  0.00     0.049 A 
ATOM     40  H   UNL A   1      45.840  24.626  27.672  1.00  0.00     0.167 HD
ATOM     41  C   UNL A   1      40.111  28.759  28.448  1.00  0.00     0.037 A 
ATOM     42  C   UNL A   1      46.944  27.371  27.668  1.00  0.00     0.037 A 
ATOM     43  C   UNL A   1      41.282  29.449  28.957  1.00  0.00     0.049 A 
ATOM     44  C   UNL A   1      46.592  28.847  27.591  1.00  0.00     0.074 A 
ATOM     45  C   UNL A   1      41.933  29.397  30.179  1.00  0.00     0.029 A 
ATOM     46  N   UNL A   1      42.131  30.114  28.098  1.00  0.00    -0.354 N 
ATOM     47  N   UNL A   1      45.491  29.336  28.081  1.00  0.00    -0.248 NA
ATOM     48  C   UNL A   1      47.354  29.857  26.848  1.00  0.00     0.031 C 
ATOM     49  C   UNL A   1      43.155  30.101  30.067  1.00  0.00     0.029 A 
ATOM     50  C   UNL A   1      43.239  30.591  28.778  1.00  0.00     0.049 A 
ATOM     51  H   UNL A   1      41.972  30.233  27.134  1.00  0.00     0.167 HD
ATOM     52  C   UNL A   1      45.352  30.643  27.709  1.00  0.00     0.074 A 
ATOM     53  C   UNL A   1      46.538  30.924  26.924  1.00  0.00     0.031 C 
ATOM     54  C   UNL A   1      44.239  31.352  28.052  1.00  0.00     0.037 A 
BRANCH  41  55
ATOM     55  C   UNL A   1      38.708  29.032  28.923  1.00  0.00     0.057 A 
ATOM     56  C   UNL A   1      37.784  29.701  28.101  1.00  0.00     0.134 A 
ATOM     57  C   UNL A   1      38.246  28.736  30.216  1.00  0.00     0.134 A 
ATOM     58  F   UNL A   1      38.033  29.942  26.808  1.00  0.00    -0.206 F 
ATOM     59  C   UNL A   1      36.558  30.175  28.575  1.00  0.00     0.040 A 
ATOM     60  C   UNL A   1      37.044  29.251  30.722  1.00  0.00     0.040 A 
ATOM     61  F   UNL A   1      38.947  27.940  31.038  1.00  0.00    -0.206 F 
ATOM     62  C   UNL A   1      36.204  29.994  29.903  1.00  0.00     0.006 A 
ENDBRANCH  41  55
BRANCH  42  63
ATOM     63  C   UNL A   1      47.674  26.680  26.591  1.00  0.00     0.057 A 
ATOM     64  C   UNL A   1      47.109  26.561  25.314  1.00  0.00     0.134 A 
ATOM     65  C   UNL A   1      49.014  26.323  26.745  1.00  0.00     0.134 A 
ATOM     66  F   UNL A   1      45.810  26.841  25.117  1.00  0.00    -0.206 F 
ATOM     67  C   UNL A   1      47.880  26.215  24.204  1.00  0.00     0.040 A 
ATOM     68  C   UNL A   1      49.791  25.964  25.649  1.00  0.00     0.040 A 
ATOM     69  F   UNL A   1      49.603  26.385  27.948  1.00  0.00    -0.206 F 
ATOM     70  C   UNL A   1      49.235  25.944  24.369  1.00  0.00     0.006 A 
ENDBRANCH  42  63
BRANCH  54  71
ATOM     71  C   UNL A   1      43.980  32.797  27.729  1.00  0.00     0.057 A 
ATOM     72  C   UNL A   1      43.772  33.780  28.705  1.00  0.00     0.134 A 
ATOM     73  C   UNL A   1      43.824  33.236  26.395  1.00  0.00     0.134 A 
ATOM     74  F   UNL A   1      43.740  33.472  30.008  1.00  0.00    -0.206 F 
ATOM     75  C   UNL A   1      43.539  35.122  28.377  1.00  0.00     0.040 A 
ATOM     76  C   UNL A   1      43.545  34.561  26.057  1.00  0.00     0.040 A 
ATOM     77  F   UNL A   1      43.937  32.404  25.351  1.00  0.00    -0.206 F 
ATOM     78  C   UNL A   1      43.430  35.518  27.049  1.00  0.00     0.006 A 
ENDBRANCH  54  71
ENDBRANCH  28  29
ENDBRANCH  21  23
ENDBRANCH  20  21
ENDBRANCH  19  20
ENDBRANCH   1  19
TORSDOF 14
ENDMDL
MODEL 2
REMARK VINA RESULT:     -11.7      4.725      9.593
REMARK SMILES Cc1ccc([C@H](CC2CCCC2)C(=O)OCCOC(=O)c2ccc(-c3c4nc(c(-c5c(F)cccc5F)c5ccc([nH]5)c(-c5c(F)cccc5F)c5nc(c(-c6c(F)cccc6F)c6ccc3[nH]6)C=C5)C=C4)cc2)cc1
REMARK SMILES IDX 16 1 15 2 13 3 14 4 6 5 5 6 1 7 2 8 3 9 76 10 4 11 75 12
REMARK SMILES IDX 7 13 8 14 9 15 12 16 10 17 11 18 17 19 18 20 19 21 20 22
REMARK SMILES IDX 21 23 22 24 74 25 23 26 73 27 24 28 25 29 26 30 67 31 27 32
REMARK SMILES IDX 72 33 66 34 68 35 28 36 71 37 65 38 64 39 29 41 55 42 38 43
REMARK SMILES IDX 54 44 39 45 42 46 53 47 69 48 40 49 41 50 52 52 70 53 43 54
REMARK SMILES IDX 30 55 31 56 36 57 32 58 33 59 35 60 37 61 34 62 56 63 57 64
REMARK SMILES IDX 62 65 58 66 59 67 61 68 63 69 60 70 44 71 45 72 50 73 46 74
REMARK SMILES IDX 47 75 49 76 51 77 48 78
REMARK H PARENT 68 40 42 51
REMARK Flexibility Score: inf
ROOT
ATOM      1  C   UNL A   1      32.842  30.279  27.188  1.00  0.00     0.274 C 
ENDROOT
BRANCH   1   2
ATOM      2  O   UNL A   1      33.202  28.880  27.304  1.00  0.00    -0.462 OA
BRANCH   2   3
ATOM      3  C   UNL A   1      32.150  28.018  27.169  1.00  0.00     0.313 C 
ATOM      4  O   UNL A   1      31.269  27.924  28.024  1.00  0.00    -0.252 OA
BRANCH   3   5
ATOM      5  C   UNL A   1      32.033  27.199  25.880  1.00  0.00     0.129 C 
BRANCH   5   6
ATOM      6  C   UNL A   1      31.193  27.665  24.675  1.00  0.00    -0.034 A 
ATOM      7  C   UNL A   1      27.847  29.369  22.469  1.00  0.00     0.044 C 
ATOM      8  C   UNL A   1      29.027  28.755  23.169  1.00  0.00    -0.051 A 
ATOM      9  C   UNL A   1      29.047  27.402  23.502  1.00  0.00     0.004 A 
ATOM     10  C   UNL A   1      30.164  29.509  23.460  1.00  0.00     0.004 A 
ATOM     11  C   UNL A   1      30.102  26.872  24.262  1.00  0.00     0.005 A 
ATOM     12  C   UNL A   1      31.257  28.945  24.142  1.00  0.00     0.005 A 
ENDBRANCH   5   6
BRANCH   5  13
ATOM     13  C   UNL A   1      31.776  25.686  26.085  1.00  0.00     0.023 C 
BRANCH  13  14
ATOM     14  C   UNL A   1      32.911  24.776  25.610  1.00  0.00    -0.010 C 
ATOM     15  C   UNL A   1      34.253  25.482  25.442  1.00  0.00     0.003 C 
ATOM     16  C   UNL A   1      33.275  23.704  26.642  1.00  0.00     0.003 C 
ATOM     17  C   UNL A   1      35.260  24.337  25.382  1.00  0.00     0.000 C 
ATOM     18  C   UNL A   1      34.637  23.194  26.185  1.00  0.00     0.000 C 
ENDBRANCH  13  14
ENDBRANCH   5  13
ENDBRANCH   3   5
ENDBRANCH   2   3
ENDBRANCH   1   2
BRANCH   1  19
ATOM     19  C   UNL A   1      33.766  31.414  27.682  1.00  0.00     0.275 C 
BRANCH  19  20
ATOM     20  O   UNL A   1      33.244  32.304  28.691  1.00  0.00    -0.458 OA
BRANCH  20  21
ATOM     21  C   UNL A   1      33.509  33.638  28.753  1.00  0.00     0.338 C 
ATOM     22  O   UNL A   1      32.874  34.465  28.112  1.00  0.00    -0.246 OA
BRANCH  21  23
ATOM     23  C   UNL A   1      34.696  34.018  29.539  1.00  0.00     0.060 A 
ATOM     24  C   UNL A   1      35.804  34.403  28.803  1.00  0.00     0.016 A 
ATOM     25  C   UNL A   1      34.836  33.571  30.850  1.00  0.00     0.016 A 
ATOM     26  C   UNL A   1      37.036  33.932  29.217  1.00  0.00     0.010 A 
ATOM     27  C   UNL A   1      36.069  33.054  31.224  1.00  0.00     0.010 A 
ATOM     28  C   UNL A   1      37.124  33.060  30.310  1.00  0.00    -0.014 A 
BRANCH  28  29
ATOM     29  C   UNL A   1      38.298  32.234  30.621  1.00  0.00     0.031 A 
ATOM     30  C   UNL A   1      38.391  30.864  30.044  1.00  0.00     0.074 A 
ATOM     31  C   UNL A   1      39.310  32.600  31.456  1.00  0.00     0.049 A 
ATOM     32  N   UNL A   1      39.138  29.909  30.502  1.00  0.00    -0.248 NA
ATOM     33  C   UNL A   1      37.532  30.440  28.937  1.00  0.00     0.031 C 
ATOM     34  C   UNL A   1      40.694  32.190  31.227  1.00  0.00     0.029 A 
ATOM     35  N   UNL A   1      39.388  33.389  32.622  1.00  0.00    -0.354 N 
ATOM     36  C   UNL A   1      39.088  28.899  29.570  1.00  0.00     0.074 A 
ATOM     37  C   UNL A   1      37.935  29.184  28.752  1.00  0.00     0.031 C 
ATOM     38  C   UNL A   1      41.456  32.569  32.258  1.00  0.00     0.029 A 
ATOM     39  C   UNL A   1      40.580  33.042  33.309  1.00  0.00     0.049 A 
ATOM     40  H   UNL A   1      38.730  34.064  32.910  1.00  0.00     0.167 HD
ATOM     41  C   UNL A   1      40.144  28.064  29.374  1.00  0.00     0.037 A 
ATOM     42  C   UNL A   1      40.709  32.684  34.623  1.00  0.00     0.037 A 
ATOM     43  C   UNL A   1      41.279  28.416  30.208  1.00  0.00     0.049 A 
ATOM     44  C   UNL A   1      41.442  31.375  34.860  1.00  0.00     0.074 A 
ATOM     45  C   UNL A   1      42.342  29.283  30.010  1.00  0.00     0.029 A 
ATOM     46  N   UNL A   1      41.290  28.093  31.548  1.00  0.00    -0.354 N 
ATOM     47  N   UNL A   1      41.782  30.573  33.895  1.00  0.00    -0.248 NA
ATOM     48  C   UNL A   1      41.723  30.793  36.177  1.00  0.00     0.031 C 
ATOM     49  C   UNL A   1      43.040  29.422  31.233  1.00  0.00     0.029 A 
ATOM     50  C   UNL A   1      42.404  28.630  32.170  1.00  0.00     0.049 A 
ATOM     51  H   UNL A   1      40.602  27.556  32.000  1.00  0.00     0.167 HD
ATOM     52  C   UNL A   1      42.257  29.398  34.406  1.00  0.00     0.074 A 
ATOM     53  C   UNL A   1      42.189  29.575  35.843  1.00  0.00     0.031 C 
ATOM     54  C   UNL A   1      42.617  28.373  33.582  1.00  0.00     0.037 A 
BRANCH  41  55
ATOM     55  C   UNL A   1      40.254  27.240  28.117  1.00  0.00     0.057 A 
ATOM     56  C   UNL A   1      39.781  25.918  28.075  1.00  0.00     0.134 A 
ATOM     57  C   UNL A   1      40.901  27.677  26.949  1.00  0.00     0.134 A 
ATOM     58  F   UNL A   1      39.039  25.401  29.063  1.00  0.00    -0.206 F 
ATOM     59  C   UNL A   1      40.063  25.049  27.018  1.00  0.00     0.040 A 
ATOM     60  C   UNL A   1      41.238  26.804  25.905  1.00  0.00     0.040 A 
ATOM     61  F   UNL A   1      41.232  28.966  26.780  1.00  0.00    -0.206 F 
ATOM     62  C   UNL A   1      40.836  25.476  25.949  1.00  0.00     0.006 A 
ENDBRANCH  41  55
BRANCH  42  63
ATOM     63  C   UNL A   1      39.704  33.203  35.567  1.00  0.00     0.057 A 
ATOM     64  C   UNL A   1      38.532  32.479  35.825  1.00  0.00     0.134 A 
ATOM     65  C   UNL A   1      39.983  34.301  36.382  1.00  0.00     0.134 A 
ATOM     66  F   UNL A   1      38.186  31.445  35.041  1.00  0.00    -0.206 F 
ATOM     67  C   UNL A   1      37.727  32.762  36.930  1.00  0.00     0.040 A 
ATOM     68  C   UNL A   1      39.183  34.602  37.479  1.00  0.00     0.040 A 
ATOM     69  F   UNL A   1      41.072  35.052  36.166  1.00  0.00    -0.206 F 
ATOM     70  C   UNL A   1      38.072  33.810  37.777  1.00  0.00     0.006 A 
ENDBRANCH  42  63
BRANCH  54  71
ATOM     71  C   UNL A   1      43.176  27.047  34.018  1.00  0.00     0.057 A 
ATOM     72  C   UNL A   1      44.471  26.615  33.702  1.00  0.00     0.134 A 
ATOM     73  C   UNL A   1      42.378  26.098  34.695  1.00  0.00     0.134 A 
ATOM     74  F   UNL A   1      45.283  27.353  32.932  1.00  0.00    -0.206 F 
ATOM     75  C   UNL A   1      44.971  25.377  34.126  1.00  0.00     0.040 A 
ATOM     76  C   UNL A   1      42.849  24.843  35.082  1.00  0.00     0.040 A 
ATOM     77  F   UNL A   1      41.101  26.341  35.019  1.00  0.00    -0.206 F 
ATOM     78  C   UNL A   1      44.162  24.488  34.824  1.00  0.00     0.006 A 
ENDBRANCH  54  71
ENDBRANCH  28  29
ENDBRANCH  21  23
ENDBRANCH  20  21
ENDBRANCH  19  20
ENDBRANCH   1  19
TORSDOF 14
ENDMDL
MODEL 3
REMARK VINA RESULT:     -11.7      4.757      9.957
REMARK SMILES Cc1ccc([C@H](CC2CCCC2)C(=O)OCCOC(=O)c2ccc(-c3c4nc(c(-c5c(F)cccc5F)c5ccc([nH]5)c(-c5c(F)cccc5F)c5nc(c(-c6c(F)cccc6F)c6ccc3[nH]6)C=C5)C=C4)cc2)cc1
REMARK SMILES IDX 16 1 15 2 13 3 14 4 6 5 5 6 1 7 2 8 3 9 76 10 4 11 75 12
REMARK SMILES IDX 7 13 8 14 9 15 12 16 10 17 11 18 17 19 18 20 19 21 20 22
REMARK SMILES IDX 21 23 22 24 74 25 23 26 73 27 24 28 25 29 26 30 67 31 27 32
REMARK SMILES IDX 72 33 66 34 68 35 28 36 71 37 65 38 64 39 29 41 55 42 38 43
REMARK SMILES IDX 54 44 39 45 42 46 53 47 69 48 40 49 41 50 52 52 70 53 43 54
REMARK SMILES IDX 30 55 31 56 36 57 32 58 33 59 35 60 37 61 34 62 56 63 57 64
REMARK SMILES IDX 62 65 58 66 59 67 61 68 63 69 60 70 44 71 45 72 50 73 46 74
REMARK SMILES IDX 47 75 49 76 51 77 48 78
REMARK H PARENT 68 40 42 51
REMARK Flexibility Score: inf
ROOT
ATOM      1  C   UNL A   1      32.883  29.848  26.965  1.00  0.00     0.274 C 
ENDROOT
BRANCH   1   2
ATOM      2  O   UNL A   1      31.907  28.885  26.496  1.00  0.00    -0.462 OA
BRANCH   2   3
ATOM      3  C   UNL A   1      31.995  28.603  25.161  1.00  0.00     0.313 C 
ATOM      4  O   UNL A   1      33.005  28.863  24.505  1.00  0.00    -0.252 OA
BRANCH   3   5
ATOM      5  C   UNL A   1      30.827  27.880  24.483  1.00  0.00     0.129 C 
BRANCH   5   6
ATOM      6  C   UNL A   1      30.562  26.375  24.674  1.00  0.00    -0.034 A 
ATOM      7  C   UNL A   1      31.400  22.150  25.320  1.00  0.00     0.044 C 
ATOM      8  C   UNL A   1      31.045  23.591  25.079  1.00  0.00    -0.051 A 
ATOM      9  C   UNL A   1      31.031  24.126  23.793  1.00  0.00     0.004 A 
ATOM     10  C   UNL A   1      30.663  24.424  26.130  1.00  0.00     0.004 A 
ATOM     11  C   UNL A   1      30.816  25.500  23.597  1.00  0.00     0.005 A 
ATOM     12  C   UNL A   1      30.360  25.780  25.911  1.00  0.00     0.005 A 
ENDBRANCH   5   6
BRANCH   5  13
ATOM     13  C   UNL A   1      30.629  28.215  22.985  1.00  0.00     0.023 C 
BRANCH  13  14
ATOM     14  C   UNL A   1      29.457  29.155  22.692  1.00  0.00    -0.010 C 
ATOM     15  C   UNL A   1      28.097  28.617  23.126  1.00  0.00     0.003 C 
ATOM     16  C   UNL A   1      29.528  30.453  23.503  1.00  0.00     0.003 C 
ATOM     17  C   UNL A   1      27.201  29.852  23.118  1.00  0.00     0.000 C 
ATOM     18  C   UNL A   1      28.125  31.039  23.392  1.00  0.00     0.000 C 
ENDBRANCH  13  14
ENDBRANCH   5  13
ENDBRANCH   3   5
ENDBRANCH   2   3
ENDBRANCH   1   2
BRANCH   1  19
ATOM     19  C   UNL A   1      32.519  31.321  27.251  1.00  0.00     0.275 C 
BRANCH  19  20
ATOM     20  O   UNL A   1      33.595  32.214  27.607  1.00  0.00    -0.458 OA
BRANCH  20  21
ATOM     21  C   UNL A   1      33.435  33.377  28.296  1.00  0.00     0.338 C 
ATOM     22  O   UNL A   1      32.535  34.170  28.049  1.00  0.00    -0.246 OA
BRANCH  21  23
ATOM     23  C   UNL A   1      34.491  33.692  29.275  1.00  0.00     0.060 A 
ATOM     24  C   UNL A   1      35.644  34.250  28.752  1.00  0.00     0.016 A 
ATOM     25  C   UNL A   1      34.509  33.050  30.510  1.00  0.00     0.016 A 
ATOM     26  C   UNL A   1      36.852  33.787  29.243  1.00  0.00     0.010 A 
ATOM     27  C   UNL A   1      35.725  32.549  30.955  1.00  0.00     0.010 A 
ATOM     28  C   UNL A   1      36.876  32.758  30.193  1.00  0.00    -0.014 A 
BRANCH  28  29
ATOM     29  C   UNL A   1      38.064  31.959  30.522  1.00  0.00     0.031 A 
ATOM     30  C   UNL A   1      38.193  30.588  29.954  1.00  0.00     0.074 A 
ATOM     31  C   UNL A   1      39.058  32.351  31.366  1.00  0.00     0.049 A 
ATOM     32  N   UNL A   1      38.955  29.652  30.425  1.00  0.00    -0.248 NA
ATOM     33  C   UNL A   1      37.355  30.141  28.839  1.00  0.00     0.031 C 
ATOM     34  C   UNL A   1      40.454  31.970  31.155  1.00  0.00     0.029 A 
ATOM     35  N   UNL A   1      39.107  33.148  32.529  1.00  0.00    -0.354 N 
ATOM     36  C   UNL A   1      38.936  28.636  29.498  1.00  0.00     0.074 A 
ATOM     37  C   UNL A   1      37.787  28.893  28.665  1.00  0.00     0.031 C 
ATOM     38  C   UNL A   1      41.196  32.370  32.192  1.00  0.00     0.029 A 
ATOM     39  C   UNL A   1      40.297  32.830  33.231  1.00  0.00     0.049 A 
ATOM     40  H   UNL A   1      38.431  33.810  32.806  1.00  0.00     0.167 HD
ATOM     41  C   UNL A   1      40.012  27.823  29.318  1.00  0.00     0.037 A 
ATOM     42  C   UNL A   1      40.419  32.482  34.548  1.00  0.00     0.037 A 
ATOM     43  C   UNL A   1      41.129  28.204  30.163  1.00  0.00     0.049 A 
ATOM     44  C   UNL A   1      41.178  31.190  34.801  1.00  0.00     0.074 A 
ATOM     45  C   UNL A   1      42.176  29.092  29.972  1.00  0.00     0.029 A 
ATOM     46  N   UNL A   1      41.133  27.888  31.504  1.00  0.00    -0.354 N 
ATOM     47  N   UNL A   1      41.545  30.390  33.843  1.00  0.00    -0.248 NA
ATOM     48  C   UNL A   1      41.456  30.621  36.123  1.00  0.00     0.031 C 
ATOM     49  C   UNL A   1      42.857  29.252  31.202  1.00  0.00     0.029 A 
ATOM     50  C   UNL A   1      42.228  28.452  32.136  1.00  0.00     0.049 A 
ATOM     51  H   UNL A   1      40.451  27.338  31.952  1.00  0.00     0.167 HD
ATOM     52  C   UNL A   1      42.039  29.228  34.366  1.00  0.00     0.074 A 
ATOM     53  C   UNL A   1      41.952  29.411  35.801  1.00  0.00     0.031 C 
ATOM     54  C   UNL A   1      42.430  28.207  33.552  1.00  0.00     0.037 A 
BRANCH  41  55
ATOM     55  C   UNL A   1      40.154  26.996  28.067  1.00  0.00     0.057 A 
ATOM     56  C   UNL A   1      39.675  25.675  28.015  1.00  0.00     0.134 A 
ATOM     57  C   UNL A   1      40.835  27.426  26.916  1.00  0.00     0.134 A 
ATOM     58  F   UNL A   1      38.903  25.164  28.983  1.00  0.00    -0.206 F 
ATOM     59  C   UNL A   1      39.983  24.802  26.969  1.00  0.00     0.040 A 
ATOM     60  C   UNL A   1      41.198  26.548  25.885  1.00  0.00     0.040 A 
ATOM     61  F   UNL A   1      41.177  28.713  26.753  1.00  0.00    -0.206 F 
ATOM     62  C   UNL A   1      40.788  25.222  25.921  1.00  0.00     0.006 A 
ENDBRANCH  41  55
BRANCH  42  63
ATOM     63  C   UNL A   1      39.393  32.984  35.478  1.00  0.00     0.057 A 
ATOM     64  C   UNL A   1      38.229  32.242  35.718  1.00  0.00     0.134 A 
ATOM     65  C   UNL A   1      39.644  34.084  36.299  1.00  0.00     0.134 A 
ATOM     66  F   UNL A   1      37.909  31.204  34.928  1.00  0.00    -0.206 F 
ATOM     67  C   UNL A   1      37.404  32.511  36.811  1.00  0.00     0.040 A 
ATOM     68  C   UNL A   1      38.823  34.371  37.384  1.00  0.00     0.040 A 
ATOM     69  F   UNL A   1      40.725  34.851  36.100  1.00  0.00    -0.206 F 
ATOM     70  C   UNL A   1      37.720  33.563  37.665  1.00  0.00     0.006 A 
ENDBRANCH  42  63
BRANCH  54  71
ATOM     71  C   UNL A   1      43.013  26.895  34.001  1.00  0.00     0.057 A 
ATOM     72  C   UNL A   1      44.292  26.455  33.637  1.00  0.00     0.134 A 
ATOM     73  C   UNL A   1      42.249  25.967  34.744  1.00  0.00     0.134 A 
ATOM     74  F   UNL A   1      45.065  27.169  32.808  1.00  0.00    -0.206 F 
ATOM     75  C   UNL A   1      44.814  25.231  34.075  1.00  0.00     0.040 A 
ATOM     76  C   UNL A   1      42.742  24.725  35.146  1.00  0.00     0.040 A 
ATOM     77  F   UNL A   1      40.989  26.218  35.121  1.00  0.00    -0.206 F 
ATOM     78  C   UNL A   1      44.041  24.363  34.837  1.00  0.00     0.006 A 
ENDBRANCH  54  71
ENDBRANCH  28  29
ENDBRANCH  21  23
ENDBRANCH  20  21
ENDBRANCH  19  20
ENDBRANCH   1  19
TORSDOF 14
ENDMDL
