MODEL 1
REMARK VINA RESULT:      -9.8      0.000      0.000
REMARK SMILES COCCCC(=O)N[C@H]1CC[C@@H](C(=O)OCCOC(=O)c2ccc(-c3c4nc(c(-c5c(F)cccc5F)c5ccc([nH]5)c(-c5c(F)cccc5F)c5nc(c(-c6c(F)cccc6F)c6ccc3[nH]6)C=C5)C=C4)cc2)CC1
REMARK SMILES IDX 15 1 13 2 14 3 12 4 9 5 10 6 76 7 11 8 75 9 8 10 6 11 7 12
REMARK SMILES IDX 5 14 4 15 3 16 2 17 1 18 16 19 17 20 18 21 19 22 20 23 21 24
REMARK SMILES IDX 22 25 74 26 23 27 73 28 24 29 25 30 26 31 67 32 27 33 72 34
REMARK SMILES IDX 66 35 68 36 28 37 71 38 65 39 64 40 29 42 55 43 38 44 54 45
REMARK SMILES IDX 39 46 42 47 53 48 69 49 40 50 41 51 52 53 70 54 43 55 30 56
REMARK SMILES IDX 31 57 36 58 32 59 33 60 35 61 37 62 34 63 56 64 57 65 62 66
REMARK SMILES IDX 58 67 59 68 61 69 63 70 60 71 44 72 45 73 50 74 46 75 47 76
REMARK SMILES IDX 49 77 51 78 48 79
REMARK H PARENT 8 13 68 41 42 52
REMARK Flexibility Score: inf
ROOT
ATOM      1  O   UNL A   1      32.467  30.360  25.692  1.00  0.00    -0.462 OA
ENDROOT
BRANCH   1   2
ATOM      2  C   UNL A   1      31.783  29.597  24.804  1.00  0.00     0.309 C 
ATOM      3  O   UNL A   1      30.645  29.826  24.412  1.00  0.00    -0.252 OA
BRANCH   2   4
ATOM      4  C   UNL A   1      32.568  28.365  24.376  1.00  0.00     0.099 C 
ATOM      5  C   UNL A   1      31.929  25.888  25.852  1.00  0.00     0.082 C 
ATOM      6  C   UNL A   1      30.924  26.512  24.880  1.00  0.00     0.026 C 
ATOM      7  C   UNL A   1      32.814  26.934  26.513  1.00  0.00     0.026 C 
ATOM      8  C   UNL A   1      31.625  27.317  23.795  1.00  0.00     0.017 C 
ATOM      9  C   UNL A   1      33.508  27.791  25.447  1.00  0.00     0.017 C 
BRANCH   5  10
ATOM     10  N   UNL A   1      31.211  25.055  26.793  1.00  0.00    -0.353 N 
ATOM     11  C   UNL A   1      30.646  23.838  26.557  1.00  0.00     0.220 C 
ATOM     12  O   UNL A   1      29.751  23.446  27.306  1.00  0.00    -0.275 OA
ATOM     13  H   UNL A   1      31.121  25.408  27.707  1.00  0.00     0.163 HD
BRANCH  11  14
ATOM     14  C   UNL A   1      31.198  22.947  25.458  1.00  0.00     0.102 C 
BRANCH  14  15
ATOM     15  C   UNL A   1      32.289  21.939  25.823  1.00  0.00     0.038 C 
BRANCH  15  16
ATOM     16  C   UNL A   1      33.290  22.223  26.951  1.00  0.00     0.160 C 
BRANCH  16  17
ATOM     17  O   UNL A   1      34.268  23.256  26.873  1.00  0.00    -0.385 OA
ATOM     18  C   UNL A   1      34.901  23.548  25.645  1.00  0.00     0.194 C 
ENDBRANCH  16  17
ENDBRANCH  15  16
ENDBRANCH  14  15
ENDBRANCH  11  14
ENDBRANCH   5  10
ENDBRANCH   2   4
ENDBRANCH   1   2
BRANCH   1  19
ATOM     19  C   UNL A   1      31.744  30.831  26.843  1.00  0.00     0.274 C 
BRANCH  19  20
ATOM     20  C   UNL A   1      31.575  32.350  26.795  1.00  0.00     0.275 C 
BRANCH  20  21
ATOM     21  O   UNL A   1      32.854  33.006  26.692  1.00  0.00    -0.458 OA
BRANCH  21  22
ATOM     22  C   UNL A   1      33.266  33.649  27.807  1.00  0.00     0.338 C 
ATOM     23  O   UNL A   1      32.675  34.532  28.415  1.00  0.00    -0.246 OA
BRANCH  22  24
ATOM     24  C   UNL A   1      34.496  33.024  28.313  1.00  0.00     0.060 A 
ATOM     25  C   UNL A   1      34.404  31.736  28.848  1.00  0.00     0.016 A 
ATOM     26  C   UNL A   1      35.713  33.708  28.319  1.00  0.00     0.016 A 
ATOM     27  C   UNL A   1      35.529  31.117  29.381  1.00  0.00     0.010 A 
ATOM     28  C   UNL A   1      36.842  33.090  28.868  1.00  0.00     0.010 A 
ATOM     29  C   UNL A   1      36.752  31.795  29.409  1.00  0.00    -0.014 A 
BRANCH  29  30
ATOM     30  C   UNL A   1      37.911  31.160  30.079  1.00  0.00     0.031 A 
ATOM     31  C   UNL A   1      38.173  31.439  31.530  1.00  0.00     0.074 A 
ATOM     32  C   UNL A   1      38.687  30.295  29.402  1.00  0.00     0.049 A 
ATOM     33  N   UNL A   1      39.141  31.005  32.296  1.00  0.00    -0.248 NA
ATOM     34  C   UNL A   1      37.214  32.324  32.211  1.00  0.00     0.031 C 
ATOM     35  C   UNL A   1      38.502  29.911  28.003  1.00  0.00     0.029 A 
ATOM     36  N   UNL A   1      39.783  29.577  29.808  1.00  0.00    -0.354 N 
ATOM     37  C   UNL A   1      38.915  31.566  33.545  1.00  0.00     0.074 A 
ATOM     38  C   UNL A   1      37.731  32.393  33.430  1.00  0.00     0.031 C 
ATOM     39  C   UNL A   1      39.453  29.025  27.665  1.00  0.00     0.029 A 
ATOM     40  C   UNL A   1      40.331  28.806  28.813  1.00  0.00     0.049 A 
ATOM     41  H   UNL A   1      40.142  29.611  30.723  1.00  0.00     0.167 HD
ATOM     42  C   UNL A   1      39.625  31.401  34.686  1.00  0.00     0.037 A 
ATOM     43  C   UNL A   1      41.430  28.028  28.821  1.00  0.00     0.037 A 
ATOM     44  C   UNL A   1      40.801  30.579  34.797  1.00  0.00     0.049 A 
ATOM     45  C   UNL A   1      42.230  27.900  30.088  1.00  0.00     0.074 A 
ATOM     46  C   UNL A   1      41.601  30.359  35.906  1.00  0.00     0.029 A 
ATOM     47  N   UNL A   1      41.344  29.835  33.760  1.00  0.00    -0.354 N 
ATOM     48  N   UNL A   1      42.016  28.449  31.260  1.00  0.00    -0.248 NA
ATOM     49  C   UNL A   1      43.425  27.046  30.033  1.00  0.00     0.031 C 
ATOM     50  C   UNL A   1      42.646  29.509  35.529  1.00  0.00     0.029 A 
ATOM     51  C   UNL A   1      42.475  29.165  34.199  1.00  0.00     0.049 A 
ATOM     52  H   UNL A   1      40.979  29.790  32.846  1.00  0.00     0.167 HD
ATOM     53  C   UNL A   1      43.038  27.996  32.084  1.00  0.00     0.074 A 
ATOM     54  C   UNL A   1      43.858  27.110  31.284  1.00  0.00     0.031 C 
ATOM     55  C   UNL A   1      43.280  28.291  33.385  1.00  0.00     0.037 A 
BRANCH  42  56
ATOM     56  C   UNL A   1      39.159  32.151  35.898  1.00  0.00     0.057 A 
ATOM     57  C   UNL A   1      38.261  31.588  36.814  1.00  0.00     0.134 A 
ATOM     58  C   UNL A   1      39.628  33.444  36.163  1.00  0.00     0.134 A 
ATOM     59  F   UNL A   1      37.760  30.361  36.609  1.00  0.00    -0.206 F 
ATOM     60  C   UNL A   1      37.829  32.293  37.939  1.00  0.00     0.040 A 
ATOM     61  C   UNL A   1      39.221  34.150  37.296  1.00  0.00     0.040 A 
ATOM     62  F   UNL A   1      40.491  34.040  35.327  1.00  0.00    -0.206 F 
ATOM     63  C   UNL A   1      38.316  33.576  38.186  1.00  0.00     0.006 A 
ENDBRANCH  42  56
BRANCH  43  64
ATOM     64  C   UNL A   1      41.850  27.323  27.584  1.00  0.00     0.057 A 
ATOM     65  C   UNL A   1      42.619  27.962  26.606  1.00  0.00     0.134 A 
ATOM     66  C   UNL A   1      41.477  25.994  27.346  1.00  0.00     0.134 A 
ATOM     67  F   UNL A   1      42.986  29.243  26.766  1.00  0.00    -0.206 F 
ATOM     68  C   UNL A   1      42.992  27.311  25.430  1.00  0.00     0.040 A 
ATOM     69  C   UNL A   1      41.864  25.323  26.187  1.00  0.00     0.040 A 
ATOM     70  F   UNL A   1      40.739  25.326  28.245  1.00  0.00    -0.206 F 
ATOM     71  C   UNL A   1      42.619  25.985  25.220  1.00  0.00     0.006 A 
ENDBRANCH  43  64
BRANCH  55  72
ATOM     72  C   UNL A   1      44.469  27.633  34.021  1.00  0.00     0.057 A 
ATOM     73  C   UNL A   1      45.729  28.247  34.039  1.00  0.00     0.134 A 
ATOM     74  C   UNL A   1      44.350  26.380  34.635  1.00  0.00     0.134 A 
ATOM     75  F   UNL A   1      45.911  29.441  33.457  1.00  0.00    -0.206 F 
ATOM     76  C   UNL A   1      46.833  27.624  34.623  1.00  0.00     0.040 A 
ATOM     77  C   UNL A   1      45.441  25.759  35.241  1.00  0.00     0.040 A 
ATOM     78  F   UNL A   1      43.169  25.743  34.658  1.00  0.00    -0.206 F 
ATOM     79  C   UNL A   1      46.690  26.378  35.230  1.00  0.00     0.006 A 
ENDBRANCH  55  72
ENDBRANCH  29  30
ENDBRANCH  22  24
ENDBRANCH  21  22
ENDBRANCH  20  21
ENDBRANCH  19  20
ENDBRANCH   1  19
TORSDOF 16
ENDMDL
MODEL 2
REMARK VINA RESULT:      -9.8      1.194      2.062
REMARK SMILES COCCCC(=O)N[C@H]1CC[C@@H](C(=O)OCCOC(=O)c2ccc(-c3c4nc(c(-c5c(F)cccc5F)c5ccc([nH]5)c(-c5c(F)cccc5F)c5nc(c(-c6c(F)cccc6F)c6ccc3[nH]6)C=C5)C=C4)cc2)CC1
REMARK SMILES IDX 15 1 13 2 14 3 12 4 9 5 10 6 76 7 11 8 75 9 8 10 6 11 7 12
REMARK SMILES IDX 5 14 4 15 3 16 2 17 1 18 16 19 17 20 18 21 19 22 20 23 21 24
REMARK SMILES IDX 22 25 74 26 23 27 73 28 24 29 25 30 26 31 67 32 27 33 72 34
REMARK SMILES IDX 66 35 68 36 28 37 71 38 65 39 64 40 29 42 55 43 38 44 54 45
REMARK SMILES IDX 39 46 42 47 53 48 69 49 40 50 41 51 52 53 70 54 43 55 30 56
REMARK SMILES IDX 31 57 36 58 32 59 33 60 35 61 37 62 34 63 56 64 57 65 62 66
REMARK SMILES IDX 58 67 59 68 61 69 63 70 60 71 44 72 45 73 50 74 46 75 47 76
REMARK SMILES IDX 49 77 51 78 48 79
REMARK H PARENT 8 13 68 41 42 52
REMARK Flexibility Score: inf
ROOT
ATOM      1  O   UNL A   1      32.392  30.841  26.816  1.00  0.00    -0.462 OA
ENDROOT
BRANCH   1   2
ATOM      2  C   UNL A   1      31.945  29.563  26.759  1.00  0.00     0.309 C 
ATOM      3  O   UNL A   1      31.437  28.954  27.692  1.00  0.00    -0.252 OA
BRANCH   2   4
ATOM      4  C   UNL A   1      32.196  28.924  25.400  1.00  0.00     0.099 C 
ATOM      5  C   UNL A   1      32.752  26.023  25.454  1.00  0.00     0.082 C 
ATOM      6  C   UNL A   1      31.359  26.569  25.780  1.00  0.00     0.026 C 
ATOM      7  C   UNL A   1      33.856  26.994  25.847  1.00  0.00     0.026 C 
ATOM      8  C   UNL A   1      31.107  27.902  25.090  1.00  0.00     0.017 C 
ATOM      9  C   UNL A   1      33.613  28.363  25.199  1.00  0.00     0.017 C 
BRANCH   5  10
ATOM     10  N   UNL A   1      32.890  24.713  26.053  1.00  0.00    -0.353 N 
ATOM     11  C   UNL A   1      33.513  23.623  25.522  1.00  0.00     0.220 C 
ATOM     12  O   UNL A   1      33.212  22.507  25.944  1.00  0.00    -0.275 OA
ATOM     13  H   UNL A   1      32.490  24.596  26.944  1.00  0.00     0.163 HD
BRANCH  11  14
ATOM     14  C   UNL A   1      34.633  23.807  24.514  1.00  0.00     0.102 C 
BRANCH  14  15
ATOM     15  C   UNL A   1      34.510  23.107  23.160  1.00  0.00     0.038 C 
BRANCH  15  16
ATOM     16  C   UNL A   1      33.364  23.439  22.194  1.00  0.00     0.160 C 
BRANCH  16  17
ATOM     17  O   UNL A   1      33.264  24.686  21.514  1.00  0.00    -0.385 OA
ATOM     18  C   UNL A   1      32.268  25.619  21.878  1.00  0.00     0.194 C 
ENDBRANCH  16  17
ENDBRANCH  15  16
ENDBRANCH  14  15
ENDBRANCH  11  14
ENDBRANCH   5  10
ENDBRANCH   2   4
ENDBRANCH   1   2
BRANCH   1  19
ATOM     19  C   UNL A   1      31.413  31.884  26.665  1.00  0.00     0.274 C 
BRANCH  19  20
ATOM     20  C   UNL A   1      32.064  33.263  26.779  1.00  0.00     0.275 C 
BRANCH  20  21
ATOM     21  O   UNL A   1      32.165  33.671  28.157  1.00  0.00    -0.458 OA
BRANCH  21  22
ATOM     22  C   UNL A   1      33.167  34.535  28.433  1.00  0.00     0.338 C 
ATOM     23  O   UNL A   1      33.103  35.757  28.462  1.00  0.00    -0.246 OA
BRANCH  22  24
ATOM     24  C   UNL A   1      34.358  33.791  28.867  1.00  0.00     0.060 A 
ATOM     25  C   UNL A   1      34.166  32.577  29.531  1.00  0.00     0.016 A 
ATOM     26  C   UNL A   1      35.644  34.299  28.679  1.00  0.00     0.016 A 
ATOM     27  C   UNL A   1      35.257  31.856  30.002  1.00  0.00     0.010 A 
ATOM     28  C   UNL A   1      36.741  33.581  29.165  1.00  0.00     0.010 A 
ATOM     29  C   UNL A   1      36.551  32.360  29.836  1.00  0.00    -0.014 A 
BRANCH  29  30
ATOM     30  C   UNL A   1      37.690  31.630  30.440  1.00  0.00     0.031 A 
ATOM     31  C   UNL A   1      38.042  31.865  31.879  1.00  0.00     0.074 A 
ATOM     32  C   UNL A   1      38.365  30.720  29.715  1.00  0.00     0.049 A 
ATOM     33  N   UNL A   1      39.011  31.348  32.591  1.00  0.00    -0.248 NA
ATOM     34  C   UNL A   1      37.187  32.808  32.618  1.00  0.00     0.031 C 
ATOM     35  C   UNL A   1      38.084  30.373  28.322  1.00  0.00     0.029 A 
ATOM     36  N   UNL A   1      39.423  29.915  30.057  1.00  0.00    -0.354 N 
ATOM     37  C   UNL A   1      38.888  31.904  33.856  1.00  0.00     0.074 A 
ATOM     38  C   UNL A   1      37.765  32.818  33.810  1.00  0.00     0.031 C 
ATOM     39  C   UNL A   1      38.949  29.424  27.926  1.00  0.00     0.029 A 
ATOM     40  C   UNL A   1      39.862  29.123  29.026  1.00  0.00     0.049 A 
ATOM     41  H   UNL A   1      39.827  29.908  30.953  1.00  0.00     0.167 HD
ATOM     42  C   UNL A   1      39.638  31.669  34.959  1.00  0.00     0.037 A 
ATOM     43  C   UNL A   1      40.899  28.264  28.970  1.00  0.00     0.037 A 
ATOM     44  C   UNL A   1      40.753  30.759  35.002  1.00  0.00     0.049 A 
ATOM     45  C   UNL A   1      41.747  28.057  30.195  1.00  0.00     0.074 A 
ATOM     46  C   UNL A   1      41.586  30.462  36.067  1.00  0.00     0.029 A 
ATOM     47  N   UNL A   1      41.188  29.994  33.930  1.00  0.00    -0.354 N 
ATOM     48  N   UNL A   1      41.632  28.601  31.383  1.00  0.00    -0.248 NA
ATOM     49  C   UNL A   1      42.871  27.118  30.071  1.00  0.00     0.031 C 
ATOM     50  C   UNL A   1      42.546  29.543  35.629  1.00  0.00     0.029 A 
ATOM     51  C   UNL A   1      42.285  29.235  34.304  1.00  0.00     0.049 A 
ATOM     52  H   UNL A   1      40.777  29.991  33.035  1.00  0.00     0.167 HD
ATOM     53  C   UNL A   1      42.656  28.061  32.150  1.00  0.00     0.074 A 
ATOM     54  C   UNL A   1      43.367  27.129  31.300  1.00  0.00     0.031 C 
ATOM     55  C   UNL A   1      42.982  28.316  33.441  1.00  0.00     0.037 A 
BRANCH  42  56
ATOM     56  C   UNL A   1      39.289  32.431  36.202  1.00  0.00     0.057 A 
ATOM     57  C   UNL A   1      39.855  33.680  36.486  1.00  0.00     0.134 A 
ATOM     58  C   UNL A   1      38.361  31.919  37.117  1.00  0.00     0.134 A 
ATOM     59  F   UNL A   1      40.764  34.219  35.659  1.00  0.00    -0.206 F 
ATOM     60  C   UNL A   1      39.527  34.383  37.647  1.00  0.00     0.040 A 
ATOM     61  C   UNL A   1      38.007  32.622  38.270  1.00  0.00     0.040 A 
ATOM     62  F   UNL A   1      37.780  30.728  36.905  1.00  0.00    -0.206 F 
ATOM     63  C   UNL A   1      38.594  33.857  38.539  1.00  0.00     0.006 A 
ENDBRANCH  42  56
BRANCH  43  64
ATOM     64  C   UNL A   1      41.204  27.550  27.706  1.00  0.00     0.057 A 
ATOM     65  C   UNL A   1      40.713  26.263  27.459  1.00  0.00     0.134 A 
ATOM     66  C   UNL A   1      42.007  28.136  26.719  1.00  0.00     0.134 A 
ATOM     67  F   UNL A   1      39.959  25.641  28.378  1.00  0.00    -0.206 F 
ATOM     68  C   UNL A   1      41.022  25.578  26.283  1.00  0.00     0.040 A 
ATOM     69  C   UNL A   1      42.301  27.473  25.528  1.00  0.00     0.040 A 
ATOM     70  F   UNL A   1      42.508  29.367  26.897  1.00  0.00    -0.206 F 
ATOM     71  C   UNL A   1      41.813  26.186  25.311  1.00  0.00     0.006 A 
ENDBRANCH  43  64
BRANCH  55  72
ATOM     72  C   UNL A   1      44.147  27.561  34.009  1.00  0.00     0.057 A 
ATOM     73  C   UNL A   1      45.448  28.080  33.976  1.00  0.00     0.134 A 
ATOM     74  C   UNL A   1      43.965  26.309  34.609  1.00  0.00     0.134 A 
ATOM     75  F   UNL A   1      45.691  29.268  33.403  1.00  0.00    -0.206 F 
ATOM     76  C   UNL A   1      46.530  27.368  34.497  1.00  0.00     0.040 A 
ATOM     77  C   UNL A   1      45.034  25.598  35.153  1.00  0.00     0.040 A 
ATOM     78  F   UNL A   1      42.742  25.759  34.680  1.00  0.00    -0.206 F 
ATOM     79  C   UNL A   1      46.323  26.125  35.092  1.00  0.00     0.006 A 
ENDBRANCH  55  72
ENDBRANCH  29  30
ENDBRANCH  22  24
ENDBRANCH  21  22
ENDBRANCH  20  21
ENDBRANCH  19  20
ENDBRANCH   1  19
TORSDOF 16
ENDMDL
MODEL 3
REMARK VINA RESULT:      -9.7      4.002      6.988
REMARK SMILES COCCCC(=O)N[C@H]1CC[C@@H](C(=O)OCCOC(=O)c2ccc(-c3c4nc(c(-c5c(F)cccc5F)c5ccc([nH]5)c(-c5c(F)cccc5F)c5nc(c(-c6c(F)cccc6F)c6ccc3[nH]6)C=C5)C=C4)cc2)CC1
REMARK SMILES IDX 15 1 13 2 14 3 12 4 9 5 10 6 76 7 11 8 75 9 8 10 6 11 7 12
REMARK SMILES IDX 5 14 4 15 3 16 2 17 1 18 16 19 17 20 18 21 19 22 20 23 21 24
REMARK SMILES IDX 22 25 74 26 23 27 73 28 24 29 25 30 26 31 67 32 27 33 72 34
REMARK SMILES IDX 66 35 68 36 28 37 71 38 65 39 64 40 29 42 55 43 38 44 54 45
REMARK SMILES IDX 39 46 42 47 53 48 69 49 40 50 41 51 52 53 70 54 43 55 30 56
REMARK SMILES IDX 31 57 36 58 32 59 33 60 35 61 37 62 34 63 56 64 57 65 62 66
REMARK SMILES IDX 58 67 59 68 61 69 63 70 60 71 44 72 45 73 50 74 46 75 47 76
REMARK SMILES IDX 49 77 51 78 48 79
REMARK H PARENT 8 13 68 41 42 52
REMARK Flexibility Score: inf
ROOT
ATOM      1  O   UNL A   1      34.723  34.267  30.413  1.00  0.00    -0.462 OA
ENDROOT
BRANCH   1   2
ATOM      2  C   UNL A   1      33.703  34.505  29.554  1.00  0.00     0.309 C 
ATOM      3  O   UNL A   1      32.606  34.947  29.872  1.00  0.00    -0.252 OA
BRANCH   2   4
ATOM      4  C   UNL A   1      34.045  34.104  28.125  1.00  0.00     0.099 C 
ATOM      5  C   UNL A   1      33.496  31.283  27.443  1.00  0.00     0.082 C 
ATOM      6  C   UNL A   1      32.355  32.274  27.691  1.00  0.00     0.026 C 
ATOM      7  C   UNL A   1      34.735  31.617  28.260  1.00  0.00     0.026 C 
ATOM      8  C   UNL A   1      32.779  33.701  27.375  1.00  0.00     0.017 C 
ATOM      9  C   UNL A   1      35.170  33.064  27.996  1.00  0.00     0.017 C 
BRANCH   5  10
ATOM     10  N   UNL A   1      33.001  29.940  27.661  1.00  0.00    -0.353 N 
ATOM     11  C   UNL A   1      31.980  29.319  27.006  1.00  0.00     0.220 C 
ATOM     12  O   UNL A   1      31.422  28.366  27.551  1.00  0.00    -0.275 OA
ATOM     13  H   UNL A   1      33.453  29.417  28.360  1.00  0.00     0.163 HD
BRANCH  11  14
ATOM     14  C   UNL A   1      31.625  29.733  25.590  1.00  0.00     0.102 C 
BRANCH  14  15
ATOM     15  C   UNL A   1      31.443  28.636  24.539  1.00  0.00     0.038 C 
BRANCH  15  16
ATOM     16  C   UNL A   1      32.446  27.482  24.411  1.00  0.00     0.160 C 
BRANCH  16  17
ATOM     17  O   UNL A   1      32.056  26.113  24.450  1.00  0.00    -0.385 OA
ATOM     18  C   UNL A   1      30.699  25.762  24.622  1.00  0.00     0.194 C 
ENDBRANCH  16  17
ENDBRANCH  15  16
ENDBRANCH  14  15
ENDBRANCH  11  14
ENDBRANCH   5  10
ENDBRANCH   2   4
ENDBRANCH   1   2
BRANCH   1  19
ATOM     19  C   UNL A   1      34.549  34.703  31.773  1.00  0.00     0.274 C 
BRANCH  19  20
ATOM     20  C   UNL A   1      34.335  33.510  32.705  1.00  0.00     0.275 C 
BRANCH  20  21
ATOM     21  O   UNL A   1      35.148  32.392  32.302  1.00  0.00    -0.458 OA
BRANCH  21  22
ATOM     22  C   UNL A   1      36.256  32.183  33.048  1.00  0.00     0.338 C 
ATOM     23  O   UNL A   1      36.373  32.327  34.258  1.00  0.00    -0.246 OA
BRANCH  22  24
ATOM     24  C   UNL A   1      37.309  31.586  32.213  1.00  0.00     0.060 A 
ATOM     25  C   UNL A   1      38.384  30.968  32.857  1.00  0.00     0.016 A 
ATOM     26  C   UNL A   1      37.277  31.680  30.821  1.00  0.00     0.016 A 
ATOM     27  C   UNL A   1      39.428  30.428  32.115  1.00  0.00     0.010 A 
ATOM     28  C   UNL A   1      38.334  31.149  30.075  1.00  0.00     0.010 A 
ATOM     29  C   UNL A   1      39.419  30.528  30.720  1.00  0.00    -0.014 A 
BRANCH  29  30
ATOM     30  C   UNL A   1      40.591  30.043  29.956  1.00  0.00     0.031 A 
ATOM     31  C   UNL A   1      41.752  30.963  29.716  1.00  0.00     0.074 A 
ATOM     32  C   UNL A   1      40.637  28.767  29.533  1.00  0.00     0.049 A 
ATOM     33  N   UNL A   1      42.861  30.744  29.056  1.00  0.00    -0.248 NA
ATOM     34  C   UNL A   1      41.653  32.311  30.300  1.00  0.00     0.031 C 
ATOM     35  C   UNL A   1      39.590  27.769  29.748  1.00  0.00     0.029 A 
ATOM     36  N   UNL A   1      41.610  28.093  28.839  1.00  0.00    -0.354 N 
ATOM     37  C   UNL A   1      43.587  31.924  29.138  1.00  0.00     0.074 A 
ATOM     38  C   UNL A   1      42.785  32.865  29.891  1.00  0.00     0.031 C 
ATOM     39  C   UNL A   1      39.977  26.606  29.197  1.00  0.00     0.029 A 
ATOM     40  C   UNL A   1      41.281  26.789  28.564  1.00  0.00     0.049 A 
ATOM     41  H   UNL A   1      42.460  28.504  28.565  1.00  0.00     0.167 HD
ATOM     42  C   UNL A   1      44.816  32.195  28.636  1.00  0.00     0.037 A 
ATOM     43  C   UNL A   1      41.948  25.854  27.861  1.00  0.00     0.037 A 
ATOM     44  C   UNL A   1      45.612  31.258  27.888  1.00  0.00     0.049 A 
ATOM     45  C   UNL A   1      43.290  26.196  27.273  1.00  0.00     0.074 A 
ATOM     46  C   UNL A   1      46.863  31.441  27.325  1.00  0.00     0.029 A 
ATOM     47  N   UNL A   1      45.234  29.954  27.604  1.00  0.00    -0.354 N 
ATOM     48  N   UNL A   1      43.961  27.320  27.342  1.00  0.00    -0.248 NA
ATOM     49  C   UNL A   1      43.965  25.138  26.507  1.00  0.00     0.031 C 
ATOM     50  C   UNL A   1      47.226  30.259  26.670  1.00  0.00     0.029 A 
ATOM     51  C   UNL A   1      46.221  29.326  26.862  1.00  0.00     0.049 A 
ATOM     52  H   UNL A   1      44.388  29.537  27.887  1.00  0.00     0.167 HD
ATOM     53  C   UNL A   1      45.142  27.103  26.644  1.00  0.00     0.074 A 
ATOM     54  C   UNL A   1      45.105  25.731  26.179  1.00  0.00     0.031 C 
ATOM     55  C   UNL A   1      46.163  27.961  26.405  1.00  0.00     0.037 A 
BRANCH  42  56
ATOM     56  C   UNL A   1      45.359  33.574  28.862  1.00  0.00     0.057 A 
ATOM     57  C   UNL A   1      46.170  33.878  29.963  1.00  0.00     0.134 A 
ATOM     58  C   UNL A   1      45.083  34.608  27.957  1.00  0.00     0.134 A 
ATOM     59  F   UNL A   1      46.456  32.938  30.876  1.00  0.00    -0.206 F 
ATOM     60  C   UNL A   1      46.670  35.166  30.167  1.00  0.00     0.040 A 
ATOM     61  C   UNL A   1      45.596  35.893  28.138  1.00  0.00     0.040 A 
ATOM     62  F   UNL A   1      44.314  34.384  26.881  1.00  0.00    -0.206 F 
ATOM     63  C   UNL A   1      46.388  36.176  29.249  1.00  0.00     0.006 A 
ENDBRANCH  42  56
BRANCH  43  64
ATOM     64  C   UNL A   1      41.351  24.510  27.660  1.00  0.00     0.057 A 
ATOM     65  C   UNL A   1      40.310  24.305  26.748  1.00  0.00     0.134 A 
ATOM     66  C   UNL A   1      41.802  23.401  28.386  1.00  0.00     0.134 A 
ATOM     67  F   UNL A   1      39.819  25.334  26.041  1.00  0.00    -0.206 F 
ATOM     68  C   UNL A   1      39.728  23.048  26.577  1.00  0.00     0.040 A 
ATOM     69  C   UNL A   1      41.247  22.135  28.206  1.00  0.00     0.040 A 
ATOM     70  F   UNL A   1      42.797  23.533  29.276  1.00  0.00    -0.206 F 
ATOM     71  C   UNL A   1      40.200  21.957  27.303  1.00  0.00     0.006 A 
ENDBRANCH  43  64
BRANCH  55  72
ATOM     72  C   UNL A   1      47.327  27.430  25.620  1.00  0.00     0.057 A 
ATOM     73  C   UNL A   1      48.370  26.724  26.235  1.00  0.00     0.134 A 
ATOM     74  C   UNL A   1      47.398  27.615  24.234  1.00  0.00     0.134 A 
ATOM     75  F   UNL A   1      48.367  26.527  27.561  1.00  0.00    -0.206 F 
ATOM     76  C   UNL A   1      49.455  26.244  25.501  1.00  0.00     0.040 A 
ATOM     77  C   UNL A   1      48.465  27.118  23.486  1.00  0.00     0.040 A 
ATOM     78  F   UNL A   1      46.428  28.275  23.584  1.00  0.00    -0.206 F 
ATOM     79  C   UNL A   1      49.502  26.436  24.121  1.00  0.00     0.006 A 
ENDBRANCH  55  72
ENDBRANCH  29  30
ENDBRANCH  22  24
ENDBRANCH  21  22
ENDBRANCH  20  21
ENDBRANCH  19  20
ENDBRANCH   1  19
TORSDOF 16
ENDMDL
